#------------------------------------------------------------------------------
#$Date: 2017-07-25 13:19:44 +0300 (Tue, 25 Jul 2017) $
#$Revision: 199234 $
#$URL: file:///home/coder/svn-repositories/cod/cif/1/54/66/1546640.cif $
#------------------------------------------------------------------------------
#
# This file is available in the Crystallography Open Database (COD),
# http://www.crystallography.net/. The original data for this entry
# were provided by IUCr Journals, http://journals.iucr.org/.
#
# The file may be used within the scientific community so long as
# proper attribution is given to the journal article from which the
# data were obtained.
#
data_1546640
loop_
_publ_author_name
'Ziki, Eric'
'Sosso, Siaka'
'Ciss\'e, Lamine'
'Bany, Guy Euloge'
'Djand\'e, Abdoulaye'
'Kakou-Yao, Rita'
_publ_section_title
;
 2-Oxo-2<i>H</i>-chromen-3-yl 4-fluorobenzoate
;
_journal_coeditor_code           HB7657
_journal_issue                   4
_journal_name_full               IUCrData
_journal_page_first              x170550
_journal_paper_doi               10.1107/S2414314617005508
_journal_volume                  2
_journal_year                    2017
_chemical_formula_iupac          'C16 H9 F O4'
_chemical_formula_moiety         'C16 H9 F O4'
_chemical_formula_sum            'C16 H9 F O4'
_chemical_formula_weight         284.23
_chemical_melting_point          452
_chemical_name_systematic
;
2-Oxo-2<i>H</i>-chromen-3-yl 4-fluorobenzoate
;
_space_group_crystal_system      triclinic
_space_group_IT_number           2
_space_group_name_Hall           '-P 1'
_space_group_name_H-M_alt        'P -1'
_symmetry_space_group_name_Hall  '-P 1'
_symmetry_space_group_name_H-M   'P -1'
_atom_sites_solution_hydrogens   geom
_atom_sites_solution_primary     direct
_atom_sites_solution_secondary   difmap
_audit_creation_method           SHELXL-2013
_cell_angle_alpha                96.943(2)
_cell_angle_beta                 90.862(2)
_cell_angle_gamma                106.139(2)
_cell_formula_units_Z            2
_cell_length_a                   6.8116(2)
_cell_length_b                   7.2402(2)
_cell_length_c                   13.4826(3)
_cell_measurement_reflns_used    7530
_cell_measurement_temperature    293(2)
_cell_measurement_theta_max      69.43
_cell_measurement_theta_min      6.604
_cell_volume                     633.21(3)
_computing_cell_refinement
;
CrysAlis PRO (Agilent, 2014)
;
_computing_data_collection
;
CrysAlis PRO (Agilent, 2014)
;
_computing_data_reduction
;
CrysAlis PRO (Agilent, 2014)
;
_computing_molecular_graphics
;
PLATON (Spek, 2009)
;
_computing_publication_material
;
publCIF (Westrip, 2010)
;
_computing_structure_refinement
;
SHELXL2013 (Sheldrick, 2015)
;
_computing_structure_solution
;
SHELXS97 (Sheldrick, 2008)
;
_diffrn_ambient_temperature      293(2)
_diffrn_detector_area_resol_mean 5.3048
_diffrn_measured_fraction_theta_full 0.997
_diffrn_measured_fraction_theta_max 0.988
_diffrn_measurement_device_type
'Agilent SuperNova, Dual, Cu at zero, AtlasS2'
_diffrn_measurement_method       '\w scans'
_diffrn_radiation_monochromator  Graphite
_diffrn_radiation_type           CuK\a
_diffrn_radiation_wavelength     1.54184
_diffrn_reflns_av_R_equivalents  0.0166
_diffrn_reflns_limit_h_max       8
_diffrn_reflns_limit_h_min       -8
_diffrn_reflns_limit_k_max       8
_diffrn_reflns_limit_k_min       -8
_diffrn_reflns_limit_l_max       16
_diffrn_reflns_limit_l_min       -16
_diffrn_reflns_number            12676
_diffrn_reflns_theta_full        67.684
_diffrn_reflns_theta_max         69.516
_diffrn_reflns_theta_min         6.419
_exptl_absorpt_coefficient_mu    0.998
_exptl_absorpt_correction_T_max  1.0000
_exptl_absorpt_correction_T_min  0.78791
_exptl_absorpt_correction_type   multi-scan
_exptl_absorpt_process_details
;
(CrysAlis PRO; Agilent, 2014)
;
_exptl_crystal_colour            colourless
_exptl_crystal_density_diffrn    1.491
_exptl_crystal_density_method    'not measured'
_exptl_crystal_description       prism
_exptl_crystal_F_000             292
_exptl_crystal_size_max          0.360
_exptl_crystal_size_mid          0.260
_exptl_crystal_size_min          0.160
_refine_diff_density_max         0.152
_refine_diff_density_min         -0.189
_refine_ls_extinction_coef       0.0047(8)
_refine_ls_extinction_expression Fc^*^=kFc[1+0.001xFc^2^\l^3^/sin(2\q)]^-1/4^
_refine_ls_extinction_method
;
SHELXL2013 (Sheldrick, 2015)
;
_refine_ls_goodness_of_fit_ref   1.092
_refine_ls_hydrogen_treatment    constr
_refine_ls_matrix_type           full
_refine_ls_number_parameters     191
_refine_ls_number_reflns         2358
_refine_ls_number_restraints     0
_refine_ls_restrained_S_all      1.092
_refine_ls_R_factor_all          0.0394
_refine_ls_R_factor_gt           0.0355
_refine_ls_shift/su_max          0.001
_refine_ls_shift/su_mean         0.000
_refine_ls_structure_factor_coef Fsqd
_refine_ls_weighting_details
'w=1/[\s^2^(Fo^2^)+(0.0435P)^2^+0.1315P] where P=(Fo^2^+2Fc^2^)/3'
_refine_ls_weighting_scheme      calc
_refine_ls_wR_factor_gt          0.0963
_refine_ls_wR_factor_ref         0.0998
_reflns_number_gt                2112
_reflns_number_total             2358
_reflns_threshold_expression     'I > 2\s(I)'
_cod_data_source_file            hb7657sup1.cif
_cod_data_source_block           I
_cod_database_code               1546640
_shelx_space_group_comment
;
The symmetry employed for this shelxl refinement is uniquely defined
by the following loop, which should always be used as a source of
symmetry information in preference to the above space-group names.
They are only intended as comments.
;
_shelx_estimated_absorpt_t_min   0.715
_shelx_estimated_absorpt_t_max   0.857
_shelx_hkl_file
;
   0   0  -2 80606.9 270.519  43
   0   0  -2 80705.7 270.681  41
   0   0  -2 80602.5 342.910   3
   0   0  -2 80755.4 270.867  42
   0   0   2 79704.2 247.784   5
   0   0  -3 43.2927 8.89553  41
   0   0   3 45.0901 10.1265   2
   0   0  -3 48.9272 13.2198   3
   0   0  -3 42.2551 9.81887  44
   0   0  -3 44.3264 8.99611  43
   0   0  -3 32.7248 7.63662  42
   0   0   3 42.2945 7.99260   5
   0   0  -4 40383.6 279.742  42
   0   0   4 40498.7 255.643   5
   0   0  -4 41215.0 281.551  43
   0   0   4 40636.6 352.510  46
   0   0  -4 42060.2 286.832  10
   0   0  -4 40767.9 359.216   3
   0   0  -4 39790.3 307.599  44
   0   0   4 40168.1 306.778   2
   0   0  -4 40867.6 282.409  41
   0   0   4 40856.3 371.903   6
   0   0   4 39532.1 316.739  43
   0   0  -5 5139.61 114.464  42
   0   0  -5 5261.23 114.701  10
   0   0  -5 5269.01 114.854  43
   0   0  -5 5256.85 132.781  14
   0   0  -5 5330.64 135.744  19
   0   0   5 5287.58 127.040   2
   0   0  -5 5358.36 109.772  15
   0   0   5 5059.33 141.175  46
   0   0   5 5091.78 149.953   6
   0   0  -5 5236.75 125.026  44
   0   0   5 5104.18 102.148   5
   0   0  -5 5095.51 113.805  41
   0   0  -5 5240.78 148.143   3
   0   0   5 5161.73 128.971  43
   0   0   6 114163. 797.602   6
   0   0  -6 114624. 642.659  44
   0   0  -6 119922. 710.783  14
   0   0   6 114143. 653.649  43
   0   0   6 114663. 739.071  46
   0   0   6 117926. 680.725   2
   0   0  -6 118268. 605.296  42
   0   0  -6 115221. 780.830   3
   0   0  -6 120280. 704.951  19
   0   0   7 40646.2 487.992  46
   0   0  -7 41064.7 513.500   3
   0   0   7 40744.2 526.518   6
   0   0  -7 41637.9 464.353  19
   0   0   7 41957.5 454.276   2
   0   0  -7 40945.9 463.154  14
   0   0  -7 39949.6 411.274  44
   0   0  -8 1449.55 107.491   3
   0   0   8 1428.60 92.3349   2
   0   0  -8 1377.31 92.6948  19
   0   0  -8 1321.77 93.9952  14
   0   0   8 1445.41 100.778  46
   0   0  -9 3007.88 151.740  14
   0   0  -9 3182.35 153.802  19
   0   0   9 3114.50 150.098   2
   0   0   9 3086.87 157.989  46
   0   0  10 6966.59 278.173  25
   0   0  10 7200.84 270.465  40
   0   0  10 7253.18 250.029   2
   0   0 -10 6795.01 246.313  14
   0   0  10 7242.67 280.965  35
   0   0 -10 7029.76 263.212  11
   0   0  10 6678.89 244.747  30
   0   0  10 6992.48 271.873  31
   0   0  10 6871.89 250.358  46
   0   0 -10 7211.29 249.083  19
   0   0  11 12918.8 385.971  31
   0   0  11 12929.2 381.010  40
   0   0  11 13058.3 399.234  25
   0   0  11 13378.5 401.190  35
   0   0 -11 12977.3 355.385  19
   0   0 -11 12631.2 375.893  11
   0   0 -12 22369.9 487.108  19
   0   0  12 22147.8 532.111  25
   0   0  12 22312.5 527.596  35
   0   0  12 22452.8 517.537  31
   0   0 -12 22158.4 517.555  11
   0   0  12 22898.5 519.979  40
   0   0  13 220.444 60.2847  25
   0   0  13 144.474 47.4405  40
   0   0  13 140.105 52.4126  35
   0   0  13 157.600 54.7790  31
   0   0  14 905.408 100.740  40
   0   0  14 784.174 88.8135  31
   0   0 -14 1027.12 98.2072  38
   0   0  14 933.214 100.722  35
   0   0 -15 477.059 59.3684  38
   0   0  15 351.482 55.7813  35
   0   0  15 393.826 59.8342  40
   0   0  16 114.027 31.8506  40
   0   0 -16 95.3944 28.9024  28
   0   0  16 77.0564 25.8596  35
   0  -1  16 337.107 47.6025  35
   0  -1  16 334.383 48.6681  40
   0  -1  15 3081.76 163.806  40
   0  -1  15 3127.11 167.448  35
   0  -1  14 6362.16 263.057  35
   0  -1  14 5976.45 248.593  40
   0  -1  13 2291.85 161.864  40
   0  -1  13 1840.83 154.082  35
   0  -1  13 1961.35 146.207  31
   0   1 -13 1802.91 136.401  19
   0  -1  12 1800.33 144.912  40
   0  -1  12 1796.87 153.253  35
   0  -1  12 1966.12 141.672  30
   0   1 -12 2001.86 158.166  11
   0   1 -12 2003.50 143.807  14
   0  -1  12 1872.36 146.584  31
   0   1 -12 2191.61 147.011  19
   0  -1  12 1849.23 152.789  25
   0   1 -11 7967.25 300.507  11
   0  -1  11 7924.93 294.688  31
   0   1 -11 7769.90 270.175  14
   0  -1  11 7790.16 308.458  35
   0  -1  11 7822.70 274.814  30
   0  -1  11 8293.31 298.697  40
   0  -1  11 7944.13 309.918  25
   0   1 -11 8019.71 267.921  19
   0  -1  10 2951.64 169.458  40
   0   1 -10 2851.47 149.963  19
   0   1 -10 2860.43 153.009  14
   0  -1  10 3085.10 166.750  30
   0   1 -10 2674.67 156.540   4
   0  -1  10 2987.76 182.039  35
   0  -1  10 2969.91 180.527  25
   0  -1  10 2998.03 159.130   2
   0   1  -9 35275.8 486.066  19
   0   1  -9 35192.6 496.686  14
   0  -1   8 4499.28 163.980   2
   0   1  -8 4394.54 161.595  14
   0  -1   8 4108.89 195.077   6
   0  -1   8 4346.62 142.617   5
   0   1  -8 4431.52 158.937  19
   0   1  -8 4320.75 169.493  44
   0  -1   7 9737.23 272.863   6
   0  -1   7 10303.2 224.881   2
   0  -1   7 10258.1 204.284   5
   0   1  -7 10590.5 202.959  10
   0   1  -7 10085.9 233.923   3
   0   1  -7 10129.9 241.574  44
   0   1  -6 62914.0 560.652  44
   0   1  -6 64223.1 520.215   3
   0  -1   6 62053.5 487.960   2
   0  -1   6 61924.3 625.024   6
   0   1  -6 64645.1 464.820  10
   0   1  -6 64170.1 428.394  15
   0  -1   6 63846.6 469.651   5
   0  -1   6 64384.6 471.742   7
   0  -1   5 137842. 635.358   5
   0  -1   5 143862. 856.752   6
   0  -1   5 143147. 646.750   7
   0   1  -5 143443. 591.274  15
   0  -1   5 136211. 640.276   2
   0   1  -5 145067. 685.014   3
   0   1  -4 7774.69 136.383   3
   0  -1   4 7217.19 127.783   2
   0  -1   4 7356.74 133.944   5
   0  -1   4 7744.87 135.895   7
   0   1  -3 50069.6 293.657   3
   0  -1   3 48730.5 288.675   2
   0   1  -2 296.985 19.4022   4
   0  -1   2 498.997 24.2984   2
   0  -1   1 9136.89 78.3802  42
   0  -1   1 9124.90 78.6432  41
   0  -1   1 9118.68 78.2863  43
   0   1  -1 9232.66 79.0791   4
   0  -1   1 9019.83 110.834   6
   0   1   0 101348. 259.440   4
   0  -1   0 100594. 295.492   5
   0  -1  -1 40759.4 204.416   1
   0   1   1 40268.9 219.603   2
   0  -1  -1 40322.8 150.849   5
   0  -1  -1 39889.9 293.477   3
   0  -1  -2 87121.7 503.037   3
   0  -1  -2 86353.6 273.637   1
   0  -1  -3 69.9584 14.5583  42
   0   1   3 76.1976 15.8480  16
   0  -1  -3 67.6151 15.0800  41
   0  -1  -3 77.9850 15.6115  43
   0   1   3 85.3178 15.3135   2
   0  -1  -3 113.509 10.5298   1
   0  -1  -3 66.4782 18.8575   3
   0  -1  -4 10635.6 186.349  43
   0  -1  -4 10051.6 185.077  14
   0   1   4 10632.6 174.317   2
   0   1   4 10199.3 203.424  46
   0  -1  -4 10589.9 169.268  15
   0  -1  -4 10635.2 187.005  42
   0  -1  -4 10347.2 189.785  19
   0   1   4 11013.3 203.647  16
   0  -1  -4 10531.2 221.237   3
   0   1   4 10128.3 210.099  43
   0  -1  -4 10565.8 185.977  41
   0   1   5 463.875 41.1601   2
   0  -1  -5 742.591 55.2641  43
   0  -1  -5 721.269 53.8964  42
   0   1   5 419.811 46.4516  46
   0  -1  -5 459.042 53.0979   3
   0  -1  -5 710.648 54.2364  41
   0  -1  -5 501.552 46.8931  14
   0   1   5 655.672 60.4517  43
   0  -1  -5 474.530 45.2083  19
   0  -1  -5 570.875 43.2242  15
   0   1   6 155335. 948.031  46
   0  -1  -6 160268. 869.478  42
   0  -1  -6 159320. 903.746  14
   0   1   6 158596. 964.971  43
   0  -1  -6 159177. 913.671  19
   0   1   6 162605. 841.477   2
   0  -1  -6 160736. 872.396  41
   0  -1  -6 157573. 1039.54   3
   0  -1  -7 114.849 29.8731  19
   0  -1  -7 76.9899 25.9990  14
   0  -1  -7 72.5529 23.8872  11
   0  -1  -7 69.9610 26.8245   3
   0   1   7 78.4795 23.5226   2
   0   1   7 96.0449 29.2635  46
   0   1   8 108.768 32.6853  43
   0  -1  -8 87.0305 27.5166  11
   0  -1  -8 181.231 39.0456  19
   0  -1  -8 87.5777 35.5148   3
   0   1   8 108.381 33.8130  46
   0  -1  -9 2373.53 165.654   3
   0  -1  -9 2131.78 137.386  11
   0   1   9 2217.41 142.923  46
   0   1   9 2438.35 139.500   2
   0  -1  -9 2674.08 152.415  19
   0   1  10 41001.5 672.706  35
   0   1  10 41144.8 683.414  31
   0  -1 -10 38985.8 628.429  11
   0  -1 -10 41204.2 640.298  19
   0   1  10 40638.8 636.590  46
   0   1  10 40314.2 653.408  40
   0   1  10 41064.7 687.636  25
   0   1  11 15105.8 425.213  35
   0   1  11 14504.4 408.708  40
   0   1  11 15008.8 425.538  31
   0  -1 -11 15153.7 408.477  19
   0   1  11 14585.8 425.663  25
   0   1  11 14940.5 400.127  46
   0  -1 -11 14405.6 401.557  11
   0  -1 -12 7917.19 300.021  19
   0   1  12 8305.95 320.300  35
   0  -1 -12 8161.04 298.755  38
   0   1  12 8128.64 314.537  31
   0   1  12 8092.67 320.016  25
   0   1  12 7917.21 306.718  40
   0   1  13 11898.5 364.660  35
   0  -1 -13 11532.1 343.829  38
   0   1  13 11418.2 358.775  40
   0   1  13 11826.8 365.743  31
   0   1  13 11842.8 374.981  25
   0  -1 -14 172.971 42.6501  38
   0   1  14 101.484 35.6673  31
   0   1  14 175.765 48.2872  40
   0   1  14 166.258 44.8727  35
   0  -1 -15 472.203 61.5464  28
   0   1  15 523.398 64.6628  40
   0   1  15 414.052 56.5678  35
   0  -1 -15 505.359 60.1260  38
   0   1  15 503.254 60.8151  31
   0  -2  16 331.668 46.4711  35
   0  -2  16 486.232 52.4768  40
   0  -2  15 2549.45 149.018  35
   0  -2  15 2385.00 135.550  40
   0  -2  14 410.574 71.7694  35
   0  -2  14 267.896 52.4594  40
   0  -2  13 92.0482 33.0755  30
   0  -2  13 145.377 52.0825  35
   0  -2  13 87.0257 35.5275  40
   0   2 -12-13.1486 18.3819  14
   0  -2  12 14.3334 19.3712  30
   0   2 -12 35.6000 31.3789  11
   0  -2  12-20.1694 34.2011  40
   0  -2  12-7.81539 39.9012  35
   0   2 -11 850.190 99.6924  11
   0  -2  11 963.039 100.316  40
   0   2 -11 1027.49 94.3217  19
   0   2 -11 997.040 97.5349  14
   0  -2  11 891.249 108.876  35
   0  -2  11 1104.32 104.868  30
   0  -2  10 2526.47 156.820  40
   0   2 -10 2324.85 155.530  44
   0  -2  10 2650.90 155.543  30
   0   2 -10 2367.85 138.848  14
   0  -2  10 2255.04 163.012  35
   0   2 -10 2527.46 139.630  19
   0   2  -9 59769.3 631.100  19
   0  -2   9 54194.4 800.563   6
   0  -2   9 55790.1 603.213   5
   0   2  -9 55613.0 723.540  44
   0   2  -9 59848.1 648.946  14
   0   2  -8 14836.5 282.255  10
   0  -2   8 13727.8 373.798   6
   0  -2   8 14526.2 289.096   7
   0   2  -8 14259.8 346.123  44
   0  -2   8 13731.4 284.037   5
   0  -2   7 10480.8 299.153   6
   0  -2   7 9982.17 227.906   5
   0   2  -7 9635.67 221.142   4
   0  -2   7 10924.0 236.321   2
   0   2  -7 10767.7 284.966  44
   0  -2   7 10428.2 229.611   7
   0   2  -6 5796.12 153.587   4
   0  -2   6 6239.38 160.116   2
   0  -2   6 5997.40 210.016   6
   0  -2   6 6046.76 164.111   7
   0  -2   6 5928.62 163.972   5
   0   2  -5 2468.47 89.9323   3
   0   2  -5 2267.33 85.8963   4
   0  -2   5 2497.85 97.2761   7
   0  -2   5 2225.31 117.298   6
   0  -2   5 2267.59 94.5365   5
   0  -2   5 2425.92 90.2365   2
   0   2  -4 8426.49 145.547   4
   0  -2   4 8807.05 154.271   2
   0  -2   4 8783.17 207.949   6
   0  -2   4 8510.97 169.091   7
   0  -2   4 8482.13 168.939   5
   0  -2   3 649157. 1601.25   6
   0  -2   3 659000. 1383.94   7
   0   2  -3 656931. 1090.66   4
   0  -2   3 654210. 1389.99   5
   0   2  -3 652838. 1679.15   8
   0   2  -2 967977. 1116.48   4
   0  -2   2 974844. 1146.52  42
   0   2  -2 990100. 1933.45  46
   0   2  -2 945326. 1862.70   8
   0   2  -2 944975. 1939.81   9
   0  -2   1 555820. 1082.67   5
   0   2  -1 556002. 1458.30  46
   0  -2   1 550651. 1031.07  43
   0   2  -1 551474. 1182.47  43
   0  -2   1 553309. 1204.60   7
   0   2  -1 559779. 1436.60   9
   0  -2   1 546922. 1071.04   6
   0  -2   1 550046. 1032.23  41
   0  -2   1 550278. 1027.19  42
   0   2  -1 555940. 761.145   4
   0  -2   0 26452.8 303.799   3
   0   2   0 26406.0 316.238  46
   0  -2   0 25987.7 257.098   7
   0  -2   0 27170.7 256.637  43
   0   2   0 26078.8 292.934  43
   0   2   0 26861.2 317.187  45
   0  -2   0 28603.9 191.849   6
   0  -2   0 26884.7 257.380  41
   0  -2   0 26296.7 213.613   5
   0  -2   0 26894.5 255.818  42
   0   2   0 27757.7 190.256   4
   0  -2  -1 46152.4 252.464   5
   0  -2  -1 45964.1 368.940  41
   0   2   1 45536.8 428.589  46
   0  -2  -1 46211.2 386.721  15
   0  -2  -1 46665.9 370.399  42
   0   2   1 44813.6 303.030   2
   0  -2  -1 46923.5 370.891  43
   0  -2  -1 44183.3 429.497   3
   0  -2  -2 13061.3 213.425  15
   0   2   2 12571.1 234.117  46
   0   2   2 12889.2 179.099   2
   0  -2  -2 12363.9 107.737   5
   0  -2  -2 12823.2 213.080  42
   0  -2  -2 12704.3 213.178  41
   0  -2  -2 12538.9 210.399  19
   0  -2  -2 12688.8 246.319   3
   0  -2  -2 12741.5 211.999  43
   0  -2  -3 8306.59 148.342  11
   0  -2  -3 7724.16 181.056  19
   0   2   3 8212.90 158.602   2
   0  -2  -3 8017.11 183.675  41
   0   2   3 8096.18 211.357  43
   0   2   3 8379.74 169.172  16
   0  -2  -3 8021.91 176.913  15
   0  -2  -3 8193.91 183.932  42
   0  -2  -3 8088.83 182.485  43
   0   2   3 7990.70 199.974  46
   0  -2  -3 8255.95 216.740   3
   0  -2  -4 289.004 36.0376  20
   0  -2  -4 180.115 39.0515   3
   0   2   4 172.896 32.4376  46
   0  -2  -4 176.823 29.9975  41
   0  -2  -4 246.171 34.3857  15
   0   2   4 167.995 28.4618  16
   0  -2  -4 188.433 31.4497  43
   0   2   4 172.647 34.7216  43
   0   2   4 206.421 28.3959   2
   0  -2  -4 194.527 31.2969  42
   0   2   4 192.731 34.3737  21
   0  -2  -4 190.094 31.9651  19
   0  -2  -4 208.952 28.7633  11
   0  -2  -5 177242. 1170.71   3
   0  -2  -5 167827. 991.904  19
   0  -2  -5 173809. 980.311  42
   0   2   5 168839. 1021.91  21
   0   2   5 173271. 884.357   2
   0   2   5 171979. 1043.82  46
   0  -2  -5 171664. 976.549  43
   0   2   5 168014. 1107.99  43
   0  -2  -5 168214. 867.546  11
   0  -2  -5 172957. 982.613  41
   0  -2  -5 172867. 902.634  15
   0   2   6 8586.47 250.373  46
   0   2   6 7920.25 228.944  21
   0  -2  -6 8243.10 237.018  19
   0   2   6 8522.79 214.539   2
   0  -2  -6 8344.75 230.272  42
   0  -2  -6 8375.13 278.901   3
   0   2   6 8082.65 258.760  43
   0  -2  -6 8146.61 213.908  11
   0  -2  -7 31924.2 485.385  42
   0   2   7 33528.1 460.491   2
   0  -2  -7 32444.9 587.195   3
   0   2   7 31102.2 536.232  43
   0   2   7 31216.9 465.464  21
   0   2   7 31785.0 521.770  46
   0  -2  -7 31899.4 509.414  19
   0  -2  -7 31472.3 465.846  11
   0  -2  -8 5889.48 268.804   3
   0   2   8 6366.14 217.928   2
   0   2   8 5904.48 243.306  43
   0  -2  -8 5905.71 234.412  19
   0  -2  -8 6135.73 227.447  42
   0  -2  -8 5525.48 210.869  11
   0   2   8 5828.20 235.890  46
   0   2   9 162.247 41.5113  40
   0  -2  -9 165.699 39.0982  11
   0  -2  -9 163.633 41.9189  19
   0   2   9 201.415 51.1950  25
   0   2   9 268.795 56.1965  46
   0  -2  -9 210.657 50.0195  38
   0   2   9 189.698 44.8992  31
   0  -2  -9 276.120 68.1892   3
   0   2   9 168.168 47.5885  35
   0   2  10 13386.5 403.350  31
   0   2  10 12339.0 368.542  40
   0   2  10 12506.0 381.246  35
   0  -2 -10 13069.3 387.992  19
   0   2  10 12997.3 382.527  46
   0  -2 -10 12716.0 379.601  38
   0   2  10 13122.3 394.438  25
   0  -2 -11 1009.64 112.732  19
   0  -2 -11 988.177 109.158  38
   0   2  11 1012.40 113.034  31
   0   2  11 1072.81 115.609  35
   0   2  11 1129.93 115.200  46
   0   2  11 1027.57 114.962  25
   0   2  11 1000.44 108.488  40
   0   2  12 55.5305 40.8093  35
   0   2  12 57.1067 33.0562  40
   0   2  12 28.8631 23.1475  25
   0  -2 -12 54.5369 35.8351  38
   0   2  12 27.4820 32.7670  31
   0   2  13 22.6380 20.7686  40
   0   2  13-25.3534 21.8869  25
   0  -2 -13-7.74349 25.9387  38
   0   2  13 4.03422 22.3829  31
   0   2  13-0.44698 24.7115  35
   0  -2 -14 1.94879 19.3418  38
   0   2  14 33.3630 24.8628  40
   0   2  14 29.4394 22.7834  31
   0  -2 -14 21.1884 24.9406  28
   0   2  14 12.5950 23.0581  35
   0  -2 -15 283.341 41.6211  38
   0   2  15 285.517 40.8218  40
   0  -2 -15 232.871 38.7951  28
   0   2  15 317.228 43.9533  31
   0  -3  15 193.971 40.3039  35
   0  -3  15 182.641 38.5660  40
   0  -3  14 28.7867 29.3453  35
   0  -3  14-30.7646 19.9960  40
   0  -3  13 3202.83 172.366  40
   0  -3  13 2828.15 184.279  35
   0  -3  13 2919.62 159.992  30
   0  -3  12 3960.56 227.818  35
   0  -3  12 4134.28 203.498  40
   0  -3  12 4387.34 205.583  30
   0  -3  11 5442.30 230.349  30
   0  -3  11 5136.11 223.309  40
   0  -3  11 4708.30 247.655  35
   0   3 -11 5063.23 237.868  11
   0   3 -10 9351.43 278.066  14
   0  -3  10 8760.66 286.201  30
   0  -3  10 8904.67 285.311  40
   0   3  -9-9.18498 21.4732  45
   0  -3   9 37.0864 24.5005   7
   0   3  -9 44.5493 25.9284  44
   0  -3   9 18.5743 24.4731   6
   0  -3   9 18.6329 28.2531  35
   0  -3   9-36.7581 43.3588  26
   0  -3   9 34.5858 20.4293   5
   0   3  -9 107.020 51.0620   8
   0   3  -8 4716.16 226.078  44
   0  -3   8 4528.87 229.204   6
   0  -3   8 4735.01 182.237   7
   0   3  -8 3990.45 219.767   8
   0  -3   8 4457.71 179.121   5
   0  -3   7 1484.88 97.2708   7
   0   3  -7 1211.69 114.009   8
   0  -3   7 1261.08 113.301   6
   0  -3   7 1352.42 93.4965   5
   0   3  -6 3614.69 181.713   8
   0  -3   6 3959.72 183.806   6
   0  -3   6 3997.07 149.768   7
   0   3  -6 3710.54 174.437   9
   0  -3   5 8398.77 245.230   6
   0   3  -5 8016.17 250.151   8
   0  -3   5 8547.06 208.565   5
   0   3  -5 8043.77 243.805   9
   0  -3   4 34323.6 394.424   5
   0   3  -4 31882.1 454.748  46
   0   3  -4 35539.4 485.362   8
   0  -3   4 34148.5 452.133   6
   0   3  -4 31357.7 467.152   9
   0   3  -4 33578.8 457.302  21
   0  -3   4 35467.3 405.678   7
   0   3  -4 33114.3 494.285  45
   0   3  -4 31728.1 474.693  12
   0   3  -3 58222.6 582.067   8
   0  -3   3 58599.6 481.787  19
   0   3  -3 56056.5 614.641  12
   0   3  -3 57615.1 599.565  21
   0   3  -3 57717.2 631.119  45
   0  -3   3 60036.8 541.953   6
   0  -3   3 58382.6 481.776   5
   0   3  -3 53958.7 595.228   9
   0   3  -3 55625.1 588.181  46
   0  -3   3 58530.6 500.372   7
   0   3  -2 36397.3 485.644  12
   0  -3   2 37540.5 387.860   7
   0  -3   2 36480.4 376.115   6
   0   3  -2 33998.6 452.500  46
   0  -3   2 35012.0 374.457  19
   0  -3   2 35979.2 309.921  42
   0   3  -2 34418.6 478.470  45
   0  -3   2 36566.2 361.179   5
   0   3  -2 36449.7 344.291  43
   0   3  -2 35444.1 472.189  21
   0  -3   1 15803.0 223.037   5
   0   3  -1 15580.8 312.029  12
   0   3  -1 16187.2 320.985  21
   0   3  -1 15073.7 301.556  46
   0  -3   1 15455.3 280.866  15
   0   3  -1 15797.0 311.594  45
   0  -3   1 15478.7 253.180  19
   0  -3   1 15576.1 248.744   7
   0  -3   1 16048.1 230.453  42
   0   3  -1 15774.5 260.967  43
   0  -3   1 16377.9 214.974   6
   0  -3   0 177.948 26.9689   7
   0   3   0 203.816 39.5678  12
   0   3   0 197.774 23.9270   2
   0  -3   0 289.365 42.9078  20
   0  -3   0 180.851 32.5548  15
   0   3   0 235.190 39.5056  45
   0   3   0 163.986 35.9964  21
   0  -3   0 185.734 28.7138  42
   0  -3   0 229.408 31.5090  43
   0   3   0 360.598 49.3774  46
   0  -3   0 202.589 24.2260   5
   0   3   0 185.123 32.7096  43
   0  -3   0 210.923 30.6168  41
   0  -3   0 225.992 39.5969   3
   0  -3   0 379.245 41.4857  19
   0  -3  -1 179.343 32.9572  15
   0   3   1 226.502 38.3722  43
   0  -3  -1 197.343 31.2899  43
   0  -3  -1 176.056 30.3950  41
   0   3   1 203.059 39.2251  21
   0   3   1 179.630 24.2120   2
   0  -3  -1 230.954 33.9076  42
   0   3   1 172.426 34.8064  46
   0  -3  -1 217.735 39.6242   3
   0  -3  -1 208.856 35.8577  20
   0  -3  -1 191.233 31.6014  19
   0  -3  -1 211.503 31.4815   7
   0  -3  -1 237.664 23.5443   5
   0  -3  -2 431.981 50.7146  15
   0   3   2 608.849 52.7104  17
   0  -3  -2 485.979 62.4672   3
   0   3   2 517.722 62.0652  43
   0   3   2 462.359 41.5585   2
   0  -3  -2 451.928 50.0203  43
   0   3   2 458.648 55.7392  46
   0  -3  -2 578.821 57.1139  42
   0  -3  -2 477.704 50.7387  41
   0  -3  -2 545.435 55.2423  19
   0   3   2 535.960 64.1249  21
   0  -3  -3 4962.92 171.940  43
   0   3   3 5033.29 187.451  46
   0  -3  -3 5169.21 176.021  15
   0  -3  -3 5161.09 175.313  41
   0  -3  -3 4993.50 173.376  20
   0  -3  -3 5157.33 207.345   3
   0   3   3 5343.13 206.985  43
   0  -3  -3 5301.33 178.061  42
   0   3   3 5097.17 199.085  21
   0   3   3 5014.53 144.436   2
   0  -3  -3 5103.38 174.845  19
   0   3   4 58212.8 666.508  46
   0   3   4 57065.4 707.485  43
   0  -3  -4 57891.3 624.930  41
   0  -3  -4 57218.8 627.354  19
   0  -3  -4 59498.3 748.739   3
   0  -3  -4 58066.3 607.360  15
   0  -3  -4 58062.7 625.144  43
   0   3   4 58084.1 531.539   2
   0  -3  -4 57556.3 595.678  20
   0  -3  -4 58404.1 626.831  42
   0   3   5 1711.61 131.768  43
   0  -3  -5 1645.25 136.046   3
   0   3   5 1591.05 117.714  21
   0   3   5 1634.80 96.7248   2
   0  -3  -5 1810.19 117.363  42
   0  -3  -5 1520.03 110.999  19
   0   3   5 1628.75 119.233  46
   0  -3  -5 1578.87 104.311  15
   0  -3  -6 99.5383 45.1197   3
   0   3   6 161.643 48.6126  43
   0   3   6 92.5457 30.2739  21
   0  -3  -6 163.508 41.0278  42
   0   3   6 108.123 38.9912  46
   0  -3  -6 44.7481 27.2121  19
   0   3   6 121.686 30.0589   2
   0   3   7 4879.24 224.348  46
   0  -3  -7 4722.61 213.519  42
   0   3   7 4955.66 214.672  21
   0  -3  -7 4993.18 263.954   3
   0  -3  -7 4751.49 220.767  19
   0   3   7 5090.90 247.975  43
   0   3   7 5085.22 196.830   2
   0   3   8 605.643 82.5249  33
   0   3   8 569.050 85.8350  31
   0  -3  -8 461.020 76.2357  19
   0  -3  -8 493.206 71.1428  34
   0  -3  -8 476.770 76.5137  38
   0   3   8 503.422 72.7601  25
   0   3   8 532.613 80.4069  46
   0   3   9 1890.55 146.345  25
   0   3   9 1851.56 144.455  33
   0   3   9 1766.54 151.233  31
   0  -3  -9 1870.08 151.399  19
   0   3   9 1804.20 140.626  35
   0  -3  -9 1936.85 152.758  38
   0   3   9 1914.84 153.313  46
   0   3  10 1101.98 110.405  33
   0   3  10 1117.44 118.964  46
   0   3  10 1237.80 121.137  25
   0   3  10 1164.01 124.128  31
   0   3  10 1215.51 117.935  35
   0  -3 -10 1453.48 136.835  19
   0  -3 -10 1417.69 133.141  38
   0   3  10 964.904 102.452  40
   0  -3 -11 8752.32 320.650  38
   0   3  11 8727.25 309.902  25
   0  -3 -11 8454.75 306.760  28
   0   3  11 9244.16 336.256  31
   0   3  11 8775.82 305.495  35
   0   3  11 8023.17 287.736  40
   0   3  12 514.050 70.6742  40
   0   3  12 517.371 72.0167  35
   0   3  12 548.131 75.4657  25
   0  -3 -12 492.219 73.6481  38
   0  -3 -12 429.442 67.8931  28
   0   3  12 620.068 83.6731  31
   0   3  13 198.078 41.2171  35
   0  -3 -13 258.394 50.6948  38
   0  -3 -13 187.276 42.8812  28
   0   3  13 212.569 48.6214  31
   0   3  13 241.018 45.2828  25
   0   3  14 478.359 56.8683  31
   0  -3 -14 563.676 59.4463  38
   0  -3 -14 489.324 52.6405  28
   0  -4  15 21.6503 20.2294  35
   0  -4  14-43.6702 33.9192  35
   0  -4  13 578.096 66.6528  30
   0  -4  13 382.027 67.6277  35
   0  -4  12 8896.57 281.015  30
   0  -4  12 7822.80 304.322  35
   0  -4  11 8861.94 289.497  30
   0  -4  11 7453.38 305.391  35
   0  -4  10 5839.50 269.270  35
   0  -4  10 6617.32 252.372  30
   0  -4  10 5707.63 278.856  23
   0  -4   9 1078.86 102.115  30
   0  -4   9 885.681 112.778  23
   0  -4   9 884.068 108.223  29
   0  -4   9 869.597 104.720  35
   0   4  -9 1037.47 120.374  45
   0  -4   8 46.2026 29.2299  29
   0  -4   8 102.078 38.1254  35
   0   4  -8 139.314 50.8401   8
   0  -4   8 53.0849 32.0373  23
   0   4  -8 203.561 55.0891  45
   0  -4   8 114.936 37.9370  30
   0   4  -7 8378.53 307.161   9
   0  -4   7 9436.27 272.437   7
   0  -4   7 8807.98 265.113   5
   0  -4   7 8561.32 311.633   6
   0   4  -7 8698.41 325.268   8
   0   4  -7 8268.28 318.529  45
   0   4  -7 8445.17 308.812  12
   0  -4   7 8793.96 306.194  29
   0  -4   6 30935.4 473.237   5
   0   4  -6 28366.0 545.343   9
   0   4  -6 28571.6 553.841   8
   0  -4   6 29955.6 541.870   6
   0   4  -6 28202.5 572.984  45
   0   4  -6 27443.4 544.807  12
   0  -4   6 31517.0 474.313   7
   0   4  -5 100351. 1050.53  45
   0   4  -5 100532. 1024.69  12
   0   4  -5 100296. 988.926   9
   0  -4   5 110205. 846.043   5
   0  -4   5 108155. 844.669   7
   0   4  -5 100358. 974.519  46
   0  -4   5 106916. 948.015   6
   0  -4   4 142477. 917.213   5
   0   4  -4 138089. 1107.61  21
   0   4  -4 138850. 1202.21  45
   0   4  -4 135319. 1161.66  12
   0   4  -4 134482. 1091.95  46
   0  -4   4 142748. 937.648   7
   0   4  -3 94615.6 923.728  21
   0   4  -3 95708.3 964.299  12
   0  -4   3 99323.5 739.374  19
   0  -4   3 97883.8 721.855   5
   0  -4   3 98995.7 767.866   7
   0   4  -3 93359.9 897.050  46
   0   4  -3 96939.4 972.940  45
   0   4  -2 38741.6 599.442  12
   0   4  -2 39645.2 577.149  46
   0   4  -2 38982.0 596.528  21
   0   4  -2 39012.1 602.098  45
   0  -4   2 39946.9 476.206  19
   0  -4   2 40127.9 437.042   5
   0  -4   2 39346.4 475.304   7
   0  -4   1 580.834 55.5042  42
   0  -4   1 638.466 60.4689   7
   0   4  -1 580.712 75.4209  12
   0   4  -1 703.807 83.0252  21
   0  -4   1 622.044 59.7708  19
   0   4  -1 706.944 79.5266  46
   0  -4   1 757.594 57.1273   5
   0  -4   0 426.322 53.2420  19
   0  -4   0 289.272 41.5501   7
   0   4   0 356.676 57.1558  46
   0   4   0 333.792 51.1254  43
   0   4   0 349.632 61.6840  21
   0  -4   0 386.535 48.8469  42
   0  -4   0 303.296 50.5747  15
   0  -4  -1 26.9884 17.1057  19
   0  -4  -1 17.5795 18.0358   3
   0   4   1 325.957 57.9017  21
   0   4   1 8.65243 14.1376  17
   0   4   1 6.24516 25.5433  46
   0  -4  -1 253.814 38.9088   7
   0  -4  -1 70.7255 27.6495  15
   0   4   1 79.0572 29.7081  43
   0  -4  -1 79.8648 26.3307  42
   0  -4  -2 10944.8 252.426   7
   0  -4  -2 11069.0 300.574  15
   0   4   2 11267.3 231.651   2
   0   4   2 11152.7 333.717  21
   0   4   2 10511.1 312.988  43
   0   4   2 10810.7 310.847  46
   0  -4  -2 10623.6 283.940  19
   0  -4  -2 11377.4 341.527   3
   0  -4  -2 10505.5 280.897  42
   0   4   3 3022.40 178.875  21
   0  -4  -3 3115.53 191.043   3
   0  -4  -3 3172.23 163.942  19
   0   4   3 3325.49 187.139  43
   0   4   3 3092.36 130.648   2
   0  -4  -3 3064.81 161.971  15
   0  -4  -3 3234.44 163.176  42
   0   4   3 3155.48 175.108  46
   0  -4  -4 151.451 40.5319  15
   0  -4  -4 123.847 46.4086   3
   0   4   4 89.2270 33.7690  46
   0   4   4 151.491 33.4757   2
   0   4   4 275.375 59.8206  43
   0  -4  -4 39.7759 22.1293  19
   0  -4  -4 257.556 50.9702  42
   0   4   4 150.828 46.2541  21
   0  -4  -5 7969.40 285.010  42
   0   4   5 8305.28 299.812  46
   0   4   5 8018.45 321.468  43
   0   4   5 7741.53 290.617  33
   0   4   5 8342.47 244.123   2
   0  -4  -5 8629.40 349.729   3
   0   4   5 7974.19 298.902  21
   0  -4  -5 8156.94 275.417  15
   0  -4  -5 7814.06 283.659  19
   0   4   6 30.3526 32.0786  46
   0  -4  -6 50.6989 30.2604  19
   0  -4  -6 63.4789 35.3450  34
   0   4   6 38.6583 41.3380  33
   0  -4  -6-32.1220 55.1095  38
   0   4   6-2.68613 30.4708  31
   0   4   6 53.7062 32.3524  21
   0   4   7 39.1031 35.6336  21
   0   4   7 82.6427 42.9055  33
   0  -4  -7 78.6292 33.0282  19
   0   4   7 88.8912 33.6692  46
   0  -4  -7 70.4434 31.5767  38
   0  -4  -7 97.9117 44.8324  34
   0   4   7 50.9736 35.3072  31
   0  -4  -8 757.389 101.689  19
   0   4   8 789.214 101.714  46
   0   4   8 760.155 102.377  31
   0  -4  -8 762.176 95.6866  34
   0   4   8 690.535 93.3125  33
   0  -4  -8 778.921 101.856  38
   0   4   9 7528.45 306.533  31
   0   4   9 7003.20 268.743  35
   0  -4  -9 6621.80 296.253  19
   0  -4  -9 6801.38 288.987  38
   0   4   9 6899.49 276.787  33
   0  -4  -9 7346.83 281.143  34
   0   4  10 2575.80 160.022  33
   0  -4 -10 2656.77 178.002  38
   0   4  10 2922.89 187.614  31
   0   4  10 2662.16 160.399  35
   0  -4 -11 7.71570 27.0308  38
   0   4  11 26.6125 26.1879  31
   0   4  12 552.607 71.7512  31
   0  -4 -12 479.116 64.8977  38
   0  -4 -13 13.6823 19.7229  38
   0   4  13-1.77414 15.3544  31
   0  -5  13 1793.58 116.060  35
   0  -5  12 359.212 63.5118  23
   0  -5  12 420.785 55.4338  30
   0  -5  12 285.699 57.0869  35
   0  -5  11 103.314 40.3476  35
   0  -5  11 226.801 48.0533  30
   0  -5  11 94.5382 43.6587  23
   0  -5  10 15.2613 36.1707  23
   0  -5  10 37.2673 36.5176  35
   0  -5  10-28.7539 32.2870  30
   0   5  -9 860.976 107.871  17
   0  -5   9 832.298 108.796  29
   0  -5   9 842.371 120.252  23
   0  -5   9 796.466 89.5383  30
   0  -5   9 754.333 96.3762  35
   0  -5   8 6168.93 309.380  23
   0  -5   8 7377.37 265.139  30
   0  -5   8 5867.39 262.571  35
   0  -5   8 6877.48 296.070  29
   0   5  -8 6388.98 291.141  17
   0  -5   7 15955.6 405.336  34
   0  -5   7 15586.0 437.351  29
   0   5  -7 14612.9 440.980  12
   0  -5   7 14528.5 400.724  35
   0   5  -7 14882.9 471.846  45
   0   5  -7 14462.3 435.202  17
   0  -5   7 14698.1 470.066  23
   0   5  -6 1884.90 167.651  45
   0  -5   6 1552.89 154.878  23
   0  -5   6 1895.85 145.702  35
   0  -5   6 1882.45 141.681  34
   0  -5   6 1627.79 123.022  30
   0   5  -6 1660.30 153.411  12
   0  -5   6 1565.19 136.604  29
   0  -5   5 3284.47 182.080  34
   0   5  -5 3119.53 210.379  45
   0   5  -5 3192.37 206.920  12
   0  -5   5 3083.74 186.059  37
   0  -5   5 3180.71 167.836  30
   0  -5   5 3038.15 207.862  23
   0  -5   5 2339.48 166.552  35
   0  -5   5 3115.75 185.955  29
   0   5  -4 2886.83 200.337  45
   0  -5   4 3088.67 153.058   5
   0   5  -4 2688.52 190.047  12
   0  -5   4 2928.65 170.339  34
   0  -5   4 2742.32 172.585  37
   0  -5   4 3015.40 199.717  23
   0   5  -4 2702.77 178.722  21
   0  -5   4 3049.80 158.088   7
   0  -5   4 2728.00 171.118  29
   0  -5   3 181.597 39.5506   7
   0   5  -3 104.136 41.4972  46
   0  -5   3 181.964 38.7921   5
   0  -5   3 195.217 44.0737  29
   0  -5   3 140.227 42.1811  37
   0   5  -3 156.059 54.4510  21
   0   5  -3 135.847 47.5512  12
   0   5  -2 4218.19 228.366  21
   0  -5   2 4832.72 190.320   7
   0   5  -2 4224.61 214.205  46
   0   5  -1 465.982 72.5046  17
   0  -5   1 496.168 62.6718   7
   0   5  -1 509.590 77.0865  46
   0   5  -1 642.006 92.9390  21
   0   5   0 2364.45 155.083  17
   0  -5   0 2411.13 139.250  19
   0   5   0 2589.13 182.012  21
   0   5   0 2357.89 162.678  46
   0  -5   0 2522.14 136.448   7
   0  -5  -1 131.017 39.5264  37
   0   5   1 154.026 47.9344  33
   0   5   1 99.1329 42.0523  21
   0  -5  -1 173.183 45.6541  34
   0  -5  -1 190.778 45.5892  42
   0  -5  -1 209.435 47.2683  19
   0   5   1 139.007 42.0013  46
   0  -5  -2 38.4816 26.6313  37
   0   5   2 17.5226 29.9247  33
   0  -5  -2 50.0027 31.1805  38
   0   5   2-5.90295 32.3380  21
   0   5   2-9.17436 24.9361  46
   0  -5  -2-9.28044 20.9621  19
   0   5   2-2.35782 21.9672  43
   0  -5  -2-46.9014 30.9173  34
   0  -5  -2 2.01966 15.0082  42
   0   5   3 18921.1 481.425  33
   0   5   3 20101.0 513.946  21
   0  -5  -3 20758.5 463.351  19
   0  -5  -3 19962.8 456.716  38
   0   5   3 20584.2 493.074  46
   0  -5  -3 19849.1 472.955  15
   0  -5  -3 19591.1 476.639  34
   0   5   3 19061.9 462.352  31
   0   5   4 31301.5 629.844  33
   0  -5  -4 33364.8 616.077  15
   0   5   4 33340.3 669.656  21
   0  -5  -4 32152.0 618.224  34
   0   5   4 32992.9 615.112  31
   0   5   4 33782.0 649.856  46
   0  -5  -4 33059.1 606.545  38
   0  -5  -4 33530.3 616.581  19
   0   5   5 2691.75 184.046  31
   0  -5  -5 2526.76 176.925  34
   0   5   5 2827.10 194.291  21
   0   5   5 2682.29 185.171  33
   0  -5  -5 2766.62 184.070  19
   0  -5  -5 2845.66 186.370  38
   0  -5  -5 2942.91 182.237  15
   0   5   5 2906.09 194.990  46
   0   5   6 1400.70 136.540  21
   0  -5  -6 1496.82 137.123  38
   0  -5  -6 1342.90 129.097  34
   0  -5  -6 1463.31 138.060  19
   0   5   6 1361.27 131.613  31
   0   5   6 1433.32 135.337  33
   0   5   6 1429.16 137.828  46
   0  -5  -7 2193.21 169.344  19
   0   5   7 2184.24 163.923  31
   0   5   7 2154.86 163.812  21
   0   5   7 2055.27 158.656  33
   0  -5  -7 2187.51 164.292  38
   0  -5  -7 2205.48 161.509  34
   0  -5  -8 879.026 103.176  38
   0  -5  -8 939.870 101.482  34
   0   5   8 989.904 109.481  31
   0   5   8 911.034 101.555  33
   0  -5  -9 1658.02 124.250  34
   0   5   9 1707.00 127.982  33
   0  -5  -9 1781.35 139.038  38
   0   5   9 1825.77 140.625  31
   0   5  10 422.725 65.5240  31
   0   5  10 347.326 51.7871  33
   0  -5 -10 333.536 57.2585  38
   0   5  11 138.143 33.7606  31
   0  -5 -11 137.501 36.3428  38
   0  -6  12 2388.59 137.211  23
   0  -6  11 180.835 48.4027  23
   0  -6  10 605.628 91.6560  23
   0  -6   9 720.314 96.6142  29
   0  -6   9 704.990 103.878  23
   0  -6   8 1723.17 124.873  30
   0  -6   8 1808.05 150.904  29
   0  -6   8 1498.89 154.979  23
   0  -6   7 27196.3 653.544  23
   0  -6   7 27328.8 586.610  29
   0  -6   6 19798.3 558.859  23
   0  -6   6 20248.1 501.887  29
   0  -6   6 20275.1 474.072  34
   0  -6   6 21579.7 452.444  30
   0  -6   5 376.059 71.8439  34
   0  -6   5 422.525 86.3652  23
   0  -6   5 401.498 66.1819  30
   0  -6   5 499.439 82.2532  37
   0   6  -5 418.737 80.3219  17
   0  -6   5 391.501 71.4625  29
   0   6  -4 149.566 58.7440  21
   0  -6   4 96.8672 44.9333  37
   0  -6   4 43.8492 30.5560  23
   0  -6   4 58.8780 32.1775  30
   0   6  -4 167.076 50.1329  17
   0  -6   4 78.8227 36.1462  29
   0  -6   4 85.1463 38.1405  34
   0   6  -3 565.851 93.6672  21
   0  -6   3 528.883 82.9014  29
   0   6  -3 533.081 88.9115  17
   0  -6   3 530.198 81.7909  34
   0  -6   3 530.216 85.6921  37
   0  -6   3 561.147 94.3015  23
   0  -6   3 498.224 74.6480  30
   0  -6   2 2041.13 168.244  23
   0  -6   2 2036.87 154.719  29
   0   6  -2 1811.76 154.755  17
   0  -6   2 1772.45 134.560  30
   0  -6   2 1854.56 154.160  37
   0  -6   2 1803.72 145.385  34
   0   6  -2 1846.68 163.429  21
   0   6  -1 3654.82 215.979  46
   0   6  -1 2997.73 200.067  33
   0   6  -1 3377.88 205.161  17
   0  -6   1 3294.31 193.113  29
   0  -6   1 3210.20 201.567  37
   0  -6   1 3137.70 180.600  30
   0   6  -1 3272.94 220.180  21
   0  -6   1 3377.06 201.408  34
   0  -6   0 370.941 66.4902  30
   0   6   0 329.035 69.4684  46
   0  -6   0 293.675 60.3388  29
   0   6   0 292.407 67.0880  33
   0  -6   0 398.373 72.3166  37
   0  -6   0 362.472 69.8985  34
   0   6   0 288.283 73.2579  21
   0  -6  -1 52.0752 41.7009  29
   0  -6  -1 72.2356 36.2288  38
   0   6   1 143.566 58.7713  21
   0   6   1 36.5022 38.0201  46
   0  -6  -1 89.9689 42.6944  37
   0   6   1 48.1683 36.2389  33
   0  -6  -1 28.2008 38.2080  34
   0  -6  -2 303.874 65.4205  37
   0  -6  -2 278.045 59.4392  38
   0   6   2 288.521 73.9091  33
   0  -6  -2 353.980 76.6794  34
   0   6   2 225.418 57.2804  22
   0   6   2 333.835 75.7229  21
   0   6   2 485.263 84.5704  46
   0  -6  -3 5869.95 273.664  34
   0  -6  -3 5648.09 247.875  38
   0   6   3 5880.70 276.040  46
   0   6   3 5942.88 281.858  33
   0   6   3 5959.68 295.269  21
   0   6   3 5770.80 257.015  22
   0  -6  -4 499.542 82.3493  34
   0   6   4 592.230 82.6594  31
   0   6   4 512.164 88.2234  33
   0  -6  -4 633.849 85.3622  38
   0   6   4 615.042 96.1373  21
   0   6   5 128.204 47.9664  21
   0  -6  -5 32.8792 37.7971  34
   0  -6  -5 34.5648 29.1301  38
   0   6   5 85.5858 43.0147  31
   0   6   5 15.7685 30.9249  33
   0  -6  -6 1228.53 115.179  38
   0  -6  -6 1350.36 123.725  34
   0   6   6 1326.55 118.506  31
   0   6   6 1111.56 114.015  33
   0   6   7 24.1884 29.6010  33
   0  -6  -7-5.20372 21.3934  34
   0  -6  -7 47.6665 30.8499  38
   0   6   7 39.0146 30.5593  31
   0  -6  -8 662.139 72.3098  34
   0  -6  -8 510.220 65.5505  38
   0   6   8 695.603 77.4132  33
   0   6   8 606.027 71.4635  31
   0   6   9 84.9348 29.1072  31
   0  -6  -9 86.5308 27.3022  38
   0   6   9 103.367 30.0568  33
   0  -7   9 37.7101 35.6079  23
   0  -7   8 149.124 41.0993  29
   0  -7   8 127.389 44.9833  23
   0  -7   7 1107.23 107.026  29
   0  -7   7 1127.86 123.881  23
   0  -7   6 1422.15 126.071  29
   0  -7   6 1443.47 140.629  23
   0  -7   5 1480.90 129.220  29
   0  -7   5 1468.12 126.103  34
   0  -7   5 1598.18 149.461  23
   0   7  -5 1294.68 115.203  33
   0  -7   4 130.627 38.7322  30
   0  -7   4 189.933 58.9514  23
   0  -7   4 191.982 49.8395  34
   0  -7   4 148.059 45.7223  29
   0   7  -4 157.710 50.2641  33
   0  -7   3 31.3526 25.5853  29
   0  -7   3 148.051 45.8643  34
   0  -7   3 64.6820 27.9804  30
   0  -7   3 97.0415 48.3407  23
   0  -7   3 90.3575 42.4219  37
   0   7  -3 11.3845 26.8934  33
   0  -7   2 78.5216 32.1901  30
   0   7  -2 145.750 47.5426  33
   0  -7   2 182.831 52.5828  34
   0  -7   2 83.7068 33.6594  29
   0  -7   2 177.859 57.1110  37
   0   7  -2 100.569 33.5292  21
   0  -7   1 973.083 111.548  37
   0   7  -1 898.921 112.215  21
   0  -7   1 984.393 109.822  34
   0  -7   1 731.993 85.2685  30
   0  -7   1 797.403 94.1674  29
   0   7  -1 874.171 106.589  33
   0  -7   0 22.6338 20.3571  30
   0   7   0 29.8897 29.7516  22
   0  -7   0 37.9317 26.8607  34
   0  -7   0 9.92861 27.4147  29
   0   7   0-11.0683 27.1918  21
   0  -7   0-20.4078 28.8370  37
   0   7   0-6.33234 32.0928  33
   0  -7  -1 61.8513 36.6073  37
   0   7   1 114.007 48.0229  33
   0   7   1 111.295 42.2085  22
   0  -7  -1 59.1235 29.7024  30
   0   7   1 104.764 42.5439  21
   0  -7  -1 85.9149 36.7281  34
   0  -7  -2 223.672 52.7313  34
   0  -7  -2 207.886 49.5763  37
   0  -7  -2 228.810 50.3760  30
   0   7   2 300.116 60.7517  22
   0   7   2 277.933 64.4214  33
   0   7   3 11.1116 28.2834  33
   0  -7  -3-2.79394 27.3330  34
   0   7   3-25.4614 24.4487  22
   0  -7  -3 11.9272 18.1267  30
   0  -7  -4 563.443 66.0039  38
   0   7   4 658.766 82.4982  33
   0  -7  -4 550.695 68.4694  30
   0  -7  -4 670.007 83.2338  34
   0  -7  -5 363.788 53.8357  30
   0   7   5 359.774 58.7886  33
   0  -7  -5 504.937 66.3563  34
   0  -7  -5 389.203 53.5530  38
   0  -7  -6 1332.62 91.6523  30
   0  -7  -6 1590.54 106.259  34
   0  -7  -6 1428.38 90.9745  38
   0   7   6 1387.34 100.025  33
   0   7   7 418.678 49.3817  33
   0  -8   6 643.405 64.6782  29
   0   8  -6 518.720 59.1574  22
   0   8  -5 125.382 33.2348  22
   0  -8   5 124.915 33.6882  29
   0  -8   4 235.854 44.6799  34
   0   8  -4 132.335 36.8412  22
   0  -8   4 242.435 45.2827  29
   0  -8   3 83.0045 30.5428  34
   0   8  -3 108.374 33.2885  22
   0   8  -3 99.4633 33.2759  33
   0  -8   3 90.7204 29.6194  29
   0   8  -2 1064.11 89.3196  33
   0  -8   2 1101.60 87.4712  29
   0   8  -2 1004.36 91.3438  22
   0  -8   2 1063.19 92.4175  34
   0  -8   1 114.754 34.3181  34
   0   8  -1 94.1234 31.1710  22
   0   8  -1 83.2222 32.5219  33
   0  -8   0 665.782 72.1283  34
   0   8   0 659.086 69.2369  22
   0   8   0 675.577 71.4654  33
   0  -8  -1-23.6842 29.2579  34
   0   8   1-16.9763 19.1051  39
   0   8   1-7.47298 22.2813  33
   0   8   1 11.8200 18.1695  22
   0  -8  -2 3.20238 18.3228  34
   0   8   2 9.93244 19.1401  33
   0  -8  -3-13.5730 18.3807  34
   0   8   3-50.4693 21.4334  33
   1  -8  -4 283.026 39.4566  30
  -1   8   4 390.056 50.1863  33
   1  -8  -3 53.7807 22.2877  30
  -1   8   3 41.7277 27.5809  33
  -1   8   3-12.8825 13.0824  22
   1  -8  -3-36.7296 17.7918  38
   1  -8  -3-18.8607 26.2116  34
   1  -8  -2 73.1918 27.7554  30
  -1   8   2 54.8102 25.1520  33
   1  -8  -2 66.9493 25.4534  38
   1  -8  -2 39.3341 22.8218  34
  -1   8   2 44.7290 21.4804  39
  -1   8   2 50.0657 20.2244  22
   1  -8  -1 12.5054 22.6817  34
  -1   8   1 37.6192 29.4924  33
  -1   8   1 12.0948 19.8902  22
  -1   8   1 17.8990 20.9160  39
   1  -8  -1 0.39469 18.2398  30
   1  -8  -1-11.9973 22.5302  38
  -1   8   0 19.7520 21.9163  22
   1  -8   0 26.0176 26.7240  34
   1  -8   0 27.9549 20.3566  30
  -1   8   0-27.7782 30.4639  39
  -1   8   0 28.4150 27.8846  33
   1  -8   1 6042.30 232.417  34
   1  -8   1 5489.32 200.987  30
  -1   8  -1 5273.70 199.928  33
  -1   8  -1 5301.80 218.544  22
  -1   8  -2 1500.00 119.078  22
   1  -8   2 1664.85 111.912  30
   1  -8   2 1615.57 121.981  34
   1  -8   3 74.6321 36.0907  34
   1  -8   3 63.8904 26.6855  30
  -1   8  -3 85.1499 35.1747  22
  -1   8  -4 15.5392 21.9835  22
   1  -8   4 17.9852 21.6207  30
   1  -8   4 15.1742 23.3950  34
  -1   8  -5 10.9454 21.0679  22
   1  -8   5-26.5278 22.6444  30
   1  -8   6 1107.95 80.2848  30
  -1   8  -6 915.964 81.6711  22
   1  -8   7 9334.10 211.306  30
  -1   8  -7 7426.55 200.163  22
  -1   7   7 3877.21 162.570  33
   1  -7  -7 3689.27 152.834  38
   1  -7  -6 1216.20 93.3532  34
  -1   7   6 1471.86 112.825  33
   1  -7  -6 1184.16 96.4978  38
   1  -7  -5 4.81721 20.3314  34
   1  -7  -5-1.45414 18.4834  38
  -1   7   5 0.42468 26.7383  33
  -1   7   4 772.556 84.3168  22
   1  -7  -4 801.697 88.6552  38
   1  -7  -4 797.583 90.6501  34
  -1   7   4 808.152 97.2899  33
  -1   7   3 2.63999 21.1009  39
  -1   7   3-17.3151 30.2671  33
   1  -7  -3 47.7851 29.9776  38
   1  -7  -3-1.03138 23.9026  30
   1  -7  -3 14.0211 29.5121  34
  -1   7   3-14.4301 30.5818  22
   1  -7  -2 470.072 74.6646  34
  -1   7   2 490.700 81.7836  22
  -1   7   2 354.862 68.7627  33
   1  -7  -2 476.412 73.0485  38
  -1   7   2 637.921 93.4608  21
   1  -7  -2 476.222 74.8104  30
   1  -7  -1 2132.88 160.948  34
   1  -7  -1 1792.60 140.069  30
  -1   7   1 1901.17 153.437  22
  -1   7   1 2030.15 157.632  33
  -1   7   1 1906.93 161.632  21
   1  -7  -1 1970.62 142.305  38
   1  -7   0 4477.92 219.577  30
  -1   7   0 4589.00 242.666  22
  -1   7   0 4680.75 238.357  33
   1  -7   0 5017.06 223.090  38
   1  -7   0 4921.37 243.563  34
  -1   7   0 4808.92 253.483  21
  -1   7  -1 248.159 63.2564  33
   1  -7   1 185.203 48.1101  30
   1  -7   1 228.121 51.1096  38
  -1   7  -1 248.154 66.1386  21
  -1   7  -1 253.501 63.6621  22
   1  -7   1 305.468 64.1436  34
   1  -7   2 1891.87 133.606  38
  -1   7  -2 1644.44 137.822  33
   1  -7   2 1669.75 144.003  34
   1  -7   2 1769.06 137.830  30
   1  -7   3 4018.89 206.771  29
   1  -7   3 4155.65 222.992  34
   1  -7   3 4154.47 194.725  38
   1  -7   3 3985.06 203.403  30
   1  -7   4 685.830 87.8952  29
   1  -7   4 661.277 83.8597  30
   1  -7   4 760.845 98.0387  34
   1  -7   5 120.848 41.8629  30
   1  -7   5 92.6253 41.1340  34
   1  -7   5 63.1265 39.2406  29
   1  -7   5 138.943 56.3367  23
   1  -7   6 1937.35 135.115  30
   1  -7   6 1840.50 165.595  23
   1  -7   6 1801.89 142.488  29
   1  -7   7 184.097 46.6297  30
   1  -7   7 157.534 59.4882  23
   1  -7   7 168.193 47.7514  29
   1  -7   8 1169.77 96.9915  30
   1  -7   9 390.117 53.6939  30
   1  -7  10 31.4130 19.3430  30
  -1   6  10 1055.97 77.7885  33
   1  -6 -10 1043.81 78.8411  38
  -1   6   9 858.553 76.9031  31
  -1   6   9 783.018 78.7869  33
   1  -6  -9 819.960 81.5402  38
   1  -6  -8 6.14488 24.4544  38
  -1   6   8-13.3581 24.2584  33
  -1   6   7 2437.68 163.557  33
   1  -6  -7 2316.51 147.367  34
   1  -6  -7 2356.46 160.274  38
   1  -6  -6 1187.62 113.164  34
  -1   6   6 1280.71 128.442  21
  -1   6   6 1253.41 123.562  33
   1  -6  -6 1144.07 117.180  38
   1  -6  -5 61.8979 37.7739  38
  -1   6   5 14.6796 25.7204  21
  -1   6   5 33.5070 35.4194  33
  -1   6   5-27.7773 36.5040  22
   1  -6  -5 67.9886 32.6743  34
   1  -6  -5 9.72442 21.0805  19
   1  -6  -4 1239.86 127.526  19
  -1   6   4 1368.10 130.774  46
   1  -6  -4 1269.45 125.020  38
  -1   6   4 1348.67 139.680  21
  -1   6   4 1136.59 117.884  22
   1  -6  -4 1237.37 123.190  34
  -1   6   4 1171.42 125.216  33
  -1   6   3 10415.1 366.573  33
   1  -6  -3 10307.7 353.970  34
  -1   6   3 10158.8 348.593  22
   1  -6  -3 10765.5 362.279  19
  -1   6   3 10272.6 351.700  46
   1  -6  -3 10226.1 345.455  38
  -1   6   3 10271.2 382.935  21
  -1   6   2 26021.7 577.536  33
  -1   6   2 26308.0 573.149  22
   1  -6  -2 25982.8 558.346  34
   1  -6  -2 26389.8 542.964  38
   1  -6  -2 27374.5 564.194  19
   1  -6  -1 5439.02 248.945  19
  -1   6   1 5240.08 273.096  21
   1  -6  -1 5072.28 237.091  37
   1  -6  -1 5067.77 248.115  34
  -1   6   1 4865.81 249.868  22
  -1   6   1 4997.85 253.070  33
   1  -6  -1 4980.56 232.511  38
   1  -6   0 9094.95 314.724  30
  -1   6   0 9940.79 337.730  17
   1  -6   0 9627.35 317.564  38
   1  -6   0 9680.35 334.000  37
   1  -6   0 9724.10 339.479  34
  -1   6   0 9877.65 369.468  21
   1  -6   0 9609.17 319.708  19
  -1   6   0 9447.15 343.669  33
  -1   6  -1-11.7994 30.5079  33
   1  -6   1 46.3373 26.1870  30
  -1   6  -1 68.3876 36.8921  21
   1  -6   1 52.1822 34.9017  34
  -1   6  -1 27.2502 37.6588  17
   1  -6   1 37.2068 31.7254  38
   1  -6   1 45.4359 27.0815  19
   1  -6   1 30.7671 30.5268  37
   1  -6   2 4142.07 220.388  34
   1  -6   2 4027.07 224.668  37
   1  -6   2 4314.14 213.222  29
  -1   6  -2 4154.14 233.675  17
   1  -6   2 4070.89 205.727  30
   1  -6   2 4473.80 210.432  38
   1  -6   2 4397.68 247.292  23
  -1   6  -2 4177.72 230.996  21
  -1   6  -2 4106.58 223.436  33
   1  -6   2 4643.59 214.001  19
   1  -6   3 1742.84 143.912  34
  -1   6  -3 1835.79 158.488  17
   1  -6   3 1879.35 135.593  38
   1  -6   3 1893.83 153.296  37
   1  -6   3 2057.54 151.190  29
   1  -6   3 1909.73 167.493  23
   1  -6   3 1908.24 138.938  19
   1  -6   3 1791.30 138.274  30
   1  -6   4 8398.54 280.884  38
  -1   6  -4 7503.20 323.580  17
   1  -6   4 8012.41 346.453  23
   1  -6   4 8182.89 308.710  34
   1  -6   4 8140.95 303.300  29
   1  -6   4 8509.27 298.190  30
   1  -6   5 32307.1 547.575  38
   1  -6   5 29537.3 590.766  29
   1  -6   5 30293.7 686.637  23
   1  -6   5 30751.1 601.784  34
  -1   6  -5 28272.0 629.047  17
   1  -6   5 31033.3 569.641  30
  -1   6  -6 48398.0 826.461  17
   1  -6   6 52372.5 909.316  23
   1  -6   6 50000.5 777.672  29
   1  -6   6 54898.6 713.387  38
   1  -6   6 54237.3 749.563  30
   1  -6   6 51825.4 781.455  34
   1  -6   7 15442.0 500.300  23
   1  -6   7 15461.6 435.789  29
  -1   6  -7 14457.2 446.371  17
   1  -6   8 6848.84 262.345  30
   1  -6   8 5925.66 302.850  23
   1  -6   8 6051.06 274.552  29
   1  -6   9 1831.53 164.999  23
   1  -6   9 2166.24 144.730  30
   1  -6  10 623.053 76.7263  30
   1  -6  10 586.743 91.8749  23
   1  -6  11 470.882 59.8923  30
   1  -6  12 2752.88 127.698  30
   1  -5 -12 35.9736 18.7616  38
  -1   5  11-12.1540 19.8780  31
  -1   5  11-8.18460 19.8811  33
   1  -5 -11-15.1393 23.4550  38
   1  -5 -10 796.399 89.7513  38
  -1   5  10 742.670 83.5764  31
  -1   5  10 876.107 90.5771  33
  -1   5   9 4501.66 216.809  31
   1  -5  -9 4366.10 223.823  38
  -1   5   9 4425.71 219.351  33
   1  -5  -8 1473.30 135.868  38
  -1   5   8 1408.21 126.792  31
  -1   5   8 1505.37 134.413  33
  -1   5   8 1531.75 133.596  21
  -1   5   7 342.106 69.4897  33
  -1   5   7 350.332 71.3932  46
   1  -5  -7 359.995 75.7942  38
  -1   5   7 344.628 66.9645  21
  -1   5   7 310.413 63.7813  31
   1  -5  -7 438.490 81.6581  19
   1  -5  -6 27.4645 31.5407  38
  -1   5   6 3.17656 22.2878  21
   1  -5  -6-15.4410 43.7383  19
   1  -5  -6 22.1307 25.3342  34
  -1   5   6-11.5454 27.6500  33
  -1   5   6 15.9483 28.4152  46
  -1   5   6 41.1603 37.6715  31
  -1   5   5 5686.80 246.815  22
   1  -5  -5 5572.60 249.401  34
  -1   5   5 5653.85 269.777  21
   1  -5  -5 5494.03 267.985  19
  -1   5   5 5657.09 265.843  33
  -1   5   5 5452.60 254.001  46
   1  -5  -5 5752.95 263.067  38
   1  -5  -4 13255.8 389.046  38
   1  -5  -4 13695.5 402.929  19
  -1   5   4 13235.3 385.031  46
  -1   5   4 13504.2 416.040  21
   1  -5  -4 12911.6 376.041  34
  -1   5   4 12876.8 374.881  22
  -1   5   4 12621.3 392.432  33
  -1   5   3 16363.5 347.879   2
   1  -5  -3 16651.8 478.164   3
  -1   5   3 16493.4 419.036  46
  -1   5   3 15669.4 425.501  33
   1  -5  -3 16331.5 413.795  34
   1  -5  -3 16046.9 412.914  38
   1  -5  -3 16039.4 410.606  42
  -1   5   3 15331.7 424.301  42
  -1   5   3 15843.2 434.555  43
  -1   5   3 15155.5 405.820  22
   1  -5  -3 16092.2 419.849  19
  -1   5   3 16126.8 450.317  21
  -1   5   2 4323.77 230.536  21
   1  -5  -2 4096.37 227.146   3
  -1   5   2 3851.31 202.313  42
   1  -5  -2 4305.65 198.226   7
   1  -5  -2 3953.56 198.432  38
   1  -5  -2 4233.06 206.854  19
   1  -5  -2 4067.93 197.877  42
  -1   5   2 3961.98 206.904  43
   1  -5  -2 3935.67 199.332  34
  -1   5   2 4468.46 210.610  46
  -1   5   2 3609.39 200.323  33
  -1   5   1 677.816 92.0582  21
  -1   5   1 650.142 78.9658  17
   1  -5  -1 599.619 77.9443  19
  -1   5   1 492.339 71.3624  46
   1  -5  -1 497.117 66.5800   7
  -1   5   1 643.786 80.4069  43
  -1   5   1 588.286 76.6420  42
   1  -5  -1 566.704 73.6184  42
   1  -5  -1 559.736 80.2774   3
   1  -5   0 746.745 81.0312   7
  -1   5   0 776.175 88.4507  17
  -1   5   0 717.670 83.7590  46
   1  -5   0 725.956 82.5454  19
  -1   5   0 781.517 96.8588  21
  -1   5  -1 28.4947 23.5853  21
   1  -5   1 20.4935 20.5033   7
   1  -5   1 12.1264 17.7980  19
  -1   5  -1 64.4056 36.5368  17
  -1   5  -2 253.820 56.2848  21
  -1   5  -2 271.541 59.3155  17
   1  -5   2 293.905 50.9462   7
   1  -5   2 421.139 60.0492  19
   1  -5   2 270.657 43.5480   5
  -1   5  -3 2964.68 175.753  21
   1  -5   3 3454.28 168.788  19
  -1   5  -3 2812.87 178.884  17
   1  -5   3 3494.23 170.937   7
   1  -5   3 2972.56 146.582   5
   1  -5   4 1110.07 98.9016  19
   1  -5   4 1347.76 103.073   5
  -1   5  -4 1095.05 115.364  17
   1  -5   5 64.9314 28.0374  30
   1  -5   5 31.8674 24.1768   5
   1  -5   5 184.184 45.7493  29
  -1   5  -5 4.91870 21.9871  17
   1  -5   5 11.7900 22.5372  34
   1  -5   5 161.981 41.4091   7
   1  -5   5 148.501 38.5754  38
   1  -5   5 49.8227 35.6415  23
   1  -5   6 856.980 90.4794  38
   1  -5   6 777.540 88.1039  30
   1  -5   6 720.792 91.0722  34
   1  -5   6 724.666 89.9795  29
  -1   5  -6 573.397 88.2401  17
   1  -5   6 754.576 108.039  23
  -1   5  -7 3328.22 207.358  17
   1  -5   7 3347.57 223.160  23
   1  -5   7 3754.02 186.267  38
   1  -5   7 3450.46 207.813  29
   1  -5   7 3566.22 188.241  30
   1  -5   8 19919.0 497.086  29
   1  -5   8 19809.2 543.711  23
  -1   5  -8 19742.4 500.451  17
   1  -5   9 3673.60 233.149  23
  -1   5  -9 4074.98 204.706  10
   1  -5   9 4354.65 214.091  30
   1  -5  10 1150.55 131.292  23
   1  -5  10 1264.67 115.566  30
   1  -5  11 134.390 47.8369  23
   1  -5  11 184.243 44.9333  30
   1  -5  12 454.192 63.9440  30
   1  -5  13 283.924 45.3916  30
   1  -5  14 194.509 32.6126  30
   1  -4 -13-3.99676 19.2784  28
  -1   4  13 23.6455 22.4562  31
   1  -4 -13-20.2975 23.0096  38
   1  -4 -12 430.307 62.6607  38
  -1   4  12 518.471 65.6065  40
  -1   4  12 498.799 69.2918  31
   1  -4 -12 541.271 69.2149  28
  -1   4  12 410.729 56.7164  33
   1  -4 -11 347.315 63.8659  38
  -1   4  11 298.609 59.5026  31
  -1   4  11 274.566 52.0685  33
   1  -4 -11 353.201 66.0178  28
  -1   4  11 264.417 52.6508  40
   1  -4 -10 5221.07 246.426  28
  -1   4  10 5471.86 245.303  33
  -1   4  10 5016.87 229.041  40
   1  -4 -10 5441.26 252.347  38
  -1   4  10 5697.32 258.651  31
  -1   4   9 159.504 50.6226  31
  -1   4   9 123.368 39.9378  40
   1  -4  -9 141.090 50.8469  19
  -1   4   9 119.152 41.9012  21
   1  -4  -9 54.5581 26.2934  38
   1  -4  -9 103.325 44.1419  28
  -1   4   9 129.177 49.3687  46
  -1   4   9 89.0986 41.0085  33
   1  -4  -8 2448.86 175.690  38
  -1   4   8 2504.16 175.007  46
   1  -4  -8 2472.84 174.532  28
   1  -4  -8 2662.58 188.275  19
  -1   4   8 2415.71 165.559  21
  -1   4   8 2437.67 171.997  31
  -1   4   8 2742.88 181.341  33
  -1   4   7 1213.23 119.715  21
   1  -4  -7 1168.27 117.493  38
   1  -4  -7 1375.97 131.475  19
  -1   4   7 1219.98 122.101  46
  -1   4   7 1330.08 125.850  33
   1  -4  -7 1253.01 124.226  28
  -1   4   7 1420.62 128.938  31
  -1   4   6 4629.42 193.834   2
  -1   4   6 4486.98 224.030  33
   1  -4  -6 4401.23 223.888  38
  -1   4   6 4228.69 217.508  21
   1  -4  -6 4354.57 216.969  28
   1  -4  -6 4686.63 266.311   3
   1  -4  -6 4583.72 228.915  19
  -1   4   6 4829.94 224.764  31
  -1   4   6 4327.96 216.666  46
  -1   4   5 3583.81 187.723  46
   1  -4  -5 3539.59 195.122  19
  -1   4   5 3897.92 214.027  43
   1  -4  -5 3806.28 228.084   3
  -1   4   5 3704.96 197.633  21
   1  -4  -5 3708.66 189.670  42
  -1   4   5 3673.21 163.125   2
   1  -4  -4 21831.7 452.568  19
  -1   4   4 22483.7 454.054  46
  -1   4   4 22197.7 484.438  43
   1  -4  -4 22033.4 404.235  15
   1  -4  -4 22398.0 443.704  42
  -1   4   4 22166.8 378.347   2
   1  -4  -4 22068.0 515.895   3
  -1   4   4 22055.1 471.655  21
  -1   4   3 98351.5 970.877  21
   1  -4  -3 98090.3 911.920  19
   1  -4  -3 98817.3 1022.46   3
   1  -4  -3 94705.6 868.919  42
  -1   4   3 98521.2 897.916  46
   1  -4  -3 98842.3 849.066  15
  -1   4   3 97529.3 755.484   2
  -1   4   3 97454.8 961.709  43
  -1   4   2 19976.0 426.818  21
   1  -4  -2 20957.7 441.961   3
   1  -4  -2 20702.3 399.036  19
   1  -4  -2 20886.5 385.441  42
  -1   4   2 20966.0 420.733  43
  -1   4   2 20874.5 361.638  17
  -1   4   2 20487.7 394.066  46
  -1   4   2 20115.9 324.972   2
   1  -4  -1 14518.2 322.166  19
  -1   4   1 13739.1 259.043   2
  -1   4   1 14262.2 318.577  46
   1  -4  -1 14809.0 345.021   3
  -1   4   1 14138.7 353.250  21
  -1   4   1 14682.1 314.643  17
   1  -4  -1 14540.4 305.321  42
  -1   4   1 14312.7 323.875  43
  -1   4   0 620.029 68.1327  17
  -1   4   0 614.360 74.7249  21
  -1   4   0 639.677 65.0317  42
   1  -4   0 730.082 65.3712  42
   1  -4   0 710.332 68.5590   7
   1  -4   0 696.681 69.3182  19
   1  -4   0 747.378 57.4535   5
   1  -4   0 707.446 72.6868   3
  -1   4   0 776.252 72.4067  43
  -1   4   0 890.866 78.3387  46
  -1   4  -1 3376.17 160.167  17
   1  -4   1 3480.30 132.447  42
  -1   4  -1 3776.66 154.087  46
  -1   4  -1 3415.12 138.218  43
   1  -4   1 3521.46 151.151  19
  -1   4  -1 3484.37 139.300  42
   1  -4   1 3984.30 138.260   5
   1  -4   1 3543.15 149.184   7
  -1   4  -1 3526.71 170.993  21
   1  -4   2 23044.4 379.696  19
  -1   4  -2 22630.9 426.228  17
   1  -4   2 23321.6 380.644   7
  -1   4  -2 23433.3 425.195  21
   1  -4   2 22770.9 342.490   5
   1  -4   3 210852. 1077.28   5
  -1   4  -3 205403. 1316.61  17
  -1   4  -3 208536. 1318.84  12
   1  -4   3 207260. 1136.13   7
   1  -4   3 209853. 1143.44  19
  -1   4  -3 206041. 1231.36  21
   1  -4   4 139919. 937.821   7
  -1   4  -4 138366. 1082.78  12
  -1   4  -4 139397. 1158.37  45
   1  -4   4 137666. 912.725   5
  -1   4  -5 18202.1 414.392  17
  -1   4  -5 17773.3 422.881  45
  -1   4  -5 18516.1 400.446  12
   1  -4   6 12858.2 303.497   5
  -1   4  -6 13319.6 377.943  45
   1  -4   6 13314.0 305.224   7
  -1   4  -6 12669.5 353.969  17
  -1   4  -7 117.773 45.6243  45
   1  -4   7 123.634 32.3416   7
  -1   4  -7 34.2916 28.3098  17
   1  -4   8-13.0205 32.4945  29
   1  -4   8 7.19283 21.1091  30
  -1   4  -8 22.8306 25.1303  17
   1  -4   8-43.9412 33.4675  23
   1  -4   9 1572.80 144.989  23
  -1   4  -9 1611.26 123.959  10
   1  -4   9 1672.10 124.402  40
   1  -4   9 1693.50 130.149  30
   1  -4   9 1449.00 129.915  35
  -1   4 -10 104.406 35.5467  10
   1  -4  10 92.4227 35.8261  40
   1  -4  10 66.8730 33.8428  35
   1  -4  10 116.614 40.9228  30
  -1   4 -11 2827.03 166.921  14
   1  -4  11 2871.08 173.278  30
   1  -4  11 2549.89 157.264  40
   1  -4  12 93.4624 38.7838  35
   1  -4  12 132.086 40.2722  40
   1  -4  12 98.6018 33.0982  30
   1  -4  13 2232.08 135.442  40
   1  -4  13 1856.22 135.784  35
   1  -4  13 2325.86 142.112  30
   1  -4  14 498.768 59.9404  30
   1  -4  14 428.836 55.0528  40
   1  -4  14 443.259 60.3745  35
   1  -3 -14 11.6581 20.2393  38
  -1   3  14 20.9700 22.9132  31
  -1   3  14 18.7447 16.5411  40
   1  -3 -14 21.6243 19.0438  28
   1  -3 -13 162.242 40.1966  38
  -1   3  13 122.756 37.5430  40
  -1   3  13 68.7149 31.7109  31
   1  -3 -13 66.1676 33.1718  28
  -1   3  12 463.402 73.6131  31
  -1   3  12 380.654 67.0122  40
   1  -3 -12 394.672 68.1701  28
   1  -3 -12 371.930 67.1998  38
  -1   3  12 346.278 59.0825  33
   1  -3 -11 11234.2 358.397  38
  -1   3  11 11365.4 364.767  40
   1  -3 -11 11881.4 378.111  28
  -1   3  11 11959.1 356.525  25
   1  -3 -11 11590.4 379.939  19
  -1   3  11 12306.4 386.465  31
  -1   3  11 12022.0 357.072  33
   1  -3 -10 960.693 112.318  28
   1  -3 -10 1158.48 118.806  38
   1  -3 -10 1023.59 114.601  19
  -1   3  10 1055.92 111.367  33
  -1   3  10 1101.37 120.323  31
  -1   3  10 1012.03 109.731  40
  -1   3  10 1074.57 116.425  46
  -1   3   9 1359.43 129.814  31
   1  -3  -9 1355.71 131.338  28
   1  -3  -9 1395.01 131.824  19
  -1   3   9 1276.84 121.590  40
  -1   3   9 1402.72 119.200  21
   1  -3  -9 1320.15 124.814  38
  -1   3   9 1462.24 135.039  46
  -1   3   9 1253.57 119.894  33
  -1   3   8 1893.88 144.476  46
  -1   3   8 1905.21 143.922  33
   1  -3  -8 1872.14 143.460  38
  -1   3   8 1878.45 147.969  31
   1  -3  -8 1890.45 147.060  19
  -1   3   8 1538.90 120.797  21
  -1   3   8 1754.88 135.708  40
   1  -3  -7 5585.49 238.215  19
   1  -3  -7 5775.68 279.472   3
   1  -3  -7 5475.66 227.104  42
  -1   3   7 5649.74 230.885  21
  -1   3   7 5974.22 253.177  43
  -1   3   7 6037.91 243.527  46
  -1   3   7 5942.59 209.953   2
  -1   3   7 5523.72 241.325  42
  -1   3   6 43793.4 619.400  21
   1  -3  -6 45403.2 611.401  42
   1  -3  -6 45592.7 635.673  19
  -1   3   6 43912.5 628.579  46
  -1   3   6 45669.4 548.071   2
   1  -3  -6 46639.4 735.909   3
  -1   3   6 45340.4 670.435  43
   1  -3  -5 49501.2 711.130   3
  -1   3   5 49430.8 530.835   2
  -1   3   5 48294.0 608.303  46
   1  -3  -5 48778.7 620.969  19
  -1   3   5 49339.4 660.270  43
  -1   3   5 47274.7 620.029  21
   1  -3  -5 48762.1 602.283  42
  -1   3   4 110.349 34.2379  46
  -1   3   4 141.696 29.9482   2
  -1   3   4 128.607 34.9638  43
   1  -3  -4 123.155 32.7501  19
   1  -3  -4 97.5550 37.0479   3
   1  -3  -4 103.132 28.7727  42
  -1   3   4 140.468 36.9736  21
   1  -3  -4 134.717 30.0586  15
   1  -3  -3 5393.83 181.746  19
  -1   3   3 5537.94 197.288  21
   1  -3  -3 5283.45 174.517  42
  -1   3   3 5428.80 154.715   2
   1  -3  -3 5554.57 206.007   3
   1  -3  -3 5354.06 161.105  15
   1  -3  -3 5747.15 160.990   1
  -1   3   3 5153.54 177.917  46
  -1   3   3 5661.56 201.887  43
   1  -3  -2 829.934 66.2479  42
  -1   3   2 778.978 71.1730  43
   1  -3  -2 910.004 52.9254   5
   1  -3  -2 782.526 60.4419   1
  -1   3   2 817.088 56.0464   4
   1  -3  -2 766.137 71.3038   3
  -1   3   2 766.458 65.4309  46
  -1   3   2 837.103 74.6474  21
  -1   3   2 831.999 57.8554   2
   1  -3  -2 820.313 62.9516  15
   1  -3  -2 844.491 69.0398  19
  -1   3   2 842.175 62.6381  17
   1  -3  -1 14157.3 278.012   3
   1  -3  -1 14198.9 212.681   5
  -1   3   1 14440.2 220.963   4
   1  -3  -1 14272.7 269.915  19
  -1   3   1 14871.4 282.699  43
   1  -3  -1 15014.8 263.992   1
  -1   3   1 14353.1 295.328  21
   1  -3  -1 14327.5 256.093  42
  -1   3   1 13812.3 257.812  17
  -1   3   1 14058.9 257.769  46
  -1   3   0 22281.2 316.505  46
  -1   3   0 22969.1 362.950  21
   1  -3   0 22224.8 275.502   5
  -1   3   0 23121.8 268.852   4
   1  -3   0 22161.2 298.103  42
   1  -3   0 22619.7 328.472  19
   1  -3   0 22790.9 327.895   3
  -1   3   0 22167.3 317.181  42
  -1   3   0 22908.4 326.756  43
  -1   3   0 22334.0 337.704  17
  -1   3  -1 41880.2 359.013   4
   1  -3   1 39247.0 424.115  19
   1  -3   1 41254.9 400.409   3
   1  -3   1 41599.0 388.357   5
   1  -3   1 40689.7 432.085   7
   1  -3   1 39758.0 369.578  42
  -1   3  -1 41068.6 399.507  42
  -1   3  -1 40951.6 398.473  43
  -1   3  -1 41298.0 407.287  46
  -1   3  -1 39170.0 466.198  17
  -1   3  -2 21294.3 362.374  45
   1  -3   2 20284.5 304.095  19
  -1   3  -2 19994.8 341.841  17
  -1   3  -2 21270.4 259.751  42
  -1   3  -2 21512.9 293.005  46
  -1   3  -2 20101.0 335.667  12
  -1   3  -2 21242.3 263.085   4
   1  -3   2 22099.9 294.316   5
  -1   3  -2 21628.4 259.986  43
   1  -3   2 20520.9 304.388   7
   1  -3   3 5799.37 161.685   7
   1  -3   3 6049.17 168.278  19
  -1   3  -3 5845.21 182.408  12
   1  -3   3 5953.17 158.850   5
  -1   3  -3 5911.48 196.476  45
   1  -3   4 11471.9 229.356   5
  -1   3  -4 11188.6 258.299  12
  -1   3  -4 11079.5 238.715   9
  -1   3  -4 11204.2 213.427   4
  -1   3  -4 11440.5 279.500  45
   1  -3   4 11551.4 231.433   7
  -1   3  -5 18934.6 298.878   4
  -1   3  -5 19543.5 366.116  17
  -1   3  -5 19525.1 378.797  45
   1  -3   5 20206.0 320.212   5
   1  -3   5 20125.9 313.285   7
  -1   3  -5 19293.3 347.738  12
   1  -3   6 2973.71 130.291   5
  -1   3  -6 3055.17 152.121  17
  -1   3  -6 3008.12 154.223  45
  -1   3  -6 2932.00 126.644   4
   1  -3   6 3046.63 127.653   7
   1  -3   6 3010.34 137.939   2
  -1   3  -7 4043.68 156.572  20
  -1   3  -7 4315.19 185.245  17
  -1   3  -7 4148.61 189.306  45
   1  -3   7 3945.34 169.871   2
   1  -3   7 4023.28 158.466   5
   1  -3   7 4096.41 155.056   7
   1  -3   8 3400.49 153.399   5
  -1   3  -8 3607.48 163.952  10
   1  -3   8 3704.04 155.189   7
  -1   3  -8 3537.98 153.832  15
   1  -3   9 2385.91 147.899  40
   1  -3   9 2293.89 128.043   7
   1  -3   9 2045.39 148.823  35
  -1   3  -9 2206.81 133.108  10
   1  -3   9 2396.76 148.483  30
   1  -3   9 2425.45 135.243   5
   1  -3  10 165.506 44.1826  40
   1  -3  10 143.738 50.5205  35
  -1   3 -10 150.208 39.9098  10
   1  -3  10 142.403 39.7046  30
  -1   3 -11 4.86243 24.6881  14
   1  -3  11-2.73793 27.7768  40
  -1   3 -11 11.6255 20.7061  19
   1  -3  11 22.5566 24.8046  30
   1  -3  11 25.8613 31.4791  35
   1  -3  12 350.082 69.8863  35
   1  -3  12 454.634 71.4644  40
   1  -3  12 431.783 69.9177  30
  -1   3 -12 458.290 67.7580  19
   1  -3  13 111.798 41.4017  40
   1  -3  13 131.740 40.3751  30
   1  -3  13 52.3737 32.8097  35
   1  -3  14 88.3719 31.5785  30
   1  -3  14 54.3846 26.1639  40
   1  -3  14 85.1691 31.3669  35
   1  -3  15 498.705 61.2586  35
   1  -3  15 553.063 63.9752  40
   1  -2 -15 383.415 51.1354  28
  -1   2  15 379.129 50.6316  40
  -1   2  15 375.409 50.8056  31
  -1   2  14 20.2031 20.7149  31
   1  -2 -14 23.6645 22.3336  38
   1  -2 -14 78.6036 32.3564  28
  -1   2  14 40.8978 19.6231  40
  -1   2  13 528.182 78.7258  40
   1  -2 -13 622.699 83.9203  28
  -1   2  13 487.484 75.2485  31
  -1   2  13 539.535 72.5740  35
   1  -2 -13 535.048 72.2191  38
  -1   2  12 3561.65 203.691  25
   1  -2 -12 3480.00 203.496  19
  -1   2  12 3649.27 194.023  35
  -1   2  12 3673.22 212.189  31
   1  -2 -12 3467.65 192.042  38
  -1   2  12 3682.56 211.753  40
  -1   2  12 3634.00 190.303  33
   1  -2 -11 522.166 80.2772  19
   1  -2 -11 522.635 78.0369  38
  -1   2  11 599.571 82.5579  33
  -1   2  11 530.999 85.2394  31
  -1   2  11 658.149 85.2273  35
  -1   2  11 539.572 83.0853  46
  -1   2  11 539.296 84.9958  40
  -1   2  11 585.985 85.3186  25
  -1   2  10 101.025 47.0855  31
   1  -2 -10 103.211 34.6887  11
  -1   2  10 104.911 40.9834  25
  -1   2  10 232.276 51.7549  35
  -1   2  10 85.8316 36.9657  40
   1  -2 -10 124.463 46.4200  38
  -1   2  10 71.3785 32.1412  46
  -1   2  10 168.342 52.5143  33
   1  -2 -10 103.579 35.4436  19
  -1   2   9 1206.37 100.930   2
   1  -2  -9 1425.18 146.889   3
  -1   2   9 1385.78 125.869  31
  -1   2   9 1433.78 125.603  40
   1  -2  -9 1287.62 114.822  38
   1  -2  -9 1224.71 113.093  11
  -1   2   9 1224.49 111.393  33
   1  -2  -9 1360.27 119.405  19
  -1   2   9 1305.37 120.146  46
  -1   2   9 1363.62 119.369  25
  -1   2   8 1177.83 98.2499  21
   1  -2  -8 1074.40 95.1388  42
   1  -2  -8 942.247 92.4751  11
   1  -2  -8 923.652 92.8435  19
  -1   2   8 1033.89 101.017  46
   1  -2  -8 1069.46 117.303   3
  -1   2   8 989.850 94.6902  42
  -1   2   8 1028.16 96.5477  43
  -1   2   8 943.853 84.0202   2
   1  -2  -7 19701.9 376.431  42
   1  -2  -7 19861.5 456.558   3
  -1   2   7 19704.0 401.299  43
   1  -2  -7 19314.6 384.698  11
  -1   2   7 19817.9 346.999   2
  -1   2   7 19174.6 375.345  21
  -1   2   7 18870.2 390.106  42
  -1   2   7 19624.5 400.038  46
   1  -2  -7 19997.9 396.088  19
  -1   2   6 9318.39 250.952  21
   1  -2  -6 9763.04 298.296   3
  -1   2   6 10011.5 271.276  43
   1  -2  -6 9935.77 250.519  42
  -1   2   6 9703.29 223.737   2
  -1   2   6 9331.03 256.492  46
   1  -2  -6 9346.67 246.622  11
   1  -2  -6 9610.48 256.054  19
  -1   2   5 271963. 1281.91  21
  -1   2   5 274392. 1281.48  46
  -1   2   5 273291. 1324.73  43
   1  -2  -5 271765. 1219.28  42
  -1   2   5 272627. 1093.82   2
  -1   2   4 137.895 30.0044  46
   1  -2  -4 168.162 36.6713   3
   1  -2  -4 164.226 29.6949  42
  -1   2   4 167.711 32.4769  21
  -1   2   4 163.286 34.5434  43
   1  -2  -4 209.485 32.9493  11
   1  -2  -4 175.139 30.2517  19
  -1   2   4 215.702 29.9940   2
   1  -2  -4 181.202 27.8612   1
  -1   2   3 1620.74 89.9753  21
   1  -2  -3 1572.65 81.1816  42
   1  -2  -3 1567.73 72.0101   1
   1  -2  -3 1434.13 87.6515   3
   1  -2  -3 1588.43 67.4530  15
  -1   2   3 1572.57 72.1714   2
  -1   2   3 1555.70 84.1203  46
   1  -2  -3 1619.27 84.1607  19
  -1   2   3 1573.86 90.0840  43
  -1   2   2 17027.5 249.962  46
   1  -2  -2 17082.2 274.054   3
  -1   2   2 17815.7 230.224   4
   1  -2  -2 17397.4 254.585  19
   1  -2  -2 16891.6 230.306   1
  -1   2   2 17348.5 272.745  43
   1  -2  -2 17294.5 220.576  15
   1  -2  -2 17571.5 251.637  42
   1  -2  -1 16387.6 236.841   3
   1  -2  -1 17130.4 233.655   1
  -1   2   1 16869.7 223.922  46
   1  -2  -1 16932.8 228.299  42
  -1   2   1 16669.4 230.019  17
  -1   2   1 16291.9 206.162   4
  -1   2   1 17355.3 253.137  43
  -1   2   0 220711. 811.986  43
  -1   2   0 217261. 804.962  42
   1  -2   0 216831. 758.867  42
  -1   2   0 220428. 851.380  17
  -1   2   0 218266. 736.838   4
   1  -2   0 216178. 764.522   3
   1  -2   0 215382. 849.977   1
  -1   2  -1 275835. 814.992  43
   1  -2   1 274498. 972.681   1
  -1   2  -1 274516. 819.420  42
  -1   2  -1 273285. 837.840   4
  -1   2  -2 341900. 984.878   4
  -1   2  -2 341879. 809.418  41
   1  -2   2 338919. 982.122   5
  -1   2  -2 344228. 899.825   9
   1  -2   2 339439. 1120.31   1
  -1   2  -2 340400. 1158.51  45
  -1   2  -2 352599. 1053.56  12
  -1   2  -2 343305. 797.652  43
  -1   2  -2 344654. 806.101  42
   1  -2   2 336746. 1008.71   7
   1  -2   2 338696. 1040.76  19
  -1   2  -2 348629. 1142.85  17
  -1   2  -3 23278.5 182.967  41
  -1   2  -3 22796.2 307.451  17
   1  -2   3 22521.2 258.260   7
  -1   2  -3 22438.7 249.278   9
   1  -2   3 22296.8 277.248  19
  -1   2  -3 22487.6 276.144  12
  -1   2  -3 22229.9 305.228  45
  -1   2  -3 23305.8 181.175  42
   1  -2   3 23038.6 283.994   2
  -1   2  -3 23566.3 181.065  43
  -1   2  -3 22210.4 265.265   4
   1  -2   3 22682.6 267.744   5
   1  -2   4 58248.4 452.483   5
  -1   2  -4 57284.2 453.056  12
  -1   2  -4 56057.1 457.730   4
  -1   2  -4 56080.2 503.997  45
   1  -2   4 57053.2 424.660   7
  -1   2  -4 55752.4 501.778  17
   1  -2   4 56046.9 469.488   2
  -1   2  -5 14609.2 257.248   4
   1  -2   5 14872.9 262.081   2
  -1   2  -5 14954.2 271.551  17
   1  -2   5 14703.8 226.204   7
  -1   2  -5 14555.7 270.532  45
   1  -2   5 14507.8 238.031   5
   1  -2   6 76563.9 577.841   5
  -1   2  -6 77438.8 647.403   4
  -1   2  -6 79279.7 583.498  20
  -1   2  -6 79424.1 662.870  45
   1  -2   6 81926.7 567.368   7
   1  -2   6 78279.2 650.316   2
  -1   2  -6 78837.6 596.794  15
  -1   2  -6 80835.7 643.806  17
   1  -2   7 64122.9 535.372   7
   1  -2   7 59625.2 540.708   5
  -1   2  -7 59868.5 574.794  10
  -1   2  -7 56577.9 599.233   4
   1  -2   7 60786.0 624.523   2
  -1   2  -7 61252.3 557.621  15
  -1   2  -8 4439.10 157.229  15
   1  -2   8 4117.83 149.736   5
   1  -2   8 4501.77 152.209   7
   1  -2   8 4281.82 180.862   2
  -1   2  -8 3876.60 170.140   4
  -1   2  -8 4327.96 163.959  10
  -1   2  -9 2042.83 134.786  44
   1  -2   9 2105.86 137.471   2
  -1   2  -9 1883.76 129.153   4
  -1   2  -9 2059.11 119.036  10
   1  -2  10 924.474 98.9505  25
  -1   2 -10 842.181 84.8092  19
  -1   2 -10 840.766 86.8298  14
   1  -2  10 904.221 103.308  35
  -1   2 -10 838.635 80.8344  10
   1  -2  10 868.823 94.2499   2
   1  -2  10 784.098 89.4084  40
  -1   2 -10 779.034 89.2080   4
   1  -2  10 909.789 93.8170  30
   1  -2  10 922.231 101.625  27
   1  -2  11 3879.92 201.714  30
  -1   2 -11 3921.61 194.237  14
  -1   2 -11 4125.45 195.415  19
   1  -2  11 3519.53 208.367  35
   1  -2  11 3723.17 206.098  25
   1  -2  11 4010.74 208.381  40
  -1   2 -12 2014.21 144.876  14
   1  -2  12 2053.26 148.035  30
   1  -2  12 1895.30 148.097  25
  -1   2 -12 1962.66 139.940  19
   1  -2  12 2238.07 159.006  40
   1  -2  12 1934.82 158.253  35
   1  -2  13 387.674 64.1529  30
   1  -2  13 357.185 69.0185  35
   1  -2  14-1.64789 27.7463  40
   1  -2  14-32.2758 36.2201  35
   1  -2  15 105.557 33.8006  40
   1  -2  15 95.9169 31.0147  35
   1  -2  16 45.8004 19.8795  35
   1  -2  16 9.17660 13.7684  40
  -1   1  15 277.367 50.0834  40
   1  -1 -15 321.687 52.4749  28
  -1   1  15 243.123 43.3939  31
  -1   1  15 236.765 42.7694  35
  -1   1  14 1276.50 113.004  31
  -1   1  14 1261.90 106.581  35
  -1   1  14 1420.70 122.066  40
   1  -1 -13 126.592 41.5995  38
  -1   1  13 245.792 58.2668  31
  -1   1  13 234.699 59.7376  40
  -1   1  13 232.897 56.5462  35
  -1   1  12 5559.93 236.615  33
  -1   1  12 5670.52 265.078  31
   1  -1 -12 5555.78 247.941  19
  -1   1  12 5507.11 261.835  25
  -1   1  12 5809.54 256.512  35
   1  -1 -12 5815.57 243.291  38
  -1   1  12 5327.97 256.585  40
  -1   1  11 1999.52 159.885  31
  -1   1  11 1794.90 148.828  40
   1  -1 -11 2197.19 164.108  11
  -1   1  11 2070.19 153.272  35
   1  -1 -11 1945.25 142.007  38
  -1   1  11 1655.57 143.843  25
   1  -1 -11 1900.39 143.367  19
  -1   1  11 1898.02 144.556  33
  -1   1  10 461.900 74.3868  46
   1  -1 -10 509.260 75.7951  11
  -1   1  10 533.204 80.0709  40
  -1   1  10 587.735 85.9447  25
   1  -1 -10 456.047 69.5826  19
   1  -1 -10 454.779 67.8905  38
  -1   1  10 496.938 73.8669  35
  -1   1  10 441.595 68.2709  33
  -1   1  10 486.985 77.0728  31
   1  -1  -9-4.70818 24.4610   3
  -1   1   9 20.7570 22.1701   2
  -1   1   9 22.0591 20.9918  46
   1  -1  -9 51.8747 28.0158  11
   1  -1  -9 42.4490 25.1260  19
  -1   1   8 8163.10 229.908  21
   1  -1  -8 8052.87 285.482   3
   1  -1  -8 8111.15 257.565  11
   1  -1  -8 8391.13 248.147  19
  -1   1   8 8357.41 261.963  46
  -1   1   8 8504.47 224.735   2
   1  -1  -7 98201.1 916.193   3
   1  -1  -7 99036.1 779.781  19
  -1   1   7 98025.0 757.206  43
   1  -1  -7 101049. 741.101  42
  -1   1   7 97950.3 780.836   6
  -1   1   7 98607.6 757.276  21
  -1   1   7 95469.1 749.303  42
   1  -1  -7 98430.7 826.397  11
  -1   1   7 101903. 717.567   2
  -1   1   7 98677.0 833.164  46
   1  -1  -6 6263.15 211.234   3
   1  -1  -6 5715.67 163.109  42
  -1   1   6 5783.05 174.987  43
  -1   1   6 5971.22 187.516  46
  -1   1   6 5425.40 168.182  42
   1  -1  -6 5497.03 178.195  11
  -1   1   6 5794.45 155.474   2
   1  -1  -6 6083.78 177.042  19
  -1   1   6 5756.04 173.726  21
  -1   1   6 5873.30 172.539   6
   1  -1  -5 11784.6 265.596   3
  -1   1   5 11676.8 200.482   2
   1  -1  -5 11452.9 222.705  19
   1  -1  -5 11750.3 215.562  42
   1  -1  -5 11807.8 235.025  11
  -1   1   5 10826.8 220.303  42
  -1   1   5 12218.2 220.590   6
  -1   1   5 12733.5 249.731  46
  -1   1   5 11558.6 230.504  21
  -1   1   5 11312.2 227.353  43
  -1   1   4 85394.6 578.160  43
  -1   1   4 86571.9 489.703   2
   1  -1  -4 88411.3 553.019  19
   1  -1  -4 87795.6 545.007  42
  -1   1   4 86196.5 597.374  46
   1  -1  -4 89221.0 580.004  11
  -1   1   4 90302.9 528.650   6
   1  -1  -4 89715.8 650.615   3
   1  -1  -3 1099.73 57.7363  11
  -1   1   3 1104.43 54.9674   4
  -1   1   3 1112.53 61.4338  43
   1  -1  -3 1058.74 55.3279  42
   1  -1  -3 1016.41 62.7777   3
  -1   1   3 1050.09 46.7654   6
  -1   1   3 1046.90 58.5468  42
  -1   1   3 1028.21 49.0770   2
   1  -1  -2 25732.8 271.428   3
  -1   1   2 25996.4 239.473   4
  -1   1   2 25578.5 192.115   6
  -1   1   1 3420.27 81.7986   4
   1  -1  -1 3609.90 86.7231   3
   1  -1   0 91657.0 346.409   3
  -1   1   0 92504.5 417.112   4
   1  -1   1 538887. 1038.22   1
  -1   1  -1 534189. 888.328  42
  -1   1  -1 535565. 881.142  43
  -1   1  -1 539723. 1026.87   4
  -1   1  -1 534896. 898.190  41
  -1   1  -2 95320.1 358.402  43
  -1   1  -2 95326.8 359.207  42
  -1   1  -2 95099.3 362.722  41
  -1   1  -2 95498.6 469.919   4
   1  -1   2 93801.9 387.179   7
   1  -1   2 94066.0 456.185   1
  -1   1  -3 55821.7 280.748  42
   1  -1   3 54682.4 343.373   5
  -1   1  -3 55884.3 282.155  41
  -1   1  -3 55761.3 280.339  43
   1  -1   3 54378.2 381.363   2
  -1   1  -3 57172.5 409.020   4
   1  -1   3 54169.2 302.730   7
  -1   1  -3 56369.8 342.299  45
  -1   1  -4 12910.1 148.251  43
  -1   1  -4 13019.6 193.155  15
  -1   1  -4 12925.6 197.725  10
   1  -1   4 12522.2 201.305   2
  -1   1  -4 12783.9 147.470  42
   1  -1   4 12331.9 157.038   7
   1  -1   4 13008.3 212.411  16
   1  -1   4 12486.3 175.025   5
  -1   1  -4 12472.9 138.223   3
  -1   1  -4 12887.4 147.778  41
  -1   1  -4 12280.7 209.431   4
  -1   1  -5 90.2254 19.2022  10
   1  -1   5 85.6750 15.9362   7
   1  -1   5 132.512 19.8943   5
   1  -1   5 134.204 21.5283  46
  -1   1  -5 84.3288 15.3377  41
   1  -1   5 51.5076 16.5975   2
  -1   1  -5 61.0526 19.6078   4
  -1   1  -5 55.0479 15.2933  15
   1  -1   5 76.0344 19.8669  16
  -1   1  -5 79.1526 14.8009  43
  -1   1  -5 77.2224 15.7890   3
  -1   1  -5 82.2765 15.9969  42
   1  -1   6 37769.8 374.224  46
  -1   1  -6 41966.6 377.973  20
   1  -1   6 39836.7 356.191   5
   1  -1   6 39876.7 472.870  16
  -1   1  -6 40093.7 411.565  10
   1  -1   6 39739.5 442.444   2
  -1   1  -6 39876.9 394.771  15
  -1   1  -6 40054.5 459.891   4
   1  -1   6 41043.5 341.571   7
  -1   1  -7 9426.37 217.753  10
  -1   1  -7 9026.30 240.547   4
   1  -1   7 9598.04 187.672   5
   1  -1   7 9537.58 238.213   2
  -1   1  -7 10034.3 211.695  15
  -1   1  -8 576.213 54.2478  15
   1  -1   8 531.698 62.4004   2
  -1   1  -8 535.662 60.6770  14
  -1   1  -8 519.348 54.7697  10
  -1   1  -8 533.408 64.7425   4
   1  -1   9 233.607 46.3233   2
  -1   1  -9 220.895 42.1946  14
  -1   1  -9 258.316 47.6596  19
  -1   1  -9 199.966 45.9473   4
   1  -1  10 2626.06 169.274  25
   1  -1  10 2362.57 148.145  30
  -1   1 -10 2493.07 147.490  14
  -1   1 -10 2423.60 159.779   4
  -1   1 -10 2524.64 146.108  19
   1  -1  10 2731.52 166.792  40
   1  -1  10 2541.95 157.672   2
   1  -1  10 2558.20 169.381  27
   1  -1  10 2732.10 174.796  35
   1  -1  11 455.195 79.9943  35
   1  -1  11 351.439 64.2202  30
  -1   1 -11 424.303 68.1535  19
   1  -1  11 579.224 83.0105  40
   1  -1  11 451.388 78.9827  25
  -1   1 -11 489.338 71.2024  14
   1  -1  11 453.150 77.2963  27
  -1   1 -12 13266.8 373.520  14
  -1   1 -12 13589.9 375.353  19
   1  -1  12 13119.9 403.398  25
  -1   1 -12 13534.0 403.302  11
   1  -1  12 13391.6 413.505  35
   1  -1  12 12522.6 360.995  30
   1  -1  13 2632.72 182.807  35
   1  -1  13 2753.83 176.408  40
   1  -1  13 2573.78 177.443  25
   1  -1  14 659.461 88.1083  35
   1  -1  14 789.171 91.4979  40
   1  -1  15 13.8196 20.0695  35
  -1   1 -15 10.0345 22.2362  38
   1  -1  15 37.6316 25.2311  40
   1  -1  16 1413.54 90.7728  35
   1  -1  16 1534.66 94.9184  40
  -1   0  16 1245.60 86.6278  40
   1   0 -16 1280.54 87.2374  28
  -1   0  15 74.7947 30.9231  40
  -1   0  15 58.1382 30.1953  35
  -1   0  14 19.6882 29.1886  31
  -1   0  14-21.4766 32.2077  35
  -1   0  14-10.8881 27.0059  40
  -1   0  13 16716.9 442.408  31
  -1   0  13 16601.5 437.845  40
  -1   0  13 16453.8 438.523  35
  -1   0  12 24862.8 548.542  35
  -1   0  12 24893.3 542.672  40
   1   0 -12 26628.4 517.721  19
   1   0 -12 25829.6 570.458  11
  -1   0  12 24718.7 549.213  31
  -1   0  11 11378.3 336.906  33
  -1   0  11 11142.7 358.338  40
   1   0 -11 11161.1 362.258  11
  -1   0  11 10764.7 363.254  25
  -1   0  11 10987.3 363.023  31
  -1   0  11 10973.6 363.042  35
   1   0 -11 11942.8 333.709  19
   1   0 -10 87.7593 37.6115  11
  -1   0  10 71.6522 33.4785  31
  -1   0  10 75.6997 31.8570  35
  -1   0  10 87.1787 37.5352  40
  -1   0  10 56.7218 30.4133  33
   1   0 -10 158.483 39.9689  19
  -1   0  10 70.4242 31.7800   6
  -1   0  10 47.1714 25.7312  25
   1   0  -9 19091.8 438.129   3
  -1   0   9 19213.4 350.712   2
  -1   0   9 18553.8 429.623   6
   1   0  -9 19216.7 415.058  11
   1   0  -9 19404.1 374.569  19
  -1   0   8 41615.8 469.213   2
   1   0  -8 41069.3 502.805  14
   1   0  -8 41598.5 498.332  19
   1   0  -8 41438.9 563.099  11
  -1   0   8 41001.1 557.797  46
  -1   0   8 39945.5 582.027   6
   1   0  -8 39654.3 580.900   3
  -1   0   7 41281.1 421.192   2
   1   0  -7 41827.9 456.158  19
  -1   0   7 40404.3 452.065  21
   1   0  -7 41211.4 458.970  14
   1   0  -7 41127.0 510.445  11
  -1   0   7 40395.5 534.631   6
   1   0  -7 40170.3 531.818   3
  -1   0   7 39388.6 502.963  46
  -1   0   6 18151.0 312.472  46
  -1   0   6 18482.1 252.693   2
   1   0  -6 18526.7 275.493  14
   1   0  -6 18729.3 273.111  19
  -1   0   6 18084.5 244.863  42
   1   0  -6 19115.9 333.688   3
  -1   0   6 18607.5 331.090   6
  -1   0   6 18407.6 284.664  21
   1   0  -6 18596.6 312.932  11
  -1   0   6 18040.5 244.238  43
   1   0  -5 3075.13 114.358  11
  -1   0   5 3108.14 91.6551   2
  -1   0   5 3556.26 100.624  43
   1   0  -5 3223.43 123.025   3
  -1   0   5 3156.68 122.465   6
  -1   0   5 3063.07 117.618  46
   1   0  -5 3283.22 102.312  19
   1   0  -5 3276.05 102.730  14
  -1   0   5 3533.51 100.179  42
  -1   0   4 57.7475 11.3081   2
   1   0  -4 102.354 17.0453  14
  -1   0   4 134.117 24.2334  46
   1   0  -4 65.0874 16.5297  11
   1   0  -4 61.0502 19.2798   3
  -1   0   4 35.9505 13.4268   6
  -1   0   3 7931.94 124.667  43
  -1   0   3 7931.84 124.823  42
  -1   0   3 7851.90 108.062   2
  -1   0   3 7817.85 145.372   6
   1   0  -3 8012.02 151.919   3
  -1   0   2 101186. 400.627  43
  -1   0   2 100225. 400.190  42
  -1   0   2 100796. 404.607  41
  -1   0   2 100754. 319.872   2
  -1   0   1 338420. 647.115   4
   1   0  -1 338900. 782.712   8
   1   0   0 109182. 333.630   2
  -1   0   0 107948. 370.821   4
  -1   0  -1 2063.24 57.4066   4
   1   0   1 1973.12 51.3153   2
  -1   0  -2 15661.6 166.579  43
  -1   0  -2 15434.4 165.363  42
   1   0   2 15581.9 168.561   2
  -1   0  -2 15123.0 169.832   3
  -1   0  -2 15511.8 166.249  41
   1   0   2 15070.9 122.855   1
  -1   0  -2 15642.3 185.467   4
   1   0   3 7314.68 95.1664   5
   1   0   3 7568.72 135.322   2
  -1   0  -3 7320.42 126.975  41
  -1   0  -3 7359.02 136.719   3
  -1   0  -3 7367.06 127.667  43
  -1   0  -3 7212.81 125.754  42
   1   0   4 133.240 15.2991   5
  -1   0  -4 106.288 19.0791  15
  -1   0  -4 106.240 21.5191   3
  -1   0  -4 121.521 19.3162  43
   1   0   4 114.853 20.1190   2
  -1   0  -4 108.782 18.0377  42
  -1   0  -4 131.109 20.7728  10
  -1   0  -4 106.636 18.2137  41
   1   0   4 87.1780 17.6265  46
   1   0   4 114.739 23.2834  16
  -1   0  -5 67.0634 16.0930  15
   1   0   5 13.5082 10.5999   2
  -1   0  -5 24.2708 10.7369  42
   1   0   5 38.4824 15.3375  16
  -1   0  -5 25.1595 11.1640  41
   1   0   5 90.4098 14.2229   5
  -1   0  -5 22.8314 10.1286  43
   1   0   5 117.180 22.4734  46
  -1   0  -5 59.6663 18.3714   3
  -1   0  -6 14376.5 257.981  14
   1   0   6 14410.0 257.286  46
  -1   0  -6 14727.3 238.034  41
   1   0   6 14164.2 289.217  16
   1   0   6 14590.9 263.977   2
  -1   0  -6 15084.3 263.690  19
  -1   0  -6 14659.5 239.267  43
  -1   0  -6 14748.5 238.374  42
  -1   0  -6 14061.7 270.370   3
  -1   0  -6 14867.4 248.659  15
  -1   0  -7 93.4011 24.2943  14
  -1   0  -7 76.9915 21.2539  42
  -1   0  -7 100.319 25.9611  19
  -1   0  -7 69.0546 19.7313  41
  -1   0  -7 126.359 29.5599   3
   1   0   7 73.3809 23.1777   2
   1   0   7 93.7528 29.6913  16
   1   0   7 74.5474 24.0847  46
  -1   0  -7 74.2018 20.6670  43
   1   0   8 1969.53 117.685   2
  -1   0  -8 1762.24 120.533   4
   1   0   8 1618.42 104.075  46
  -1   0  -8 1758.62 110.075  19
  -1   0  -8 1731.09 97.2462  15
  -1   0  -8 1665.90 106.664  14
   1   0   9 2682.74 152.380   2
  -1   0  -9 2364.17 136.884  19
  -1   0  -9 2538.48 143.089  14
  -1   0  -9 2471.21 154.634   4
  -1   0 -10 9240.13 291.440  14
  -1   0 -10 9860.39 297.165  19
   1   0  10 9169.47 293.232  30
   1   0  10 10143.3 337.527  35
   1   0  10 9941.64 334.320  27
   1   0  10 10272.6 320.407  40
   1   0  10 9615.86 330.335  25
   1   0  10 9725.42 316.696  31
  -1   0 -11 36751.5 613.728  14
  -1   0 -11 36922.6 634.174  11
   1   0  11 38364.1 684.542  27
   1   0  11 37839.3 680.534  35
  -1   0 -11 39597.8 606.101  34
   1   0  11 38221.0 648.362  40
   1   0  11 37783.3 684.354  25
  -1   0 -11 38487.4 622.905  19
   1   0  11 37638.0 644.751  31
   1   0  12 14178.2 403.018  40
   1   0  12 14797.2 404.519  31
  -1   0 -12 14375.0 394.991  19
   1   0  12 14356.8 428.525  25
   1   0  12 14405.7 428.912  35
   1   0  13 1512.64 137.142  25
   1   0  13 1679.59 137.283  40
   1   0  13 1715.94 132.975  31
   1   0  13 1786.95 149.645  35
  -1   0 -14 3589.94 182.304  38
   1   0  14 3847.37 201.386  25
   1   0  14 3470.05 185.402  40
   1   0  14 3774.58 197.104  35
   1   0  15 348.535 54.6529  40
  -1   0 -15 395.626 55.4840  38
   1   0  15 420.117 60.7294  35
   1   0  16 78.3913 24.4442  35
  -1  -1  16 36.9599 20.8578  35
  -1  -1  16 2.18240 13.6411  40
  -1  -1  15 206.877 41.9270  35
  -1  -1  15 230.448 45.8334  40
  -1  -1  14 4820.99 218.306  40
  -1  -1  14 4682.30 220.942  35
  -1  -1  13 5547.43 246.743  40
  -1  -1  13 5393.46 253.346  35
  -1  -1  12 3008.74 189.894  31
   1   1 -12 3201.78 200.672  11
  -1  -1  12 2857.35 191.311  35
  -1  -1  12 3134.45 188.775  40
  -1  -1  11 176.041 49.4561  31
  -1  -1  11 176.686 44.0845  30
   1   1 -11 179.378 52.7096  11
  -1  -1  11 212.260 52.9846  40
  -1  -1  11 103.387 39.0554  35
  -1  -1  10 11666.0 358.009  31
   1   1 -10 12332.5 310.695  14
  -1  -1  10 11778.1 313.263  30
   1   1 -10 11570.3 346.092  11
  -1  -1  10 11360.1 380.334   6
  -1  -1  10 12114.7 343.380  40
  -1  -1  10 11553.3 359.345  35
   1   1  -9 2961.74 140.961  14
   1   1  -9 3192.01 143.150  19
   1   1  -9 3141.75 167.347  11
  -1  -1   9 2805.66 178.049   6
   1   1  -8 4228.15 180.519  44
   1   1  -8 4004.79 149.027  14
   1   1  -8 3824.02 169.747  11
   1   1  -8 3931.48 175.983   3
   1   1  -8 4109.12 146.588  19
  -1  -1   8 3736.90 188.667   6
  -1  -1   7 6547.39 161.493   2
   1   1  -7 6683.07 169.057  19
  -1  -1   7 6549.81 231.071   6
   1   1  -7 6319.77 196.852  11
   1   1  -7 6035.33 201.795  44
   1   1  -7 6716.17 173.636  14
   1   1  -7 6181.66 198.986   3
  -1  -1   6 2680.23 90.8342   2
   1   1  -6 2767.40 100.547  14
  -1  -1   6 2778.44 136.579   6
   1   1  -6 2571.48 114.833  11
   1   1  -6 2708.91 120.410   3
   1   1  -6 2469.42 121.480  44
   1   1  -6 2725.97 96.5028  19
  -1  -1   5 31837.1 269.200   2
   1   1  -5 31976.6 403.653  44
  -1  -1   5 31670.6 339.120   7
   1   1  -5 32714.1 377.895   3
  -1  -1   5 32063.2 418.138   6
   1   1  -4 3362.17 123.224  44
  -1  -1   4 3336.18 61.8200  41
  -1  -1   4 3746.32 128.751   6
  -1  -1   4 3480.21 73.0668   2
  -1  -1   4 3359.32 62.3327  43
   1   1  -4 3438.48 111.428   3
  -1  -1   4 3361.58 62.2382  42
   1   1  -4 3609.35 108.104  11
  -1  -1   4 3657.02 105.423   7
  -1  -1   4 3483.59 103.922   5
  -1  -1   3 187027. 480.622  41
  -1  -1   3 185607. 476.924  42
  -1  -1   3 184813. 408.776   2
  -1  -1   3 188049. 683.281   7
  -1  -1   3 189260. 799.529   6
  -1  -1   3 189517. 482.298  43
   1   1  -2 299952. 948.264  13
  -1  -1   2 285069. 631.834  42
  -1  -1   2 287837. 636.014  41
  -1  -1   2 295351. 767.074   7
  -1  -1   2 290527. 638.134  43
  -1  -1   1 398873. 775.440   7
  -1  -1   1 404695. 817.790  43
   1   1  -1 403110. 1022.18  13
   1   1  -1 400238. 972.276  44
  -1  -1   1 400304. 812.095  41
  -1  -1   1 404037. 815.322  42
   1   1   0 21525.4 128.084   2
  -1  -1   0 21387.0 152.396   7
   1   1   0 22814.6 200.464  44
  -1  -1   0 23068.6 142.567   4
  -1  -1   0 21302.2 205.272  42
  -1  -1   0 21271.2 205.613  41
  -1  -1   0 21608.5 207.010  43
  -1  -1  -1 92193.6 548.814   3
   1   1   1 92562.9 351.507   2
   1   1   1 92875.3 416.826  45
   1   1   2 150.913 18.0566   2
  -1  -1  -2 159.197 27.0240   3
  -1  -1  -2 141.537 9.70691   7
  -1  -1  -3 142228. 629.612  14
  -1  -1  -3 141812. 644.189  19
  -1  -1  -3 140878. 796.820   3
  -1  -1  -3 142355. 688.476  43
   1   1   3 143491. 756.803  46
  -1  -1  -3 143807. 698.626  15
  -1  -1  -3 142174. 686.430  42
  -1  -1  -3 142203. 685.228  41
   1   1   3 142684. 610.630   2
  -1  -1  -4 10087.4 198.890  42
  -1  -1  -4 9666.96 187.364  14
  -1  -1  -4 10207.4 199.701  41
   1   1   4 10375.8 187.657   2
   1   1   4 10052.8 215.319  16
  -1  -1  -4 9962.24 227.471   3
  -1  -1  -4 10160.8 200.575  15
  -1  -1  -4 9865.06 197.753  43
   1   1   4 9786.19 211.641  46
  -1  -1  -4 9756.89 193.575  19
  -1  -1  -4 10521.4 197.376  20
  -1  -1  -5 33375.2 453.137   3
   1   1   5 33231.6 374.046   2
  -1  -1  -5 32352.6 384.788  41
  -1  -1  -5 33562.2 372.051  20
  -1  -1  -5 32728.4 384.127  15
  -1  -1  -5 31890.0 376.749  14
  -1  -1  -5 32175.2 383.563  42
   1   1   5 32208.5 409.014  46
  -1  -1  -5 32387.1 385.200  43
  -1  -1  -5 32453.0 383.475  19
   1   1   5 31980.9 421.461  16
  -1  -1  -6 5530.36 175.163  19
   1   1   6 5808.07 175.018   2
  -1  -1  -6 5770.57 204.131   3
   1   1   6 5632.55 185.045  46
  -1  -1  -6 5590.97 173.731  41
  -1  -1  -6 5802.93 176.751  42
   1   1   6 5919.50 198.716  16
  -1  -1  -6 5558.94 176.237  14
  -1  -1  -6 5997.05 177.579  15
  -1  -1  -6 5622.39 174.268  43
  -1  -1  -7 6659.19 211.942  14
  -1  -1  -7 6861.33 244.704   3
  -1  -1  -7 7350.50 207.738  15
   1   1   7 7043.57 238.443  16
  -1  -1  -7 7067.61 210.183  43
  -1  -1  -7 6997.92 209.442  42
  -1  -1  -7 7159.88 211.835  41
  -1  -1  -7 6635.83 209.291  19
   1   1   7 6929.97 220.807  46
   1   1   7 6926.44 209.280   2
  -1  -1  -8 434.156 60.2379  19
  -1  -1  -8 405.276 65.7063   3
   1   1   8 242.089 43.5817  46
  -1  -1  -8 474.034 60.6180  43
  -1  -1  -8 529.138 64.0778  41
   1   1   8 446.698 59.6575   2
  -1  -1  -8 410.928 56.4864  42
   1   1   8 521.862 69.6655  43
  -1  -1  -8 440.795 59.0049  14
   1   1   9 191.856 46.3739  40
   1   1   9 243.686 49.6529   2
   1   1   9 303.386 59.6012  46
   1   1   9 187.166 46.1624  27
   1   1   9 251.239 55.6987  31
  -1  -1  -9 225.762 45.8827  34
  -1  -1  -9 208.012 44.5095  11
  -1  -1  -9 156.336 42.2146  19
  -1  -1  -9 275.689 55.6866   4
   1   1   9 148.772 46.4944  35
   1   1   9 181.517 48.0537  25
  -1  -1 -10 22061.6 464.229  34
   1   1  10 22322.8 519.255  25
   1   1  10 22630.8 509.369  31
  -1  -1 -10 22645.2 478.703  19
   1   1  10 22348.6 479.322  40
  -1  -1 -10 22037.7 460.290  11
   1   1  10 22812.9 507.185  27
   1   1  10 22335.6 520.894  35
   1   1  10 23061.2 471.396  46
   1   1  11 2264.64 165.233  31
  -1  -1 -11 2274.91 157.156  11
   1   1  11 2145.98 160.235  27
   1   1  11 2143.32 155.309  40
  -1  -1 -11 2379.49 163.202  19
  -1  -1 -11 2094.81 146.717  34
   1   1  11 2255.05 170.754  25
   1   1  11 2243.11 169.069  35
   1   1  12 20.4781 23.3203  31
  -1  -1 -12-25.2774 36.4864  38
   1   1  12 39.2058 31.7226  40
  -1  -1 -12 7.36929 20.4911  19
   1   1  12 103.878 42.3769  25
   1   1  12 36.5870 31.4852  35
   1   1  13 757.174 89.1554  31
   1   1  13 716.146 95.1411  25
   1   1  13 713.282 92.3518  35
   1   1  13 545.745 75.9416  40
  -1  -1 -13 824.308 95.0432  38
   1   1  14 768.316 80.4648  31
  -1  -1 -14 554.425 71.2619  38
   1   1  14 639.568 77.3032  40
   1   1  14 665.542 80.5354  35
   1   1  14 752.723 86.6968  25
   1   1  15 159.542 34.6351  40
  -1  -1 -15 104.149 30.1903  38
   1   1  15 128.455 34.4366  35
  -1  -2  16 283.994 41.3993  35
  -1  -2  15 15.5971 19.4932  35
  -1  -2  15-4.17415 22.4387  40
  -1  -2  14 194.697 43.6541  40
  -1  -2  14 132.981 41.8993  35
  -1  -2  13 1448.77 119.613  40
  -1  -2  13 1435.11 133.214  35
  -1  -2  12 578.917 79.2810  40
  -1  -2  12 438.293 75.9881  26
   1   2 -12 512.035 89.5033  16
  -1  -2  12 556.214 88.4562  35
  -1  -2  11 1071.41 118.643  26
   1   2 -11 1204.64 119.172  11
  -1  -2  11 1339.74 117.162  40
  -1  -2  11 1253.95 128.363  35
   1   2 -10 20430.2 457.048  11
  -1  -2  10 19624.8 485.636  35
   1   2  -9 21421.8 472.347  44
   1   2  -9 21543.6 437.555  11
  -1  -2   9 21559.4 515.027   6
   1   2  -9 20884.0 536.811   8
  -1  -2   8 19854.5 461.083   6
   1   2  -8 20365.1 439.733  44
   1   2  -8 20628.2 394.671  11
  -1  -2   7 41412.3 490.326   7
   1   2  -7 41981.0 508.875  11
   1   2  -7 41587.6 588.517  44
   1   2  -7 42294.1 531.871   3
  -1  -2   7 40684.6 613.897   6
   1   2  -6 4699.02 154.794  11
   1   2  -6 4762.31 187.000  44
  -1  -2   6 4710.13 193.900   6
   1   2  -6 4461.81 199.983   8
  -1  -2   6 4859.36 159.052   5
  -1  -2   6 4695.90 154.949   7
   1   2  -6 4946.24 168.757   3
  -1  -2   5 2728.22 111.187   5
   1   2  -5 2624.01 103.976  11
  -1  -2   5 2739.42 110.029   7
   1   2  -5 2658.09 143.353   8
   1   2  -5 2744.42 132.963  44
   1   2  -5 2510.86 120.417  16
  -1  -2   5 2598.74 132.110   6
  -1  -2   4 27905.6 385.946   6
   1   2  -4 27322.4 428.898   8
   1   2  -4 27334.3 360.026  16
  -1  -2   4 28851.3 336.575   5
   1   2  -4 28609.4 300.702  11
   1   2  -4 26079.9 375.931  13
  -1  -2   4 28716.6 334.418   7
   1   2  -4 29327.4 403.320  44
   1   2  -3 28768.9 417.477   9
  -1  -2   3 29599.3 348.434  20
   1   2  -3 29405.5 342.134  16
   1   2  -3 29501.8 361.195  13
  -1  -2   3 30853.9 228.011  43
   1   2  -3 30249.1 379.573  18
   1   2  -3 31058.8 392.247  44
   1   2  -3 30867.5 428.949   8
  -1  -2   3 31069.6 319.129   7
  -1  -2   3 30908.8 324.114   5
  -1  -2   3 30977.1 227.567  41
  -1  -2   3 30477.6 227.269  42
  -1  -2   3 29614.8 337.844  15
  -1  -2   3 29907.1 364.748   6
  -1  -2   2 179.830 20.6938  43
  -1  -2   2 159.328 25.6810   6
   1   2  -2 118.102 29.5482  46
  -1  -2   2 123.883 24.1791  20
   1   2  -2 94.1307 21.5069  13
  -1  -2   2 121.536 19.6152   5
  -1  -2   2 145.046 21.6627   7
   1   2  -2 118.265 25.3154  44
   1   2  -2 218.357 31.8611  18
  -1  -2   2 178.301 20.8779  42
   1   2  -2 109.748 28.5892   9
  -1  -2   2 125.497 24.0419  15
  -1  -2   2 175.795 20.4231  41
  -1  -2   1 1440.31 60.6757   7
  -1  -2   1 1490.19 79.0334  20
   1   2  -1 1295.22 85.9607  46
  -1  -2   1 1367.80 61.5225  43
   1   2  -1 1492.19 73.0268  44
  -1  -2   1 1411.75 62.1874  41
  -1  -2   1 1421.27 65.6791   6
   1   2  -1 1442.69 68.1739  16
   1   2  -1 1336.79 85.5655   9
  -1  -2   1 1419.96 62.5749  42
  -1  -2   1 1381.46 58.2173   5
  -1  -2   0 8761.81 167.701  41
   1   2   0 8568.60 204.021  12
  -1  -2   0 8819.20 194.146  20
  -1  -2   0 9005.63 131.137   5
   1   2   0 9362.49 159.710  44
   1   2   0 8463.55 188.530  45
   1   2   0 8750.31 165.638  16
  -1  -2   0 8824.01 169.236  43
   1   2   0 8820.62 218.547  46
  -1  -2   0 8622.33 137.330   7
  -1  -2   0 8879.77 169.098  42
   1   2   0 9200.39 107.669   2
  -1  -2   0 8836.95 188.947  15
  -1  -2   0 8426.96 148.248   6
  -1  -2  -1 488.825 43.4629  42
  -1  -2  -1 424.168 40.6183  43
  -1  -2  -1 421.037 49.1420   3
   1   2   1 468.150 43.5944  45
  -1  -2  -1 464.297 30.3054   7
   1   2   1 616.338 60.1488  46
   1   2   1 484.729 40.4977  16
   1   2   1 434.006 46.6702  12
   1   2   1 500.460 30.9418  44
  -1  -2  -1 383.084 42.5076  20
   1   2   1 442.681 29.7211   2
  -1  -2  -1 462.588 45.2536  15
  -1  -2  -1 402.665 39.5767  41
   1   2   2 2584.09 121.027  21
  -1  -2  -2 2861.27 117.332  20
  -1  -2  -2 2613.79 105.181  43
  -1  -2  -2 2499.88 122.346   3
  -1  -2  -2 2683.74 70.3406   7
   1   2   2 2713.77 123.978  46
   1   2   2 2736.85 83.3368   2
  -1  -2  -2 2744.52 99.2374  19
   1   2   2 2754.54 103.531  16
  -1  -2  -2 2688.92 113.428  15
  -1  -2  -2 2733.53 107.303  42
  -1  -2  -2 2560.19 103.828  41
  -1  -2  -3 50941.9 586.128   3
  -1  -2  -3 52022.3 516.931  20
   1   2   3 51775.8 553.632  21
  -1  -2  -3 52833.5 525.793  15
   1   2   3 51600.9 487.165  16
   1   2   3 51956.2 557.259  46
  -1  -2  -3 50683.3 469.431  19
   1   2   3 52996.7 414.593   2
  -1  -2  -3 50891.3 497.691  43
  -1  -2  -3 50725.2 496.755  42
  -1  -2  -3 50864.0 497.568  41
  -1  -2  -4 37679.5 457.615  41
   1   2   4 38300.1 502.658  46
  -1  -2  -4 38463.0 540.871   3
  -1  -2  -4 37785.0 441.490  19
   1   2   4 38049.0 489.197  21
   1   2   4 38597.7 396.121   2
   1   2   4 38187.4 454.674  16
  -1  -2  -4 37848.2 458.155  43
  -1  -2  -4 37467.8 456.780  42
  -1  -2  -4 36848.9 450.668  20
  -1  -2  -4 38502.0 476.243  15
   1   2   5 23094.8 338.261   2
   1   2   5 22738.4 388.146  21
  -1  -2  -5 23591.6 374.141  20
  -1  -2  -5 23269.9 381.942  41
   1   2   5 22679.6 403.206  46
   1   2   5 23103.6 385.404  16
  -1  -2  -5 22638.6 371.691  19
  -1  -2  -5 23306.8 451.156   3
  -1  -2  -5 22656.0 378.296  43
  -1  -2  -5 23529.9 392.199  15
  -1  -2  -5 23220.5 382.315  42
   1   2   6 1326.21 101.843  16
  -1  -2  -6 1317.59 98.5291  43
  -1  -2  -6 1353.30 99.8577  41
  -1  -2  -6 1338.78 98.7042  19
  -1  -2  -6 1302.65 115.045   3
  -1  -2  -6 1324.53 98.1411  15
   1   2   6 1325.39 104.727  46
  -1  -2  -6 1404.80 101.163  42
   1   2   6 1433.96 93.0017   2
  -1  -2  -7 52.1697 36.2825   3
   1   2   7 36.7321 24.0678   2
  -1  -2  -7 1.30960 14.8833  15
  -1  -2  -7 73.3485 29.6699  41
   1   2   7 31.5042 28.3088  46
   1   2   7 42.5107 22.6327  16
  -1  -2  -7 12.9875 16.7870  19
  -1  -2  -7 77.5842 28.2188  43
  -1  -2  -7 100.203 31.7827  42
   1   2   7 150.012 44.4247  43
   1   2   8 984.393 99.7194  46
   1   2   8 1098.29 114.800  43
   1   2   8 933.468 102.226  31
   1   2   8 1079.76 95.8465   2
  -1  -2  -8 980.621 115.943   3
  -1  -2  -8 1087.59 103.212  19
  -1  -2  -8 1046.11 104.592  38
  -1  -2  -8 1013.96 99.1032  41
   1   2   8 1018.58 105.695  25
  -1  -2  -8 1029.77 98.3358  43
  -1  -2  -8 1030.53 97.7593  42
  -1  -2  -8 971.733 98.4998  34
   1   2   9 7035.64 287.538  35
   1   2   9 8306.82 312.024  25
   1   2   9 7034.66 293.929  31
   1   2   9 8376.58 298.264  46
  -1  -2  -9 7349.32 283.241  38
  -1  -2  -9 7327.19 275.845  34
  -1  -2  -9 7112.33 276.763  19
   1   2  10 1548.48 139.784  25
   1   2  10 1619.98 135.216  46
  -1  -2 -10 1589.66 131.344  34
   1   2  10 1497.12 136.979  35
  -1  -2 -10 1432.17 129.195  19
  -1  -2 -10 1398.51 129.194  38
   1   2  10 1559.08 139.857  31
   1   2  11 307.293 58.3903  40
  -1  -2 -11 277.783 60.7496  19
  -1  -2 -11 251.672 54.1695  34
  -1  -2 -11 350.403 66.5204  38
   1   2  11 419.566 74.3210  25
   1   2  11 297.250 64.2195  35
   1   2  11 264.883 60.9379  31
   1   2  12 1681.93 141.243  25
  -1  -2 -12 1552.42 131.137  38
   1   2  12 1688.12 139.483  35
   1   2  12 1390.59 126.691  31
   1   2  12 1387.90 117.506  40
  -1  -2 -12 1317.39 111.270  34
   1   2  13 258.535 53.6324  35
   1   2  13 337.965 58.2138  31
   1   2  13 208.503 45.2125  40
   1   2  13 285.173 54.6662  25
  -1  -2 -13 321.798 58.0944  38
   1   2  14 1014.13 85.2678  31
  -1  -2 -14 1123.72 86.5178  28
   1   2  14 1107.00 92.8728  25
  -1  -2 -14 971.257 84.7215  38
   1   2  14 1136.54 92.3298  35
  -1  -3  15 233.892 43.1969  35
  -1  -3  14 18.0371 20.7682  35
  -1  -3  13-1.78715 27.5048  35
  -1  -3  12 548.768 89.0750  26
  -1  -3  12 815.882 103.391  35
   1   3 -11 66.0210 44.8173  13
  -1  -3  11 13.2507 25.6380  35
  -1  -3  11-22.2969 37.4407  26
   1   3 -10 68.8026 42.8856  13
  -1  -3  10 68.1294 39.1167  26
  -1  -3  10 86.4407 32.4093  23
  -1  -3  10 127.567 45.2987  35
   1   3  -9-7.20863 31.4248  13
  -1  -3   9-8.65744 30.2171  29
  -1  -3   9-15.3442 35.0767  23
  -1  -3   9 39.0105 31.9366  35
  -1  -3   9-14.3742 33.6726  26
   1   3  -8 1783.13 159.302   8
   1   3  -8 1698.37 135.338  13
  -1  -3   8 1792.95 149.261   6
  -1  -3   8 2006.78 146.859  35
  -1  -3   8 2210.93 131.695   7
  -1  -3   8 1802.62 147.216  26
   1   3  -8 2084.47 155.283  44
   1   3  -7 8.12358 23.4707   9
   1   3  -7-11.2358 27.6545  18
  -1  -3   7 38.8178 21.4256   7
   1   3  -7 23.5698 26.1610  44
   1   3  -7 40.3635 27.1079  13
   1   3  -7 111.682 42.2418   8
  -1  -3   7 125.264 43.0961   6
  -1  -3   7 48.7868 23.3390   5
   1   3  -6 8286.74 293.532   9
   1   3  -6 9112.38 274.355  18
   1   3  -6 8778.64 307.058   8
  -1  -3   6 8983.56 240.757   5
   1   3  -6 9445.00 294.256  44
   1   3  -6 9689.51 256.904   3
  -1  -3   6 9652.41 245.694   7
   1   3  -6 9191.49 267.423  13
  -1  -3   6 8956.53 290.581   6
   1   3  -5 522.895 65.0922  18
   1   3  -5 443.829 70.4361   9
   1   3  -5 597.106 71.3681  44
  -1  -3   5 516.646 54.9375   5
   1   3  -5 506.266 70.0300   8
   1   3  -5 532.072 63.6019  13
   1   3  -4 7869.35 262.534  46
   1   3  -4 8329.61 231.532  18
  -1  -3   4 8711.49 209.962   5
   1   3  -4 8087.22 266.810   9
   1   3  -4 9127.79 256.563  44
  -1  -3   4 8638.39 244.901   6
   1   3  -3 2036.68 110.285  18
   1   3  -3 1880.56 124.959  12
   1   3  -3 2182.07 117.836  44
   1   3  -3 1913.24 126.364  46
  -1  -3   3 2034.82 109.785  15
   1   3  -3 2026.43 131.083   9
  -1  -3   3 2076.92 96.3941   5
  -1  -3   3 2147.00 97.9553   7
  -1  -3   3 1950.34 106.955   6
   1   3  -2 5618.81 202.231  45
   1   3  -2 5568.84 212.182   9
  -1  -3   2 5813.52 142.115  42
  -1  -3   2 5524.03 187.289  20
  -1  -3   2 5716.12 152.362   7
  -1  -3   2 5929.44 152.718   5
   1   3  -2 5453.04 207.008  12
  -1  -3   2 5808.87 142.476  41
   1   3  -2 6055.48 182.700  44
  -1  -3   2 5777.50 183.431  15
  -1  -3   2 5838.72 143.028  43
  -1  -3   2 6035.34 170.057   6
   1   3  -2 5778.80 215.076  46
  -1  -3   1 24265.2 393.698  20
   1   3  -1 23958.5 427.649  12
  -1  -3   1 23971.1 316.369  41
  -1  -3   1 24845.1 304.082   7
  -1  -3   1 24344.5 317.685  42
   1   3  -1 24071.4 433.763  21
  -1  -3   1 24283.3 317.593  43
   1   3  -1 23968.4 433.515  46
  -1  -3   1 23858.8 375.499  15
  -1  -3   1 25214.1 291.017   5
   1   3  -1 23715.7 401.461  45
  -1  -3   1 24609.4 317.191   6
   1   3   0 9195.97 245.350  45
  -1  -3   0 9555.48 249.122  20
   1   3   0 8821.07 253.053  12
  -1  -3   0 8939.24 234.550  15
  -1  -3   0 8745.71 206.486  42
  -1  -3   0 8935.64 208.164  43
  -1  -3   0 9363.64 179.647   7
   1   3   0 9308.57 268.724  46
  -1  -3   0 8850.73 207.861  41
   1   3   0 9145.24 270.155  21
  -1  -3  -1 6831.56 175.389  19
  -1  -3  -1 6734.08 148.490   7
  -1  -3  -1 6616.53 211.600  20
   1   3   1 6379.10 218.764  12
  -1  -3  -1 6685.05 190.737  43
  -1  -3  -1 6750.95 190.919  42
  -1  -3  -1 6591.85 191.340  41
   1   3   1 6750.42 228.951  46
  -1  -3  -1 6511.39 206.000  15
   1   3   1 6640.58 231.585  21
   1   3   2 3387.74 170.668  21
  -1  -3  -2 3374.42 154.548  20
  -1  -3  -2 3244.97 130.470  19
  -1  -3  -2 3370.80 153.355  15
  -1  -3  -2 3245.16 169.541   3
  -1  -3  -2 3141.73 139.280  43
  -1  -3  -2 3257.04 140.908  42
  -1  -3  -2 3236.03 140.273  41
   1   3   2 3259.26 163.015  46
   1   3   3 43404.6 613.418  21
  -1  -3  -3 43933.9 547.446  41
  -1  -3  -3 42258.7 558.924  20
  -1  -3  -3 45052.6 646.857   3
  -1  -3  -3 43520.4 543.514  43
  -1  -3  -3 43796.6 512.705  19
   1   3   3 43592.6 600.855  46
   1   3   3 44842.3 434.083   2
  -1  -3  -3 43425.9 542.068  42
  -1  -3  -3 42545.9 562.130  15
  -1  -3  -4 251.722 46.9174  15
  -1  -3  -4 250.030 45.6494  43
  -1  -3  -4 242.822 44.5145  41
  -1  -3  -4 294.906 51.1460  20
   1   3   4 251.396 48.0497  21
  -1  -3  -4 269.720 46.7871  19
   1   3   4 247.941 51.9858  46
  -1  -3  -4 208.684 50.1748   3
  -1  -3  -4 234.997 44.0923  42
   1   3   4 371.889 45.2489   2
   1   3   5 4089.98 195.535  21
   1   3   5 3982.21 156.587   2
  -1  -3  -5 4022.47 186.801  15
  -1  -3  -5 4135.00 221.501   3
   1   3   5 4053.53 198.574  46
   1   3   5 3701.41 208.408  43
  -1  -3  -5 3913.55 178.759  19
  -1  -3  -5 4103.17 187.799  43
  -1  -3  -5 4031.29 182.023  20
  -1  -3  -5 4084.63 188.795  42
  -1  -3  -5 3996.16 185.942  41
  -1  -3  -6 4548.51 246.864   3
  -1  -3  -6 4510.34 208.318  43
  -1  -3  -6 4367.74 205.617  41
  -1  -3  -6 4429.67 206.534  42
  -1  -3  -6 4318.55 199.817  19
   1   3   6 4345.47 234.572  43
  -1  -3  -6 4562.17 204.535  15
   1   3   6 4794.23 223.937  46
   1   3   6 4393.63 204.965  21
   1   3   6 4649.73 183.813   2
   1   3   7 3509.87 203.329  31
   1   3   7 3604.55 194.293  25
   1   3   7 3841.00 181.167   2
  -1  -3  -7 3452.97 188.836  19
   1   3   7 3531.60 198.229  46
  -1  -3  -7 3521.38 195.629  38
  -1  -3  -7 4026.03 209.409  34
  -1  -3  -7 3612.48 186.310  15
   1   3   8 21966.2 522.024  31
  -1  -3  -8 21985.3 499.019  34
   1   3   8 22038.8 509.186  46
  -1  -3  -8 21793.7 499.574  38
  -1  -3  -8 21385.7 495.401  19
   1   3   8 22436.9 502.002  25
   1   3   9 1527.52 137.216  46
   1   3   9 1686.41 149.724  31
  -1  -3  -9 1558.11 134.819  34
  -1  -3  -9 1539.48 138.635  19
  -1  -3  -9 1531.54 136.308  38
   1   3   9 1600.51 137.670  25
  -1  -3 -10 2149.54 160.997  38
   1   3  10 2510.98 179.105  31
   1   3  10 2400.44 169.805  35
  -1  -3 -10 2346.94 171.131  19
  -1  -3 -10 2195.95 156.933  34
   1   3  10 2575.41 173.779  25
   1   3  11 1861.46 146.965  31
  -1  -3 -11 1976.54 140.779  34
  -1  -3 -11 1724.28 137.136  38
   1   3  11 1876.67 144.538  35
   1   3  11 1755.77 138.577  25
   1   3  12-14.9963 23.6223  31
   1   3  12-11.5471 24.4926  25
  -1  -3 -12 50.2213 32.5909  38
   1   3  12 4.50407 22.6604  35
   1   3  13 202.444 42.1481  31
   1   3  13 170.465 39.1749  35
  -1  -3 -13 160.140 37.1966  38
   1   3  13 205.200 43.6627  25
  -1  -4  14 697.405 73.4389  35
  -1  -4  13 447.612 66.9394  35
  -1  -4  12 2056.35 152.261  23
  -1  -4  12 2101.28 155.997  35
  -1  -4  11 86.8162 47.7895  23
  -1  -4  11 213.642 56.5590  35
  -1  -4  10 570.834 83.8457  29
  -1  -4  10 358.255 70.1586  35
  -1  -4  10 424.438 80.8758  23
   1   4  -9 3.88367 38.1797  12
   1   4  -9-17.0893 34.0187   9
  -1  -4   9 16.2659 26.4232  29
  -1  -4   9-11.4749 30.5090  23
  -1  -4   9-15.0446 42.3405  35
  -1  -4   8 250.524 58.7116  29
   1   4  -8 187.053 55.3327  12
  -1  -4   8 271.102 72.7182  26
   1   4  -8 252.137 66.5340   9
   1   4  -8 165.360 52.7345  45
   1   4  -8 272.113 64.9026  46
  -1  -4   8 198.785 61.4221  23
  -1  -4   8 256.073 64.8025  35
  -1  -4   7 3057.05 183.727  29
   1   4  -7 2652.24 187.302  12
   1   4  -7 2714.16 189.106  46
   1   4  -7 2566.75 187.706  45
  -1  -4   7 2579.20 183.800  26
   1   4  -7 3224.54 200.732  44
  -1  -4   7 2806.32 196.573  23
   1   4  -7 2741.20 197.136   9
  -1  -4   7 2747.20 175.876  35
   1   4  -6 145.698 47.9898  21
   1   4  -6 107.182 42.4750  12
   1   4  -6 58.3460 33.9523  45
   1   4  -6 123.720 49.9298  46
  -1  -4   6 150.376 48.3811  23
   1   4  -6 177.897 51.4862  44
  -1  -4   6 164.067 52.2288  26
  -1  -4   6 169.914 35.3015   5
   1   4  -6 167.411 52.2200   9
  -1  -4   6 172.618 37.5991   7
  -1  -4   6 156.725 40.6025  35
  -1  -4   6 184.744 51.1660   6
   1   4  -5 662.076 89.6360  21
   1   4  -5 522.548 85.6155  46
  -1  -4   5 842.186 78.1219   7
   1   4  -5 585.839 86.3500  45
   1   4  -5 446.806 77.7438  12
   1   4  -5 704.861 96.8918   9
   1   4  -5 688.542 87.6913  44
  -1  -4   5 729.427 73.1613   5
  -1  -4   4 379.079 50.8849   5
   1   4  -4 359.108 72.2001  46
   1   4  -4 409.699 70.9525  21
   1   4  -4 356.903 68.8414  12
   1   4  -4 413.244 71.1588  45
  -1  -4   4 622.652 65.1137   7
   1   4  -4 428.846 65.4138  44
   1   4  -3 12208.0 362.156  21
   1   4  -3 11676.8 364.238  12
   1   4  -3 12338.3 368.946  46
  -1  -4   3 13274.3 282.658   7
   1   4  -3 13241.4 329.579  44
   1   4  -3 11874.0 358.196  45
  -1  -4   3 12941.4 273.197   5
  -1  -4   2-0.09370 20.2040  15
   1   4  -2-3.50479 22.4874  21
  -1  -4   2 4.57378 12.8160   7
   1   4  -2 25.4248 33.4243  12
   1   4  -2 23.8234 31.0957  46
   1   4  -2 2.19678 23.0849  45
  -1  -4   2 0.17234 10.7846   5
   1   4  -1 4171.15 200.748  45
   1   4  -1 4492.06 222.154  21
   1   4  -1 4259.00 213.496  12
   1   4  -1 4540.30 220.033  46
  -1  -4   1 4557.46 153.564   7
  -1  -4   1 4249.75 198.316  20
  -1  -4   1 5133.26 222.032  15
  -1  -4   0 6373.13 247.457  20
   1   4   0 6378.05 235.089  43
   1   4   0 6627.28 263.544  12
  -1  -4   0 6675.09 213.777  43
  -1  -4   0 6619.37 214.141  42
  -1  -4   0 6645.74 214.659  41
  -1  -4   0 6384.09 239.640  15
   1   4   0 7193.73 272.597  46
   1   4   0 6664.91 274.001  21
  -1  -4  -1 12.7539 15.9682  15
   1   4   1 70.1971 30.3367  21
  -1  -4  -1 8.47340 16.2846  42
  -1  -4  -1 20.7951 18.3189  20
  -1  -4  -1 8.07439 16.5042  41
  -1  -4  -1 1.78898 13.1429  43
   1   4   1 0.21592 25.9660  43
   1   4   1 7.88160 21.6438  46
   1   4   2 6722.56 277.946  21
  -1  -4  -2 6915.18 262.436  20
  -1  -4  -2 8092.94 263.639  42
  -1  -4  -2 8089.75 263.225  43
   1   4   2 7057.49 274.676  46
   1   4   2 7547.58 285.902  43
  -1  -4  -2 6516.04 253.093  15
  -1  -4  -2 7916.30 261.740  41
   1   4   3 448.849 76.6244  43
  -1  -4  -3 391.488 62.7825  42
  -1  -4  -3 319.382 65.9237   3
  -1  -4  -3 367.303 59.9191  43
   1   4   3 417.946 74.1128  21
  -1  -4  -3 442.874 66.0484  41
  -1  -4  -3 304.023 59.0080  15
  -1  -4  -3 448.110 70.9736  20
   1   4   3 346.796 67.5051  46
   1   4   4 4980.99 243.949  21
  -1  -4  -4 4485.17 217.523  20
  -1  -4  -4 4704.56 205.745  19
   1   4   4 4795.72 252.145  43
  -1  -4  -4 4688.66 219.433  41
  -1  -4  -4 4617.05 217.190  42
   1   4   4 4666.35 233.755  46
  -1  -4  -4 4859.51 222.672  43
  -1  -4  -4 5015.03 266.206   3
  -1  -4  -4 4527.22 222.480  34
   1   4   4 4483.36 225.569  31
  -1  -4  -4 4709.33 224.349  15
   1   4   4 4423.04 221.103  33
   1   4   5 1752.99 143.605  33
   1   4   5 2044.24 160.342  31
   1   4   5 2028.09 157.345  46
  -1  -4  -5 2068.35 145.292  19
  -1  -4  -5 1924.69 151.780  34
  -1  -4  -5 2101.77 149.035  38
  -1  -4  -5 1950.81 144.610  20
  -1  -4  -5 2131.79 153.308  15
   1   4   5 1934.62 153.119  21
   1   4   6 894.776 105.487  21
   1   4   6 902.729 109.936  31
  -1  -4  -6 809.226 96.0048  38
   1   4   6 800.384 103.151  46
  -1  -4  -6 897.563 106.859  34
  -1  -4  -6 866.000 99.0095  19
  -1  -4  -6 779.620 95.6925  15
   1   4   6 739.926 95.2736  33
   1   4   7 732.076 101.200  31
   1   4   7 816.371 106.802  46
  -1  -4  -7 705.820 95.6248  38
  -1  -4  -7 804.849 99.2549  19
  -1  -4  -7 770.613 100.174  34
   1   4   7 706.203 91.6038  33
   1   4   8 9520.08 346.878  46
   1   4   8 9719.19 352.965  31
  -1  -4  -8 8955.03 330.811  34
  -1  -4  -8 8660.16 326.515  19
  -1  -4  -8 8840.96 325.702  38
   1   4   8 9081.89 309.933  33
   1   4   9 120.044 46.4243  31
  -1  -4  -9 116.503 47.8293  38
   1   4   9 205.816 53.4008  35
  -1  -4  -9 193.614 53.5518  34
   1   4  10 1150.89 115.384  31
  -1  -4 -10 987.923 100.011  34
   1   4  10 993.167 99.8026  35
  -1  -4 -10 1116.29 109.188  38
   1   4  11 171.094 46.0323  31
   1   4  11 88.4807 31.5305  35
  -1  -4 -11 140.248 37.4868  34
  -1  -4 -11 164.038 40.2405  38
   1   4  12 20.5813 18.1528  31
  -1  -4 -12 24.0186 18.7940  38
   1   4  12 44.3349 21.4170  35
  -1  -5  13 2153.53 136.828  35
  -1  -5  12 76.9870 29.2610  23
  -1  -5  12 1441.49 122.666  35
  -1  -5  11 412.163 90.5285  35
  -1  -5  11 53.8370 35.0859  23
  -1  -5  10 2826.09 181.933  29
  -1  -5  10 2702.80 196.503  23
  -1  -5  10 3244.42 202.496  35
  -1  -5   9 7179.80 294.021  29
  -1  -5   9 7675.22 308.824  35
  -1  -5   8 1558.93 158.324  23
  -1  -5   8 1625.57 145.702  29
   1   5  -7 107.166 49.6063  12
  -1  -5   7 211.584 56.3239  29
   1   5  -6 740.968 108.763  12
   1   5  -6 850.702 113.018  46
  -1  -5   6 870.637 104.871  29
  -1  -5   6 746.792 94.5350  37
  -1  -5   6 603.048 98.4367  23
  -1  -5   5 1421.66 128.657  37
   1   5  -5 1164.33 124.498  21
  -1  -5   5 1612.92 137.946  29
   1   5  -5 1282.58 141.677  45
   1   5  -5 1360.73 142.699  46
  -1  -5   5 1390.72 145.713  23
   1   5  -5 1223.59 136.256  12
  -1  -5   4 255.901 63.7864  32
   1   5  -4 181.931 53.0550  21
  -1  -5   4 334.735 66.3052  34
  -1  -5   4 339.546 67.7541  29
  -1  -5   4 341.911 75.9197  23
   1   5  -4 342.422 75.0845  12
  -1  -5   4 298.713 62.5870  37
   1   5  -4 341.929 72.3887  46
   1   5  -4 329.781 73.0897  45
  -1  -5   3 338.888 64.3570  29
   1   5  -3 378.632 78.4011  21
  -1  -5   3 400.308 69.4068  37
  -1  -5   3 357.690 68.7959  23
   1   5  -3 370.811 75.0124  12
   1   5  -3 310.648 73.9254  46
  -1  -5   3 384.265 75.7676  32
   1   5  -3 342.434 71.6993  45
  -1  -5   3 455.733 67.8757  34
   1   5  -2 652.952 98.0072  21
   1   5  -2 710.268 91.4531  31
  -1  -5   2 759.721 94.3228  29
   1   5  -2 680.065 99.8720  12
   1   5  -2 607.453 94.5009  46
  -1  -5   2 704.987 100.093  32
  -1  -5   2 673.783 91.4815  37
  -1  -5   2 703.409 87.7702  34
  -1  -5   1 2876.95 188.710  32
   1   5  -1 3622.83 217.844  46
   1   5  -1 3228.44 191.826  31
  -1  -5   1 3333.63 197.438  37
  -1  -5   1 3424.65 193.481  29
   1   5  -1 3516.20 224.392  21
  -1  -5   1 3382.03 190.062  34
  -1  -5   0 344.410 67.6600  15
   1   5   0 503.293 77.8738  31
  -1  -5   0 415.124 74.3542  32
   1   5   0 357.875 73.7006  46
  -1  -5   0 446.541 74.5972  34
  -1  -5   0 419.628 72.1019  37
  -1  -5   0 465.241 76.3737  29
   1   5   0 294.087 68.5728  21
   1   5   1 2787.80 201.056  21
   1   5   1 3347.96 198.455  31
  -1  -5  -1 2698.54 173.755  29
   1   5   1 2713.70 188.015  46
  -1  -5  -1 2588.06 173.969  37
  -1  -5  -1 2711.53 183.724  15
  -1  -5  -1 2775.69 177.268  34
   1   5   1 2532.31 181.894  33
  -1  -5  -2 101.219 40.9859  15
   1   5   2 84.9501 40.5467  31
   1   5   2 28.8490 33.9646  46
   1   5   2 81.2746 40.3864  33
   1   5   2 62.0913 41.7945  21
  -1  -5  -2 126.018 46.3770  37
  -1  -5  -2 108.690 44.7402  34
  -1  -5  -2 63.9949 40.4685  29
   1   5   3 645.247 101.047  21
   1   5   3 733.609 102.294  46
  -1  -5  -3 827.964 101.179  29
  -1  -5  -3 759.807 101.211  34
   1   5   3 785.229 105.162  33
   1   5   3 691.928 97.9956  31
  -1  -5  -3 655.330 93.4010  37
  -1  -5  -3 736.159 103.429  15
   1   5   4 436.351 81.5984  33
  -1  -5  -4 571.197 90.4340  15
  -1  -5  -4 441.780 81.7330  34
   1   5   4 570.667 90.4237  31
   1   5   4 514.104 89.8241  21
   1   5   4 657.320 98.8789  46
  -1  -5  -4 496.330 80.2757  37
  -1  -5  -4 504.933 81.3568  29
   1   5   5 11185.6 388.420  46
   1   5   5 10616.3 365.909  33
  -1  -5  -5 10569.9 369.088  34
   1   5   5 10986.2 374.074  31
  -1  -5  -5 10697.3 341.222  38
   1   5   5 11240.0 387.043  21
  -1  -5  -5 10808.2 353.165  29
  -1  -5  -5 11067.4 374.169  15
   1   5   6 7468.16 304.563  21
   1   5   6 7382.66 305.251  31
  -1  -5  -6 7512.53 286.717  29
  -1  -5  -6 7036.10 279.451  38
  -1  -5  -6 7102.54 301.262  34
   1   5   6 7347.63 295.491  33
   1   5   7 5457.82 257.736  31
  -1  -5  -7 5094.88 233.217  38
  -1  -5  -7 5156.80 247.957  34
   1   5   7 5063.85 234.661  33
   1   5   8 3.58763 28.5120  31
   1   5   8-10.1915 33.4865  33
  -1  -5  -8 37.8530 31.1014  34
  -1  -5  -8 15.8560 28.8558  38
   1   5   9-0.42925 25.2932  31
  -1  -5  -9 40.3336 26.1805  38
   1   5   9 32.1882 21.4382  35
  -1  -5  -9 3.38367 20.4532  34
   1   5  10 79.9162 32.5084  31
  -1  -5 -10 112.182 31.2950  38
  -1  -5 -10 97.7365 29.9585  34
   1   5  11 96.4922 26.1709  31
  -1  -6  11 349.140 60.3596  23
  -1  -6  10 1121.66 116.790  23
  -1  -6   9 8113.07 288.696  29
  -1  -6   9 7512.32 314.049  23
  -1  -6   8 54.3520 43.1125  29
  -1  -6   8 10.5041 41.3692  23
  -1  -6   7 29.2413 33.2533  29
  -1  -6   7 199.231 62.9567  23
  -1  -6   6 950.200 109.760  29
  -1  -6   6 796.325 113.898  23
   1   6  -5 206.023 57.6950  21
  -1  -6   5 267.564 61.6643  29
  -1  -6   5 235.609 57.1977  37
  -1  -6   5 306.439 59.7323  34
  -1  -6   5 323.006 81.3886  23
  -1  -6   4 288.556 74.0655  23
  -1  -6   4 343.840 62.8852  34
  -1  -6   4 256.204 60.4734  37
   1   6  -4 360.652 74.7148  21
  -1  -6   4 311.321 65.4836  29
   1   6  -4 261.825 61.4447  17
  -1  -6   3 100.580 42.3690  34
   1   6  -3 115.937 47.6439  21
  -1  -6   3 128.481 46.5882  29
   1   6  -3 130.998 44.3743  17
   1   6  -3 93.9469 49.5376  46
  -1  -6   3 115.757 48.6177  37
  -1  -6   3 161.451 58.4275  23
  -1  -6   2 670.923 89.1403  34
  -1  -6   2 593.418 91.1310  37
   1   6  -2 678.640 104.475  21
  -1  -6   2 644.836 92.7743  29
   1   6  -2 642.615 94.0790  17
   1   6  -2 708.257 101.330  46
  -1  -6   1 1211.03 124.238  29
   1   6  -1 1339.73 139.002  46
   1   6  -1 1291.38 144.010  21
  -1  -6   1 1338.06 133.403  37
  -1  -6   1 1438.49 130.904  34
   1   6  -1 1433.34 141.587  33
   1   6   0 317.254 70.1378  33
   1   6   0 437.430 85.0862  21
  -1  -6   0 410.210 76.3582  29
   1   6   0 371.825 74.4563  46
  -1  -6   0 399.700 76.9308  37
  -1  -6   0 328.424 66.1725  34
   1   6   0 343.254 68.4451  31
   1   6   1 6551.34 314.821  21
   1   6   1 6866.63 283.256  31
  -1  -6  -1 6478.61 286.393  37
  -1  -6  -1 6955.06 288.126  29
  -1  -6  -1 6697.15 286.826  34
   1   6   1 6682.05 304.777  46
   1   6   1 6550.35 297.294  33
   1   6   2 12008.2 423.013  21
   1   6   2 11831.1 370.560  31
  -1  -6  -2 11561.9 366.645  29
  -1  -6  -2 11002.0 363.430  37
  -1  -6  -2 11784.0 381.692  34
   1   6   2 11098.7 382.431  33
   1   6   3 2469.08 187.412  21
   1   6   3 2460.56 170.879  31
  -1  -6  -3 2449.13 167.473  29
  -1  -6  -3 2510.35 176.720  34
   1   6   3 2273.44 171.164  33
  -1  -6  -3 2267.72 161.548  37
   1   6   4 2561.29 184.437  21
  -1  -6  -4 2398.45 156.431  37
  -1  -6  -4 2369.77 170.036  34
  -1  -6  -4 2542.30 164.128  29
   1   6   4 2007.08 149.826  31
   1   6   4 2360.72 168.712  33
   1   6   5 1194.00 116.288  31
  -1  -6  -5 1390.92 118.566  29
  -1  -6  -5 1284.31 122.944  34
   1   6   5 1286.57 118.871  33
   1   6   6 1056.10 103.768  31
  -1  -6  -6 946.478 99.4029  34
   1   6   6 876.411 92.2661  33
   1   6   7 2138.07 135.460  31
  -1  -6  -7 2214.76 140.628  34
   1   6   7 1994.52 124.415  33
   1   6   8 30.6519 24.0980  31
  -1  -6  -8 22.8332 17.6197  34
   1   6   8-24.7929 21.8102  33
  -1  -7   9 277.371 51.5984  23
  -1  -7   8 45.0541 36.5763  23
  -1  -7   8 50.1017 23.8955  29
  -1  -7   7 263.646 51.9050  29
   1   7  -7 222.967 46.6059  33
  -1  -7   7 215.176 51.5987  23
  -1  -7   6 92.7003 36.4703  29
   1   7  -6 95.8798 35.3753  33
  -1  -7   6 77.1502 37.2126  23
   1   7  -5 235.767 51.1389  33
  -1  -7   5 325.576 61.2345  29
  -1  -7   5 322.002 65.8111  23
  -1  -7   4 3894.58 201.382  29
  -1  -7   4 3443.78 190.307  37
  -1  -7   4 3718.82 180.078  34
  -1  -7   3 256.998 57.0205  29
  -1  -7   3 161.247 44.8544  34
   1   7  -3 278.576 61.1906  33
  -1  -7   3 167.560 46.4239  37
   1   7  -2 53.8188 36.9544  33
  -1  -7   2-3.01462 32.3790  29
  -1  -7   2-1.49070 19.7335  34
  -1  -7   2 15.3375 27.9932  37
   1   7  -1 25.9713 29.4553  33
  -1  -7   1 22.0611 24.1367  29
  -1  -7   1 73.1241 38.2648  37
  -1  -7   1 28.0327 26.2177  34
  -1  -7   0 273.083 57.1696  29
  -1  -7   0 202.937 52.5654  37
  -1  -7   0 268.152 57.3450  34
   1   7   0 249.670 56.0665  33
   1   7   1 145.876 48.4591  33
   1   7   1 119.163 37.8969  22
  -1  -7  -1 75.1470 29.9443  29
  -1  -7  -1 97.7765 36.9163  37
  -1  -7  -1 56.8593 32.3966  34
  -1  -7  -2 656.417 76.1262  29
  -1  -7  -2 437.398 65.0885  37
  -1  -7  -2 572.320 76.4893  34
   1   7   2 500.303 73.6013  33
  -1  -7  -3 2805.80 143.778  29
  -1  -7  -3 2518.56 138.269  37
  -1  -7  -3 2568.67 152.784  34
   1   7   3 2387.54 147.221  33
  -1  -7  -4 8179.53 256.509  34
   1   7   4 7811.88 244.335  33
  -1  -7  -5 2176.25 124.114  34
   1   7   5 2232.76 120.010  33
  -1  -7  -6 15.9379 16.2729  34
   1   8  -4 54.0585 21.2397  22
   1   8  -3 494.045 54.2827  22
   1   8  -3 467.687 52.3540  33
   1   8  -2 467.119 51.8744  22
   1   8  -2 559.642 57.5824  33
   1   8  -1 344.503 46.8002  33
   1   8   0 19.4815 15.5987  33
   2  -8  -4-11.8146 16.3312  30
  -2   8   4 14.0007 15.8420  22
   2  -8  -4-14.6681 19.8033  38
  -2   8   4 4.20322 17.5495  33
   2  -8  -3 52.6566 25.6133  30
   2  -8  -3 81.4141 30.4331  34
  -2   8   3 65.4799 23.1956  39
  -2   8   3 113.009 33.3366  33
   2  -8  -3 92.3355 28.9815  38
  -2   8   3 120.474 33.4459  22
   2  -8  -2 633.196 68.5905  38
  -2   8   2 519.775 61.6415  39
   2  -8  -2 587.013 68.1710  30
  -2   8   2 661.754 74.2550  22
   2  -8  -2 593.373 68.3878  34
  -2   8   2 567.706 65.0992  33
  -2   8   1 3.08941 26.6246  33
  -2   8   1-29.2930 30.8216  22
   2  -8  -1-3.10572 18.6162  30
  -2   8   1-25.6654 27.4367  39
   2  -8  -1-2.47278 23.0233  38
   2  -8  -1 37.2319 29.3907  34
   2  -8   0 2283.00 133.250  38
   2  -8   0 2242.74 140.383  34
  -2   8   0 2166.85 142.647  22
   2  -8   0 2208.77 135.448  30
  -2   8   0 2368.64 141.377  39
   2  -8   1 3200.42 165.521  30
   2  -8   1 3729.17 168.259  38
  -2   8  -1 3272.53 168.642  39
   2  -8   1 3425.73 177.281  34
  -2   8  -1 3165.29 172.575  22
   2  -8   2 35.0798 28.2700  34
   2  -8   2 72.2609 31.8853  38
   2  -8   2 19.5922 22.8394  30
  -2   8  -2 17.9944 24.3572  39
  -2   8  -2 46.7785 28.4988  22
   2  -8   3 223.337 43.0471  30
  -2   8  -3 203.649 44.3199  39
  -2   8  -3 195.211 46.4898  22
   2  -8   3 182.195 44.4785  34
   2  -8   3 234.520 44.6367  38
  -2   8  -4 399.456 61.7894  22
   2  -8   4 618.326 67.4441  38
   2  -8   4 497.227 64.5802  30
  -2   8  -4 432.456 59.4325  39
  -2   8  -5 64.1361 26.0034  22
   2  -8   5 54.6972 25.8863  30
  -2   8  -5 62.5991 26.6884  39
   2  -8   6 1428.68 98.9583  30
  -2   8  -6 1310.21 92.0970  22
   2  -8   7 2010.72 111.022  30
   2  -8   8 1859.75 96.9103  30
   2  -7  -8 299.071 41.8682  30
   2  -7  -8 422.983 50.7223  38
  -2   7   8 337.945 44.8406  33
  -2   7   7 1852.04 115.549  33
   2  -7  -7 1739.28 110.745  38
  -2   7   6 25.5355 23.7835  33
   2  -7  -6-17.0555 22.0517  38
  -2   7   6 25.3122 25.0527  22
   2  -7  -5 49.4858 29.6841  38
  -2   7   5 57.0211 33.5460  33
  -2   7   5 39.7237 23.8753  22
  -2   7   4 71.8263 31.9225  33
  -2   7   4 37.8096 29.6108  39
  -2   7   4 34.7450 31.0056  22
   2  -7  -4-3.94405 23.6680  38
   2  -7  -4 11.8531 22.0208  34
   2  -7  -3-4.81011 26.0548  34
  -2   7   3 20.5677 26.2630  21
  -2   7   3-54.4876 32.1336  39
   2  -7  -3 2.47096 28.5595  38
   2  -7  -3 18.6122 25.9014  30
  -2   7   3 11.1788 29.9462  22
  -2   7   2 389.198 71.8450  33
   2  -7  -2 446.616 74.5163  30
  -2   7   2 453.923 78.9658  22
  -2   7   2 716.234 88.0380  39
   2  -7  -2 457.695 74.1132  38
  -2   7   2 478.928 81.0705  21
   2  -7  -2 417.759 70.7992  34
  -2   7   1 935.442 111.097  21
  -2   7   1 777.073 94.5836  33
   2  -7  -1 792.249 95.8088  38
  -2   7   1 635.625 87.1364  39
   2  -7  -1 766.804 97.2104  34
  -2   7   1 718.051 100.180  22
   2  -7  -1 1017.99 109.824  30
  -2   7   0 611.899 92.3075  22
  -2   7   0 681.573 94.6617  21
   2  -7   0 587.551 82.8181  38
   2  -7   0 705.053 92.4184  30
   2  -7   0 629.882 89.4468  34
  -2   7  -1 180.244 55.8267  22
   2  -7   1 192.419 50.2659  30
   2  -7   1 127.651 47.1419  34
   2  -7   1 112.976 40.5181  38
   2  -7   1 183.944 52.7445  19
   2  -7   2 1105.85 111.707  19
   2  -7   2 1131.40 115.146  30
   2  -7   2 1225.63 114.650  38
   2  -7   2 1201.57 124.306  34
  -2   7  -2 1049.02 119.770  22
  -2   7  -3 277.819 64.9469  22
   2  -7   3 294.328 62.4165  30
   2  -7   3 351.222 71.4543  34
   2  -7   3 344.882 61.0714  38
  -2   7  -4 4032.35 221.722  22
   2  -7   4 4472.46 219.163  30
   2  -7   4 4725.10 215.569  38
   2  -7   4 4748.62 238.223  34
  -2   7  -5 80.1347 40.3070  22
   2  -7   5 53.3153 34.3144  30
   2  -7   5 174.791 45.8615  38
  -2   7  -6 66.4933 36.3667  22
   2  -7   6 56.9402 29.3837  30
   2  -7   6 68.8420 30.9373  38
   2  -7   7 400.035 65.4414  30
   2  -7   8 386.209 60.9698  30
   2  -7   9 200.006 41.0172  30
   2  -7  10-5.31620 19.2218  30
   2  -7  11 111.982 23.2908  30
  -2   6  10 1343.86 91.2987  33
   2  -6 -10 1262.00 87.0120  38
  -2   6   9 33.8479 24.2430  33
   2  -6  -9 50.0532 28.1420  38
  -2   6   8 56.6347 34.2291  33
   2  -6  -8 84.3510 39.9799  38
   2  -6  -7 993.566 99.1142  28
   2  -6  -7 1040.75 108.330  38
  -2   6   7 1147.77 115.913  33
   2  -6  -6 1004.62 110.735  38
  -2   6   6 924.730 107.905  21
  -2   6   6 841.238 94.6944  22
  -2   6   6 1006.79 112.033  33
  -2   6   5 1723.54 152.388  21
   2  -6  -5 1552.55 139.170  38
   2  -6  -5 1738.88 155.400  19
  -2   6   5 1630.97 136.353  22
  -2   6   5 1652.37 145.748  33
  -2   6   4 1343.02 135.249  21
   2  -6  -4 1391.67 139.046  19
  -2   6   4 1178.69 110.859  39
   2  -6  -4 1371.50 132.726  38
  -2   6   4 1244.89 125.058  22
  -2   6   4 1270.66 129.116  33
   2  -6  -3 6528.74 292.801  19
  -2   6   3 6462.46 283.248  33
  -2   6   3 6188.40 260.272  39
   2  -6  -3 6506.63 281.173  38
  -2   6   3 6699.98 300.693  21
   2  -6  -3 6559.94 270.825  34
  -2   6   3 6336.12 281.154  22
  -2   6   2 2349.07 179.533  21
   2  -6  -2 2251.08 161.984  38
   2  -6  -2 2108.90 156.654  34
   2  -6  -2 2218.71 168.711  19
  -2   6   2 2208.27 171.453  22
  -2   6   2 2332.05 167.204  33
  -2   6   1 1367.07 128.150  33
   2  -6  -1 1348.65 130.994  19
  -2   6   1 1622.58 146.581  21
   2  -6  -1 1441.20 127.072  38
   2  -6  -1 1330.34 124.863  34
  -2   6   1 1370.30 134.221  22
  -2   6   0 5058.83 254.696  21
   2  -6   0 5022.58 241.256  19
   2  -6   0 4479.04 221.531  38
  -2   6   0 4643.13 245.712  22
   2  -6   0 4327.33 220.484  30
   2  -6   0 4492.19 226.899  34
  -2   6  -1 2640.51 178.632  21
   2  -6   1 2921.35 182.017  19
   2  -6   1 2762.23 170.041  38
  -2   6  -1 2687.04 187.607  22
   2  -6   1 2582.03 168.882  30
   2  -6   1 2576.69 171.755  34
   2  -6   2 405.017 69.2115  30
  -2   6  -2 646.561 95.3994  17
   2  -6   2 398.334 66.3155  38
   2  -6   2 454.353 72.8520  19
   2  -6   2 435.915 73.5610  34
   2  -6   3 1303.09 119.999  30
   2  -6   3 1292.87 119.964  19
   2  -6   3 1349.86 119.210  38
  -2   6  -3 1170.11 129.187  17
   2  -6   3 1209.78 120.718  34
  -2   6  -4 1546.48 149.919  17
   2  -6   4 1726.36 136.094  38
   2  -6   4 1541.09 129.837  30
   2  -6   4 1766.18 146.639  34
   2  -6   5 2695.40 171.715  30
   2  -6   5 2703.57 175.610  29
   2  -6   5 3138.29 181.088  38
  -2   6  -5 2744.28 198.389  17
   2  -6   5 2808.38 211.254  23
   2  -6   5 2621.18 180.683  34
   2  -6   6 4788.31 229.647  30
   2  -6   6 4648.08 272.802  23
   2  -6   6 4545.72 229.802  29
  -2   6  -6 4644.39 255.171  17
   2  -6   6 4934.50 226.229  38
   2  -6   7 1369.28 125.327  30
  -2   6  -7 1233.45 115.821  20
   2  -6   7 1243.74 141.611  23
  -2   6  -7 1145.86 126.769  17
   2  -6   7 1325.75 118.621  38
   2  -6   8 1042.43 107.672  30
  -2   6  -8 855.757 94.0400  20
   2  -6   9 1699.93 132.758  30
   2  -6  10 486.936 69.0469  30
   2  -6  11 634.254 72.3074  30
   2  -6  12 12.6882 21.9244  30
   2  -6  13-3.42044 11.0755  30
  -2   5  12 22.5541 12.1218  33
  -2   5  11 21.6204 21.1768  31
  -2   5  11 29.7138 24.2076  33
   2  -5 -11 17.0583 21.0714  28
   2  -5 -11-30.2228 27.4063  38
  -2   5  10-2.07952 27.1317  33
   2  -5 -10 43.4564 25.7473  28
  -2   5  10 12.4131 19.3124  31
   2  -5 -10 6.33192 25.5627  38
  -2   5   9 177.856 47.3774  31
  -2   5   9 182.897 54.2040  33
   2  -5  -9 157.734 43.4213  28
   2  -5  -9 136.646 42.3557  38
   2  -5  -8 1386.57 130.477  38
   2  -5  -8 1365.94 129.785  28
  -2   5   8 1371.59 128.581  21
   2  -5  -8 1479.40 142.812  19
  -2   5   8 1508.94 136.616  33
  -2   5   7 1234.50 124.414  21
  -2   5   7 1159.68 122.469  33
  -2   5   7 1253.95 123.360  46
   2  -5  -7 1098.66 116.921  28
   2  -5  -7 1112.57 126.319  19
  -2   5   7 1157.64 111.084  22
   2  -5  -7 1085.73 117.504  38
  -2   5   6 5294.42 257.744  21
   2  -5  -6 5210.56 253.612  28
  -2   5   6 5834.73 257.866  46
   2  -5  -6 6089.81 288.612  19
   2  -5  -6 5447.49 261.337  38
  -2   5   6 5438.81 242.569  22
  -2   5   6 5447.35 258.907  33
  -2   5   5 30461.5 615.264  21
   2  -5  -5 30922.5 629.163  19
   2  -5  -5 30324.2 594.890  28
   2  -5  -5 29483.2 590.077  38
  -2   5   5 31696.1 584.631  46
  -2   5   5 29922.7 574.740  22
  -2   5   5 28873.2 588.190  33
   2  -5  -4 25841.5 533.533  28
  -2   5   4 27189.4 524.002  46
   2  -5  -4 26332.7 564.208  19
  -2   5   4 24224.7 484.790  39
  -2   5   4 25739.3 535.480  22
  -2   5   4 26604.7 572.271  21
   2  -5  -4 24690.7 529.039  38
  -2   5   4 25177.7 533.759  33
  -2   5   3 1704.11 143.600  21
   2  -5  -3 1866.85 159.766   3
  -2   5   3 1756.27 119.305   2
   2  -5  -3 1688.60 133.879  28
   2  -5  -3 1833.87 144.296  19
   2  -5  -3 1794.42 139.660  38
  -2   5   3 1843.18 144.666  22
  -2   5   3 1655.06 136.607  33
  -2   5   2 613.982 86.8300  21
  -2   5   2 716.315 86.7957  42
   2  -5  -2 662.848 85.3927  19
  -2   5   2 655.573 88.4774  22
  -2   5   2 654.292 71.9697   2
   2  -5  -2 641.186 83.6926  38
  -2   5   2 712.368 88.2227  43
  -2   5   1 2976.64 181.645  21
  -2   5   1 2917.20 166.862  43
   2  -5  -1 3132.69 177.770  19
  -2   5   1 3046.04 171.418  42
  -2   5   1 2842.71 144.488   2
   2  -5  -1 3046.65 174.814   7
  -2   5   0 2462.44 159.281  21
   2  -5   0 2455.69 155.352   7
   2  -5   0 2517.69 154.681  19
  -2   5  -1 3291.86 180.663  21
   2  -5   1 3416.89 157.571   5
  -2   5  -1 3160.09 181.119  17
   2  -5   1 3244.19 173.242  19
   2  -5   1 3201.92 173.350   7
   2  -5   2 4416.83 183.699   5
   2  -5   2 4703.12 208.269  19
  -2   5  -2 4389.28 219.537  17
   2  -5   2 4448.24 201.286   7
   2  -5   3 3242.84 170.020   7
  -2   5  -3 3488.06 199.389  17
   2  -5   3 3387.37 175.400  19
   2  -5   4 308.283 52.0450   5
   2  -5   4 249.084 51.4074  30
   2  -5   4 256.756 49.3830   7
   2  -5   4 274.672 53.7118  19
  -2   5  -4 268.162 58.7064  17
   2  -5   4 260.719 52.2396  38
   2  -5   4 272.561 63.2883  23
   2  -5   4 249.560 54.3041  34
   2  -5   5 4613.06 215.951  29
   2  -5   5 5186.40 212.217  28
  -2   5  -5 4715.40 241.142  17
   2  -5   5 4466.29 220.728  34
   2  -5   5 4911.42 218.886  30
   2  -5   5 4943.70 215.437  38
   2  -5   5 4587.04 251.226  23
  -2   5  -6 12134.9 388.136  17
   2  -5   6 11965.5 362.407  29
   2  -5   6 13047.8 345.139  28
   2  -5   6 12428.6 353.326  30
   2  -5   6 12079.3 343.956  38
   2  -5   6 11915.2 411.599  23
   2  -5   7 20215.2 458.986  30
   2  -5   7 18137.7 457.471  29
  -2   5  -7 20071.3 449.505  20
   2  -5   7 20297.4 441.035  28
  -2   5  -7 18970.0 487.015  17
   2  -5   7 21218.5 445.898  40
   2  -5   7 19854.0 450.619  38
   2  -5   7 18597.8 520.236  23
  -2   5  -8 5663.17 238.748  15
   2  -5   8 5687.99 249.674  30
  -2   5  -8 5880.89 240.690  20
   2  -5   8 5920.37 243.495  28
   2  -5   8 5489.46 284.406  23
  -2   5  -8 5581.91 261.857  17
  -2   5  -8 5993.92 250.233  10
   2  -5   8 5958.58 241.190  40
   2  -5   9 1255.92 119.025  30
   2  -5   9 1322.11 115.339  40
  -2   5  -9 1184.91 108.866  15
   2  -5   9 1203.59 134.243  23
   2  -5  10 32.9944 25.6488  30
   2  -5  10 27.8226 22.3099  40
   2  -5  11 415.558 65.1515  30
   2  -5  11 421.074 62.1057  40
   2  -5  12 6.18418 18.4724  30
   2  -5  12 74.3880 29.1692  40
   2  -5  13-28.0534 19.2626  40
   2  -5  13-11.1994 21.8700  30
   2  -5  14 116.262 27.2262  30
   2  -4 -13 828.590 75.0138  28
  -2   4  13 788.908 70.8544  31
   2  -4 -13 769.165 62.5764  38
  -2   4  13 798.270 67.9002  33
  -2   4  12 198.849 43.8518  31
   2  -4 -12 189.407 45.5599  28
   2  -4 -12 149.941 38.4502  38
  -2   4  12 180.127 41.7736  33
  -2   4  11 1155.89 108.700  31
   2  -4 -11 1039.84 108.147  28
   2  -4 -11 1211.60 109.075  38
  -2   4  11 1046.42 105.833  40
  -2   4  11 1177.98 110.742  33
  -2   4  10 3029.31 176.353  21
  -2   4  10 2874.52 182.165  40
   2  -4 -10 2989.36 192.955  28
  -2   4  10 2960.71 183.331  31
   2  -4 -10 2833.06 178.034  38
  -2   4  10 3081.40 187.155  33
  -2   4   9 20.3679 33.8738  33
  -2   4   9 91.1452 37.5398  21
  -2   4   9 48.2578 34.7190  31
  -2   4   9 66.6828 36.3978  40
  -2   4   9 37.1502 20.2666  46
   2  -4  -9 59.7120 38.4376  28
   2  -4  -9 93.3293 43.0071  38
   2  -4  -9 42.6161 37.0212  19
  -2   4   8 1588.61 136.119  21
  -2   4   8 1457.24 134.477  40
  -2   4   8 1650.35 137.228  31
  -2   4   8 1639.50 141.154  46
   2  -4  -8 1680.89 148.700  19
   2  -4  -8 1616.27 140.425  38
  -2   4   8 1341.26 129.158  33
   2  -4  -8 1504.49 142.016  28
  -2   4   7 2360.24 153.803  22
  -2   4   7 2371.75 165.281  21
  -2   4   7 2521.97 164.726  31
  -2   4   7 2011.36 152.368  40
  -2   4   7 2356.38 167.279  33
   2  -4  -7 2394.43 173.346  19
   2  -4  -7 2291.54 163.048  38
  -2   4   7 2461.01 165.022  46
   2  -4  -7 2311.75 174.292  28
  -2   4   6 768.358 92.3944  40
   2  -4  -6 728.478 95.8264  28
   2  -4  -6 776.103 96.6140  19
   2  -4  -6 577.692 81.1862  38
  -2   4   6 783.203 92.5835  46
  -2   4   6 554.784 82.4031  33
  -2   4   6 855.574 95.6613  22
  -2   4   6 691.499 89.0857  21
   2  -4  -5 2747.42 171.790  19
  -2   4   5 2979.75 176.809  21
   2  -4  -5 3039.59 202.065   3
  -2   4   5 2797.59 177.804  43
  -2   4   5 3172.93 173.511  46
  -2   4   5 2847.04 146.887   2
  -2   4   5 2862.07 179.948  42
  -2   4   4 4848.21 219.917  21
  -2   4   4 4780.86 220.934  43
   2  -4  -4 5003.94 244.994   3
  -2   4   4 4763.59 199.029  46
   2  -4  -4 4806.39 219.090  19
  -2   4   4 4825.30 183.268   2
  -2   4   4 4829.56 222.909  42
  -2   4   3 3812.35 190.649  21
  -2   4   3 3906.52 189.578  43
   2  -4  -3 3984.94 203.134   3
  -2   4   3 3829.34 170.333  46
   2  -4  -3 3915.81 186.308  19
  -2   4   3 3758.89 156.092   2
  -2   4   3 4035.82 192.714  42
  -2   4   2 1153.15 100.888  21
   2  -4  -2 1273.18 108.197   3
  -2   4   2 1156.97 88.2809  46
  -2   4   2 1106.23 96.4807  43
   2  -4  -2 1215.31 101.048  19
  -2   4   2 1112.42 81.5831   2
  -2   4   2 1205.96 100.817  42
  -2   4   2 1350.28 90.1802   4
   2  -4  -2 1239.10 82.8872   5
   2  -4  -2 1170.94 97.1135   1
   2  -4  -1 2239.21 133.880   1
  -2   4   1 2113.06 133.818  21
  -2   4   1 2227.09 128.140  43
   2  -4  -1 2126.30 129.305   3
   2  -4  -1 2037.71 125.762  19
   2  -4  -1 2346.14 114.112   5
  -2   4   1 2102.14 107.999   4
  -2   4   1 2048.01 123.877  42
  -2   4   0 11792.2 278.596  43
  -2   4   0 11363.1 294.561  21
   2  -4   0 12282.7 264.294   5
  -2   4   0 11059.4 271.541  42
   2  -4   0 12677.3 315.682   1
   2  -4   0 11586.2 289.910  19
  -2   4   0 11559.3 248.482   4
  -2   4   0 11937.6 298.169  17
  -2   4  -1 65358.0 619.954  43
  -2   4  -1 65991.6 622.590  42
  -2   4  -1 66824.8 691.762  21
  -2   4  -1 63966.5 577.918   4
   2  -4   1 67188.7 631.593   5
   2  -4   1 65115.1 677.983  19
   2  -4   1 68837.6 743.684   1
   2  -4   1 66091.4 681.751   7
  -2   4  -1 65488.4 719.704  17
   2  -4   2 1376.12 92.4154   5
  -2   4  -2 1149.61 98.2835  17
  -2   4  -2 1433.16 89.6880   4
   2  -4   2 1485.50 102.855  19
   2  -4   2 1364.24 98.4324   7
   2  -4   3 2157.15 118.780   5
  -2   4  -3 2082.22 135.715  17
   2  -4   3 2171.57 125.611  19
   2  -4   3 1992.06 116.092   7
  -2   4  -4 1370.58 113.157  17
  -2   4  -4 1398.69 94.4888   4
   2  -4   4 1367.12 97.0742   5
   2  -4   4 1383.10 97.7495   7
   2  -4   5 3316.90 154.745   5
  -2   4  -5 3383.06 179.261  17
   2  -4   5 3480.58 154.007   7
   2  -4   6 14376.2 318.644   7
   2  -4   6 14295.0 331.353   5
  -2   4  -6 14246.6 375.828  17
  -2   4  -7 3440.09 170.871  20
  -2   4  -7 3583.21 174.199  15
   2  -4   7 3499.49 169.347   5
   2  -4   7 3741.18 185.017  30
   2  -4   7 3730.38 184.937  38
  -2   4  -7 3567.30 190.110  17
   2  -4   7 3621.91 163.661   7
  -2   4  -8 287.229 52.5731  20
  -2   4  -8 398.520 61.1546  15
   2  -4   8 363.886 62.5671  28
  -2   4  -8 338.467 58.4325  10
   2  -4   8 341.400 60.1332  40
   2  -4   8 409.084 64.4918  36
   2  -4   8 292.325 65.2701  23
   2  -4   8 274.019 55.3407  30
  -2   4  -9 165.998 37.8080  15
   2  -4   9 94.3202 45.0660  30
   2  -4   9 142.722 42.9690  40
   2  -4   9 248.021 49.2428  36
  -2   4  -9 148.584 41.2642  10
   2  -4  10 5.35379 24.9058  30
   2  -4  10 2.16331 26.2290  40
  -2   4 -10-9.21295 26.8592  10
  -2   4 -10 77.9405 36.2425  15
   2  -4  11 1671.01 136.523  30
   2  -4  11 1638.58 132.147  40
   2  -4  12 2757.99 165.739  30
   2  -4  12 2625.80 162.252  40
   2  -4  13 593.325 73.2873  40
   2  -4  13 479.218 65.2845  30
   2  -4  14 2040.25 119.161  30
   2  -4  14 2010.53 118.201  40
   2  -3 -14 72.3208 26.1163  28
  -2   3  14 44.4026 20.8528  31
  -2   3  14 75.8947 28.8009  40
  -2   3  14 72.0380 23.1572  33
  -2   3  13 58.1920 32.8864  40
  -2   3  13 110.141 33.5374  33
  -2   3  13 98.6135 36.0409  31
   2  -3 -13 97.6162 37.2418  28
   2  -3 -13 38.0501 23.9871  36
   2  -3 -12 1491.73 131.065  28
  -2   3  12 1330.58 124.168  40
  -2   3  12 1424.60 123.013  31
   2  -3 -12 1522.10 117.532  38
  -2   3  12 1435.26 118.824  33
  -2   3  11 208.797 53.6371  31
  -2   3  11 274.343 61.1796  33
   2  -3 -11 199.626 59.9500  28
   2  -3 -11 223.939 51.5890  38
  -2   3  11 170.575 51.5413  40
   2  -3 -10 283.867 60.1965  19
  -2   3  10 279.557 54.6870  21
  -2   3  10 406.279 72.1703  31
  -2   3  10 403.543 73.8278  40
  -2   3  10 237.718 57.5850  46
   2  -3 -10 327.934 69.0499  28
   2  -3 -10 304.635 64.9836  38
  -2   3  10 258.330 58.3917  33
  -2   3   9 2697.67 176.803  46
  -2   3   9 2594.34 164.826  21
  -2   3   9 2409.61 170.265  31
  -2   3   9 2524.37 174.158  33
   2  -3  -9 2302.89 173.941  28
   2  -3  -9 2539.64 175.942  19
  -2   3   9 2483.39 175.255  40
   2  -3  -9 2443.20 166.372  38
  -2   3   8 349.187 62.5315  33
  -2   3   8 403.088 67.7207  21
  -2   3   8 367.545 65.5848  31
   2  -3  -8 354.864 62.0182  38
  -2   3   8 386.005 67.7691  46
   2  -3  -8 325.698 66.5562  28
  -2   3   8 408.204 71.4866  40
   2  -3  -8 353.317 66.9695  19
  -2   3   7 719.158 84.5462  21
   2  -3  -7 822.458 109.305   3
  -2   3   7 736.661 90.0908  33
  -2   3   7 803.511 91.7591  46
  -2   3   7 1033.00 105.451  42
   2  -3  -7 750.083 90.9884  19
  -2   3   7 898.383 98.3830  43
  -2   3   7 803.020 80.6338   2
  -2   3   6 9782.63 296.498  21
   2  -3  -6 9594.39 336.645   3
  -2   3   6 9741.72 304.094  43
  -2   3   6 9693.47 291.804  46
  -2   3   6 9888.85 306.390  42
   2  -3  -6 9973.29 301.230  19
  -2   3   6 9715.02 255.842   2
   2  -3  -5 2682.73 148.236  19
   2  -3  -5 2789.81 170.845   3
  -2   3   5 2939.96 157.552  21
  -2   3   5 2673.94 142.402  46
  -2   3   5 2799.64 155.979  42
  -2   3   5 2696.93 128.838   2
  -2   3   5 2654.37 151.564  43
  -2   3   4 773.510 79.1726  21
   2  -3  -4 778.659 86.0866   3
  -2   3   4 759.259 78.3863  42
  -2   3   4 2820.81 135.140  46
   2  -3  -4 796.211 78.0577  19
  -2   3   4 730.627 77.2881  43
  -2   3   4 749.291 64.5267   2
   2  -3  -4 2344.99 122.894   1
  -2   3   3 130.536 33.5558  21
   2  -3  -3 173.973 35.4218   1
   2  -3  -3 105.503 30.0803  19
  -2   3   3 167.101 33.9588  46
  -2   3   3 148.066 35.8958  43
   2  -3  -3 169.559 39.5087   3
  -2   3   3 164.354 30.7745   4
  -2   3   3 127.196 26.5075   2
  -2   3   3 136.092 33.6248  42
  -2   3   2 4489.40 172.140  21
   2  -3  -2 4605.73 168.445   1
   2  -3  -2 4467.50 170.704   3
   2  -3  -2 4215.73 159.167  19
  -2   3   2 4631.91 171.322  43
  -2   3   2 4634.33 172.048  42
  -2   3   2 4494.06 148.473   4
  -2   3   2 4550.14 147.015  46
  -2   3   1 203.683 30.2074  46
  -2   3   1 200.461 36.7349  21
  -2   3   1 169.815 33.2519  42
   2  -3  -1 174.952 33.0938  19
  -2   3   1 149.908 27.6670   4
   2  -3  -1 190.018 39.0593   1
   2  -3  -1 160.913 31.4210   3
  -2   3   1 213.845 37.4026  43
  -2   3   0 104813. 721.230  43
  -2   3   0 104729. 751.160  21
   2  -3   0 105427. 663.746   3
  -2   3   0 104058. 720.326  42
   2  -3   0 103299. 739.490  19
  -2   3   0 102954. 685.086   4
   2  -3   0 106518. 802.337   1
  -2   3  -1 629.132 53.6680  42
   2  -3   1 2.12912 10.6013   5
   2  -3   1 23.5076 16.0714   1
   2  -3   1 31.3803 20.9798  19
  -2   3  -1 613.908 53.1676  43
  -2   3  -1 27.0212 12.2011   4
  -2   3  -1 33.0506 17.7061  17
  -2   3  -2 38510.3 383.870  43
  -2   3  -2 38811.5 391.913  41
   2  -3   2 38629.3 433.371   5
   2  -3   2 39562.9 456.713  19
  -2   3  -2 39767.3 489.269  17
  -2   3  -2 38557.1 436.411   4
  -2   3  -2 39002.7 389.526  42
   2  -3   2 39080.3 445.253   7
   2  -3   2 39006.9 490.607   1
  -2   3  -3 8151.47 166.595  43
   2  -3   3 8093.70 203.730   5
  -2   3  -3 8086.70 168.014  41
   2  -3   3 7760.85 224.162   1
   2  -3   3 7882.39 208.008  19
  -2   3  -3 8071.62 166.837  42
  -2   3  -3 8051.61 225.432  17
   2  -3   3 7586.20 195.477   7
  -2   3  -3 7617.37 201.768   4
   2  -3   4 31.9817 16.7045   7
  -2   3  -4 33.9403 20.0920  17
  -2   3  -4-4.84181 12.3743   4
   2  -3   4 13.0440 10.5377   5
   2  -3   5 5269.53 174.603   5
  -2   3  -5 4790.19 177.636   4
   2  -3   5 5047.28 159.291   7
  -2   3  -6 5475.00 189.693  15
   2  -3   6 5059.70 162.196   7
  -2   3  -6 5031.20 181.608  20
  -2   3  -6 5169.11 187.197  10
  -2   3  -6 4824.87 189.125   4
   2  -3   6 5034.66 176.346   5
  -2   3  -6 5618.55 206.010  17
   2  -3   6 4965.69 199.880   2
  -2   3  -7 9095.59 255.073  15
   2  -3   7 9008.33 287.182   2
   2  -3   7 8965.26 244.137   5
  -2   3  -7 8261.29 261.788   4
  -2   3  -7 9280.41 253.223  20
   2  -3   7 9097.48 224.491   7
  -2   3  -7 8841.82 256.579  10
  -2   3  -8 3264.08 158.427  15
   2  -3   8 3332.44 153.230   5
  -2   3  -8 3312.21 154.165  20
  -2   3  -8 2838.25 162.215   4
  -2   3  -8 3282.52 163.958  10
   2  -3   8 3374.28 187.992   2
   2  -3   9 3000.13 174.887  40
   2  -3   9 2731.17 163.439  30
  -2   3  -9 2887.27 160.273  10
   2  -3   9 2654.17 166.309  36
   2  -3   9 2569.69 162.925  27
  -2   3  -9 2646.56 147.504  15
  -2   3 -10 616.286 74.0919  15
   2  -3  10 634.800 82.7518  30
  -2   3 -10 689.507 80.6288  10
   2  -3  10 697.100 88.8625  40
   2  -3  10 611.605 85.0614  27
   2  -3  10 736.910 93.2404  35
  -2   3 -11 2628.41 158.849  10
  -2   3 -11 2823.96 169.360  19
  -2   3 -11 2810.12 169.972  14
   2  -3  11 2555.77 172.486  27
   2  -3  11 2775.04 173.427  30
   2  -3  11 2814.70 177.879  40
   2  -3  11 2456.52 169.718  35
   2  -3  12 592.130 82.0510  30
  -2   3 -12 613.140 80.2057  19
   2  -3  12 602.089 83.1195  40
   2  -3  12 510.803 80.7588  35
   2  -3  13 7400.62 265.689  30
   2  -3  13 7879.68 280.390  40
   2  -3  13 7071.76 265.722  35
   2  -3  14 8888.67 263.297  30
   2  -3  14 8662.22 271.838  40
   2  -3  15 2210.63 119.762  40
   2  -3  15 2058.02 107.313  35
   2  -2 -15 18.4206 16.4013  28
  -2   2  15 39.5804 23.4780  40
  -2   2  14 95.4593 34.5155  31
   2  -2 -14 76.8960 33.7448  28
  -2   2  14 113.555 36.5109  40
  -2   2  14 114.692 30.7958  33
  -2   2  13 268.894 57.6887  31
  -2   2  13 243.915 55.8203  40
   2  -2 -13 299.367 62.9557  28
  -2   2  13 296.584 54.8367  33
  -2   2  12-29.5898 37.9281  31
   2  -2 -12-2.02055 28.7406  28
  -2   2  12 17.3670 29.4020  40
  -2   2  12-20.0378 29.9078  33
  -2   2  11 822.017 103.454  31
   2  -2 -11 774.231 96.0345  19
   2  -2 -11 810.246 103.259  28
  -2   2  11 704.465 98.0453  40
  -2   2  11 791.415 99.9855  33
  -2   2  10 2514.42 155.055  21
  -2   2  10 2559.19 175.798  31
  -2   2  10 2364.69 166.360  46
  -2   2  10 2389.86 174.143  40
   2  -2 -10 2625.76 170.476  19
  -2   2  10 2606.12 173.165  33
   2  -2  -9 12173.6 349.912  19
  -2   2   9 11473.6 349.799  46
  -2   2   9 11639.8 362.266  31
  -2   2   9 11051.9 356.902  40
  -2   2   9 11911.4 330.488  21
  -2   2   9 11680.1 355.820  33
  -2   2   8 9420.27 288.251  21
  -2   2   8 8866.53 275.457  43
  -2   2   8 9293.55 282.887  42
   2  -2  -8 9508.17 295.333  19
  -2   2   8 9779.62 305.570  46
  -2   2   8 9419.09 259.864   2
   2  -2  -8 9277.94 343.035   3
   2  -2  -7 4147.70 213.598   3
  -2   2   7 3858.21 176.445  21
   2  -2  -7 4233.12 185.311  19
  -2   2   7 4100.00 188.000  46
  -2   2   7 4003.19 179.068  43
  -2   2   7 4254.59 162.146   2
  -2   2   7 3948.80 179.153  42
   2  -2  -6 46095.4 567.418  19
  -2   2   6 44466.3 572.537  21
  -2   2   6 45433.1 493.043   2
  -2   2   6 44599.4 568.759  43
  -2   2   6 44291.3 568.894  42
  -2   2   6 47118.3 580.634  46
   2  -2  -6 45555.2 658.341   3
   2  -2  -5 29203.6 487.885   3
  -2   2   5 28589.6 437.242  21
  -2   2   5 28347.9 431.724  43
  -2   2   5 29323.6 370.324   2
   2  -2  -5 29058.4 418.539  19
  -2   2   5 28081.9 432.522  42
  -2   2   5 30174.0 432.126  46
  -2   2   4 454.081 53.4391  21
  -2   2   4 425.363 52.2303  42
   2  -2  -4 439.718 47.6910  13
  -2   2   4 489.849 52.1983  46
  -2   2   4 448.491 52.2023  43
   2  -2  -4 542.308 54.3711  19
  -2   2   4 488.963 50.1030   4
  -2   2   4 435.959 43.5843   2
   2  -2  -4 502.468 61.5304   3
  -2   2   3 37337.8 441.890  21
   2  -2  -3 36752.9 375.234  13
   2  -2  -3 35903.3 457.428   3
   2  -2  -3 35255.4 413.221  19
  -2   2   3 37571.3 405.949  46
  -2   2   3 36660.1 440.154  42
  -2   2   3 36270.0 394.423   4
  -2   2   3 36647.5 437.773  43
  -2   2   3 37919.3 312.029   6
  -2   2   2 1961.51 97.7203  21
  -2   2   2 1779.29 81.1487  46
   2  -2  -2 1936.45 78.0606  13
  -2   2   2 1927.36 95.3986  43
  -2   2   2 1918.35 95.3950  42
   2  -2  -2 1784.77 87.1194  19
   2  -2  -2 1892.83 81.8235  16
  -2   2   2 1805.15 84.7830   4
   2  -2  -2 1920.57 96.2150   3
  -2   2   1 214388. 906.512   4
  -2   2   1 216108. 948.051  43
   2  -2  -1 221256. 997.307   1
  -2   2   1 222238. 777.406  46
  -2   2   1 219240. 962.731  42
   2  -2  -1 211001. 905.957  19
   2  -2  -1 216132. 902.353   3
   2  -2   0 19406.1 269.435  19
  -2   2   0 19784.9 276.453   4
  -2   2   0 19367.4 269.255  42
  -2   2   0 19057.1 269.884  41
  -2   2   0 19201.6 266.618  43
   2  -2   0 19516.0 293.244   1
   2  -2   0 19030.5 232.029   3
   2  -2   1 41217.4 271.921   3
   2  -2   1 42872.1 399.215  19
  -2   2  -1 41440.7 377.073  41
  -2   2  -1 41878.1 410.701   4
  -2   2  -1 41753.0 371.262  43
  -2   2  -1 41398.5 372.438  42
   2  -2   1 42550.5 435.794   1
   2  -2   2 2970.91 116.470   1
  -2   2  -2 3263.66 118.353   4
   2  -2   2 3196.77 112.100  19
  -2   2  -2 3219.69 99.4944  43
  -2   2  -2 3193.97 100.534  41
  -2   2  -2 3155.92 98.7437  42
   2  -2   3 28786.6 337.710   5
   2  -2   3 29661.6 377.376   2
  -2   2  -3 28841.0 352.568  20
   2  -2   3 29292.7 353.982  19
   2  -2   3 29997.7 313.984   7
  -2   2  -3 31982.6 304.169  42
   2  -2   3 28324.8 365.090   1
   2  -2   3 29966.0 312.341  16
  -2   2  -3 31909.7 303.093  43
  -2   2  -3 31030.0 302.657  41
  -2   2  -3 29056.1 371.364   4
  -2   2  -4 3151.82 118.639  15
   2  -2   4 2974.62 98.0947   7
   2  -2   4 2931.99 112.158   5
  -2   2  -4 3136.73 121.618  20
  -2   2  -4 2918.33 125.450   4
  -2   2  -4 3147.61 94.6567  42
   2  -2   4 2940.51 108.936  16
   2  -2   4 2895.76 121.375   1
  -2   2  -4 3236.71 95.9058  43
  -2   2  -4 3170.36 95.9986  41
   2  -2   4 3034.16 127.044   2
  -2   2  -4 3028.25 115.697  10
  -2   2  -5 1039.82 72.2791  15
   2  -2   5 1122.87 72.2419   5
  -2   2  -5 955.240 78.1691   4
  -2   2  -5 965.329 70.6586  20
   2  -2   5 1079.39 60.3702   7
   2  -2   5 958.055 77.0302   2
   2  -2   5 1077.87 74.0427  16
  -2   2  -5 1070.36 74.7954  10
  -2   2  -6 999.343 75.8990  15
   2  -2   6 1034.79 85.0895   2
   2  -2   6 953.198 67.5709   5
  -2   2  -6 1075.23 77.1934  20
  -2   2  -6 935.000 81.9663   4
  -2   2  -6 1026.53 77.3405  10
   2  -2   6 993.022 77.5549  16
  -2   2  -7 19.9420 13.3757  15
  -2   2  -7 34.2795 21.8534  10
  -2   2  -7 13.8825 19.0171   4
  -2   2  -7 7.54409 12.4458  20
   2  -2   7 74.5304 28.6637   2
  -2   2  -8 11509.2 281.398  15
   2  -2   8 11551.0 329.191   2
  -2   2  -8 11225.7 289.462  10
  -2   2  -8 11018.5 320.171   4
  -2   2  -9 644.224 70.0812  15
  -2   2  -9 645.625 73.2772  10
   2  -2   9 715.041 81.5568  30
   2  -2   9 668.211 80.4106  40
  -2   2  -9 692.035 86.7722   4
   2  -2   9 742.395 91.6305  27
   2  -2   9 814.352 91.8304  36
   2  -2   9 726.412 88.7802   2
   2  -2  10 1733.21 136.976  40
   2  -2  10 1685.57 130.578  30
  -2   2 -10 1569.75 121.174  14
   2  -2  10 1337.60 126.328  27
   2  -2  10 1484.69 129.663  35
   2  -2  11 2824.69 173.207  30
  -2   2 -11 2840.27 169.225  19
   2  -2  11 2899.83 181.512  40
  -2   2 -11 2812.96 168.255  14
   2  -2  11 2727.38 180.719  35
   2  -2  11 2933.43 189.701  27
   2  -2  12 4245.48 211.474  30
   2  -2  12 3925.96 219.462  27
  -2   2 -12 4176.34 207.509  19
   2  -2  12 4102.18 212.300  25
   2  -2  12 3868.39 215.736  35
   2  -2  12 4303.13 221.127  40
   2  -2  13 11148.6 329.553  30
   2  -2  13 11669.0 352.095  40
   2  -2  13 10645.8 325.622  25
   2  -2  13 10820.1 343.722  35
   2  -2  14 639.040 78.9907  40
   2  -2  14 468.093 67.0339  35
  -2   2 -14 566.773 65.6086  34
   2  -2  15 342.120 51.0521  40
   2  -2  15 270.525 45.2052  35
   2  -1 -15 191.964 40.7102  28
  -2   1  15 68.3299 25.7038  40
  -2   1  14 1309.36 111.511  31
   2  -1 -14 1244.96 109.746  28
  -2   1  14 1200.10 109.182  40
  -2   1  14 1235.16 98.3485  33
  -2   1  13 755.941 93.7779  31
   2  -1 -13 856.378 98.6853  28
  -2   1  13 803.470 97.2258  40
  -2   1  13 920.029 96.6443  33
  -2   1  12 13163.8 403.595  31
  -2   1  12 12990.4 402.298  40
  -2   1  12 13003.3 377.822  33
  -2   1  11 9795.66 348.333  31
   2  -1 -11 8916.25 350.807  13
  -2   1  11 9652.48 347.035  40
  -2   1  11 9988.30 336.224  33
  -2   1  10 1334.19 129.155  31
   2  -1 -10 1303.01 127.208  11
  -2   1  10 1259.28 122.855  40
  -2   1  10 1246.98 121.522  33
  -2   1   9 4414.85 193.872  21
   2  -1  -9 4571.53 222.376  11
  -2   1   9 4429.92 219.595  31
   2  -1  -9 4581.75 198.136  19
  -2   1   9 4479.18 176.184   2
   2  -1  -9 4294.87 238.076   3
  -2   1   9 4314.90 214.675  40
  -2   1   9 4469.71 214.782  33
  -2   1   8 33895.8 548.914  46
  -2   1   8 33649.7 444.490   2
   2  -1  -8 33097.9 560.090  11
   2  -1  -8 34019.3 499.954  19
  -2   1   8 33285.1 508.322  21
  -2   1   7 11627.4 264.228  43
  -2   1   7 11963.6 289.651  21
   2  -1  -7 12240.6 316.838  11
  -2   1   7 11875.8 269.180  42
  -2   1   7 12740.7 311.576  46
  -2   1   7 12444.6 249.226   2
  -2   1   7 12665.8 300.419   6
   2  -1  -7 12111.6 336.741   3
  -2   1   6 18730.2 346.559  21
  -2   1   6 18194.8 316.173  42
   2  -1  -6 19338.9 390.137   3
   2  -1  -6 19911.2 371.211  11
   2  -1  -6 19807.4 324.064  19
  -2   1   6 19156.2 335.035   6
  -2   1   6 18746.1 281.281   2
  -2   1   6 19309.3 354.403  46
  -2   1   6 18545.4 317.867  43
  -2   1   5 11192.7 251.210  21
  -2   1   5 11819.6 255.906  46
  -2   1   5 12183.4 209.207   2
  -2   1   5 11224.6 231.636   6
   2  -1  -5 11655.0 264.285  11
  -2   1   5 11059.8 233.107  43
  -2   1   5 11054.4 234.766  42
   2  -1  -5 11633.0 276.959   3
   2  -1  -5 11540.4 225.595  19
  -2   1   4 1515.07 76.8200   6
   2  -1  -4 1609.09 76.6502  19
  -2   1   4 1615.43 89.7222  21
  -2   1   4 1609.58 86.1745  46
   2  -1  -4 1523.48 92.4922   3
   2  -1  -4 1422.29 87.0252  13
  -2   1   4 1597.90 84.8149  43
  -2   1   4 1565.15 84.2975  42
  -2   1   4 1527.97 78.7614   4
  -2   1   4 1511.76 68.7536   2
   2  -1  -3 82638.7 598.812  13
  -2   1   3 86026.3 562.322  46
  -2   1   3 83121.9 574.239  43
   2  -1  -3 82645.5 519.687   8
  -2   1   3 81238.9 527.221   4
  -2   1   3 82205.1 573.960  42
   2  -1  -3 83615.9 625.908  16
   2  -1  -3 85152.1 620.546   3
  -2   1   3 82334.4 518.848   6
  -2   1   2 7205.48 152.887   4
   2  -1  -2 7308.00 164.347  13
  -2   1   2 7131.46 159.025  43
   2  -1  -2 8187.46 140.806   8
  -2   1   2 7286.63 162.277  42
  -2   1   2 7028.65 161.105  41
   2  -1  -2 7932.62 175.528  16
   2  -1  -2 7468.94 165.495   3
  -2   1   2 7446.75 148.091  46
   2  -1  -1 6295.00 145.937  16
  -2   1   1 6113.71 139.534   4
  -2   1   1 6203.11 140.285  43
  -2   1   1 6084.37 141.436  41
  -2   1   1 6173.74 141.241  42
   2  -1  -1 6369.15 136.295   3
  -2   1   0 533.554 30.8781  10
   2  -1   0 541.851 42.4070  16
   2  -1   0 551.601 36.0629   3
  -2   1  -1 42618.6 331.335  15
  -2   1  -1 42809.1 350.688  41
  -2   1  -1 42882.9 382.524   4
  -2   1  -1 42791.1 348.067  42
  -2   1  -1 44032.7 318.264  10
  -2   1  -1 42926.6 346.810  43
   2  -1   1 42935.8 370.245  16
   2  -1   1 42561.8 269.608   3
   2  -1   1 43158.8 374.072   2
  -2   1  -2 9987.73 167.480  41
  -2   1  -2 10343.2 176.598  15
  -2   1  -2 10482.4 198.894   4
  -2   1  -2 10075.6 168.292  42
   2  -1   2 10453.3 188.413  16
  -2   1  -2 10012.4 167.449  43
   2  -1   2 9632.98 177.857   1
   2  -1   2 10515.6 191.400   2
  -2   1  -2 10550.6 173.456  10
  -2   1  -3 42971.3 387.740  15
  -2   1  -3 42439.5 352.752  42
   2  -1   3 40699.7 369.666   1
  -2   1  -3 44164.3 401.427  20
  -2   1  -3 42158.2 427.092   4
  -2   1  -3 43323.9 384.455  10
   2  -1   3 42146.6 408.110   2
  -2   1  -3 42741.9 353.080  43
   2  -1   3 42301.9 406.470  16
  -2   1  -3 42075.3 353.145  41
   2  -1   3 42368.9 268.532   7
  -2   1  -4 51604.5 453.774  15
   2  -1   4 50460.1 401.966   5
   2  -1   4 51026.6 413.076   1
  -2   1  -4 51427.5 404.112  42
  -2   1  -4 51201.6 456.627  20
  -2   1  -4 52060.3 513.270   4
  -2   1  -4 49726.0 448.766  10
  -2   1  -4 51384.9 404.212  41
   2  -1   4 50142.4 476.215   2
  -2   1  -4 51337.6 405.538  43
   2  -1   4 51793.9 293.632   7
   2  -1   4 50578.8 485.675  16
  -2   1  -5 92829.4 652.703  15
   2  -1   5 91217.8 552.011   5
  -2   1  -5 90934.5 639.031  20
  -2   1  -5 91997.2 740.654   4
  -2   1  -5 94839.6 582.213  42
   2  -1   5 94747.9 713.605   2
  -2   1  -5 94865.1 582.691  41
  -2   1  -5 94061.7 584.150  43
   2  -1   5 92001.9 715.043  16
  -2   1  -5 90085.5 655.252  10
  -2   1  -6 12946.7 260.475  15
   2  -1   6 12413.0 286.376  16
   2  -1   6 12822.2 212.092   5
  -2   1  -6 12961.3 230.952  41
  -2   1  -6 13068.8 269.223  10
  -2   1  -6 12679.2 250.546  20
  -2   1  -6 12256.1 291.159   4
  -2   1  -6 12982.0 232.357  43
   2  -1   6 12699.7 284.950   2
  -2   1  -6 12753.0 228.674  42
  -2   1  -7 24645.3 364.668  20
  -2   1  -7 23648.9 439.036   4
   2  -1   7 23711.7 431.498  16
  -2   1  -7 23702.1 375.735  15
  -2   1  -7 23529.0 385.781  10
   2  -1   7 23441.8 421.948   2
  -2   1  -8 3900.14 162.415  15
  -2   1  -8 3996.86 167.857  14
  -2   1  -8 4032.22 196.539   4
   2  -1   8 3753.18 182.157   2
   2  -1   8 3657.70 183.232  16
  -2   1  -9 3106.85 158.469  14
   2  -1   9 3088.90 166.607  30
  -2   1  -9 3223.54 186.608   4
   2  -1   9 2895.09 171.904   2
  -2   1  -9 3211.38 161.408  19
   2  -1   9 3376.65 178.253  40
   2  -1   9 2947.81 170.341  36
   2  -1   9 2868.27 176.194  27
  -2   1  -9 3235.28 155.313  15
   2  -1  10 372.538 70.9638  25
  -2   1 -10 299.376 53.8288  14
   2  -1  10 311.633 57.1299  30
   2  -1  10 422.792 74.6949  27
   2  -1  10 536.729 76.5942  40
  -2   1 -10 306.787 54.3922  19
   2  -1  10 321.075 64.3505  35
   2  -1  11 13825.4 415.750  27
  -2   1 -11 13205.9 366.243  14
   2  -1  11 13091.5 368.743  30
   2  -1  11 13326.4 398.913  25
   2  -1  11 14023.9 392.606  40
   2  -1  11 14124.5 413.881  35
  -2   1 -11 13936.1 371.771  19
  -2   1 -12 37074.8 619.121  19
   2  -1  12 37365.8 645.811  40
   2  -1  12 36797.4 664.570  25
   2  -1  12 36510.3 682.788  27
   2  -1  12 36473.0 671.620  35
   2  -1  13 3169.17 189.213  35
  -2   1 -13 3398.85 176.252  34
   2  -1  13 3004.02 182.441  25
   2  -1  13 3214.87 183.483  40
   2  -1  14 42.0214 26.3887  35
   2  -1  14 41.6235 24.5863  40
   2  -1  14 61.9492 27.4244  25
  -2   1 -14 56.2734 24.2761  34
  -2   1 -15 134.636 33.6285  38
   2  -1  15 84.6036 28.3584  40
   2  -1  15 97.5642 30.5009  35
  -2   0  15 78.1354 25.8795  40
   2   0 -15 61.5591 25.0423  28
  -2   0  15 21.9877 20.2045  35
   2   0 -14 981.360 97.1333  28
  -2   0  14 858.523 91.9900  40
  -2   0  14 794.566 85.0858  35
  -2   0  14 933.196 87.4991  33
  -2   0  13 3381.68 194.457  40
  -2   0  13 3115.74 176.671  33
  -2   0  12 13915.2 416.361  31
  -2   0  12 13395.8 395.801  40
   2   0 -12 12810.5 445.140  16
  -2   0  12 13261.3 381.946  35
  -2   0  12 13627.5 388.238  33
  -2   0  11 1286.37 128.109  31
   2   0 -11 1291.26 140.055  13
   2   0 -11 1461.80 139.264  11
  -2   0  11 1340.57 125.125  40
  -2   0  11 1415.76 126.212  35
  -2   0  11 1353.77 124.536  33
   2   0 -10 2216.91 159.360  11
  -2   0  10 2101.64 156.165  26
   2   0 -10 2065.63 173.512   8
  -2   0  10 2333.93 167.573  31
  -2   0  10 2243.22 156.332  40
  -2   0  10 2075.99 149.246  35
  -2   0  10 2066.51 152.904  33
  -2   0   9 5715.76 247.771  31
   2   0  -9 5744.84 240.623  11
  -2   0   9 6087.18 256.921   6
   2   0  -9 5586.14 258.340   3
   2   0  -8 2844.94 158.773  11
  -2   0   8 2915.03 166.410   6
   2   0  -8 2643.34 162.062   3
  -2   0   7 1450.30 101.223  21
   2   0  -7 1362.84 101.462  11
   2   0  -7 1382.08 107.264   3
  -2   0   7 1659.44 116.203   6
  -2   0   6 174.612 35.1651  21
   2   0  -6 162.565 33.1275  11
   2   0  -6 158.805 36.4757   3
  -2   0   6 171.735 25.1427   2
  -2   0   6 134.010 32.4586   6
  -2   0   5 112.843 22.5533  42
  -2   0   5 116.255 28.2462  21
  -2   0   5 76.8677 15.7469   2
   2   0  -5 81.0261 24.5233  13
  -2   0   5 124.191 22.3558  41
   2   0  -5 76.8998 23.7345   3
  -2   0   5 118.408 22.2796  43
   2   0  -5 92.3235 25.2714  11
  -2   0   5 86.6391 25.2895   6
  -2   0   4 11.5312 8.33777   2
  -2   0   4 18.0183 13.5610  21
   2   0  -4-1.36598 17.3391  13
   2   0  -4 14.4021 15.4112   8
   2   0  -4 12.3455 14.2267  11
   2   0  -4 63.7000 22.1491   3
  -2   0   4 10.7367 9.97803  42
   2   0  -4-2.67567 17.2447  16
  -2   0   4 10.5512 8.91617  41
  -2   0   4 5.20061 9.47444  43
  -2   0   4 3.37324 11.7370   6
   2   0  -3 115087. 751.154  13
  -2   0   3 114153. 601.640  41
  -2   0   3 119302. 681.164   6
   2   0  -3 114224. 733.236   8
  -2   0   3 116211. 444.999   2
  -2   0   3 116467. 559.683   4
  -2   0   3 114484. 596.210  42
  -2   0   3 113756. 590.934  43
   2   0  -3 120883. 702.187   3
   2   0  -3 118589. 767.424  16
  -2   0   2 942097. 1637.76  43
  -2   0   2 937480. 1641.30  42
  -2   0   2 937898. 1654.39  41
  -2   0   2 939507. 1510.30   4
   2   0  -2 934070. 2007.52  16
   2   0  -2 932946. 2022.67  18
  -2   0   1 588165. 1217.15   4
  -2   0   1 582335. 1303.08  41
   2   0  -1 591860. 1546.22  18
  -2   0   1 582662. 1292.00  43
  -2   0   1 584450. 1291.23  42
   2   0  -1 593758. 1527.65  16
  -2   0   0 445640. 1091.28   4
  -2   0   0 457099. 1140.82  43
   2   0   0 460955. 1145.83   9
  -2   0   0 455741. 1142.13  42
  -2   0   0 446619. 1017.97  15
  -2   0   0 452219. 1137.00  41
  -2   0  -1 1279.36 61.6618  42
  -2   0  -1 1187.91 59.9479   4
  -2   0  -1 1222.67 60.2041  43
  -2   0  -1 1232.09 61.0244  41
   2   0   1 1352.87 58.5209   2
  -2   0  -1 1305.35 61.2606  15
   2   0   1 1234.38 69.8805  16
  -2   0  -2 51303.5 410.283  15
  -2   0  -2 50314.9 397.831  41
  -2   0  -2 50580.6 398.461  43
  -2   0  -2 50878.5 419.061  20
  -2   0  -2 50471.6 418.715   4
  -2   0  -2 50179.5 396.236  42
   2   0   2 51000.8 388.318   2
  -2   0  -3 942.357 60.1001  15
  -2   0  -3 959.682 61.9676  20
   2   0   3 902.249 57.4256   2
  -2   0  -3 945.922 63.2195   4
  -2   0  -3 997.660 59.7349  42
  -2   0  -3 927.487 57.7188  43
   2   0   3 1077.35 71.6664  16
  -2   0  -3 896.118 56.8130  41
   2   0   3 883.372 43.6354   1
  -2   0  -4 9261.62 191.031  41
   2   0   4 9415.37 141.798   5
  -2   0  -4 9732.43 206.816  15
  -2   0  -4 9573.89 203.592  20
  -2   0  -4 9537.30 218.966   4
   2   0   4 9547.19 201.582   2
   2   0   4 9602.77 181.267  46
  -2   0  -4 9290.65 191.981  43
   2   0   4 9375.60 224.160  16
  -2   0  -4 9446.53 193.531  42
  -2   0  -4 9901.01 201.971   3
   2   0   5 33101.8 414.024   2
  -2   0  -5 33170.7 376.538  14
  -2   0  -5 31825.1 390.438  20
  -2   0  -5 32578.6 438.492   4
   2   0   5 32706.7 450.220  16
  -2   0  -5 32789.8 395.380   3
  -2   0  -5 31807.6 381.442  43
  -2   0  -5 31903.3 381.618  42
  -2   0  -5 32168.7 383.504  41
  -2   0  -5 32920.8 409.707  15
  -2   0  -6 7763.04 201.727  14
  -2   0  -6 7709.10 202.046  20
  -2   0  -6 8398.09 242.908   4
   2   0   6 7725.29 220.023   2
  -2   0  -6 7294.55 197.969  43
   2   0   6 7629.16 235.636  16
  -2   0  -6 7573.01 199.676  42
  -2   0  -6 7648.29 202.145  19
  -2   0  -6 7552.73 199.287  41
  -2   0  -6 8055.96 213.747  15
  -2   0  -7 69.3300 28.5791  15
  -2   0  -7 83.8751 25.1961  14
   2   0   7 37.6288 18.2643   2
  -2   0  -7 32.1888 18.0296  20
  -2   0  -7 42.2325 21.3694  43
  -2   0  -7 68.5585 21.3124  42
  -2   0  -7 60.7513 24.0942  19
  -2   0  -7 41.4142 21.4183  41
   2   0   7 35.5242 21.7257  16
  -2   0  -8 1942.66 119.886  14
  -2   0  -8 1903.59 136.164   4
   2   0   8 1934.31 129.265   2
   2   0   8 1932.27 138.868  16
  -2   0  -8 1928.78 119.771  19
  -2   0  -8 1915.46 119.679  15
  -2   0  -9 56.3555 29.2965   4
  -2   0  -9 42.9598 27.2338  15
   2   0   9 72.8891 30.8475  30
  -2   0  -9 24.2000 20.1917  14
   2   0   9-1.04996 26.7172   2
   2   0   9 27.0995 24.8128  27
  -2   0  -9 35.7577 25.1573  19
   2   0   9 115.539 38.6203  40
   2   0   9 70.6447 23.4984  35
   2   0   9 161.478 49.6641  25
  -2   0 -10 68488.2 810.840  14
   2   0  10 72137.2 856.580  40
   2   0  10 70956.9 924.060  25
   2   0  10 70192.5 917.573  27
  -2   0 -10 71568.8 826.659  19
   2   0  10 72101.7 916.772  35
  -2   0 -11 48.5730 39.9995  19
   2   0  11 64.4379 44.3331  27
   2   0  11 46.9822 40.5707  25
  -2   0 -11 203.579 58.4455  34
   2   0  11 366.180 74.9466  35
   2   0  11 355.420 68.4881  40
   2   0  12 8898.85 329.141  27
  -2   0 -12 9072.86 312.172  19
  -2   0 -12 8733.93 297.866  34
   2   0  12 9059.96 335.107  25
   2   0  12 8906.21 306.074  40
   2   0  12 9069.82 334.445  35
   2   0  13 475.284 77.2517  25
   2   0  13 425.545 66.1017  40
   2   0  13 492.220 75.9138  35
  -2   0 -13 515.825 68.1712  34
  -2   0 -14 954.898 90.7874  38
   2   0  14 966.245 90.5797  40
   2   0  14 1025.70 98.5331  25
  -2   0 -14 1067.88 88.0371  34
   2   0  14 998.508 96.2939  35
   2   0  15 365.644 46.7275  40
  -2   0 -15 378.627 50.4073  38
   2   0  15 377.425 51.0089  35
  -2  -1  15 708.210 70.3725  35
  -2  -1  14 4948.48 203.154  40
  -2  -1  14 4636.03 207.124  35
  -2  -1  13 706.051 87.0614  40
  -2  -1  13 517.966 77.6444  35
  -2  -1  12 4760.67 223.649  40
  -2  -1  12 3879.39 217.073  26
  -2  -1  12 4136.05 222.945  35
   2   1 -12 4357.99 260.530  16
  -2  -1  12 4125.08 213.146  33
   2   1 -11 3966.10 243.847  13
   2   1 -11 4046.65 223.254  11
  -2  -1  11 3649.09 215.836  26
  -2  -1  11 3915.72 203.948  40
  -2  -1  11 3773.26 212.763  35
   2   1 -11 3934.96 243.678  16
  -2  -1  11 3678.79 204.490  33
   2   1 -10 943.851 116.139  13
   2   1 -10 1004.01 107.569  11
   2   1 -10 870.864 111.750  16
  -2  -1  10 898.550 107.788  26
  -2  -1  10 846.630 99.5919  35
  -2  -1  10 989.468 108.417  33
  -2  -1   9 7736.34 291.369  31
   2   1  -9 7619.48 307.735  13
   2   1  -9 7648.32 273.580  11
  -2  -1   9 7175.83 286.565  26
   2   1  -9 7670.30 326.985   8
  -2  -1   9 7306.18 276.632  35
  -2  -1   9 7824.51 308.998   6
   2   1  -9 8034.94 298.096   3
  -2  -1   9 7477.27 279.349  33
   2   1  -8 319.956 63.0364  13
   2   1  -8 397.415 59.7268  11
   2   1  -8 279.261 54.2866   3
   2   1  -8 350.034 69.6148   8
  -2  -1   8 419.496 70.4601   6
   2   1  -7 16300.3 398.645  13
   2   1  -7 16903.9 349.985  11
   2   1  -7 16148.8 411.409   8
   2   1  -7 16534.4 398.838  16
   2   1  -7 17209.2 373.035   3
  -2  -1   7 17241.7 398.744   6
   2   1  -6 33311.3 528.739  13
   2   1  -6 35214.2 462.381  11
   2   1  -6 34553.6 532.126  16
   2   1  -6 35627.4 498.636   3
   2   1  -6 34075.5 556.699   8
  -2  -1   6 34164.4 512.110   6
   2   1  -5 3789.98 153.091   3
  -2  -1   5 3600.90 152.393   6
   2   1  -5 3552.34 161.117  13
   2   1  -5 3786.67 139.210  11
   2   1  -5 3792.84 173.985   8
   2   1  -5 3713.44 162.971  16
   2   1  -4 221.463 42.2521  13
  -2  -1   4 176.886 24.7569  43
   2   1  -4 365.574 53.9834   8
  -2  -1   4 181.626 25.0719  42
   2   1  -4 410.804 54.0986  16
   2   1  -4 160.776 28.8506  11
  -2  -1   4 172.961 24.0772  41
  -2  -1   4 152.040 31.7754   6
   2   1  -3 256.050 42.2242  13
   2   1  -3 166.995 34.0056  16
   2   1  -3 200.770 40.7937   8
  -2  -1   3 154.106 22.6591  42
  -2  -1   3 159.118 23.7726  41
  -2  -1   3 127.386 21.5163  43
   2   1  -3 210.811 38.3111  18
  -2  -1   3 199.198 33.4308   6
  -2  -1   2 51371.7 391.361  43
  -2  -1   2 52772.3 393.850  15
   2   1  -2 51497.2 530.810  18
  -2  -1   2 51943.2 392.116  42
   2   1  -2 52285.5 510.027  16
  -2  -1   2 51600.6 393.836  41
  -2  -1   1 965.656 56.0248  43
  -2  -1   1 1018.15 40.4012   4
  -2  -1   1 974.111 56.0032  42
   2   1  -1 968.137 72.7719  18
  -2  -1   1 975.349 55.8971  41
   2   1  -1 1005.94 72.6888   9
   2   1  -1 1029.18 70.4305  16
  -2  -1   1 1056.99 60.3715  15
   2   1   0 9771.65 223.248  46
  -2  -1   0 9718.07 183.032  43
   2   1   0 9397.72 213.637   9
  -2  -1   0 10348.0 202.040  20
   2   1   0 10915.8 133.367   2
  -2  -1   0 9592.14 181.594  42
  -2  -1   0 10475.8 148.872   4
   2   1   0 10049.5 214.751  16
  -2  -1   0 9808.82 184.076  41
  -2  -1   0 9778.89 188.081  15
  -2  -1  -1 1850.73 88.8433  20
   2   1   1 1879.91 83.6673  12
  -2  -1  -1 1873.17 70.9513   4
   2   1   1 1960.11 100.532  46
  -2  -1  -1 1841.50 82.7952  42
  -2  -1  -1 1810.26 82.5176  41
   2   1   1 1909.85 65.3299   2
   2   1   1 1769.46 91.1593  16
  -2  -1  -1 1840.37 82.8660  43
  -2  -1  -1 1933.94 87.3483  15
  -2  -1  -2 27274.3 360.796  20
   2   1   2 26752.5 298.996  12
  -2  -1  -2 27174.9 304.690   4
   2   1   2 26814.6 277.581   2
  -2  -1  -2 27233.6 335.711  43
  -2  -1  -2 27253.7 333.945  41
   2   1   2 27380.6 371.251  46
   2   1   2 26845.6 364.425  16
  -2  -1  -2 27477.4 336.203  42
  -2  -1  -2 27394.9 348.929  15
  -2  -1  -3 873.076 65.0053  42
  -2  -1  -3 898.232 54.2399  14
  -2  -1  -3 834.637 65.8942  20
  -2  -1  -3 856.446 60.5470   4
   2   1   3 890.706 57.6812   2
  -2  -1  -3 848.800 53.6457  19
  -2  -1  -3 847.338 63.3112  43
   2   1   3 904.332 71.2528  16
   2   1   3 838.807 66.6670  46
  -2  -1  -3 865.096 63.2150  41
  -2  -1  -3 867.470 66.4712  15
  -2  -1  -4 15928.5 317.792   3
  -2  -1  -4 14946.1 246.606  14
   2   1   4 15597.0 262.030   2
  -2  -1  -4 15874.5 286.811   4
  -2  -1  -4 15530.2 285.843  43
  -2  -1  -4 15903.2 296.803  20
  -2  -1  -4 15705.2 286.354  42
   2   1   4 16184.8 314.781  16
  -2  -1  -4 15540.2 256.351  19
   2   1   4 15902.0 297.661  46
  -2  -1  -4 15653.0 284.883  41
  -2  -1  -4 15776.2 298.003  15
  -2  -1  -5 12009.4 243.216  14
  -2  -1  -5 11924.3 267.358  20
   2   1   5 11641.7 250.434   2
  -2  -1  -5 12057.8 276.698   4
  -2  -1  -5 11438.2 260.082  41
  -2  -1  -5 11895.8 293.701   3
   2   1   5 11087.0 260.872  46
  -2  -1  -5 11567.2 261.645  42
   2   1   5 12432.5 298.322  16
  -2  -1  -5 11843.1 246.244  19
  -2  -1  -5 11411.6 261.142  43
  -2  -1  -5 12074.1 273.254  15
  -2  -1  -6 6353.56 196.427  14
  -2  -1  -6 6636.72 209.164  20
  -2  -1  -6 6742.41 223.605   4
   2   1   6 6443.31 203.577   2
  -2  -1  -6 6840.74 237.184   3
  -2  -1  -6 6481.06 208.314  41
  -2  -1  -6 6484.03 201.250  19
   2   1   6 6731.69 212.647  46
  -2  -1  -6 6438.65 207.979  42
  -2  -1  -6 6469.97 209.011  43
   2   1   6 6676.77 234.642  16
  -2  -1  -6 6774.65 218.549  15
  -2  -1  -7 291.837 49.0029  41
  -2  -1  -7 231.186 42.5280  14
  -2  -1  -7 329.307 49.4748  20
   2   1   7 270.028 49.7191  46
  -2  -1  -7 268.339 47.5833  43
  -2  -1  -7 276.617 50.1653   4
  -2  -1  -7 243.050 44.8788  15
  -2  -1  -7 211.765 42.1149  19
   2   1   7 298.303 50.2343   2
   2   1   7 280.102 55.3800  16
  -2  -1  -7 247.602 46.0792  42
  -2  -1  -8 33404.5 588.222   4
   2   1   8 33733.4 552.288   2
  -2  -1  -8 32759.4 530.457  43
  -2  -1  -8 32638.0 525.304  19
   2   1   8 32428.9 595.735  25
   2   1   8 33368.5 596.007  16
  -2  -1  -8 32863.3 531.535  41
  -2  -1  -8 32845.6 531.067  42
  -2  -1  -8 34304.1 572.128  34
  -2  -1  -8 34098.3 543.979  15
   2   1   9 560.946 85.7656  35
   2   1   9 625.351 86.8470  31
   2   1   9 556.306 82.1493  27
  -2  -1  -9 477.598 71.7762  19
   2   1   9 507.282 84.5407  25
  -2  -1  -9 549.740 79.0084  34
  -2  -1  -9 572.942 76.0431  15
   2   1  10 114268. 1135.54  31
   2   1  10 116074. 1203.68  35
   2   1  10 114829. 1152.83  27
  -2  -1 -10 113867. 1096.31  19
   2   1  10 116358. 1224.68  25
  -2  -1 -10 113252. 1110.97  34
   2   1  11 4914.00 234.306  31
   2   1  11 4809.47 239.476  27
   2   1  11 5115.97 225.925  40
   2   1  11 5085.54 256.897  25
   2   1  11 4981.03 250.750  35
  -2  -1 -11 5019.39 236.359  19
  -2  -1 -11 4929.24 231.932  34
   2   1  12 667.957 83.0964  31
   2   1  12 893.608 101.095  27
   2   1  12 564.093 73.6756  40
  -2  -1 -12 859.357 95.6814  38
   2   1  12 965.097 110.935  25
   2   1  12 769.155 98.8611  35
  -2  -1 -12 732.374 87.8586  34
   2   1  13-6.15530 20.4139  40
  -2  -1 -13 24.8361 23.8231  38
   2   1  13 35.7936 28.3787  25
   2   1  13 5.40949 25.3486  35
  -2  -1 -13-8.41743 21.9896  34
   2   1  14 38.1735 26.3844  25
  -2  -1 -14 46.6827 28.2212  38
   2   1  14 10.8263 18.2238  35
  -2  -1 -14 6.03092 21.0125  34
  -2  -1 -15 21.0091 15.6434  38
  -2  -2  15-14.6049 28.1186  35
  -2  -2  14 637.241 75.5295  35
  -2  -2  13 322.384 62.6070  26
  -2  -2  13 317.062 63.4200  35
   2   2 -12 6719.89 321.057  18
  -2  -2  12 6228.66 283.392  26
  -2  -2  12 6606.92 281.241  35
   2   2 -11 8526.79 358.293  13
  -2  -2  11 7374.67 316.985  26
   2   2 -11 7731.01 333.829  16
  -2  -2  11 7835.16 316.799  35
  -2  -2  10 95.3164 47.4334  26
   2   2 -10 27.1094 29.7781  13
   2   2 -10 180.795 59.6546  16
  -2  -2  10 166.919 54.8293  23
  -2  -2  10 103.746 41.3759  35
  -2  -2  10 85.7096 32.8936  22
   2   2  -9 3083.60 202.289  13
  -2  -2   9 2884.60 192.987  26
   2   2  -9 3205.00 201.034  16
  -2  -2   9 2849.61 187.069  23
  -2  -2   9 3026.86 180.509  22
  -2  -2   9 3054.07 188.935  35
   2   2  -8 4593.61 231.590  13
   2   2  -8 5334.42 272.052   8
   2   2  -8 5197.11 242.100  16
   2   2  -8 5535.64 234.860   3
  -2  -2   8 5205.64 252.408   6
   2   2  -7 136.088 47.1312   8
   2   2  -7 212.970 47.4338   3
   2   2  -7 123.417 44.4148  13
  -2  -2   7 185.209 48.1048   6
   2   2  -7 156.810 46.3390  16
   2   2  -6 14930.2 369.969  13
   2   2  -6 14457.0 400.555   8
   2   2  -6 15611.1 352.030   3
   2   2  -6 14471.3 375.368  18
   2   2  -6 14412.0 356.443  16
  -2  -2   6 14839.8 369.379   6
   2   2  -5 92892.8 859.672  13
   2   2  -5 91082.6 888.692  18
   2   2  -5 95554.2 965.973   8
   2   2  -5 94129.9 857.083  44
   2   2  -5 92382.0 850.993  16
  -2  -2   5 96263.9 866.365   6
   2   2  -4 62317.4 649.742  44
  -2  -2   4 61167.7 555.040  20
   2   2  -4 63374.9 664.181  13
   2   2  -4 60545.3 738.002   9
   2   2  -4 61227.6 691.293  18
  -2  -2   4 62781.6 536.135   7
   2   2  -4 62009.8 649.805  16
  -2  -2   4 60774.4 629.110   6
  -2  -2   3 1638.65 74.5901  41
  -2  -2   3 1512.92 89.3910  20
  -2  -2   3 1660.44 75.2880  42
   2   2  -3 1633.78 99.0292  44
  -2  -2   3 1635.45 75.1394  43
   2   2  -3 1549.60 112.851   9
   2   2  -3 1458.21 104.725  18
  -2  -2   3 1575.19 85.6616  15
  -2  -2   3 1617.73 80.5827   7
   2   2  -3 1497.03 97.5467  16
  -2  -2   3 1561.09 95.8122   6
  -2  -2   2 699.190 63.2001  20
  -2  -2   2 701.155 61.9462   6
   2   2  -2 641.627 72.1536  46
  -2  -2   2 670.775 51.2681  42
   2   2  -2 625.359 70.5905   9
   2   2  -2 711.409 71.1820  18
  -2  -2   2 600.450 48.2187  41
  -2  -2   2 686.785 47.8485   7
  -2  -2   2 633.426 49.5135  43
   2   2  -2 647.790 62.5319  16
  -2  -2   2 652.277 56.9328  15
  -2  -2   1 9520.60 231.715  20
   2   2  -1 9729.01 269.204  46
  -2  -2   1 9985.48 205.600  43
  -2  -2   1 9943.68 204.241  42
  -2  -2   1 10053.3 166.241   7
  -2  -2   1 9762.79 202.738  41
   2   2  -1 9720.77 231.292  16
   2   2  -1 9575.19 265.808   9
  -2  -2   1 9651.19 219.874  15
  -2  -2   1 9931.97 217.729   6
  -2  -2   0 715.623 65.1379  20
   2   2   0 672.476 66.7892  12
  -2  -2   0 688.625 57.2056  43
   2   2   0 677.290 72.4403  46
   2   2   0 698.504 62.3941  16
  -2  -2   0 739.066 59.0325  41
  -2  -2   0 694.648 57.0682  42
  -2  -2   0 708.009 61.8969  15
  -2  -2  -1 60342.6 605.250  20
   2   2   1 59487.8 598.315  12
   2   2   1 61050.4 525.677  45
  -2  -2  -1 62584.3 564.705  43
  -2  -2  -1 63098.7 564.469  42
  -2  -2  -1 62777.2 562.816  41
   2   2   1 60481.8 662.757  46
   2   2   1 61935.8 584.705  16
  -2  -2  -1 62956.9 608.189  15
   2   2   2 14197.8 319.001  21
  -2  -2  -2 14943.4 310.367  20
   2   2   2 14868.0 293.798  12
  -2  -2  -2 14923.6 289.210  42
  -2  -2  -2 14636.7 287.513  43
   2   2   2 14616.2 326.754  46
   2   2   2 14761.3 294.581  16
  -2  -2  -2 15085.8 312.386  15
  -2  -2  -2 14872.7 287.603  41
   2   2   3 704.771 74.6622  46
   2   2   3 741.752 74.5852  21
   2   2   3 722.418 55.7033   2
  -2  -2  -3 674.369 69.7318  20
  -2  -2  -3 743.661 68.8189  43
  -2  -2  -3 738.561 68.0223  42
   2   2   3 700.592 68.1106  16
  -2  -2  -3 718.445 73.4444  15
  -2  -2  -3 758.559 69.2128  41
   2   2   4 78740.1 753.701  16
   2   2   4 77275.4 760.471  21
   2   2   4 80029.1 624.620   2
  -2  -2  -4 76121.0 751.591  20
  -2  -2  -4 79171.8 658.554   4
  -2  -2  -4 76519.4 827.851   3
  -2  -2  -4 76697.9 728.576  43
  -2  -2  -4 78333.5 655.394  19
  -2  -2  -4 76661.7 725.655  41
  -2  -2  -4 76929.8 728.599  42
   2   2   4 79332.5 794.454  46
  -2  -2  -4 80102.5 789.503  15
   2   2   5 8576.26 231.233   2
  -2  -2  -5 8683.93 262.942  20
  -2  -2  -5 8704.67 243.162   4
  -2  -2  -5 8476.67 291.378   3
  -2  -2  -5 8266.48 253.313  43
  -2  -2  -5 8552.98 238.602  19
   2   2   5 8400.53 267.443  46
  -2  -2  -5 8406.86 254.242  41
  -2  -2  -5 8235.13 251.597  42
   2   2   5 8494.30 264.554  16
  -2  -2  -5 8846.57 274.471  15
  -2  -2  -6 7897.83 270.703  15
  -2  -2  -6 7742.60 255.973  20
   2   2   6 8057.08 241.755   2
  -2  -2  -6 8261.22 259.282   4
  -2  -2  -6 7782.19 294.358   3
   2   2   6 7583.74 262.830  46
  -2  -2  -6 7595.69 256.827  43
  -2  -2  -6 7627.06 243.279  19
  -2  -2  -6 7617.06 256.057  42
   2   2   6 7803.66 267.501  16
  -2  -2  -6 7585.34 256.161  41
   2   2   7 25071.9 525.985  31
  -2  -2  -7 25615.4 518.213  34
  -2  -2  -7 26588.7 504.342   4
   2   2   7 26156.7 467.232   2
  -2  -2  -7 26210.7 568.670   3
  -2  -2  -7 25522.1 477.484  19
  -2  -2  -7 23950.5 479.148  42
   2   2   7 26037.7 535.283  25
  -2  -2  -7 24265.0 482.346  43
  -2  -2  -7 24087.2 481.921  41
   2   2   7 25743.3 512.500  16
  -2  -2  -7 25710.6 494.395  38
   2   2   7 25550.7 501.137  46
  -2  -2  -7 26492.2 514.373  15
   2   2   8 32198.4 618.055  31
   2   2   8 34027.3 587.766  46
   2   2   8 33097.7 630.637  25
  -2  -2  -8 32924.4 570.842  19
   2   2   8 34241.1 625.375  16
  -2  -2  -8 33362.5 590.936  38
  -2  -2  -8 33222.9 610.225  34
  -2  -2  -8 34907.9 600.406  15
   2   2   9 2009.95 160.715  31
   2   2   9 1933.19 158.563  25
  -2  -2  -9 1668.13 136.577  19
  -2  -2  -9 1807.53 144.449  38
  -2  -2  -9 1655.01 140.280  34
  -2  -2 -10 3931.76 213.348  34
   2   2  10 4062.24 222.284  31
   2   2  10 3971.51 227.706  35
  -2  -2 -10 3997.36 213.400  19
   2   2  10 3924.93 224.164  25
  -2  -2 -10 3851.15 209.279  38
   2   2  11 27.3364 24.5576  31
   2   2  11 4.70862 26.8781  25
  -2  -2 -11-5.09818 25.3440  38
   2   2  11 33.5879 36.1759  35
  -2  -2 -11-18.6013 30.0263  34
  -2  -2 -12-14.1298 25.1617  38
   2   2  12-31.3678 26.4636  25
   2   2  12-24.2422 23.6281  35
  -2  -2 -12 1.23594 21.8281  34
   2   2  13 13.2357 18.3383  31
   2   2  13-3.25239 19.3332  25
  -2  -2 -13 22.1912 23.4368  38
   2   2  13 17.1103 23.2100  35
  -2  -2 -13 7.67154 16.6864  34
   2   2  14-24.9131 21.0508  25
  -2  -2 -14 4.97313 16.2946  38
   2   2  14 27.5246 18.2238  35
  -2  -3  15 43.5855 25.4658  35
  -2  -3  14 4525.34 187.243  35
  -2  -3  13 767.848 89.0363  35
  -2  -3  12 1264.35 128.341  26
  -2  -3  12 1508.35 130.060  35
   2   3 -11 7.21439 28.3610  18
  -2  -3  11 9.09675 36.1891  26
  -2  -3  11 13.3963 33.8342  23
  -2  -3  11-6.60070 32.4855  35
   2   3 -10 714.971 103.466  13
  -2  -3  10 641.283 101.555  26
   2   3 -10 701.722 101.494  18
  -2  -3  10 713.717 100.530  23
  -2  -3  10 577.246 90.7657  35
   2   3  -9 3335.19 229.659   9
   2   3  -9 3609.09 218.214  13
  -2  -3   9 3704.75 230.306  26
  -2  -3   9 3837.25 233.457  23
   2   3  -9 3488.68 218.144  18
  -2  -3   9 3737.51 218.665  35
   2   3  -8 2603.41 184.379  18
   2   3  -8 2733.26 181.576  13
  -2  -3   8 2894.53 169.126  29
   2   3  -8 2413.47 191.637   9
  -2  -3   8 2524.36 187.735  23
  -2  -3   8 2621.39 178.267  35
  -2  -3   8 2496.75 184.180  26
   2   3  -7 5310.04 240.802  13
   2   3  -7 5864.08 246.644   3
  -2  -3   7 4520.28 237.824  26
   2   3  -7 4933.83 261.497   9
   2   3  -7 5060.70 244.692  18
  -2  -3   7 5246.64 239.200  35
  -2  -3   7 4954.62 254.206  23
  -2  -3   7 5117.96 252.698   6
   2   3  -6 186.901 50.5491  13
   2   3  -6 125.189 43.8035  46
   2   3  -6 202.433 50.5658  44
   2   3  -6 171.665 46.9328  18
   2   3  -6 219.228 49.1974   3
  -2  -3   6 221.064 51.7330   6
   2   3  -6 139.085 47.1079   9
   2   3  -5 18776.6 469.095  46
   2   3  -5 19889.0 430.262  44
  -2  -3   5 20162.0 438.141   6
   2   3  -5 19672.8 439.859  18
  -2  -3   5 20488.7 360.641   7
   2   3  -5 19504.5 487.132   9
   2   3  -4 78.0671 31.5766  44
   2   3  -4 63.0264 27.4419  18
   2   3  -4 54.4565 33.4449   9
  -2  -3   4 77.9039 22.7811   7
   2   3  -4 94.7654 38.5724  46
  -2  -3   4 63.9993 25.9629   6
  -2  -3   3 233.880 41.1067  15
  -2  -3   3 281.496 49.6340  20
   2   3  -3 222.964 50.8407  12
   2   3  -3 244.322 45.0685  44
   2   3  -3 221.175 51.8221   9
  -2  -3   3 257.053 37.6964   7
   2   3  -3 421.746 73.0625  46
  -2  -3   3 245.053 44.8995   6
  -2  -3   2 2164.13 130.209  20
   2   3  -2 2207.52 145.855  12
   2   3  -2 2208.21 152.591  46
  -2  -3   2 2178.51 118.451   6
  -2  -3   2 2554.64 106.514   7
  -2  -3   2 2143.70 123.724  15
   2   3  -1 6703.92 263.798  46
  -2  -3   1 6581.54 228.739  20
   2   3  -1 6555.27 245.505  12
   2   3  -1 6371.44 226.750  45
  -2  -3   1 6629.52 195.213  42
  -2  -3   1 6682.30 195.362  41
  -2  -3   1 6570.77 219.874  15
  -2  -3   1 6747.51 196.969  43
   2   3   0 1656.36 127.969  21
  -2  -3   0 1712.18 119.707  20
   2   3   0 1765.61 128.130  12
   2   3   0 1739.36 134.178  46
   2   3   0 1840.04 116.786  45
  -2  -3   0 1690.58 104.072  43
  -2  -3   0 1622.47 101.828  42
  -2  -3   0 1660.08 103.687  41
  -2  -3   0 1668.36 114.041  15
   2   3   1 1844.57 137.158  21
  -2  -3  -1 1917.10 129.916  20
   2   3   1 1821.62 127.767  12
  -2  -3  -1 1859.51 114.031  43
  -2  -3  -1 2126.04 121.797  42
  -2  -3  -1 1924.41 126.650  15
  -2  -3  -1 1974.68 117.619  41
   2   3   1 2228.20 150.667  46
   2   3   2 2116.33 147.051  21
  -2  -3  -2 2322.43 145.769  20
  -2  -3  -2 2153.82 128.996  43
  -2  -3  -2 2144.02 128.201  42
  -2  -3  -2 2092.59 127.819  41
   2   3   2 1941.38 138.689  46
   2   3   2 1948.86 116.298  16
  -2  -3  -2 1856.34 129.783  15
   2   3   3 10902.0 334.811  21
  -2  -3  -3 10788.1 321.838  20
  -2  -3  -3 11506.8 326.965  15
  -2  -3  -3 11193.0 305.558  43
  -2  -3  -3 11199.6 303.765  42
  -2  -3  -3 11685.5 312.588  41
   2   3   3 11332.3 341.766  46
   2   3   3 11523.0 293.845  16
   2   3   4 3097.76 179.653  21
  -2  -3  -4 3381.37 184.829  20
   2   3   4 3326.17 187.573  46
  -2  -3  -4 3319.91 173.751  43
  -2  -3  -4 3426.81 176.347  42
  -2  -3  -4 3361.25 184.494  15
  -2  -3  -4 3506.89 179.161  41
   2   3   4 3270.36 165.448  16
   2   3   5 1231.58 121.098  31
  -2  -3  -5 1426.33 122.321  20
  -2  -3  -5 1443.23 120.431  43
  -2  -3  -5 1374.36 118.923  42
  -2  -3  -5 1294.02 114.852  41
   2   3   5 1371.00 113.668  16
  -2  -3  -5 1501.84 123.851  37
   2   3   5 1244.41 120.005  46
   2   3   5 1370.25 120.077  25
  -2  -3  -5 1329.00 121.533  34
  -2  -3  -5 1392.88 122.965  15
   2   3   6 2787.27 185.551  31
  -2  -3  -6 2740.74 172.191  20
   2   3   6 2774.54 175.529  25
   2   3   6 2750.98 178.369  46
   2   3   6 2951.98 173.015  16
  -2  -3  -6 2745.73 164.971  38
  -2  -3  -6 2778.17 166.510  37
  -2  -3  -6 2662.31 176.831  34
  -2  -3  -6 2805.61 178.720  15
   2   3   7 38204.6 694.542  31
   2   3   7 38452.8 677.402  46
   2   3   7 38673.6 673.121  25
  -2  -3  -7 37773.6 633.708  38
  -2  -3  -7 38163.7 679.327  34
  -2  -3  -7 38378.3 665.596  15
   2   3   8 26145.0 551.950  46
   2   3   8 26116.2 582.899  31
   2   3   8 26196.2 562.064  25
  -2  -3  -8 25784.3 535.706  38
  -2  -3  -8 26424.1 550.843  15
  -2  -3  -8 25587.9 562.594  34
   2   3   9 12574.2 397.166  31
   2   3   9 12507.6 387.903  25
  -2  -3  -9 12639.0 374.090  38
  -2  -3  -9 12397.3 386.397  34
   2   3  10 405.283 71.6916  31
   2   3  10 295.263 59.0685  25
  -2  -3 -10 398.358 66.7840  38
   2   3  10 423.554 74.1570  35
  -2  -3 -10 358.412 68.5153  34
   2   3  11 902.728 95.7524  25
   2   3  11 947.665 97.2059  31
   2   3  11 1107.52 106.530  35
  -2  -3 -11 918.522 92.4636  38
  -2  -3 -11 935.464 95.9962  34
   2   3  12-5.19371 19.8570  31
   2   3  12 29.5169 23.6841  25
   2   3  12 8.22435 19.2400  35
  -2  -3 -12-10.6457 22.1970  38
  -2  -3 -12-5.11251 17.8507  34
  -2  -3 -13 960.885 71.0720  38
   2   3  13 1044.86 76.7439  35
  -2  -4  14 1983.57 117.838  35
  -2  -4  13 2224.60 142.727  35
  -2  -4  12 1554.50 129.163  23
  -2  -4  12 1716.16 131.712  35
  -2  -4  11-2.58309 32.3770  35
  -2  -4  11 4.96901 29.6597  23
  -2  -4  10 110.518 40.8936  29
  -2  -4  10 120.753 50.9589  26
  -2  -4  10 102.453 46.8757  23
  -2  -4  10 219.618 61.2185  35
  -2  -4   9 140.081 47.6692  29
   2   4  -9 139.698 54.2951  46
  -2  -4   9 123.469 56.9411  26
  -2  -4   9 59.2684 39.2926  23
  -2  -4   9 82.6660 44.8721  35
  -2  -4   8 16268.4 432.823  29
   2   4  -8 14010.6 460.909  12
   2   4  -8 14623.6 477.442  46
  -2  -4   8 15188.4 480.699  23
  -2  -4   8 14574.6 456.694  26
  -2  -4   8 15782.3 450.840  35
  -2  -4   7 12204.4 388.770  32
  -2  -4   7 13953.9 393.666  29
   2   4  -7 12207.0 427.843  12
   2   4  -7 12990.3 443.946  46
  -2  -4   7 11977.8 406.526  26
   2   4  -7 12767.3 447.841   9
   2   4  -7 12292.2 424.502  45
  -2  -4   7 13035.9 440.196  23
  -2  -4   7 14294.3 421.236  35
  -2  -4   6 8510.70 304.160  29
   2   4  -6 7708.07 336.924  12
   2   4  -6 8372.21 353.932  46
   2   4  -6 8463.94 360.584   9
  -2  -4   6 9169.26 339.311  35
   2   4  -6 7545.59 327.363  45
  -2  -4   6 8181.17 345.525  23
  -2  -4   6 7686.45 315.734  26
  -2  -4   6 7602.09 308.549  32
  -2  -4   5 2449.57 161.230  29
   2   4  -5 2290.57 181.928  12
  -2  -4   5 2129.09 146.527  37
   2   4  -5 2813.01 203.626  46
   2   4  -5 2101.43 170.043  45
  -2  -4   5 2139.30 161.111  26
   2   4  -5 2503.90 193.156   9
  -2  -4   5 2260.07 170.203  32
  -2  -4   5 2886.87 147.923   7
  -2  -4   5 2179.74 159.210  24
  -2  -4   5 2207.83 175.367  23
  -2  -4   5 3088.58 228.417  35
   2   4  -4 3183.20 205.414  21
  -2  -4   4 3311.59 187.662  29
   2   4  -4 2890.93 200.462  12
   2   4  -4 3189.61 214.592  46
   2   4  -4 3036.21 197.571  45
  -2  -4   4 3092.96 196.655  32
  -2  -4   4 2983.84 187.192  24
  -2  -4   4 3156.59 179.146  37
  -2  -4   4 3198.53 203.384  23
   2   4  -3 7840.32 318.520  21
  -2  -4   3 8259.16 288.643  29
   2   4  -3 8360.58 331.542  12
   2   4  -3 8270.63 339.139  46
   2   4  -3 7977.63 309.005  45
  -2  -4   3 7625.60 298.890  24
  -2  -4   3 7631.31 304.288  32
   2   4  -2 14344.4 442.492  46
   2   4  -2 14305.7 428.498  21
  -2  -4   2 14195.9 386.838  20
   2   4  -2 14336.4 427.921  12
   2   4  -2 14077.1 402.118  45
  -2  -4   2 13294.8 393.225  24
  -2  -4   2 14032.5 368.737  15
   2   4  -1 8517.27 332.363  21
  -2  -4   1 8725.25 309.714  20
   2   4  -1 8291.72 317.002  12
   2   4  -1 8833.80 306.535  45
   2   4  -1 8983.94 346.130  46
  -2  -4   1 8196.24 289.399  15
  -2  -4   0 9028.90 309.376  37
   2   4   0 9537.24 351.519  21
   2   4   0 8759.24 317.584  31
  -2  -4   0 9235.05 324.789  20
   2   4   0 9426.57 335.356  12
  -2  -4   0 8730.40 302.115  29
   2   4   0 9850.78 353.303  46
  -2  -4   0 9254.95 310.926  15
   2   4   1 10250.0 365.874  21
   2   4   1 9748.52 337.591  31
  -2  -4  -1 9897.92 341.075  20
  -2  -4  -1 9695.75 322.147  29
  -2  -4  -1 9877.55 331.274  15
   2   4   1 10461.0 363.211  46
  -2  -4  -1 9769.98 298.888  43
  -2  -4  -1 9679.86 298.406  42
  -2  -4  -1 10388.1 336.291  37
  -2  -4  -1 9932.22 302.694  41
  -2  -4  -1 9832.86 334.520  24
  -2  -4  -1 9687.10 311.938  34
  -2  -4  -2 1461.15 128.355  24
  -2  -4  -2 1551.34 134.000  37
   2   4   2 1547.95 145.199  21
   2   4   2 1445.90 133.913  31
  -2  -4  -2 1432.17 132.688  20
  -2  -4  -2 1552.26 131.369  29
  -2  -4  -2 1441.09 120.407  43
  -2  -4  -2 1528.32 124.137  42
  -2  -4  -2 1644.66 129.014  41
   2   4   2 1558.95 143.942  46
  -2  -4  -2 1567.46 135.689  15
  -2  -4  -2 1437.93 125.782  34
   2   4   3 280.175 60.3389  33
  -2  -4  -3 222.966 53.0448  15
   2   4   3 192.621 54.9395  21
   2   4   3 268.532 65.3120  31
  -2  -4  -3 269.910 62.2491  20
  -2  -4  -3 245.675 57.0730  37
   2   4   3 229.420 56.1696  46
  -2  -4  -3 251.030 56.4169  34
  -2  -4  -4 442.098 78.4758  15
   2   4   4 253.526 65.0649  21
   2   4   4 364.717 72.7700  31
  -2  -4  -4 358.048 69.3504  20
   2   4   4 370.643 72.3242  46
   2   4   4 324.580 63.2086  33
  -2  -4  -4 401.545 73.2473  37
  -2  -4  -4 381.250 69.4491  34
   2   4   5 10367.4 361.133  21
   2   4   5 10168.0 365.525  31
  -2  -4  -5 10719.2 365.351  20
   2   4   5 10460.0 369.712  46
  -2  -4  -5 10354.3 342.039  37
  -2  -4  -5 10118.8 359.866  15
  -2  -4  -5 9950.89 353.981  34
   2   4   5 10439.5 342.533  33
   2   4   6 15506.3 454.778  31
  -2  -4  -6 16166.7 435.279  20
  -2  -4  -6 16134.0 415.895  37
   2   4   6 16029.8 455.620  46
  -2  -4  -6 15640.3 447.919  34
  -2  -4  -6 15547.4 446.601  15
   2   4   7 5708.88 272.899  31
   2   4   7 5533.22 246.471  25
  -2  -4  -7 5574.66 269.191  34
   2   4   8 1312.12 130.481  31
   2   4   8 1193.96 112.592  25
  -2  -4  -8 1417.16 120.334  38
  -2  -4  -8 1223.37 122.388  34
   2   4   9 1410.03 126.416  31
   2   4   9 1221.44 106.079  25
  -2  -4  -9 1126.04 102.249  38
   2   4   9 1269.37 116.432  35
  -2  -4  -9 1052.92 108.362  34
   2   4  10 116.134 39.4190  31
  -2  -4 -10 153.476 38.6543  29
   2   4  10 103.650 34.9992  25
  -2  -4 -10 135.337 36.3370  38
   2   4  10 143.315 39.3349  35
  -2  -4 -10 92.2943 31.1962  34
   2   4  11 124.508 34.2142  31
   2   4  11 120.471 33.6566  35
  -2  -4 -11 78.2305 26.8279  38
  -2  -4 -11 108.844 30.9134  34
  -2  -5  12 86.9672 33.4670  23
  -2  -5  11-18.4184 28.1982  23
  -2  -5  10 70.8257 38.5393  23
  -2  -5   9 3721.50 198.155  29
  -2  -5   9 3590.72 225.870  23
  -2  -5   8 5064.40 239.171  29
  -2  -5   8 4684.37 265.711  23
  -2  -5   7 1.71125 33.7450  29
  -2  -5   7 49.3292 41.4684  23
  -2  -5   6 375.597 76.7743  32
   2   5  -6 404.934 76.2067  21
  -2  -5   6 436.725 75.0033  29
  -2  -5   6 453.975 73.4273  37
   2   5  -6 388.869 82.6588  46
  -2  -5   6 557.452 96.2535  23
  -2  -5   5 2.81983 36.3465  32
   2   5  -5 32.0970 29.0540  21
  -2  -5   5-15.8208 24.0430  29
   2   5  -5 84.8144 38.0305  12
   2   5  -5 18.1789 41.1010  46
  -2  -5   5 10.7488 27.0891  23
  -2  -5   5 16.4964 23.4046  37
  -2  -5   4 362.910 76.5907  32
   2   5  -4 328.330 75.2388  21
  -2  -5   4 473.329 82.0213  29
   2   5  -4 391.963 80.8591  12
   2   5  -4 475.892 94.0933  46
  -2  -5   4 377.795 69.6313  37
  -2  -5   4 388.325 79.4137  23
  -2  -5   3-27.9332 38.3835  32
   2   5  -3 24.9216 30.8495  21
  -2  -5   3 86.7193 38.4785  29
  -2  -5   3 84.8923 44.2226  37
   2   5  -3 77.4682 44.8877  12
   2   5  -3 41.2046 51.1510  46
  -2  -5   3 90.4056 49.4893  23
  -2  -5   2 2236.96 177.964  32
   2   5  -2 2599.52 201.627  21
   2   5  -2 2474.06 182.300  31
  -2  -5   2 2665.21 179.893  29
   2   5  -2 2856.74 209.114  12
   2   5  -2 2672.55 201.299  46
  -2  -5   2 2433.09 174.425  37
  -2  -5   1 1768.10 157.299  32
   2   5  -1 1999.22 176.477  21
   2   5  -1 1964.05 160.227  31
  -2  -5   1 2221.67 165.975  29
   2   5  -1 2200.03 182.653  46
  -2  -5   1 1844.49 158.233  24
  -2  -5   1 2048.10 161.184  37
  -2  -5   1 2072.19 161.975  15
  -2  -5   1 2047.95 148.913  34
  -2  -5   0 108.302 45.9959  32
  -2  -5   0 185.061 54.6269  15
   2   5   0 173.657 61.2878  21
   2   5   0 119.606 45.6460  31
  -2  -5   0 184.432 52.7698  29
   2   5   0 168.998 55.7883  46
  -2  -5   0 173.941 52.9843  37
  -2  -5   0 267.776 57.9255  34
  -2  -5  -1 82.7486 37.4882  32
  -2  -5  -1 141.682 54.4450  15
   2   5   1 198.580 60.4988  21
   2   5   1 138.765 50.4434  31
  -2  -5  -1 273.865 59.8154  29
   2   5   1 182.721 56.7073  46
   2   5   1 176.607 52.6513  33
  -2  -5  -1 194.259 56.1663  37
  -2  -5  -1 126.716 46.3723  34
   2   5   2 7004.68 316.236  46
   2   5   2 6352.70 289.471  33
   2   5   2 6868.99 320.815  21
  -2  -5  -2 6743.95 289.732  29
   2   5   2 6804.37 299.491  31
  -2  -5  -2 6945.16 297.330  37
  -2  -5  -2 7230.89 295.296  34
  -2  -5  -2 6866.45 306.186  15
   2   5   3 8697.08 354.297  21
   2   5   3 8259.98 327.613  31
  -2  -5  -3 8674.29 329.559  29
   2   5   3 8759.10 350.510  46
  -2  -5  -3 8259.97 320.281  37
  -2  -5  -3 8705.78 345.541  15
  -2  -5  -3 8481.18 324.867  34
   2   5   3 8308.28 323.968  33
   2   5   4 11615.1 398.251  21
   2   5   4 11813.7 391.268  31
  -2  -5  -4 11374.5 375.089  29
  -2  -5  -4 11387.3 367.019  37
  -2  -5  -4 11316.8 377.265  34
   2   5   4 11524.3 372.316  33
   2   5   5 21945.7 517.824  21
   2   5   5 22224.0 528.330  31
  -2  -5  -5 21917.7 512.090  29
  -2  -5  -5 22015.1 485.557  37
   2   5   5 21349.3 485.128  33
  -2  -5  -5 22066.9 519.958  34
   2   5   6 8506.70 317.439  31
  -2  -5  -6 8098.15 297.628  29
  -2  -5  -6 8175.90 309.765  34
   2   5   6 8186.82 282.157  33
   2   5   7 4463.02 220.016  31
  -2  -5  -7 4070.87 198.300  29
  -2  -5  -7 4036.10 208.688  34
   2   5   8 344.805 61.0784  31
  -2  -5  -8 394.462 58.0563  29
  -2  -5  -8 329.971 57.4611  34
   2   5   9 834.434 81.1054  31
   2   5   9 708.048 70.4290  35
  -2  -5  -9 737.429 74.5869  34
   2   5  10 4.00211 14.4840  31
  -2  -6  11 168.749 37.4323  23
  -2  -6  10 4353.20 198.294  23
  -2  -6   9 4500.01 191.237  29
  -2  -6   9 4209.09 213.402  23
  -2  -6   8 335.937 60.0059  29
  -2  -6   8 413.468 79.3275  23
  -2  -6   7 185.283 46.2435  29
  -2  -6   7 177.725 55.0750  23
  -2  -6   6 252.466 54.9498  29
  -2  -6   6 204.116 50.2385  37
  -2  -6   6 243.149 64.2120  23
   2   6  -5 596.105 91.3307  21
  -2  -6   5 600.496 85.5013  29
  -2  -6   5 443.914 72.9756  37
  -2  -6   5 506.447 84.1858  23
   2   6  -4 1656.24 151.943  21
   2   6  -4 1411.10 126.298  31
  -2  -6   4 1835.25 149.082  29
  -2  -6   4 1828.33 145.538  37
  -2  -6   4 1644.13 145.654  23
   2   6  -3 1681.11 158.545  21
   2   6  -3 1672.10 140.074  31
  -2  -6   3 1914.77 152.075  29
  -2  -6   3 1911.89 152.847  37
   2   6  -2 6016.46 300.639  21
   2   6  -2 5708.36 255.808  31
  -2  -6   2 6486.91 278.650  29
  -2  -6   2 6298.03 277.812  37
  -2  -6   2 6199.84 247.197  34
   2   6  -1 542.707 86.8076  33
   2   6  -1 547.537 90.5496  21
   2   6  -1 488.926 80.3820  31
  -2  -6   1 579.799 86.9236  29
  -2  -6   1 561.096 89.1961  37
  -2  -6   1 525.488 78.1407  34
   2   6   0 11.6470 34.9042  33
   2   6   0 31.3467 48.4964  21
   2   6   0 44.5287 35.4460  31
  -2  -6   0 86.6254 45.7684  29
  -2  -6   0 17.2397 31.5078  37
  -2  -6   0 69.9499 39.1692  34
   2   6   1 70.6623 43.8604  33
   2   6   1 125.370 53.9856  21
   2   6   1-5.53573 29.9385  31
  -2  -6  -1 165.094 57.5810  29
  -2  -6  -1 126.045 45.1995  37
  -2  -6  -1 10.5840 29.6524  34
   2   6   2 347.787 70.2084  33
   2   6   2 293.731 64.4033  31
  -2  -6  -2 510.728 81.8055  29
  -2  -6  -2 266.921 61.4349  37
  -2  -6  -2 322.197 66.4573  34
   2   6   3 7408.09 283.124  31
  -2  -6  -3 7682.89 285.011  29
  -2  -6  -3 7526.99 280.174  37
  -2  -6  -3 7745.48 288.609  34
   2   6   3 7772.48 286.346  33
   2   6   4 3947.17 200.519  31
  -2  -6  -4 3858.69 193.215  29
  -2  -6  -4 3986.38 190.549  37
  -2  -6  -4 3845.13 197.168  34
   2   6   4 3846.79 191.891  33
   2   6   5 152.139 39.6816  33
   2   6   5 135.785 41.5858  31
  -2  -6  -5 151.403 42.4884  29
  -2  -6  -5 136.790 40.8393  34
   2   6   6-8.33839 20.0384  33
   2   6   6 24.0732 25.5053  31
  -2  -6  -6 47.0514 28.0302  29
  -2  -6  -6 0.80203 21.3539  34
   2   6   7 3.95972 17.6522  31
  -2  -6  -7 23.5094 24.5069  34
  -2  -7   7 135.267 34.0645  29
   2   7  -7 90.0714 24.3808  33
   2   7  -6 281.098 47.3377  33
  -2  -7   6 403.418 56.1723  29
  -2  -7   6 410.543 58.2377  23
  -2  -7   5 879.905 85.6460  29
   2   7  -5 800.677 83.0831  33
  -2  -7   4 636.016 75.2968  29
   2   7  -4 549.767 70.6393  33
   2   7  -3 120.682 39.7328  33
  -2  -7   3 108.079 37.7240  29
  -2  -7   3 105.334 36.8443  37
  -2  -7   2 1491.11 115.332  29
   2   7  -2 1354.60 111.094  33
  -2  -7   2 1327.36 109.623  37
   2   7  -1 134.179 40.3300  33
  -2  -7   1 160.096 40.4915  29
  -2  -7   1 119.797 33.7694  34
  -2  -7   1 174.200 46.6449  37
   2   7   0 112.096 39.6678  33
   2   7   0 122.398 33.7146  31
  -2  -7   0 100.465 34.6577  29
  -2  -7   0 88.9348 29.7287  37
  -2  -7   0 25.2779 22.1240  34
   2   7   1 33.1770 22.1395  33
   2   7   1-16.4225 22.7346  31
  -2  -7  -1-7.56842 21.8252  29
  -2  -7  -1 22.0667 24.7467  37
  -2  -7  -1-8.67423 27.1643  34
   2   7   2 1679.13 102.767  31
  -2  -7  -2 1620.44 106.958  29
  -2  -7  -2 1608.55 106.329  37
  -2  -7  -2 1706.48 108.623  34
   2   7   2 1724.37 111.055  33
   2   7   3 5582.23 174.111  31
  -2  -7  -3 5760.43 182.246  29
  -2  -7  -3 5477.07 173.952  37
  -2  -7  -3 5425.72 182.146  34
   2   7   3 5694.26 183.289  33
   3  -8  -4 652.653 61.7083  30
  -3   8   4 677.169 62.6952  22
   3  -8  -4 647.670 62.9335  38
   3  -8  -3 245.840 43.3970  30
  -3   8   3 276.706 42.8894  39
   3  -8  -3 248.413 43.4630  38
  -3   8   3 289.066 48.0459  22
  -3   8   2 1589.56 104.248  39
   3  -8  -2 1562.78 108.640  30
   3  -8  -2 1529.75 105.456  38
  -3   8   2 1527.26 109.649  22
   3  -8  -1 4285.37 182.606  30
  -3   8   1 4012.16 173.990  39
   3  -8  -1 4473.49 185.436  38
   3  -8  -1 4260.62 173.656  34
  -3   8   1 4105.22 185.318  22
   3  -8   0 330.117 54.8451  30
   3  -8   0 441.558 62.0032  38
  -3   8   0 365.628 58.1525  39
   3  -8   0 372.240 56.2853  34
  -3   8   0 330.305 57.6765  22
   3  -8   1 128.308 37.1908  30
  -3   8  -1 160.049 41.1926  39
   3  -8   1 136.030 35.7544  38
  -3   8  -1 164.950 43.6974  22
   3  -8   2-8.61092 20.2550  30
  -3   8  -2-0.09134 26.2935  39
   3  -8   2 15.8026 19.2085  38
  -3   8  -2 14.1884 23.6145  22
   3  -8   3-17.6816 23.1772  30
  -3   8  -3-16.5506 21.8606  39
   3  -8   3-25.8122 26.5636  38
  -3   8  -3 14.1670 21.4341  22
   3  -8   4 1892.27 122.212  30
  -3   8  -4 1847.06 114.998  39
   3  -8   4 2004.21 122.361  38
  -3   8  -4 1908.87 118.345  22
   3  -8   5 3798.18 166.169  30
  -3   8  -5 3259.82 139.678  39
   3  -8   6 1403.77 97.3138  30
   3  -8   7-1.45917 16.8193  30
  -3   8  -7 20.4127 20.3161  24
   3  -8   8 5.84321 13.2040  30
  -3   7   7 76.8816 28.9235  33
   3  -7  -7 63.7004 21.5878  30
   3  -7  -7 86.8495 28.7699  38
  -3   7   7 88.0043 28.0771  22
   3  -7  -6 622.437 70.8485  30
   3  -7  -6 655.248 72.9103  38
  -3   7   6 610.455 68.1078  22
  -3   7   6 612.289 69.9115  33
   3  -7  -5 953.674 93.7431  30
  -3   7   5 1066.24 85.0055  39
   3  -7  -5 984.373 95.6864  38
  -3   7   5 937.868 93.7194  22
  -3   7   5 969.876 93.3775  33
   3  -7  -4 2112.68 143.574  30
   3  -7  -4 2084.06 134.433  28
   3  -7  -4 2431.90 154.885  38
  -3   7   4 2333.02 138.970  39
  -3   7   4 2207.26 149.613  22
  -3   7   4 2198.98 142.985  33
   3  -7  -3 4150.77 207.381  30
   3  -7  -3 4549.25 202.196  28
   3  -7  -3 4762.59 222.054  38
  -3   7   3 4469.80 206.265  39
  -3   7   3 4491.45 221.918  22
  -3   7   3 4468.22 204.961  33
  -3   7   2 997.976 108.724  21
   3  -7  -2 715.682 88.1985  30
   3  -7  -2 923.086 102.233  38
  -3   7   2 767.117 91.9139  39
  -3   7   2 886.887 104.763  22
   3  -7  -1 437.162 71.4389  30
   3  -7  -1 458.473 74.7107  38
   3  -7  -1 360.289 65.2427  34
  -3   7   1 403.625 72.2262  39
  -3   7   1 514.525 84.7969  22
   3  -7   0-32.5919 33.1817  30
   3  -7   0 24.5231 30.5817  38
  -3   7   0 5.07426 29.1431  39
   3  -7   0-3.90685 23.3192  34
  -3   7   0-17.3117 27.9311  22
   3  -7   1 1859.15 143.846  30
  -3   7  -1 1959.61 153.800  39
   3  -7   1 2127.23 152.353  38
   3  -7   1 2038.01 152.125  34
  -3   7  -1 1954.57 155.846  22
   3  -7   2 2233.67 156.810  30
  -3   7  -2 2201.41 161.003  39
   3  -7   2 2373.31 159.229  38
   3  -7   2 2299.30 162.864  34
  -3   7  -2 2213.70 164.333  22
   3  -7   3 5132.76 234.162  30
   3  -7   3 5261.62 236.672  38
  -3   7  -3 4815.90 230.257  39
   3  -7   3 5010.04 242.584  34
  -3   7  -3 4868.27 236.505  22
  -3   7  -4 82.5874 35.0036  22
   3  -7   4 70.1344 37.9865  30
  -3   7  -4 149.714 43.9817  20
  -3   7  -4 119.712 40.1691  39
   3  -7   4 89.8701 35.7469  38
   3  -7   5 1620.30 128.848  30
  -3   7  -5 1613.11 122.928  39
   3  -7   5 1748.60 132.995  38
   3  -7   6 31.9250 23.7836  30
   3  -7   6 14.3364 24.1142  38
   3  -7   7 322.045 56.7118  30
   3  -7   8 211.538 46.8201  30
   3  -7   9 343.517 52.1492  30
   3  -7  10 19.6510 19.5008  30
  -3   6  10 147.519 32.8852  33
   3  -6  -9 560.759 65.5714  28
   3  -6  -9 455.226 57.1345  38
  -3   6   9 540.807 66.0025  33
  -3   6   8 13.3108 19.8021  33
   3  -6  -8 54.1338 28.2888  28
   3  -6  -8 27.5729 24.8792  38
  -3   6   8 30.8401 22.3105  22
  -3   6   7 344.507 62.0547  33
   3  -6  -7 297.313 60.8007  28
   3  -6  -7 312.443 59.6629  38
  -3   6   7 310.475 57.9257  22
  -3   6   6 594.198 82.3769  33
  -3   6   6 892.461 105.257  21
   3  -6  -6 622.571 88.8581  28
   3  -6  -6 710.724 87.8916  38
  -3   6   6 661.460 86.7302  22
  -3   6   5 2.12217 31.2928  33
  -3   6   5-27.6287 45.7340  21
   3  -6  -5 20.9522 32.5657  28
  -3   6   5 4.36633 34.1757  39
   3  -6  -5 12.5021 31.8659  38
  -3   6   5 33.7224 40.6627  22
  -3   6   4 35638.2 665.440  21
  -3   6   4 34689.4 595.080  39
   3  -6  -4 34827.7 641.010  28
   3  -6  -4 35625.8 684.724  19
   3  -6  -4 34511.6 631.583  38
  -3   6   4 34818.4 643.200  22
  -3   6   4 36104.3 632.873  33
  -3   6   3 305.724 66.1163  33
  -3   6   3 289.168 61.3628  21
   3  -6  -3 297.693 62.8551  28
   3  -6  -3 357.274 76.5607  19
   3  -6  -3 266.009 62.2502  38
  -3   6   3 305.748 63.9891  39
  -3   6   3 203.008 59.7016  22
  -3   6   2 3637.58 211.933  21
   3  -6  -2 3575.55 200.840  28
   3  -6  -2 3628.86 215.345  19
  -3   6   2 3442.09 198.169  39
   3  -6  -2 3168.78 192.087  38
  -3   6   2 3505.53 210.958  22
  -3   6   1 1849.90 150.660  21
   3  -6  -1 1665.31 136.580  30
   3  -6  -1 1901.21 146.282  28
   3  -6  -1 1921.35 154.034  19
  -3   6   1 1608.02 139.487  39
   3  -6  -1 1838.19 145.489  38
  -3   6   1 1904.73 157.482  22
  -3   6   0 387.302 74.9511  22
   3  -6   0 227.899 50.4917  30
   3  -6   0 192.296 48.3131  28
  -3   6   0 285.897 66.9783  39
   3  -6   0 411.364 72.6220  38
   3  -6   0 321.462 64.5582  19
   3  -6   0 225.994 57.0445  34
   3  -6   1 3771.42 201.285  30
   3  -6   1 4339.41 213.255  28
   3  -6   1 4130.46 220.448  19
  -3   6  -1 4201.66 223.873  39
   3  -6   1 4167.24 212.965  38
   3  -6   1 4245.20 219.316  34
  -3   6  -1 4024.25 226.246  22
   3  -6   2 3240.07 187.061  30
   3  -6   2 3442.27 189.248  28
   3  -6   2 3442.04 200.690  19
  -3   6  -2 3311.67 196.931  39
   3  -6   2 3409.22 192.552  38
   3  -6   2 3422.88 199.935  34
  -3   6  -2 3460.56 206.149  22
   3  -6   2 3406.46 184.814  40
   3  -6   3 23913.9 508.211  30
   3  -6   3 26430.9 522.403  28
   3  -6   3 25925.4 548.654  19
   3  -6   3 25387.5 505.006  40
  -3   6  -3 23435.7 538.102  22
   3  -6   3 24960.5 516.279  38
  -3   6  -3 23170.4 515.167  39
   3  -6   3 23854.5 528.425  34
   3  -6   4 11442.6 353.304  38
   3  -6   4 10937.0 343.573  30
   3  -6   4 12055.5 352.427  28
  -3   6  -4 11168.7 347.537  39
   3  -6   4 11829.4 343.154  40
   3  -6   5 240.101 53.6426  30
  -3   6  -5 333.294 62.3930  20
   3  -6   5 331.628 60.0308  28
   3  -6   5 327.641 59.4949  40
   3  -6   5 403.344 68.3560  38
  -3   6  -6 242.853 52.0840  15
   3  -6   6 225.963 53.9226  30
  -3   6  -6 194.550 53.2860  20
   3  -6   6 233.409 51.3305  28
   3  -6   6 271.187 59.1757  40
   3  -6   6 161.083 47.6672  38
   3  -6   7 5741.73 249.228  30
  -3   6  -7 5487.57 241.731  20
   3  -6   7 6198.57 250.038  28
   3  -6   7 6254.05 248.208  40
   3  -6   8 10680.0 332.208  30
   3  -6   8 10414.8 317.833  28
   3  -6   8 11158.0 324.050  40
   3  -6   9 1286.76 113.404  30
   3  -6   9 1250.06 105.477  40
   3  -6  10 2285.53 143.439  30
   3  -6  10 2290.71 133.709  40
   3  -6  11 2555.50 139.680  30
   3  -6  11 2439.03 125.247  40
   3  -6  12 1114.70 81.0068  30
   3  -5 -11 103.128 32.9207  28
  -3   5  11 77.2811 26.7697  33
   3  -5 -10 163.377 47.5815  28
   3  -5 -10 184.335 40.5844  38
  -3   5  10 156.872 42.1046  33
   3  -5  -9 138.914 44.8771  28
   3  -5  -9 88.4298 29.6613  38
  -3   5   9 152.672 43.9412  33
  -3   5   8 712.944 93.2045  21
   3  -5  -8 714.357 95.7577  28
   3  -5  -8 635.815 82.9353  38
  -3   5   8 923.409 97.6063  22
  -3   5   8 784.793 98.9436  33
  -3   5   7 385.025 71.6898  33
  -3   5   7 459.993 79.9973  21
   3  -5  -7 370.694 73.9498  28
   3  -5  -7 414.827 78.9218  19
   3  -5  -7 349.098 65.5768  38
  -3   5   7 423.297 72.9016  22
  -3   5   6 28953.0 595.435  21
   3  -5  -6 27775.5 600.881  28
   3  -5  -6 27867.9 562.853  38
   3  -5  -6 28945.0 614.827  19
  -3   5   6 28266.6 570.769  22
  -3   5   6 28919.7 580.130  33
  -3   5   5 2146.88 164.491  21
   3  -5  -5 2317.99 177.194  28
   3  -5  -5 2339.63 176.394  19
  -3   5   5 1980.23 142.027  39
   3  -5  -5 2070.79 159.096  38
  -3   5   5 2156.17 161.791  22
  -3   5   5 2159.57 159.459  33
  -3   5   4 2104.73 160.371  21
   3  -5  -4 2019.38 161.336  28
   3  -5  -4 2194.39 165.711  19
  -3   5   4 2060.69 145.938  39
   3  -5  -4 1966.20 149.868  38
  -3   5   4 2323.21 165.524  22
  -3   5   4 2101.28 152.964  33
  -3   5   3 451.861 73.3529  33
  -3   5   3 420.027 73.7651  21
   3  -5  -3 461.655 80.4959  28
   3  -5  -3 445.521 77.8687  19
  -3   5   3 391.773 65.7240  39
   3  -5  -3 432.503 74.7494  38
  -3   5   3 456.226 76.2871  22
   3  -5  -2 117.578 43.7878  28
  -3   5   2 110.573 41.0414  21
   3  -5  -2 111.967 43.9373   1
   3  -5  -2 95.2545 39.6625  19
  -3   5   2 137.103 40.1129  39
   3  -5  -2 106.620 37.9359  38
  -3   5   2 157.300 39.1272   4
  -3   5   2 98.0007 42.6473  22
  -3   5   1 243.638 55.6829  22
  -3   5   1 273.988 58.5548  21
  -3   5   1 213.400 47.6128  42
   3  -5  -1 256.662 54.7460  19
  -3   5   1 229.850 51.0620  43
  -3   5   1 255.204 51.9039  39
   3  -5  -1 342.513 66.9799   1
   3  -5  -1 244.251 53.4584  38
  -3   5   1 255.634 48.6711   4
   3  -5  -1 228.558 50.6831  28
  -3   5   1 239.780 52.7894  41
  -3   5   0 3526.48 184.089  21
  -3   5   0 3341.83 174.187  43
   3  -5   0 3427.03 173.206   5
   3  -5   0 3059.36 169.194  30
   3  -5   0 3594.67 210.063   1
   3  -5   0 3259.43 180.662  28
   3  -5   0 3411.54 187.349  19
  -3   5   0 3071.78 156.016   4
  -3   5   0 3222.20 183.256  39
   3  -5   0 3176.47 174.322  38
   3  -5   0 3197.83 186.571   7
  -3   5   0 3410.32 176.898  42
  -3   5   0 3345.11 175.849  41
  -3   5   0 3127.67 185.437  22
  -3   5  -1 442.363 72.2354  22
   3  -5   1 420.322 62.4557   5
   3  -5   1 456.435 69.3884  30
   3  -5   1 492.920 72.2653  19
   3  -5   1 484.657 70.3275  28
  -3   5  -1 473.314 72.4375  39
   3  -5   1 463.226 72.5050   7
   3  -5   1 461.008 68.0898  38
   3  -5   2 682.904 79.7955   5
   3  -5   2 566.661 73.0823  30
   3  -5   2 629.089 78.7224  28
   3  -5   2 646.198 82.5832  19
   3  -5   2 650.017 79.8086  38
   3  -5   2 609.153 79.3134   7
   3  -5   2 648.597 82.5924  34
   3  -5   3 1351.03 114.263   5
   3  -5   3 1057.07 101.577   7
   3  -5   3 1108.00 103.454  30
   3  -5   3 1254.79 109.917  28
   3  -5   3 1106.48 106.655  19
  -3   5  -3 1107.60 107.412  39
   3  -5   3 1222.48 109.775  38
   3  -5   3 1303.63 115.881  34
   3  -5   4 2673.39 160.485  30
   3  -5   4 2863.01 169.627  28
   3  -5   4 2750.44 164.086  40
  -3   5  -4 2927.13 167.712  39
   3  -5   4 2652.73 161.490  38
   3  -5   5 263.932 54.2175  30
  -3   5  -5 342.881 62.5958  20
   3  -5   5 292.669 57.5789  28
   3  -5   5 450.275 71.4310  40
   3  -5   5 367.773 65.1511  38
  -3   5  -6 7222.12 271.374  15
   3  -5   6 7123.59 272.138  30
  -3   5  -6 6867.54 268.538  20
   3  -5   6 7578.19 280.915  28
  -3   5  -6 7204.81 267.099  10
   3  -5   6 7403.01 276.509  40
   3  -5   6 7172.27 275.276  38
  -3   5  -7 11558.2 344.988  15
   3  -5   7 11664.1 349.598  30
  -3   5  -7 11679.1 350.509  20
   3  -5   7 11879.2 356.168  28
  -3   5  -7 11387.7 343.009  10
   3  -5   7 12517.3 362.966  40
  -3   5  -8 8666.18 300.141  15
   3  -5   8 8527.89 303.318  30
  -3   5  -8 8667.52 297.971  20
   3  -5   8 8681.47 309.923  28
  -3   5  -8 8585.66 300.731  10
   3  -5   8 9037.91 311.416  40
   3  -5   9 1569.14 132.281  30
  -3   5  -9 1714.21 129.823  20
   3  -5   9 1567.28 130.915  28
   3  -5   9 1673.74 134.179  40
   3  -5  10 11.3855 24.7199  30
   3  -5  10 20.2934 26.4496  40
   3  -5  11 25.1870 27.8105  30
   3  -5  11-8.52399 30.4245  40
   3  -5  12 24.9475 28.3732  30
   3  -5  12 24.3634 21.1164  40
   3  -5  13-4.35505 19.7466  30
   3  -5  13-27.4689 22.6363  40
   3  -4 -13 166.095 34.6516  28
  -3   4  13 169.235 31.0332  33
  -3   4  12-14.5358 25.1451  31
   3  -4 -12 8.77842 18.1362  28
  -3   4  12 32.0985 24.3373  33
  -3   4  11 866.053 87.3742  31
   3  -4 -11 775.255 91.9053  28
  -3   4  11 749.103 87.4386  33
  -3   4  10 3436.49 187.987  21
  -3   4  10 3420.40 183.853  31
   3  -4 -10 3561.00 208.220  28
  -3   4  10 3048.95 189.998  40
  -3   4  10 3394.25 191.531  33
  -3   4   9 197.735 51.5836  21
   3  -4  -9 142.997 39.5446  38
   3  -4  -9 168.511 53.8073  28
   3  -4  -9 108.467 41.0824  19
  -3   4   9 165.347 49.5015  40
  -3   4   9 181.230 49.8460  22
  -3   4   9 189.968 52.3749  33
  -3   4   8 396.481 75.0058  33
  -3   4   8 361.850 68.8487  21
  -3   4   8 450.315 79.0313  40
   3  -4  -8 325.735 71.2066  28
  -3   4   8 427.421 72.7470  46
   3  -4  -8 335.316 67.0256  19
   3  -4  -8 372.839 66.5274  38
  -3   4   8 664.853 88.3813  22
  -3   4   7 11.8142 31.4284  33
  -3   4   7 11.1550 33.9290  21
   3  -4  -7 22.6538 37.4698  28
  -3   4   7 63.3088 34.8785  46
   3  -4  -7 47.7955 38.1599  19
  -3   4   7 75.9708 43.1796  40
   3  -4  -7 38.1102 37.9272  38
  -3   4   7 40.3064 35.2405  22
  -3   4   6 83861.2 970.975  21
   3  -4  -6 80774.4 1008.68  28
   3  -4  -6 84714.5 990.418  19
  -3   4   6 86124.6 906.122  46
  -3   4   6 75888.6 939.036  40
   3  -4  -6 80965.8 916.030  38
  -3   4   6 81286.3 937.104  22
  -3   4   6 81481.3 939.470  33
  -3   4   5 17952.2 438.421  21
   3  -4  -5 18072.5 495.180   3
   3  -4  -5 17438.4 448.220  28
   3  -4  -5 18068.9 441.865  19
  -3   4   5 18549.8 402.631  46
  -3   4   5 16782.0 384.733  39
   3  -4  -5 17089.8 410.204  38
  -3   4   5 17201.2 423.347  22
  -3   4   5 17569.1 422.283  33
   3  -4  -4 162.633 51.2400   3
  -3   4   4 231.698 44.6983   2
  -3   4   4 271.019 54.9957  21
  -3   4   4 324.740 61.5680  43
   3  -4  -4 247.526 55.0055  19
  -3   4   3 1097.95 102.887  21
   3  -4  -3 1172.25 113.342   3
   3  -4  -3 1322.71 117.090   1
   3  -4  -3 1032.42 100.029  19
  -3   4   3 1145.38 107.626  42
  -3   4   3 1008.68 86.1172   2
  -3   4   3 1081.77 93.2855   4
  -3   4   3 1184.37 108.470  43
  -3   4   2 3486.08 175.155  21
   3  -4  -2 3237.67 168.947  19
  -3   4   2 3258.63 170.975  43
  -3   4   2 3255.47 171.952  42
   3  -4  -2 3319.59 180.891   1
  -3   4   2 3070.34 150.256   4
  -3   4   1 296.717 55.1258  21
  -3   4   1 233.062 46.4877  43
  -3   4   1 260.778 47.8299  42
   3  -4  -1 285.980 51.3472  19
  -3   4   1 324.824 49.3135   4
  -3   4   1 305.784 52.2273  41
   3  -4  -1 258.615 52.1229   1
  -3   4   0 49641.0 607.933  21
   3  -4   0 49401.2 602.503   5
   3  -4   0 49538.7 634.159  19
   3  -4   0 51709.3 703.498   1
  -3   4   0 48723.6 611.813  41
  -3   4   0 49364.0 609.104  42
  -3   4   0 49311.0 605.687  43
  -3   4  -1 95760.5 809.780  42
   3  -4   1 95166.2 845.445   5
   3  -4   1 93368.6 858.482  19
  -3   4  -1 93198.7 818.919  41
  -3   4  -1 94959.8 798.790  43
   3  -4   1 97090.2 965.896   1
  -3   4  -2 7944.72 225.373  42
  -3   4  -2 8080.75 231.106  41
   3  -4   2 8073.96 280.504   1
   3  -4   2 7833.30 245.428   5
   3  -4   2 7660.03 244.677   7
   3  -4   2 8606.44 259.849  19
  -3   4  -2 7404.65 237.047   4
  -3   4  -2 7956.02 225.489  43
   3  -4   3 32.8224 19.0828   5
   3  -4   3 2.46747 17.7915   1
  -3   4  -3 15.1167 18.2014   4
   3  -4   3 47.8600 25.4089   7
   3  -4   3 18.6926 22.8821  19
   3  -4   4 1538.36 112.229   5
   3  -4   4 1573.90 107.567   7
  -3   4  -4 1530.64 114.948  20
  -3   4  -4 1453.12 112.518   4
  -3   4  -5 11300.3 307.765  15
   3  -4   5 10734.9 303.443   5
  -3   4  -5 10522.7 304.635  20
  -3   4  -5 9857.50 300.784   4
  -3   4  -5 10602.8 293.519  10
   3  -4   5 10953.3 281.334   7
  -3   4  -6 23557.2 455.570  15
   3  -4   6 23217.7 448.707   5
   3  -4   6 23189.3 461.444  30
  -3   4  -6 23448.4 463.285  20
   3  -4   6 23802.2 475.507  28
  -3   4  -6 22857.8 447.370  10
   3  -4   6 23177.8 466.610  38
   3  -4   6 24116.2 478.969  40
  -3   4  -7 15778.8 385.159  15
   3  -4   7 15832.7 392.189  30
  -3   4  -7 15984.2 387.640  20
   3  -4   7 16220.3 407.460  28
   3  -4   7 16544.5 411.368  40
  -3   4  -7 16205.9 390.361  10
   3  -4   7 15840.8 395.542  36
  -3   4  -8 16754.1 404.426  15
   3  -4   8 16292.3 407.229  30
  -3   4  -8 16547.9 397.003  20
   3  -4   8 16097.6 420.470  28
  -3   4  -8 16315.7 405.118  10
   3  -4   8 16898.4 425.984  40
   3  -4   8 16012.4 412.260  36
  -3   4  -9 50.1531 27.9161  15
   3  -4   9 12.2795 43.3794  28
  -3   4  -9 89.0837 35.2247  20
  -3   4  -9 14.3033 25.1937  10
   3  -4   9 73.3210 28.8113  40
   3  -4   9 29.9746 23.9208  36
  -3   4 -10 1102.72 105.448  15
   3  -4  10 1073.04 108.297  30
   3  -4  10 1111.12 112.384  40
   3  -4  10 1020.17 105.946  36
   3  -4  11 7.30913 30.1029  30
   3  -4  11 6.15428 24.3405  40
   3  -4  12 21.9927 28.0421  30
   3  -4  12 42.2000 23.8508  40
   3  -4  13 9744.18 271.153  30
   3  -4  13 10181.1 287.320  40
   3  -4  14 4496.79 166.819  40
   3  -3 -14 847.136 70.2655  28
  -3   3  13 144.999 36.7623  31
   3  -3 -13 142.179 39.4819  28
  -3   3  13 238.146 50.4406  40
   3  -3 -13 145.795 37.6618  36
  -3   3  13 150.729 37.3427  33
  -3   3  12 2455.49 165.210  40
  -3   3  12 2443.02 151.221  31
   3  -3 -12 2520.18 162.759  28
   3  -3 -12 2010.27 145.265  36
  -3   3  12 2632.67 158.149  33
  -3   3  11 1133.56 110.186  31
   3  -3 -11 1362.65 131.709  28
  -3   3  11 1251.97 127.789  40
   3  -3 -11 1004.15 112.983  36
  -3   3  11 1473.61 130.168  33
  -3   3  10 1412.49 125.622  21
  -3   3  10 1405.37 127.274  31
  -3   3  10 1436.86 139.966  40
   3  -3 -10 1406.31 136.569  28
   3  -3 -10 1385.99 134.975  36
  -3   3  10 1477.25 134.866  33
  -3   3   9 7119.89 280.949  21
  -3   3   9 7216.23 285.584  31
   3  -3  -9 7104.17 304.596  28
   3  -3  -9 7367.78 289.832  19
  -3   3   9 6857.29 302.311  40
  -3   3   9 7109.60 283.941  46
  -3   3   9 7461.06 281.945  22
  -3   3   9 7242.51 293.321  33
  -3   3   8 36559.6 630.654  21
  -3   3   8 37233.5 628.011  31
   3  -3  -8 35180.3 669.066  28
  -3   3   8 36570.7 629.341  46
   3  -3  -8 37770.7 644.029  19
  -3   3   8 37428.7 626.481  22
  -3   3   8 36372.0 641.986  33
  -3   3   7 3989.91 205.731  21
   3  -3  -7 3684.24 213.288  28
  -3   3   7 3852.21 195.065  46
   3  -3  -7 4034.38 203.554  19
  -3   3   7 4254.17 203.892  26
  -3   3   7 3766.45 211.466  40
  -3   3   7 4083.52 206.349  22
  -3   3   7 4137.62 210.205  33
  -3   3   6 143.699 37.4491   2
  -3   3   6 175.844 45.2889  21
  -3   3   6 96.1498 36.7067  46
   3  -3  -6 83.3381 36.5685   3
  -3   3   6 227.799 51.3438  43
  -3   3   6 238.505 54.3186  42
   3  -3  -6 83.2585 30.7280  19
  -3   3   5 2830.49 160.409  21
   3  -3  -5 2865.93 181.159   3
  -3   3   5 3014.52 151.213  46
   3  -3  -5 2845.54 156.857  19
  -3   3   5 2931.13 165.520  43
  -3   3   5 2897.44 164.897  42
   3  -3  -5 3107.03 169.351   1
  -3   3   5 2818.31 138.961   2
   3  -3  -4-3.53570 21.2611   1
  -3   3   4 28.9029 19.5983   2
  -3   3   4 19.9544 22.2971  21
  -3   3   4 37.4731 23.3107  46
   3  -3  -4 28.5220 19.3014   3
  -3   3   4 58.1632 26.8210  43
  -3   3   4 76.9389 32.8676  42
   3  -3  -4 56.9021 24.9603  19
  -3   3   4 14.1212 12.9445   4
   3  -3  -3 1751.05 122.001   3
  -3   3   3 1560.39 110.039  21
   3  -3  -3 1739.18 112.220  19
  -3   3   3 1738.13 117.709  43
  -3   3   3 1724.38 117.979  42
  -3   3   3 1573.07 103.108   4
   3  -3  -3 1818.22 123.863   1
  -3   3   2 119.149 33.8286  21
   3  -3  -2 234.424 44.7264   1
   3  -3  -2 125.980 34.3141   3
  -3   3   2 139.348 34.4376  43
  -3   3   2 148.907 34.5977  42
  -3   3   2 211.851 41.7379  41
  -3   3   2 162.183 35.1385   4
  -3   3   1 25471.6 406.958  43
  -3   3   1 25382.1 398.488  21
   3  -3  -1 25266.1 382.390   3
  -3   3   1 25961.5 359.866  20
   3  -3  -1 26117.2 403.715  19
  -3   3   1 26244.8 416.576  42
  -3   3   1 25762.9 416.658  41
  -3   3   1 25099.7 393.635   4
   3  -3  -1 25849.7 447.592   1
  -3   3   0 73557.6 641.229  21
  -3   3   0 73064.1 628.302  20
  -3   3   0 71101.8 665.994   4
   3  -3   0 72008.0 658.896  19
  -3   3   0 71858.5 655.523  43
  -3   3   0 71784.7 660.873  42
  -3   3   0 71774.5 667.904  41
   3  -3   1 1665.71 113.568   1
  -3   3  -1 1668.89 98.7025  20
   3  -3   1 1878.34 107.403  19
  -3   3  -1 1625.98 96.5850  42
  -3   3  -1 1697.33 97.9337  43
  -3   3  -1 1626.90 97.7518  41
  -3   3  -1 1684.74 105.194   4
  -3   3  -2 17.6410 15.8256  20
  -3   3  -2 59.4020 19.7147  43
  -3   3  -2 16.9699 12.4668  10
  -3   3  -2 45.3234 20.7095  41
  -3   3  -2 31.1196 21.4158   4
   3  -3   2 23.4950 19.8954   1
  -3   3  -2 48.6349 20.0824  42
   3  -3   2 4.60644 20.9311  19
  -3   3  -3 4612.95 166.542  15
   3  -3   3 4755.74 175.129   5
  -3   3  -3 4516.09 172.044  20
   3  -3   3 4735.91 175.273  19
  -3   3  -3 4502.05 181.930   4
  -3   3  -3 4549.75 158.827  10
  -3   3  -3 5114.76 161.831  42
  -3   3  -3 5040.83 160.895  43
  -3   3  -3 5124.90 163.128  41
   3  -3   3 4437.31 186.349   1
   3  -3   3 4582.29 161.239   7
  -3   3  -4 1013.04 82.1675  15
   3  -3   4 1002.97 82.7001   5
  -3   3  -4 996.705 83.9066  20
   3  -3   4 930.223 88.1329   1
  -3   3  -4 978.301 78.2883  10
  -3   3  -4 897.489 84.9435   4
   3  -3   4 913.260 70.0583   7
  -3   3  -5 277.648 52.9814   4
  -3   3  -5 249.143 44.9226  15
   3  -3   5 277.544 45.7168   5
  -3   3  -5 249.648 43.5057  20
  -3   3  -5 270.730 44.5971  10
  -3   3  -6 5013.70 196.511  15
   3  -3   6 5030.29 191.789   5
  -3   3  -6 5342.89 203.954  20
  -3   3  -6 4854.59 217.669   4
  -3   3  -6 5238.86 201.327  10
   3  -3   7 4603.70 228.204   2
  -3   3  -7 4583.83 196.095  15
   3  -3   7 4569.73 184.282   5
  -3   3  -7 4291.03 188.842  20
   3  -3   7 4483.17 205.939  28
  -3   3  -7 4374.03 216.169   4
  -3   3  -7 4653.57 198.416  10
   3  -3   7 4730.93 210.934  40
  -3   3  -8 3126.27 168.215  15
   3  -3   8 2997.90 168.806  30
  -3   3  -8 2950.47 166.313  10
  -3   3  -8 3269.62 167.806  20
   3  -3   8 3133.94 180.101  28
   3  -3   8 3061.16 180.408  27
   3  -3   8 3253.53 182.861  40
   3  -3   8 3009.74 176.968  36
  -3   3  -9 1018.37 99.2546  15
   3  -3   9 1013.74 102.412  30
  -3   3  -9 1044.73 96.2673  20
   3  -3   9 1113.96 113.439  27
   3  -3   9 961.435 103.247  40
  -3   3  -9 967.712 98.6541  10
   3  -3   9 1036.74 108.669  36
  -3   3 -10 54.7479 30.0203  15
   3  -3  10 17.4688 20.9231  30
   3  -3  10-10.5392 24.1312  27
   3  -3  10 26.1986 28.2687  40
   3  -3  10 17.9916 23.5277  36
   3  -3  11-20.5127 27.1637  30
   3  -3  11 4.90997 22.1662  27
   3  -3  11-2.39511 27.9897  40
   3  -3  12 9398.02 299.542  30
   3  -3  12 9270.45 314.709  27
   3  -3  12 10005.3 324.523  40
   3  -3  13 12058.8 316.676  30
   3  -3  13 12795.4 342.205  40
   3  -3  14 14315.6 322.543  40
   3  -3  15 309.884 41.4478  40
  -3   2  14 91.4147 29.7332  40
   3  -2 -14 66.7005 26.5818  28
   3  -2 -14 83.3023 28.8296  36
  -3   2  14 81.6361 27.3864  33
   3  -2 -13 282.549 57.0078  28
  -3   2  13 222.622 50.5894  40
   3  -2 -13 195.985 49.5344  36
  -3   2  13 297.649 54.2622  33
  -3   2  12 963.545 103.409  31
   3  -2 -12 925.234 105.508  28
  -3   2  12 897.974 105.268  40
  -3   2  12 952.839 102.309  33
  -3   2  11 1355.68 126.422  31
   3  -2 -11 1438.55 134.701  28
  -3   2  11 1671.43 150.210  40
  -3   2  11 1352.59 127.621  33
  -3   2  10 163.863 46.2333  21
  -3   2  10 245.600 59.8017  31
   3  -2 -10 212.488 57.8189  28
  -3   2  10 245.259 64.3462  40
   3  -2 -10 207.057 62.0030  16
  -3   2  10 239.642 54.2205  22
  -3   2  10 179.365 51.9670  33
  -3   2   9 26944.9 533.399  21
  -3   2   9 26315.9 544.456  31
   3  -2  -9 25356.4 555.843  28
  -3   2   9 27905.4 554.605  26
  -3   2   9 24811.5 558.127  40
   3  -2  -9 24690.0 570.539  16
  -3   2   9 27498.5 537.475  22
  -3   2   9 26881.0 556.272  33
  -3   2   8 35238.5 593.817  21
  -3   2   8 34100.3 595.379  31
   3  -2  -8 32034.2 588.825  13
   3  -2  -8 33525.3 615.452  28
  -3   2   8 31959.6 611.309  40
  -3   2   8 35206.8 604.460  26
   3  -2  -8 32616.3 622.916  16
  -3   2   8 35335.0 596.864  22
  -3   2   8 35169.1 611.574  33
   3  -2  -7 68715.3 912.676   3
  -3   2   7 69033.0 801.420  21
   3  -2  -7 67423.8 809.331  13
  -3   2   7 69883.5 788.402  46
  -3   2   7 66309.8 757.877  42
   3  -2  -7 65240.6 839.751  16
  -3   2   7 66499.5 765.500  41
  -3   2   7 67350.3 761.320  43
  -3   2   7 67481.5 665.660   2
  -3   2   6 6771.50 241.365  21
   3  -2  -6 6850.37 240.464  13
   3  -2  -6 6783.03 222.192  19
  -3   2   6 6614.68 231.842  43
  -3   2   6 6470.10 230.544  42
  -3   2   6 6575.03 232.920  41
  -3   2   6 6889.40 200.744   2
   3  -2  -6 6405.74 247.414  16
  -3   2   6 7108.78 235.625  46
   3  -2  -6 6659.89 266.581   3
  -3   2   5 807.847 79.9946  21
   3  -2  -5 716.656 76.7955  13
  -3   2   5 763.793 74.5177  46
   3  -2  -5 754.762 70.2038  19
  -3   2   5 717.538 74.4367  43
  -3   2   5 772.820 77.6966  42
   3  -2  -5 707.302 80.3071  16
  -3   2   5 677.537 60.5616   2
   3  -2  -5 762.567 86.0937   3
  -3   2   5 703.935 75.0907  41
  -3   2   5 775.069 73.3445   4
  -3   2   4 1571.84 106.160  21
  -3   2   4 1464.39 101.273  42
   3  -2  -4 1364.70 95.1429  13
  -3   2   4 1419.12 91.5780  46
   3  -2  -4 1448.11 91.9872  19
  -3   2   4 1356.34 97.2011  43
  -3   2   4 1341.12 97.9923  41
  -3   2   4 1343.13 80.9969   2
   3  -2  -4 1397.55 101.299  16
  -3   2   4 1411.30 92.3033   4
  -3   2   4 1468.70 84.3155   6
   3  -2  -4 1428.72 107.778   3
  -3   2   3 47444.0 546.906  21
  -3   2   3 49367.4 483.315  46
   3  -2  -3 47536.2 496.592  19
  -3   2   3 47065.3 542.784  43
  -3   2   3 47723.1 549.330  42
  -3   2   3 47188.4 552.355  41
  -3   2   3 45845.0 505.079   4
   3  -2  -3 46991.7 537.131  16
   3  -2  -3 46782.3 562.999   3
  -3   2   3 48433.9 462.518   6
  -3   2   2 77015.1 662.052  21
   3  -2  -2 75008.2 660.394   3
   3  -2  -2 79207.9 612.684  19
  -3   2   2 77409.1 674.747  42
  -3   2   2 77183.0 683.755  41
  -3   2   2 76586.0 639.606   4
  -3   2   2 77718.0 671.208  43
   3  -2  -2 77153.0 646.895  16
  -3   2   1 87259.7 661.377  21
  -3   2   1 85417.7 509.012  15
  -3   2   1 85134.1 580.114  20
   3  -2  -1 84939.7 616.666  19
  -3   2   1 88102.6 685.994  43
  -3   2   1 85152.2 679.699   4
   3  -2  -1 86027.0 656.560  16
  -3   2   1 88539.0 694.405  42
   3  -2  -1 84291.6 638.837   3
  -3   2   1 87613.5 698.059  41
  -3   2   0 41099.9 422.224  21
  -3   2   0 39857.2 374.713  15
  -3   2   0 39371.4 414.289  20
   3  -2   0 39209.8 414.886  19
  -3   2   0 40277.1 341.723  10
   3  -2   0 38542.1 487.685   1
  -3   2   0 40102.8 459.496  41
  -3   2   0 39751.7 450.268  43
   3  -2   0 39274.3 431.511  16
  -3   2   0 40117.4 454.331  42
   3  -2   0 38806.3 386.334   3
  -3   2   0 38424.7 459.409   4
  -3   2  -1 16059.6 255.475  15
  -3   2  -1 16066.5 281.286  41
  -3   2  -1 16545.7 280.438  20
   3  -2   1 16033.6 266.073  19
   3  -2   1 16258.7 273.059  16
  -3   2  -1 16407.1 240.558  10
   3  -2   1 15985.7 310.604   1
  -3   2  -1 16693.7 283.011  43
  -3   2  -1 16049.4 278.648  42
  -3   2  -2 431.346 44.7550  15
  -3   2  -2 427.831 47.7341  20
   3  -2   2 375.919 43.3157  19
  -3   2  -2 376.848 49.4877   4
  -3   2  -2 383.240 44.3217  43
  -3   2  -2 508.302 46.3318  10
  -3   2  -2 386.385 43.6495  42
  -3   2  -2 455.094 47.8007  41
   3  -2   2 448.605 47.0407  16
   3  -2   2 330.288 46.2085   1
  -3   2  -3 7053.75 190.071  15
  -3   2  -3 7120.93 199.278  20
   3  -2   3 6740.40 204.011   1
  -3   2  -3 6714.06 211.236   4
  -3   2  -3 6912.99 183.175  10
  -3   2  -3 7111.58 183.339  42
  -3   2  -3 7139.47 183.843  41
   3  -2   3 7108.35 190.743  16
  -3   2  -3 7128.16 183.577  43
   3  -2   3 6865.11 162.434   7
  -3   2  -4 20907.0 344.430  15
   3  -2   4 19538.3 328.094   5
  -3   2  -4 20584.7 351.376  20
  -3   2  -4 20326.8 312.470  41
  -3   2  -4 20073.4 386.312   4
  -3   2  -4 20462.1 312.116  43
  -3   2  -4 19964.0 331.107  10
  -3   2  -4 20286.9 309.642  42
   3  -2   4 19671.1 337.737  16
   3  -2   4 19604.8 351.021   1
   3  -2   4 20012.6 379.189   2
  -3   2  -5 222946. 1196.25  15
  -3   2  -5 233658. 1070.87  43
   3  -2   5 228417. 1138.68   5
  -3   2  -5 221523. 1203.65  20
  -3   2  -5 214969. 1326.90   4
  -3   2  -5 219571. 1183.76  10
  -3   2  -5 233326. 1066.80  42
  -3   2  -5 234051. 1071.75  41
   3  -2   5 222179. 1216.74  16
   3  -2   5 224715. 1193.82   1
   3  -2   5 221396. 1343.58   2
  -3   2  -6 45.7684 25.8024  15
   3  -2   6 15.6655 16.6992   5
  -3   2  -6 15.7248 19.9144  10
  -3   2  -6 20.3315 25.7839   4
   3  -2   6 18.3184 25.3989   2
   3  -2   6-2.88906 19.5691  16
  -3   2  -7 15697.4 352.185  15
  -3   2  -7 15369.9 341.240  20
  -3   2  -7 14385.8 386.637   4
  -3   2  -7 15379.8 351.457  10
   3  -2   7 15431.7 365.577  16
   3  -2   7 15165.6 393.003   2
   3  -2   8 520.065 68.9220  30
  -3   2  -8 454.434 61.4001  20
   3  -2   8 510.404 75.5630  27
   3  -2   8 474.664 69.6492  40
  -3   2  -8 469.632 76.2301   4
   3  -2   8 528.361 79.9421   2
   3  -2   8 475.951 71.9031  36
   3  -2   8 369.900 62.2459  16
  -3   2  -9 180.474 44.3517  15
   3  -2   9 159.085 42.5673  30
   3  -2   9 171.780 47.2444  27
   3  -2   9 139.249 40.3981  40
   3  -2   9 248.624 54.9664  36
  -3   2 -10 90.1899 36.4497  15
  -3   2 -10 21.7705 27.4050  14
   3  -2  10-6.08701 32.5273  30
  -3   2 -10 11.6882 34.1721  19
   3  -2  10 9.11428 25.4337  27
   3  -2  10 0.37092 35.3650  40
   3  -2  10 47.2080 34.2945  36
   3  -2  11 24993.3 555.929  27
  -3   2 -11 25664.9 508.946  14
   3  -2  11 24851.0 502.482  30
  -3   2 -11 25111.2 502.583  19
   3  -2  11 25567.4 533.148  40
   3  -2  11 24407.7 515.057  35
   3  -2  12 4533.00 209.765  30
   3  -2  12 4619.07 233.775  27
   3  -2  12 5001.29 230.236  40
   3  -2  12 4371.91 214.842  35
   3  -2  13 749.007 91.6183  27
   3  -2  13 708.194 83.9744  40
   3  -2  13 588.380 74.5939  35
   3  -2  14 423.385 59.2636  40
   3  -2  14 335.633 50.1352  35
  -3   2 -14 440.135 57.7286  34
   3  -2  15 30.1287 18.4789  40
   3  -1 -15 771.228 73.9402  36
   3  -1 -14 157.530 39.8735  28
  -3   1  14 103.209 32.7186  40
  -3   1  14 115.838 34.3671  33
   3  -1 -14 111.568 39.2649  36
   3  -1 -13 8.64620 26.3842  28
  -3   1  13-12.9162 24.8142  40
  -3   1  13-14.3250 31.4569  33
   3  -1 -12 261.468 63.2016  28
  -3   1  12 267.575 63.7065  40
  -3   1  12 345.228 66.8518  33
  -3   1  11 6085.29 273.134  31
   3  -1 -11 6181.04 266.133  28
  -3   1  11 5799.95 261.631  26
  -3   1  11 5951.03 270.446  40
   3  -1 -11 5620.23 291.607  16
  -3   1  11 6217.49 271.936  33
  -3   1  10 23158.9 525.725  31
   3  -1 -10 23087.5 561.796  13
  -3   1  10 22633.1 522.918  40
   3  -1 -10 23318.7 511.471  28
  -3   1  10 23210.7 525.852  26
   3  -1 -10 21992.5 565.694  16
  -3   1  10 23878.0 505.794  22
  -3   1  10 23547.0 525.393  33
  -3   1   9 10708.7 331.561  21
  -3   1   9 10057.1 339.448  31
   3  -1  -9 10094.9 358.864  13
   3  -1  -9 10900.7 341.358  28
  -3   1   9 10525.8 348.527  26
  -3   1   9 9768.99 333.713  40
   3  -1  -9 9860.11 365.483  16
  -3   1   9 10645.7 338.163  22
  -3   1   9 10645.2 346.627  33
  -3   1   8 8153.37 286.716  22
  -3   1   8 8334.79 282.211  21
  -3   1   8 8460.54 298.031  31
   3  -1  -8 7848.37 300.645  13
  -3   1   8 8413.25 299.686  26
   3  -1  -8 7605.53 306.220  16
   3  -1  -8 8317.41 319.936   3
  -3   1   8 8281.05 293.276  33
  -3   1   7 6440.97 237.381  21
   3  -1  -7 5884.38 249.653  13
   3  -1  -7 5979.04 256.758  16
  -3   1   7 6699.52 238.319   6
   3  -1  -7 6337.24 262.005   3
  -3   1   6 5011.49 201.768  21
   3  -1  -6 4548.67 206.408  13
  -3   1   6 4646.56 178.272  41
  -3   1   6 4558.75 173.778  42
  -3   1   6 4539.25 171.704  43
   3  -1  -6 4472.35 209.849  16
   3  -1  -6 4542.44 204.725   3
  -3   1   6 4863.77 187.793   6
  -3   1   5 7259.27 226.902  21
   3  -1  -5 6884.25 238.049  13
  -3   1   5 6977.48 206.118  43
  -3   1   5 7089.02 209.429  42
  -3   1   5 6929.44 210.415  41
  -3   1   5 6972.34 210.204   6
  -3   1   5 7082.27 168.309   2
   3  -1  -5 7055.49 245.484  16
   3  -1  -5 7190.37 240.272   3
  -3   1   4 3435.11 149.573  21
   3  -1  -4 3107.04 152.931  13
  -3   1   4 3305.23 137.102  42
  -3   1   4 2989.41 132.360  41
  -3   1   4 3326.31 110.425   2
  -3   1   4 3280.97 136.112  43
   3  -1  -4 3304.21 160.130  16
  -3   1   4 3285.27 129.325   4
   3  -1  -4 3448.07 155.207   3
  -3   1   3 1207.23 85.7581  21
  -3   1   3 1282.81 84.4056  41
  -3   1   3 1348.71 85.8031  42
   3  -1  -3 1250.92 92.1908  18
  -3   1   3 1197.41 75.8276   4
  -3   1   3 1269.04 82.4466  43
   3  -1  -3 1253.31 92.3790  16
   3  -1  -3 1250.95 86.8778   3
  -3   1   2 46418.8 487.654  21
  -3   1   2 45503.1 474.509  43
  -3   1   2 44767.6 473.596  42
  -3   1   2 44969.3 477.427  41
  -3   1   2 45247.7 457.900   4
   3  -1  -2 44694.7 509.366  18
   3  -1  -2 43697.5 513.736  16
   3  -1  -2 45906.1 484.119   3
  -3   1   1 66640.6 421.283  15
  -3   1   1 66646.7 549.388  21
  -3   1   1 66375.2 490.077  20
  -3   1   1 67471.4 560.807  43
  -3   1   1 68081.2 565.807  42
  -3   1   1 64497.1 548.305   4
   3  -1  -1 64032.7 583.535  18
  -3   1   1 68781.3 574.384  41
   3  -1  -1 63858.2 602.884  16
   3  -1  -1 65729.8 539.240   3
  -3   1   0 90403.3 541.986  15
  -3   1   0 90218.5 605.966  20
  -3   1   0 91964.0 654.487  41
  -3   1   0 86669.4 647.112   4
  -3   1   0 90030.4 642.914  42
  -3   1   0 91204.5 644.559  43
   3  -1   0 87855.3 692.455  16
   3  -1   0 91393.0 592.007   3
  -3   1  -1 3201.55 109.878  15
  -3   1  -1 3287.74 120.573  20
  -3   1  -1 2854.97 121.497   4
  -3   1  -1 3310.55 121.900  43
  -3   1  -1 3374.31 123.428  42
  -3   1  -1 3349.05 123.260  41
   3  -1   1 3135.25 131.309  16
  -3   1  -2 10642.1 213.494  15
  -3   1  -2 10815.3 228.800  20
  -3   1  -2 10235.1 216.965  41
  -3   1  -2 10273.8 240.509   4
  -3   1  -2 10599.4 219.879  43
  -3   1  -2 10412.5 218.251  42
   3  -1   2 9953.51 220.150   1
   3  -1   2 9981.35 236.833  16
   3  -1   2 10368.9 231.115   2
  -3   1  -3 6274.37 174.901  15
  -3   1  -3 6176.41 170.085  42
  -3   1  -3 6184.74 170.283  43
  -3   1  -3 6116.35 179.849  20
  -3   1  -3 6197.13 171.461  41
  -3   1  -3 6671.61 202.868   4
   3  -1   3 5857.49 187.364  16
   3  -1   3 6149.15 189.520   2
   3  -1   3 6049.20 170.494   1
  -3   1  -4 747.600 65.3819  15
  -3   1  -4 744.974 67.2017  20
  -3   1  -4 840.341 77.6250   4
  -3   1  -4 857.625 67.0928  43
  -3   1  -4 836.196 66.0185  42
   3  -1   4 757.433 72.2785  16
   3  -1   4 791.520 72.8623   2
  -3   1  -4 868.594 67.5016  41
  -3   1  -5 55793.2 588.342  15
  -3   1  -5 53610.4 580.781  20
  -3   1  -5 53118.3 644.062   4
  -3   1  -5 55551.6 552.011  43
  -3   1  -5 55242.2 549.950  42
   3  -1   5 54347.0 634.479  16
  -3   1  -5 55257.5 549.591  41
   3  -1   5 53222.3 618.117   2
  -3   1  -6 58.5783 22.4624  20
   3  -1   6 20.3727 15.4424   2
  -3   1  -6 88.6971 26.0769  43
  -3   1  -6 32.7270 24.2051   4
  -3   1  -6 91.8778 26.2112  41
   3  -1   6 73.0089 29.4608  16
  -3   1  -6 98.6733 28.2627  42
  -3   1  -7 101.353 29.5705  15
  -3   1  -7 109.814 31.1116  20
   3  -1   7 115.906 33.2995   2
  -3   1  -7 128.057 40.2346   4
  -3   1  -8 25.3657 16.8887  15
  -3   1  -8 11.6408 16.9501  14
  -3   1  -8 65.7063 23.9037  37
  -3   1  -8 15.0219 20.0436  20
   3  -1   8 56.5326 34.3654  27
   3  -1   8 5.25974 24.2259   2
  -3   1  -8-0.91942 18.0811   4
   3  -1   8 68.6839 32.7021  36
   3  -1   8-6.72235 22.3253  16
  -3   1  -8-9.85278 22.4652  19
   3  -1   8 95.6109 30.3634  40
  -3   1  -9 347.929 55.3592  14
   3  -1   9 306.436 56.2302  30
   3  -1   9 303.436 62.1397  27
  -3   1  -9 374.250 58.1768  19
   3  -1   9 367.514 63.1312  40
   3  -1   9 479.495 77.5059  25
  -3   1  -9 288.097 54.1001  37
   3  -1   9 357.584 64.4742  36
   3  -1   9 377.909 70.4055  16
   3  -1   9 355.864 67.3990  35
  -3   1  -9 427.568 64.9646  15
  -3   1 -10 10210.3 312.380  14
   3  -1  10 10270.7 316.028  30
   3  -1  10 10788.1 368.156  27
  -3   1 -10 10792.6 324.217  19
   3  -1  10 10933.7 339.701  40
   3  -1  10 11007.5 360.684  25
   3  -1  10 11180.3 352.171  36
   3  -1  10 10602.9 347.002  35
  -3   1 -10 10954.3 327.086  15
   3  -1  11 52139.5 811.939  27
  -3   1 -11 50083.3 705.334  14
  -3   1 -11 50387.8 716.014  19
   3  -1  11 52456.2 739.464  40
   3  -1  11 51972.5 778.391  25
   3  -1  11 50338.8 759.757  35
   3  -1  12 4688.51 239.197  27
   3  -1  12 4704.05 218.720  40
   3  -1  12 4731.49 228.627  25
   3  -1  12 4823.26 231.384  35
  -3   1 -12 4954.84 224.771  34
   3  -1  13 15.2625 21.7152  27
   3  -1  13 62.2529 34.6530  40
   3  -1  13 29.4058 19.1060  25
   3  -1  13-5.56315 22.8933  35
  -3   1 -13-11.3827 19.5505  34
  -3   1 -14 133.512 36.1254  34
   3  -1  14 117.410 31.6286  40
   3  -1  14 114.966 31.3899  25
   3  -1  14 108.913 33.2315  35
  -3   1 -15 3915.69 142.402  38
   3   0 -15 180.318 40.3150  36
  -3   0  14 2759.60 142.419  40
  -3   0  13 14082.9 365.840  26
  -3   0  13 14894.0 372.226  40
  -3   0  13 14945.5 380.754  33
  -3   0  12 12036.9 376.343  26
  -3   0  12 12317.3 361.970  40
  -3   0  12 12335.4 372.597  33
  -3   0  11 18635.5 484.920  26
  -3   0  11 18990.5 461.670  40
   3   0 -11 19073.9 541.742  16
  -3   0  11 18718.5 449.034  22
  -3   0  11 18900.3 479.986  33
   3   0 -10 26811.6 624.677  13
  -3   0  10 27371.6 545.203  40
   3   0 -10 27124.1 634.492  16
  -3   0  10 26778.9 583.392  26
  -3   0  10 27486.1 554.044  22
  -3   0  10 27337.5 571.641  33
   3   0  -9 25650.1 587.651  13
  -3   0   9 26850.4 572.040  26
   3   0  -9 25573.3 600.632  16
  -3   0   9 26874.6 544.252  22
  -3   0   9 27061.1 552.748  33
   3   0  -8 39.9183 33.8819  13
  -3   0   8 101.425 39.1714  26
   3   0  -8 23.1741 35.2359   8
   3   0  -8 26.8575 29.3882   3
   3   0  -8 106.071 43.0838  16
  -3   0   8 57.3941 35.1173  22
  -3   0   8 58.7275 25.0829   6
  -3   0   8-4.60850 34.5037  33
   3   0  -7 1679.93 136.991  13
   3   0  -7 1818.81 140.014   8
   3   0  -7 1829.05 145.707  16
   3   0  -7 1920.56 139.938   3
  -3   0   7 1990.13 138.040   6
   3   0  -6 2903.16 170.831  13
   3   0  -6 2957.57 167.029   8
   3   0  -6 3014.12 173.410  16
   3   0  -6 3116.45 165.994   3
  -3   0   6 3030.34 158.880   6
   3   0  -5 14469.4 356.827  13
   3   0  -5 14138.2 358.190  18
  -3   0   5 14627.9 275.784  41
   3   0  -5 14475.0 364.708  16
  -3   0   5 14677.3 274.162  42
   3   0  -5 14837.2 336.877   3
  -3   0   5 14558.3 271.828  43
   3   0  -5 14620.5 347.249   8
  -3   0   5 14171.9 319.461   6
   3   0  -4 79285.4 782.086  13
  -3   0   4 76456.6 617.856  43
  -3   0   4 76184.9 622.055  41
   3   0  -4 77563.1 797.767  18
  -3   0   4 78942.6 566.903   4
   3   0  -4 77636.3 789.350  16
   3   0  -4 79996.6 733.970   3
  -3   0   4 75765.7 615.456  42
  -3   0   4 78444.4 711.501   6
   3   0  -3 57558.0 651.442  16
  -3   0   3 58879.8 469.837   4
  -3   0   3 56073.9 521.984  41
   3   0  -3 58688.3 657.726  18
  -3   0   3 56313.1 517.312  43
   3   0  -3 58466.0 585.058   3
  -3   0   3 56243.1 519.270  42
  -3   0   3 57602.6 576.989   6
  -3   0   2 1991.72 97.0542  41
  -3   0   2 1995.79 87.3841  20
  -3   0   2 2033.22 97.1675  43
  -3   0   2 2005.61 96.8318  42
   3   0  -2 2055.32 120.747  18
  -3   0   2 1843.90 82.6185   4
   3   0  -2 2067.26 119.063  16
  -3   0   1 28.9494 14.3746  15
  -3   0   1 15.1228 13.3795  20
  -3   0   1 19.9044 13.7992  41
  -3   0   1 24.5622 13.1688   4
  -3   0   1 7.76184 12.3972  42
  -3   0   1 15.2126 14.0285  43
   3   0  -1 10.9847 17.7449  16
  -3   0   0 370.442 42.1618  20
  -3   0   0 398.658 42.2419   4
  -3   0   0 544.842 51.1375  42
  -3   0   0 481.605 48.2378  41
   3   0   0 451.192 55.1637  16
   3   0   0 390.343 46.4989  46
  -3   0   0 550.643 51.0567  43
   3   0   0 386.347 44.2125   9
  -3   0   0 345.595 37.9659  15
  -3   0  -1 9630.72 218.159  20
   3   0   1 9352.45 211.777  46
  -3   0  -1 9452.05 209.043   4
  -3   0  -1 9589.70 212.311  43
  -3   0  -1 9648.64 212.669  42
  -3   0  -1 9580.04 212.771  41
   3   0   1 10306.7 204.615   2
  -3   0  -1 9618.04 203.053  15
   3   0   1 9061.57 238.016  16
  -3   0  -2 30909.4 405.825  20
  -3   0  -2 30173.7 386.352  41
  -3   0  -2 30038.6 392.307   4
  -3   0  -2 30248.2 385.548  43
  -3   0  -2 30366.0 386.575  42
   3   0   2 31193.2 448.074  16
   3   0   2 31458.9 377.203   2
  -3   0  -2 30854.7 389.638  15
  -3   0  -3 141804. 868.903  41
  -3   0  -3 144652. 913.991  20
  -3   0  -3 141768. 868.923  43
   3   0   3 145219. 866.656   2
  -3   0  -3 141650. 868.301  42
   3   0   3 145667. 992.824  16
  -3   0  -3 145338. 895.827  15
  -3   0  -4 47299.1 525.216  41
  -3   0  -4 50565.8 565.356  20
  -3   0  -4 47293.8 525.144  42
  -3   0  -4 47833.3 570.951   4
   3   0   4 49230.4 543.720   2
  -3   0  -4 47001.3 525.069  43
   3   0   4 49419.3 611.413  16
  -3   0  -4 49011.6 554.018  15
  -3   0  -5 243.221 43.0019  15
  -3   0  -5 234.931 36.3486  19
  -3   0  -5 285.132 39.7082  14
  -3   0  -5 245.869 43.9028  20
  -3   0  -5 219.040 38.6147  43
  -3   0  -5 267.742 42.5858  42
   3   0   5 404.127 53.4387   2
  -3   0  -5 216.255 44.1876   4
  -3   0  -5 281.443 44.3958  41
   3   0   5 226.169 43.8102  16
  -3   0  -6 54.0724 22.2241  43
  -3   0  -6 16.7323 14.6271  15
  -3   0  -6 14.6145 15.0350  14
  -3   0  -6 33.1298 19.5552  20
   3   0   6 23.4980 19.9602   2
  -3   0  -6 58.3363 23.9954  42
  -3   0  -6 32.7075 18.9035  19
  -3   0  -6 55.8939 27.0007   4
  -3   0  -6 25.7204 21.1134  41
   3   0   6 57.1812 25.1486  16
  -3   0  -7 1551.23 103.639  14
  -3   0  -7 1632.36 115.865  20
  -3   0  -7 1642.47 131.394   4
  -3   0  -7 1728.69 118.462  43
  -3   0  -7 1638.10 116.000  42
  -3   0  -7 1654.24 109.885  19
  -3   0  -7 1576.63 112.494  41
   3   0   7 1541.56 119.495   2
   3   0   7 1638.20 131.681  16
  -3   0  -7 1630.62 119.312  15
  -3   0  -8 2344.38 136.958  14
  -3   0  -8 2290.88 141.894  20
   3   0   8 2363.66 163.910  27
   3   0   8 2079.88 154.845  25
   3   0   8 2198.45 159.549  16
  -3   0  -8 2412.36 149.052  37
   3   0   8 2219.98 144.387  36
  -3   0  -8 2349.45 138.524  19
   3   0   8 2274.44 154.727  35
  -3   0  -8 2335.37 149.627  15
  -3   0  -9 1961.47 133.851  14
   3   0   9 2066.13 159.442  27
  -3   0  -9 2131.25 139.878  19
   3   0   9 2118.68 164.131  25
   3   0   9 2181.43 167.807  16
  -3   0  -9 2200.61 144.506  37
   3   0   9 2241.85 152.408  36
   3   0   9 2041.74 155.598  35
  -3   0  -9 2161.11 148.324  15
   3   0  10 43892.8 738.114  27
  -3   0 -10 42800.3 652.480  19
   3   0  10 43633.7 741.122  25
   3   0  10 44639.8 655.951  40
   3   0  10 44235.0 723.182  35
  -3   0 -10 43986.9 704.071  34
  -3   0 -10 43854.6 671.302  15
  -3   0 -11 12572.3 359.845  19
   3   0  11 12740.3 397.336  25
   3   0  11 12354.4 344.111  40
   3   0  11 12843.4 394.808  27
   3   0  11 13442.2 395.279  35
  -3   0 -11 12525.8 370.492  34
   3   0  12-19.0241 32.6041  27
   3   0  12-15.1535 28.9503  25
   3   0  12 14.5911 22.0124  40
   3   0  12 7.13742 28.9413  35
  -3   0 -12-15.8017 27.6205  34
   3   0  13 934.854 95.3054  27
   3   0  13 953.569 83.9812  40
   3   0  13 981.016 98.0799  25
  -3   0 -13 1081.42 96.7195  38
   3   0  13 1034.81 97.1810  35
  -3   0 -13 1037.10 94.1343  34
   3   0  14 111.933 32.2590  25
  -3   0 -14 136.023 34.0218  38
   3   0  14 90.5591 26.9310  35
  -3   0 -14 100.542 28.7989  34
  -3  -1  14 1792.25 117.558  26
   3   1 -14 2116.90 132.769  36
  -3  -1  14 1798.97 108.387  35
  -3  -1  13 10599.8 330.157  26
  -3  -1  13 10654.7 301.740  35
  -3  -1  12 5097.12 251.009  26
  -3  -1  12 5343.23 232.295  35
  -3  -1  11 318.688 74.6265  26
   3   1 -11 229.867 67.6092  18
   3   1 -11 311.813 75.5601  16
  -3  -1  11 396.515 73.3052  35
  -3  -1  11 427.336 72.3798  22
  -3  -1  11 283.955 65.9513  33
   3   1 -10-3.55853 31.4020  13
  -3  -1  10 78.3562 43.7213  26
   3   1 -10 74.1936 44.6766  18
  -3  -1  10 28.7420 30.9898  23
   3   1 -10 140.048 53.2789  16
  -3  -1  10 67.0536 37.5965  35
  -3  -1  10 37.2498 26.2228  22
  -3  -1  10 3.81930 38.4802  33
   3   1  -9 506.401 89.9752  13
  -3  -1   9 551.544 90.9171  26
   3   1  -9 564.424 96.2176  18
  -3  -1   9 527.500 87.2710  23
   3   1  -9 500.274 87.1289  16
  -3  -1   9 635.846 85.7385  35
  -3  -1   9 528.764 85.0877  22
  -3  -1   9 543.653 81.3107  33
   3   1  -8 630.351 93.8444  13
   3   1  -8 485.241 87.9119  18
   3   1  -8 549.306 93.0153   8
   3   1  -8 617.538 93.9662  16
  -3  -1   8 711.528 95.5614  23
  -3  -1   8 721.747 95.9995  26
  -3  -1   8 563.578 76.1216  35
   3   1  -8 632.161 90.4724   3
  -3  -1   8 593.739 83.3346  22
  -3  -1   8 645.758 85.6955  33
   3   1  -7 6430.52 278.062  13
   3   1  -7 7233.12 302.548  18
   3   1  -7 6518.09 286.350   8
   3   1  -7 6580.32 279.399  16
   3   1  -7 6530.96 261.624   3
  -3  -1   7 6754.80 269.255   6
   3   1  -6 5296.83 241.778  13
   3   1  -6 5540.54 254.255  18
   3   1  -6 5634.88 246.295  16
   3   1  -6 5610.17 228.869   3
  -3  -1   6 5933.02 236.873   6
   3   1  -5 6919.31 260.020  13
   3   1  -5 6920.68 267.030  18
   3   1  -5 6481.23 252.412  16
   3   1  -5 6971.37 243.423   3
  -3  -1   5 6874.29 239.568   6
  -3  -1   4 11925.5 235.892  42
  -3  -1   4 11872.2 236.107  41
   3   1  -4 12176.5 339.043  18
   3   1  -4 11845.9 297.138   3
  -3  -1   4 12130.8 237.932  43
   3   1  -4 11818.4 319.907  16
  -3  -1   4 11193.7 289.256   6
   3   1  -3 177503. 1224.92   9
  -3  -1   3 181442. 931.380  43
  -3  -1   3 180045. 933.340  41
   3   1  -3 179393. 1239.17  18
  -3  -1   3 180718. 928.504  42
   3   1  -3 177838. 1193.77  16
  -3  -1   3 175621. 1087.76   6
   3   1  -2 143286. 1094.95  18
  -3  -1   2 141910. 868.611  20
  -3  -1   2 143524. 839.301  43
  -3  -1   2 145284. 841.065  42
  -3  -1   2 143850. 843.811  41
   3   1  -2 141765. 1050.25  16
   3   1  -2 140965. 1046.80   9
  -3  -1   1 2166.26 105.324  41
  -3  -1   1 2226.05 112.649  20
   3   1  -1 2069.00 126.824  46
  -3  -1   1 1990.32 101.651  43
  -3  -1   1 2104.97 104.094  42
   3   1  -1 2080.46 122.568   9
   3   1  -1 2519.16 135.527  16
  -3  -1   1 2222.10 105.671  15
  -3  -1   0 22669.8 366.547  20
   3   1   0 21840.8 403.635  46
  -3  -1   0 22658.9 346.959  42
  -3  -1   0 22933.6 348.831  41
  -3  -1   0 22729.6 348.795  43
   3   1   0 22328.6 398.842  16
  -3  -1   0 22593.8 347.807  15
  -3  -1  -1 306.726 43.2088  43
  -3  -1  -1 394.954 51.7823  20
   3   1   1 321.366 51.4091  46
  -3  -1  -1 385.816 48.4756  42
  -3  -1  -1 362.660 46.8147  41
   3   1   1 358.661 51.5494  16
  -3  -1  -1 355.281 47.1092  15
  -3  -1  -2 64195.5 660.247  20
   3   1   2 67173.8 677.320  46
  -3  -1  -2 66472.1 564.693   4
  -3  -1  -2 65908.4 629.737  43
  -3  -1  -2 66014.5 628.325  42
  -3  -1  -2 65746.2 626.621  41
   3   1   2 66104.4 693.825  16
  -3  -1  -2 64775.1 637.026  15
  -3  -1  -3 4917.15 179.267  43
  -3  -1  -3 5547.65 202.079  20
   3   1   3 5132.76 202.334  16
  -3  -1  -3 5000.97 169.190   4
   3   1   3 5203.93 188.622  46
  -3  -1  -3 4965.86 179.381  42
  -3  -1  -3 4960.75 179.778  41
  -3  -1  -3 4763.48 183.393  15
  -3  -1  -4 1689.02 115.562  20
  -3  -1  -4 1545.84 102.900   4
  -3  -1  -4 1519.08 104.666  43
  -3  -1  -4 1537.56 104.656  42
   3   1   4 1458.50 94.1405   2
  -3  -1  -4 1489.75 103.700  41
   3   1   4 1573.77 116.256  16
  -3  -1  -4 1431.70 106.707  15
  -3  -1  -5 2696.00 151.933  20
  -3  -1  -5 2743.35 147.576   4
  -3  -1  -5 2554.10 142.513  43
   3   1   5 2724.49 140.137   2
  -3  -1  -5 2412.25 138.220  42
  -3  -1  -5 2463.10 139.718  41
   3   1   5 2772.05 161.291  16
  -3  -1  -5 2939.99 157.440  15
  -3  -1  -6 5528.81 223.708  20
  -3  -1  -6 5874.99 232.729   4
  -3  -1  -6 5282.96 214.744  43
   3   1   6 5412.96 212.080   2
  -3  -1  -6 5249.53 213.607  42
  -3  -1  -6 5305.64 214.564  41
   3   1   6 5846.03 247.588  16
  -3  -1  -6 5637.78 230.602  15
  -3  -1  -7 1389.82 115.944  20
  -3  -1  -7 1287.73 118.116   4
   3   1   7 1450.73 123.070  27
   3   1   7 1326.19 112.134   2
  -3  -1  -7 1377.45 105.577  19
   3   1   7 1429.60 129.905  25
   3   1   7 1358.77 125.582  16
  -3  -1  -7 1695.33 128.552  37
  -3  -1  -7 1454.85 124.016  34
  -3  -1  -7 1398.39 122.074  15
  -3  -1  -8 6251.29 248.538  37
  -3  -1  -8 5982.02 240.074  20
  -3  -1  -8 5858.38 228.356  19
   3   1   8 5859.58 270.429  25
   3   1   8 6050.98 273.187  16
   3   1   8 5867.32 255.468  27
  -3  -1  -8 5945.50 257.882  34
  -3  -1  -8 5589.69 245.907  15
   3   1   9 61568.5 844.889  27
  -3  -1  -9 60743.5 770.477  19
   3   1   9 61662.2 891.647  25
   3   1   9 64574.7 915.746  16
   3   1   9 60635.4 854.068  35
  -3  -1  -9 63106.1 854.926  34
  -3  -1  -9 62853.1 838.436  15
   3   1  10 82.8788 37.4781  27
  -3  -1 -10 172.126 49.1069  19
   3   1  10 134.363 50.9863  25
   3   1  10 233.521 61.8576  35
  -3  -1 -10 266.368 58.9360  34
   3   1  11 94.7938 43.9389  25
   3   1  11 22.9802 23.2178  27
  -3  -1 -11 48.8395 30.3363  38
   3   1  11 36.7765 37.3561  35
  -3  -1 -11 57.4491 29.1620  34
  -3  -1 -12 2887.49 163.896  34
   3   1  12 2909.86 165.177  27
   3   1  12 2959.56 176.730  25
  -3  -1 -12 2930.89 161.257  38
   3   1  12 3033.23 173.362  35
   3   1  13 41.2819 26.4772  25
  -3  -1 -13 0.88855 17.4700  38
   3   1  13-5.56671 17.5273  35
  -3  -1 -13-19.0846 17.2042  34
   3   1  14 246.336 39.0980  25
   3   1  14 278.927 40.1523  35
  -3  -2  14 369.392 57.0608  26
  -3  -2  14 310.202 49.1967  35
  -3  -2  13 12632.7 356.635  26
  -3  -2  13 12920.4 330.842  35
  -3  -2  12 15941.3 440.443  26
  -3  -2  12 15794.8 402.428  35
  -3  -2  11 2801.08 197.866  26
  -3  -2  11 2985.72 195.151  23
  -3  -2  11 2940.92 183.861  35
  -3  -2  10 328.884 76.2315  26
   3   2 -10 285.575 76.6152  18
  -3  -2  10 253.202 63.6011  23
   3   2 -10 270.239 71.6114  16
  -3  -2  10 143.388 47.9167  35
  -3  -2  10 194.006 54.2122  22
   3   2  -9 4180.94 246.926  13
  -3  -2   9 4095.49 241.435  23
  -3  -2   9 4138.40 242.503  26
   3   2  -9 4175.12 265.633   9
   3   2  -9 4304.69 258.431  18
   3   2  -9 4117.04 243.421  16
  -3  -2   9 3883.11 214.886  35
  -3  -2   9 3949.49 222.680  22
   3   2  -8 6853.45 306.041  13
  -3  -2   8 6394.40 295.269  26
   3   2  -8 6101.25 310.515   9
   3   2  -8 6487.84 308.637  18
   3   2  -8 6597.25 295.843  16
  -3  -2   8 6341.79 297.264  23
  -3  -2   8 6272.47 269.989  35
  -3  -2   8 6144.29 273.881  22
  -3  -2   7 15964.3 450.219  26
  -3  -2   7 16155.8 464.018  23
   3   2  -7 16837.8 496.326   9
   3   2  -7 16735.3 475.886  18
  -3  -2   7 15908.6 400.286  39
   3   2  -7 17153.2 457.021  16
   3   2  -7 18153.0 459.554   3
  -3  -2   7 16614.6 420.106  35
  -3  -2   7 15539.5 425.520  22
   3   2  -6 22803.4 554.484   9
   3   2  -6 23238.4 540.261  18
   3   2  -6 23006.0 510.720  16
  -3  -2   6 23526.4 508.775   6
   3   2  -5 1014.05 114.946   9
   3   2  -5 1051.20 113.717  18
   3   2  -5 1216.55 109.199   3
   3   2  -5 1145.91 111.884  16
  -3  -2   5 1174.54 108.347   6
   3   2  -4 101.380 37.1475   9
   3   2  -4 71.8181 39.9970  46
   3   2  -4 63.2261 28.3946  16
  -3  -2   4 91.9122 33.2096   6
  -3  -2   3 309.520 48.9386  20
   3   2  -3 264.794 59.2362  46
   3   2  -3 262.985 59.1288   9
   3   2  -3 267.339 55.6156  16
  -3  -2   3 294.590 50.7287   6
   3   2  -2 253.440 56.1935  46
  -3  -2   2 212.665 36.8412  43
  -3  -2   2 206.169 35.6349  41
   3   2  -2 197.292 47.5768   9
  -3  -2   2 216.657 37.0231  42
   3   2  -2 189.396 44.9322  16
  -3  -2   2 224.401 41.0461   6
  -3  -2   1 1589.32 111.021  20
   3   2  -1 1676.20 131.832  46
  -3  -2   1 1718.28 104.414  43
  -3  -2   1 1699.32 103.568  42
  -3  -2   1 1616.64 101.809  41
   3   2  -1 1629.53 115.963  16
  -3  -2   1 1654.11 105.315  15
  -3  -2   1 1877.65 115.675   6
  -3  -2   0 41541.2 573.186  20
   3   2   0 41295.9 572.966  12
  -3  -2   0 41170.9 522.583  42
  -3  -2   0 41893.3 527.323  41
   3   2   0 40399.4 630.959  46
  -3  -2   0 41552.1 526.745  43
   3   2   0 41481.8 575.630  16
  -3  -2   0 41542.2 545.465  15
  -3  -2  -1 58439.3 701.231  20
   3   2   1 59385.5 760.094  46
  -3  -2  -1 57905.4 644.304  43
  -3  -2  -1 58673.9 648.435  41
   3   2   1 58378.2 684.092  16
  -3  -2  -1 58429.1 643.740  42
  -3  -2  -1 59477.4 680.678  15
  -3  -2  -2 52.8984 30.0229  15
   3   2   2 30.8512 26.3176  21
  -3  -2  -2 129.997 37.4623  20
   3   2   2 48.8407 30.9764  46
  -3  -2  -2 134.214 36.1303  43
  -3  -2  -2 121.159 33.0074  42
  -3  -2  -2 118.396 33.5045  41
   3   2   2 35.6850 23.8173  16
   3   2   3 19643.3 428.179  46
   3   2   3 19051.9 421.032  21
  -3  -2  -3 20018.4 436.662  20
  -3  -2  -3 19716.5 403.772  43
  -3  -2  -3 19758.1 401.828  42
  -3  -2  -3 19811.6 403.143  41
   3   2   3 20115.0 422.653  16
  -3  -2  -3 20692.5 437.958  15
  -3  -2  -4 13635.4 367.859  20
   3   2   4 14065.4 366.825  46
  -3  -2  -4 13106.9 343.019  43
  -3  -2  -4 13103.9 342.402  42
  -3  -2  -4 13213.2 342.866  41
   3   2   4 13206.9 356.087  16
  -3  -2  -4 13935.9 375.507  15
   3   2   5 1232.90 117.629  31
  -3  -2  -5 1284.59 116.108  20
   3   2   5 1254.03 111.779  46
  -3  -2  -5 1267.38 111.708  43
  -3  -2  -5 1293.44 112.359  42
  -3  -2  -5 1441.41 118.375  41
   3   2   5 1350.84 124.235  25
   3   2   5 1328.22 118.815  16
  -3  -2  -5 1243.19 114.518  37
  -3  -2  -5 1330.38 116.557  34
  -3  -2  -5 1288.80 120.827  15
   3   2   6 9294.86 328.185  31
  -3  -2  -6 9927.14 330.522  20
   3   2   6 9718.33 343.131  25
  -3  -2  -6 9811.86 320.936  37
   3   2   6 9626.11 331.303  16
  -3  -2  -6 9402.24 322.164  34
  -3  -2  -6 9773.96 338.209  15
  -3  -2  -7 390.245 72.4180  15
   3   2   7 466.643 79.5999  31
  -3  -2  -7 373.351 66.1834  20
   3   2   7 272.052 61.1642  25
  -3  -2  -7 380.620 67.0622  37
   3   2   7 440.694 76.5649  16
  -3  -2  -7 337.339 67.1353  34
   3   2   8 6645.22 285.249  31
   3   2   8 6666.89 292.283  25
   3   2   8 6834.57 294.523  16
  -3  -2  -8 6832.36 265.942  37
  -3  -2  -8 6360.30 279.112  34
  -3  -2  -8 6913.15 289.651  15
   3   2   9 1575.43 135.989  31
  -3  -2  -9 1800.87 137.886  38
  -3  -2  -9 1537.19 136.705  34
   3   2   9 1799.53 153.003  25
   3   2  10 1252.68 115.601  31
   3   2  10 1424.38 132.418  25
  -3  -2 -10 1176.01 106.371  38
   3   2  10 1261.98 124.311  35
  -3  -2 -10 1293.38 120.851  34
   3   2  11 167.169 45.5288  25
   3   2  11 190.320 41.2683  31
  -3  -2 -11 213.923 49.0824  38
   3   2  11 232.182 51.6025  35
  -3  -2 -11 210.638 49.2782  34
   3   2  12 397.758 60.9532  25
  -3  -2 -12 243.773 43.1070  38
   3   2  12 239.404 47.8086  35
  -3  -2 -12 335.711 53.2353  34
   3   2  13 664.794 65.5540  25
   3   2  13 697.404 64.8139  35
  -3  -2 -13 735.390 64.2526  34
  -3  -3  14 2703.53 122.593  35
  -3  -3  13 1027.82 102.706  35
  -3  -3  12 10.4788 34.9626  26
  -3  -3  12-19.3080 29.4592  23
  -3  -3  11 67.1363 36.6838  23
  -3  -3  11 54.2238 33.6277  35
  -3  -3  11 108.658 46.0853  26
  -3  -3  10 58.3561 47.3033  26
  -3  -3  10 23.9245 32.7434  23
  -3  -3  10 27.1825 37.0389  35
   3   3  -9 19.1911 31.5614  46
  -3  -3   9-1.12308 35.8496  26
   3   3  -9-0.84565 30.9757  18
  -3  -3   9-9.44545 37.1126  23
  -3  -3   9 13.1309 29.6492  35
   3   3  -8 100.385 46.6925  46
  -3  -3   8-19.8839 51.2865  26
   3   3  -8 43.8203 37.0608  18
  -3  -3   8 53.5953 50.3684  23
  -3  -3   8 71.0969 46.9475  35
  -3  -3   7 60.1152 35.4309  32
   3   3  -7-7.49644 37.7216  46
  -3  -3   7 1.82518 30.8544  26
   3   3  -7-19.3916 36.9965   9
   3   3  -7 56.9605 41.2797  18
  -3  -3   7 1.66650 44.0690  23
  -3  -3   6 5690.91 259.403  32
   3   3  -6 6109.32 292.606  18
   3   3  -6 5846.70 304.369  46
  -3  -3   6 5551.62 265.633  26
   3   3  -6 6125.41 315.389   9
  -3  -3   6 5743.59 254.853  39
  -3  -3   6 5544.28 244.501  24
  -3  -3   6 5718.20 287.455  23
  -3  -3   5 815.386 100.270  32
   3   3  -5 833.154 115.244  46
  -3  -3   5 877.533 104.620  26
   3   3  -5 799.831 110.737   9
  -3  -3   5 751.277 93.9292  39
  -3  -3   5 857.475 96.0647  24
  -3  -3   5 799.626 108.266  23
  -3  -3   4-0.65790 27.4503  32
   3   3  -4-3.39210 26.0965  46
  -3  -3   4-9.40424 26.4736  39
  -3  -3   4-16.5307 23.6926  24
  -3  -3   4-32.2897 40.2683  23
  -3  -3   4 23.7476 24.5197   6
  -3  -3   3 1952.01 151.729  32
  -3  -3   3 1856.60 132.707  20
   3   3  -3 1922.92 155.324  12
  -3  -3   3 1882.16 142.422  39
   3   3  -3 1745.97 131.226  16
  -3  -3   3 2031.00 140.324   6
  -3  -3   2 6026.19 242.767  20
   3   3  -2 5667.08 258.926  12
   3   3  -2 5948.62 283.696  46
   3   3  -2 6074.24 246.910  45
   3   3  -2 5957.16 234.033  16
  -3  -3   2 5967.34 226.436  15
  -3  -3   1 1712.28 131.659  20
   3   3  -1 1857.73 146.388  12
   3   3  -1 1794.68 153.957  46
   3   3  -1 1690.48 122.856  16
  -3  -3   1 1782.49 127.262  15
   3   3   0 8986.57 331.107  21
  -3  -3   0 8764.57 304.723  20
   3   3   0 9016.25 307.363  12
   3   3   0 9652.45 349.294  46
  -3  -3   0 8881.18 273.925  43
  -3  -3   0 8929.22 274.603  42
  -3  -3   0 8965.34 273.961  41
   3   3   0 9276.74 285.890  16
  -3  -3   0 8727.55 288.276  15
   3   3   1 20294.9 494.218  21
   3   3   1 19387.2 480.679  31
  -3  -3  -1 20123.3 473.009  20
   3   3   1 21348.6 510.380  46
  -3  -3  -1 20640.3 431.876  42
  -3  -3  -1 20764.3 432.929  41
  -3  -3  -1 20968.4 435.732  43
   3   3   1 21072.7 432.732  16
  -3  -3  -1 20645.4 464.528  37
  -3  -3  -1 20787.7 458.608  15
  -3  -3  -2 2140.28 154.828  32
   3   3   2 1906.59 153.636  21
   3   3   2 1939.91 153.338  31
  -3  -3  -2 1931.83 150.093  20
   3   3   2 2075.33 161.315  46
  -3  -3  -2 2114.21 152.571  24
  -3  -3  -2 2043.08 142.175  43
  -3  -3  -2 2129.38 144.205  42
  -3  -3  -2 2098.96 142.424  41
   3   3   2 2042.38 150.344  25
  -3  -3  -2 1923.35 146.280  37
   3   3   2 2195.45 143.053  16
  -3  -3  -2 2199.31 154.933  15
  -3  -3  -3 93.6457 37.1703  15
   3   3   3 7.34372 26.0537  21
   3   3   3 45.4682 36.9844  31
  -3  -3  -3 9.18331 24.0209  20
   3   3   3 64.3424 34.3653  46
   3   3   3 57.3129 36.9292  25
  -3  -3  -3 36.8968 30.8491  24
  -3  -3  -3 101.686 37.8642  37
   3   3   3 47.1366 24.8772  16
  -3  -3  -3 57.2300 26.6788  34
  -3  -3  -4 62.7396 33.3224  15
   3   3   4 50.6648 38.1292  31
  -3  -3  -4 79.6231 39.5929  20
   3   3   4 37.8493 27.0663  46
   3   3   4 91.0420 39.6239  25
  -3  -3  -4 56.3392 27.9643  37
   3   3   4 126.634 38.6457  16
  -3  -3  -4 78.3066 35.4559  34
   3   3   5 483.752 79.8422  31
  -3  -3  -5 667.455 95.0446  20
   3   3   5 713.308 95.4229  46
   3   3   5 676.530 93.5978  25
  -3  -3  -5 639.327 86.9116  37
   3   3   5 605.528 82.7244  16
  -3  -3  -5 723.743 95.7122  34
  -3  -3  -5 631.677 91.8441  15
   3   3   6 8070.56 324.338  31
  -3  -3  -6 8547.77 324.510  20
   3   3   6 8477.75 316.112  46
   3   3   6 7966.75 315.033  25
  -3  -3  -6 7798.22 301.190  37
  -3  -3  -6 8213.32 316.934  34
  -3  -3  -6 8277.38 327.312  15
   3   3   7 17048.7 463.600  31
  -3  -3  -7 17808.5 440.722  37
  -3  -3  -7 17339.7 447.909  20
   3   3   7 17661.3 467.959  25
  -3  -3  -7 17460.2 471.510  15
  -3  -3  -7 17533.9 465.727  34
   3   3   8 357.819 66.2631  31
   3   3   8 220.267 55.7433  25
  -3  -3  -8 232.877 50.3733  37
  -3  -3  -8 248.032 58.4675  34
   3   3   9 4429.29 219.181  31
   3   3   9 4236.84 215.612  25
  -3  -3  -9 4244.89 218.477  34
   3   3  10 71.5744 30.7226  31
   3   3  10 26.5191 27.5998  35
   3   3  10 59.6306 28.2797  25
  -3  -3 -10 68.7345 30.5726  34
   3   3  11-0.30782 21.4376  31
   3   3  11-0.34041 19.9283  25
   3   3  11-10.1661 25.6345  35
  -3  -3 -11 7.97082 19.6808  34
   3   3  12 658.690 61.1995  35
  -3  -3 -12 597.643 56.4122  34
  -3  -4  12 82.5326 33.8392  23
  -3  -4  11 33.8814 28.4260  23
  -3  -4  10 47.9757 33.0667  26
  -3  -4  10-11.2060 37.5293  23
  -3  -4   9 837.956 108.850  26
  -3  -4   9 786.688 106.741  23
  -3  -4   8 2860.65 184.055  32
   3   4  -8 3182.70 207.536  21
  -3  -4   8 3031.22 202.377  26
  -3  -4   8 3261.52 222.675  23
  -3  -4   7 796.604 104.653  32
  -3  -4   7 890.080 98.5296  29
   3   4  -7 1071.31 135.970  46
  -3  -4   7 889.192 111.163  26
  -3  -4   7 951.401 124.645  23
  -3  -4   6 131.098 43.3098  32
  -3  -4   6 94.8490 36.5337  29
   3   4  -6 220.942 67.2199  12
   3   4  -6 115.878 56.5874  46
  -3  -4   6 153.243 51.6525  26
  -3  -4   6 131.538 47.1049  24
  -3  -4   6 107.551 52.3860  23
  -3  -4   5 428.271 81.6129  32
  -3  -4   5 608.046 83.2009  29
   3   4  -5 392.793 82.4657  12
  -3  -4   5 514.893 82.0460  24
   3   4  -5 508.449 97.1478  46
  -3  -4   5 523.574 90.3161  23
  -3  -4   4 520.452 88.5892  32
   3   4  -4 622.582 100.560  21
  -3  -4   4 606.875 83.1454  29
   3   4  -4 591.509 100.417  12
   3   4  -4 632.849 105.005  46
   3   4  -4 532.139 87.2253  45
  -3  -4   4 714.241 100.540  24
  -3  -4   4 573.058 79.7880  37
  -3  -4   4 440.412 84.7816  23
  -3  -4   3 2851.67 199.346  32
   3   4  -3 2721.44 203.950  21
  -3  -4   3 3018.17 185.064  29
   3   4  -3 2650.85 199.247  12
   3   4  -3 3052.31 225.288  46
  -3  -4   3 2683.72 190.006  24
  -3  -4   3 2887.91 180.786  37
  -3  -4   3 2810.35 190.695  23
  -3  -4   2 11654.0 402.172  32
   3   4  -2 12087.0 424.833  21
  -3  -4   2 12123.3 383.270  20
  -3  -4   2 12281.2 371.460  29
  -3  -4   2 12382.3 380.091  37
   3   4  -2 12011.6 410.450  12
   3   4  -2 13036.8 449.667  46
  -3  -4   2 11604.1 391.841  24
  -3  -4   2 12088.0 365.845  15
  -3  -4   1 2002.98 166.878  32
   3   4  -1 1966.53 172.880  21
  -3  -4   1 2117.34 165.076  20
  -3  -4   1 1902.08 149.848  29
   3   4  -1 2056.64 167.734  12
   3   4  -1 2092.61 180.361  46
  -3  -4   1 2077.24 157.954  37
  -3  -4   1 1758.61 155.351  24
  -3  -4   1 2000.26 152.817  15
  -3  -4   0 331.710 69.4908  32
  -3  -4   0 328.660 67.2650  15
   3   4   0 434.271 85.4139  21
   3   4   0 335.658 71.1428  31
  -3  -4   0 362.444 69.3412  29
  -3  -4   0 346.713 71.6451  20
   3   4   0 391.573 79.7551  46
   3   4   0 290.498 62.8221  25
  -3  -4   0 349.758 77.0956  24
  -3  -4   0 335.671 66.1246  37
  -3  -4  -1 673.996 96.9505  32
   3   4   1 797.412 111.144  21
   3   4   1 702.998 99.6472  31
  -3  -4  -1 784.100 106.546  20
  -3  -4  -1 703.881 95.3539  29
   3   4   1 825.460 111.144  46
   3   4   1 773.700 96.3078  25
  -3  -4  -1 753.820 102.481  24
  -3  -4  -1 825.121 102.346  37
  -3  -4  -1 879.161 107.551  15
  -3  -4  -1 844.191 94.6727  34
   3   4   2 693.850 93.7623  33
  -3  -4  -2 684.709 93.2110  32
   3   4   2 788.469 106.898  21
   3   4   2 605.944 93.0086  31
  -3  -4  -2 681.318 100.622  20
  -3  -4  -2 722.623 96.7108  29
   3   4   2 748.941 93.9538  25
   3   4   2 650.797 99.2812  46
  -3  -4  -2 584.882 88.1915  24
  -3  -4  -2 694.187 95.2947  37
  -3  -4  -2 696.499 97.7655  15
  -3  -4  -2 712.336 88.4882  34
  -3  -4  -3-20.1889 35.0482  15
   3   4   3-5.11875 33.2053  31
  -3  -4  -3 40.3796 38.7612  29
  -3  -4  -3 28.0627 24.9489  20
   3   4   3 29.7502 34.7735  46
  -3  -4  -3 52.7515 27.4354  24
   3   4   3 2.17764 22.0186  25
  -3  -4  -3-6.33056 29.6332  37
  -3  -4  -3 17.7199 26.1658  34
   3   4   4 3053.91 204.082  31
  -3  -4  -4 2928.92 201.225  20
  -3  -4  -4 3348.83 209.110  29
   3   4   4 3420.35 215.587  46
   3   4   4 2971.53 186.490  25
  -3  -4  -4 2882.56 190.743  37
  -3  -4  -4 3078.61 206.436  15
  -3  -4  -4 3139.71 194.026  34
   3   4   5 1624.51 148.768  31
  -3  -4  -5 1799.59 155.540  20
   3   4   5 1662.26 140.274  25
  -3  -4  -5 1531.32 137.266  37
  -3  -4  -5 1581.23 139.480  34
   3   4   6 451.737 81.4594  31
  -3  -4  -6 475.675 77.6849  20
   3   4   6 505.568 77.9982  25
  -3  -4  -6 406.461 69.6169  37
  -3  -4  -6 442.848 78.0888  34
   3   4   7-6.27562 33.1877  31
   3   4   7 48.0614 38.1761  25
  -3  -4  -7-36.3312 30.7843  37
  -3  -4  -7 28.5847 32.4486  34
   3   4   8 1245.95 113.164  31
  -3  -4  -8 1090.91 105.476  29
   3   4   8 1183.33 103.499  25
  -3  -4  -8 1186.62 110.297  34
   3   4   9 284.483 52.3844  31
  -3  -4  -9 239.089 44.9776  29
   3   4   9 307.756 53.3814  35
  -3  -4  -9 324.185 55.7398  34
   3   4   9 318.953 50.2181  25
   3   4  10 65.0857 24.2868  31
  -3  -4 -10 67.2284 25.0563  29
   3   4  10 61.3039 22.3508  35
  -3  -4 -10 81.7154 30.5257  34
  -3  -5  11 551.249 68.9140  23
  -3  -5  10 1725.97 131.992  23
  -3  -5   9 1668.63 139.734  23
  -3  -5   8 26.1460 31.2736  29
  -3  -5   8 35.8109 37.6658  23
  -3  -5   7 276.111 55.8890  29
  -3  -5   7 507.326 87.1244  23
  -3  -5   6 144.746 49.1164  32
   3   5  -6 129.755 46.3364  21
  -3  -5   6 124.830 37.7800  29
  -3  -5   6 114.349 44.3267  23
  -3  -5   5 236.363 63.3502  32
   3   5  -5 274.910 65.0697  21
  -3  -5   5 384.964 70.1945  29
  -3  -5   5 273.357 59.7951  37
  -3  -5   5 316.366 74.3283  23
  -3  -5   4 653.893 98.7970  32
   3   5  -4 614.152 100.573  21
  -3  -5   4 626.848 87.1264  29
  -3  -5   4 625.924 88.0084  37
  -3  -5   4 769.001 103.613  23
  -3  -5   3 295.873 69.4343  32
   3   5  -3 279.222 72.1022  21
   3   5  -3 283.583 69.3105  31
  -3  -5   3 291.935 65.9252  29
  -3  -5   3 255.523 67.2474  24
  -3  -5   3 315.034 63.0868  37
  -3  -5   2 3463.74 223.045  32
   3   5  -2 3599.43 238.260  21
   3   5  -2 3737.18 223.848  31
  -3  -5   2 3956.40 216.953  29
  -3  -5   2 3447.44 219.391  24
  -3  -5   2 3698.21 212.874  37
  -3  -5   1 717.976 101.541  32
   3   5  -1 866.577 118.313  21
   3   5  -1 866.053 110.272  31
  -3  -5   1 768.093 105.799  24
  -3  -5   1 955.179 112.542  37
  -3  -5   0-4.06246 28.9253  32
   3   5   0 3.10032 31.7578  21
   3   5   0-1.03884 27.9525  31
  -3  -5   0 4.34625 30.9906  29
  -3  -5   0-17.4954 29.8199  24
  -3  -5   0 9.09402 28.4665  37
   3   5   1-12.1738 47.0761  33
  -3  -5  -1 36.0664 33.4342  32
   3   5   1 3.35727 38.3212  21
   3   5   1 25.6154 37.4585  31
  -3  -5  -1 40.3588 34.2487  29
  -3  -5  -1 99.5433 45.3820  37
  -3  -5  -1 78.5146 38.4070  34
   3   5   2 25.7171 35.4250  33
   3   5   2 70.8202 46.3275  21
   3   5   2 0.28603 34.2307  31
  -3  -5  -2 38.6539 41.0640  29
  -3  -5  -2 65.2251 46.8162  37
  -3  -5  -2 59.0338 35.2718  34
   3   5   3 448.092 77.1077  33
   3   5   3 426.770 77.0924  21
   3   5   3 314.382 69.3877  31
  -3  -5  -3 302.982 67.8513  29
  -3  -5  -3 417.963 73.8387  37
  -3  -5  -3 334.898 63.9263  34
   3   5   4 4120.33 221.184  31
  -3  -5  -4 4442.81 224.740  29
  -3  -5  -4 3919.28 207.133  37
  -3  -5  -4 3971.33 207.156  34
   3   5   5 607.579 84.6170  31
  -3  -5  -5 392.021 67.5300  29
  -3  -5  -5 528.869 74.3129  37
  -3  -5  -5 547.847 77.7461  34
   3   5   6 79.3733 32.6948  31
  -3  -5  -6 23.3633 21.5721  37
  -3  -5  -6 42.2468 22.2790  34
   3   5   7 1425.03 108.358  31
  -3  -5  -7 1514.23 107.538  29
  -3  -5  -7 1315.18 102.351  34
   3   5   8 136.932 33.3323  31
  -3  -5  -8 107.476 26.3760  29
   3   5   8 102.218 29.5115  35
  -3  -5  -8 120.236 29.2556  34
  -3  -6   9 95.0660 32.2811  23
  -3  -6   8 36.2764 19.2460  29
  -3  -6   8 55.8964 30.7085  23
   3   6  -7 62.9344 28.4040  31
  -3  -6   7 3.45089 19.9949  29
  -3  -6   7 11.6127 26.8290  23
   3   6  -6 70.4684 31.9245  31
  -3  -6   6-0.89117 19.1251  29
  -3  -6   6 23.2606 25.0867  23
   3   6  -5 554.037 72.0556  31
  -3  -6   5 667.665 79.4819  29
  -3  -6   5 485.038 63.6234  37
   3   6  -4 170.352 44.0847  31
  -3  -6   4 192.226 46.0863  29
  -3  -6   4 142.772 37.6402  37
   3   6  -3 464.627 72.2113  31
  -3  -6   3 454.442 67.8775  29
  -3  -6   3 453.671 67.8308  37
   3   6  -2 133.477 44.1751  33
   3   6  -2 155.451 50.7622  31
  -3  -6   2 124.062 40.5070  29
  -3  -6   2 183.346 45.6034  37
   3   6  -1 1037.31 103.824  31
  -3  -6   1 1112.29 108.556  29
  -3  -6   1 1138.73 109.827  37
   3   6  -1 1049.39 106.485  33
   3   6   0 2757.73 166.354  31
  -3  -6   0 2838.86 168.328  29
  -3  -6   0 2658.33 164.751  37
   3   6   0 2799.83 168.253  33
   3   6   1 2746.78 163.594  31
  -3  -6  -1 3107.57 172.776  29
  -3  -6  -1 2756.81 164.582  37
   3   6   1 2771.45 160.769  33
   3   6   2 1921.93 132.249  31
  -3  -6  -2 1889.07 130.753  29
  -3  -6  -2 1748.84 128.029  37
  -3  -6  -2 1802.97 118.116  34
   3   6   2 1862.24 124.248  33
   3   6   3 252.831 45.2114  33
   3   6   3 215.719 44.7403  31
  -3  -6  -3 263.338 52.2595  29
  -3  -6  -3 183.864 44.7739  37
  -3  -6  -3 219.232 45.8644  34
   3   6   4 256.992 47.4386  31
  -3  -6  -4 242.741 45.2814  29
  -3  -6  -4 187.699 41.6598  37
  -3  -6  -4 204.341 40.8581  34
   3   6   5 198.080 38.5001  31
  -3  -6  -5 197.414 36.0067  29
  -3  -6  -5 226.059 37.7397  34
  -4   8   3 5148.44 160.095  39
   4  -8  -3 5208.95 168.934  38
  -4   8   3 5072.97 174.245  22
  -4   8   2 12477.5 273.070  39
   4  -8  -2 12562.4 277.595  38
  -4   8   2 12415.9 286.164  22
   4  -8  -1 1197.20 87.5019  30
  -4   8   1 1444.34 99.5799  39
   4  -8  -1 1484.06 102.016  38
  -4   8   1 1413.26 102.799  22
   4  -8   0 304.680 48.8909  30
  -4   8   0 361.629 54.2613  39
   4  -8   0 313.521 51.0737  38
  -4   8   0 402.625 51.8514  24
  -4   8   0 353.045 53.1919  22
   4  -8   1-13.8181 19.6853  30
  -4   8  -1 32.0419 23.7180  39
   4  -8   1-13.8717 21.4472  38
  -4   8  -1 0.91609 17.1651  24
  -4   8  -1-22.8043 25.9584  22
   4  -8   2 382.425 53.1884  30
  -4   8  -2 434.732 57.2733  39
   4  -8   2 468.569 60.1686  38
  -4   8  -2 469.964 59.5252  24
  -4   8  -2 431.329 55.6639  22
   4  -8   3 389.547 53.2119  30
  -4   8  -3 380.801 53.8676  39
   4  -8   3 400.396 55.5286  38
  -4   8  -3 361.455 51.8696  24
   4  -8   4 4150.38 163.064  30
  -4   8  -4 4035.80 149.696  39
   4  -8   4 4574.54 176.601  38
  -4   8  -4 4237.08 170.870  24
   4  -8   5 1156.48 83.7495  30
  -4   8  -5 1226.42 89.2847  24
   4  -8   6 523.445 54.7172  30
  -4   8  -6 537.693 55.5593  24
  -4   8  -7 112.239 26.6332  32
  -4   7   7 82.1639 23.1822  22
   4  -7  -6 101.282 30.5616  28
   4  -7  -6 137.919 32.8135  38
  -4   7   6 112.881 33.5900  22
   4  -7  -5 3643.36 154.128  30
   4  -7  -5 3935.23 173.643  28
  -4   7   5 4170.55 161.919  39
   4  -7  -5 3946.53 169.697  38
  -4   7   5 4266.04 184.996  22
   4  -7  -4 3540.20 164.796  30
   4  -7  -4 3560.69 174.718  28
  -4   7   4 3536.88 165.386  39
   4  -7  -4 3661.42 173.993  38
  -4   7   4 3618.06 182.813  22
   4  -7  -3 1668.59 118.902  30
   4  -7  -3 1841.72 132.627  28
  -4   7   3 1867.95 129.306  39
   4  -7  -3 1797.70 128.309  38
  -4   7   3 1914.07 139.407  22
   4  -7  -2-5.24046 24.7806  30
   4  -7  -2-2.44184 23.2199  28
  -4   7   2-3.98188 22.9001  39
   4  -7  -2-25.5804 26.3739  38
  -4   7   2 52.4758 37.8989  22
   4  -7  -1 257.740 53.8371  30
   4  -7  -1 260.689 56.4380  28
  -4   7   1 294.922 60.9867  39
   4  -7  -1 280.511 58.1681  38
  -4   7   1 223.077 48.4249  24
  -4   7   1 218.928 55.9998  22
   4  -7   0 1493.92 119.608  30
   4  -7   0 1479.24 122.919  28
   4  -7   0 1375.23 116.004  40
  -4   7   0 1657.73 134.241  39
   4  -7   0 1536.01 125.011  38
  -4   7   0 1618.04 134.413  22
   4  -7   1 305.781 61.7747  30
   4  -7   1 335.364 60.7509  28
  -4   7  -1 366.731 71.3123  39
   4  -7   1 308.291 58.7003  40
   4  -7   1 412.961 67.6983  38
  -4   7  -1 364.055 67.5066  22
   4  -7   2 532.826 75.2113  30
   4  -7   2 664.842 84.5887  28
   4  -7   2 512.348 71.3832  40
  -4   7  -2 587.825 82.7817  39
   4  -7   2 633.235 84.2214  38
  -4   7  -2 584.483 81.0193  22
   4  -7   3 677.094 85.2712  38
   4  -7   3 525.186 74.1316  30
   4  -7   3 635.308 82.9177  28
   4  -7   3 573.646 75.9450  40
  -4   7  -3 487.514 73.2698  39
   4  -7   4 1146.45 104.828  30
   4  -7   4 1253.42 108.724  28
   4  -7   4 1147.33 102.190  40
  -4   7  -4 1088.36 100.178  39
   4  -7   4 1150.05 107.929  38
   4  -7   5 73.0681 33.4887  30
   4  -7   5 127.969 36.2257  28
   4  -7   5 157.784 41.8722  40
   4  -7   5 106.430 39.7470  38
   4  -7   6 1047.75 96.8859  30
   4  -7   6 1120.96 97.3863  28
   4  -7   6 1180.75 98.1563  40
  -4   7  -6 1028.51 96.5404  24
   4  -7   7 119.093 36.1689  30
   4  -7   7 140.738 32.4586  28
  -4   7  -7 101.389 30.8576  24
   4  -7   7 149.802 35.9677  40
   4  -7   8 13.4108 18.1955  30
   4  -7   8 70.5731 23.6126  40
  -4   7  -8 66.3665 27.7963  24
  -4   7  -9-13.2788 20.5754  32
   4  -7   9 35.2755 20.0552  30
   4  -6  -9 135.977 34.9721  28
  -4   6   9 85.6768 23.2943  22
  -4   6   9 106.979 30.7482  33
   4  -6  -8 51.3977 28.9830  28
  -4   6   8 20.9084 20.3544  22
  -4   6   8 51.5959 25.0982  33
   4  -6  -7 56.8176 29.7367  28
   4  -6  -7 126.699 34.9152  38
  -4   6   7 66.5270 32.7166  22
  -4   6   7 9.70209 23.1427  33
   4  -6  -6 3859.73 204.299  28
  -4   6   6 3959.67 174.991  39
   4  -6  -6 3756.77 182.868  38
  -4   6   6 3947.64 198.676  22
  -4   6   6 4083.60 192.720  33
  -4   6   5 30695.9 588.685  21
   4  -6  -5 30786.2 593.297  28
  -4   6   5 31110.5 528.763  39
   4  -6  -5 29969.6 534.533  38
  -4   6   5 30975.2 576.973  22
  -4   6   5 31626.8 543.517  33
  -4   6   4 8104.33 304.269  21
   4  -6  -4 7235.51 261.707  30
   4  -6  -4 8024.32 310.063  28
  -4   6   4 7866.07 282.478  39
   4  -6  -4 7906.36 285.817  38
  -4   6   4 8134.67 308.668  22
  -4   6   3 4600.41 230.383  21
   4  -6  -3 3901.68 195.365  30
   4  -6  -3 4362.49 228.474  28
   4  -6  -3 4342.60 232.137  19
  -4   6   3 4258.17 215.815  39
   4  -6  -3 4187.19 211.334  38
  -4   6   3 4448.30 230.942  22
  -4   6   2 45.4086 33.3637  21
   4  -6  -2-23.2174 28.9629  30
   4  -6  -2 2.88927 26.7031  28
   4  -6  -2 6.08098 26.2032  19
  -4   6   2-7.90826 27.2586  39
   4  -6  -2-0.47466 25.5936  38
  -4   6   2 14.6067 21.0500  24
  -4   6   2 26.5505 34.8002  22
   4  -6  -1 2872.19 171.192  30
   4  -6  -1 3087.82 190.531  28
   4  -6  -1 3357.62 204.620  19
  -4   6   1 3135.32 192.322  39
   4  -6  -1 3071.21 182.556  38
  -4   6   1 2904.70 187.946  22
   4  -6   0 7752.43 280.420  30
  -4   6   0 8446.08 287.745  20
   4  -6   0 8349.62 309.643  28
   4  -6   0 8673.57 324.379  19
  -4   6   0 8295.55 309.493  39
   4  -6   0 8222.48 295.758  38
  -4   6   0 8271.32 315.897  22
   4  -6   1 669.336 85.4407  30
  -4   6  -1 880.641 98.2554  20
   4  -6   1 815.652 96.1655  28
   4  -6   1 757.353 97.3975  19
  -4   6  -1 722.593 94.6640  39
   4  -6   1 757.675 91.2199  38
  -4   6  -1 814.089 99.5306  22
  -4   6  -2 2066.85 141.960  15
   4  -6   2 1888.10 138.944  30
  -4   6  -2 2011.97 148.789  20
   4  -6   2 2421.95 164.413  28
   4  -6   2 1895.02 151.320  19
   4  -6   2 1809.29 142.368  40
  -4   6  -2 1908.97 148.534  39
   4  -6   2 1776.85 139.117  38
  -4   6  -2 1749.87 141.075  22
  -4   6  -3 9779.54 313.516  15
   4  -6   3 8877.74 300.752  30
  -4   6  -3 9468.00 324.764  20
   4  -6   3 9588.75 325.607  28
   4  -6   3 9157.64 318.049  40
  -4   6  -3 9094.48 312.245  39
   4  -6   3 9449.04 318.826  38
  -4   6  -4 34.7163 23.3282  15
   4  -6   4 67.7697 33.7498  30
  -4   6  -4 57.9712 31.8760  20
   4  -6   4 19.2128 31.3024  28
   4  -6   4 6.88221 22.8880  40
  -4   6  -4 51.1369 31.9765  39
   4  -6   4 104.536 36.4887  38
   4  -6   5 1495.89 123.634  30
  -4   6  -5 1552.45 131.802  20
   4  -6   5 1681.71 136.538  28
   4  -6   5 1479.58 127.772  40
   4  -6   5 1548.77 130.175  38
   4  -6   6 545.087 77.9251  30
   4  -6   6 617.139 84.2572  28
  -4   6  -6 520.402 76.4317  20
   4  -6   6 600.198 82.0679  40
   4  -6   6 552.334 81.4198  38
   4  -6   7 1063.40 101.951  30
   4  -6   7 1343.99 118.815  28
   4  -6   7 1296.83 116.540  40
  -4   6  -7 1045.93 103.225  24
   4  -6   8 8946.46 283.910  30
   4  -6   8 8517.24 286.793  28
   4  -6   8 9098.94 291.841  40
  -4   6  -8 8247.24 260.785  24
   4  -6   9 1331.85 106.173  30
   4  -6   9 1137.85 100.197  40
  -4   6 -10 1831.48 114.088  32
   4  -6  10 1847.73 114.392  30
   4  -6  10 1835.54 116.440  40
   4  -6  11 117.441 28.9147  30
   4  -6  11 162.744 35.4246  40
   4  -5 -11 39.9025 23.5992  28
  -4   5  11 25.8079 18.7862  33
   4  -5 -10-11.3835 20.0937  28
  -4   5  10 6.45468 18.1171  22
  -4   5  10 16.8864 21.7519  33
   4  -5  -9 415.022 67.5621  28
  -4   5   9 558.516 70.0414  22
  -4   5   9 450.381 66.1891  33
   4  -5  -8 332.150 68.4068  28
  -4   5   8 402.039 67.2776  22
  -4   5   8 282.660 57.1757  33
  -4   5   7 91.4505 42.0837  21
   4  -5  -7 50.1072 46.7842  28
  -4   5   7 70.1690 43.3417  22
  -4   5   7 126.873 46.6879  33
  -4   5   6 37835.0 666.621  21
   4  -5  -6 36969.8 695.463  28
   4  -5  -6 37561.2 668.388  19
  -4   5   6 38527.9 596.857  39
  -4   5   6 36507.3 647.615  22
  -4   5   6 37830.2 631.280  33
  -4   5   5 9469.99 337.919  21
   4  -5  -5 9388.49 347.814  28
   4  -5  -5 9898.39 345.952  19
  -4   5   5 9918.95 316.213  39
   4  -5  -5 9605.18 310.165  38
  -4   5   5 9535.47 335.677  22
  -4   5   5 10341.1 329.064  33
  -4   5   4 3971.70 216.929  21
   4  -5  -4 3916.00 223.321  28
   4  -5  -4 4135.50 223.944  19
  -4   5   4 3953.36 204.117  39
   4  -5  -4 3639.98 193.761  38
  -4   5   4 4053.77 220.271  22
  -4   5   3 1890.53 146.969  21
   4  -5  -3 1663.36 145.476  28
   4  -5  -3 1800.61 145.008  19
  -4   5   3 1816.41 142.720  39
   4  -5  -3 1657.49 131.988  38
  -4   5   3 1889.35 151.024  22
  -4   5   2-11.6312 22.8352  21
   4  -5  -2 7.62151 27.2301  28
   4  -5  -2 15.8331 20.4699  19
  -4   5   2 12.7064 25.3627  39
   4  -5  -2-29.7403 25.0877  38
  -4   5   2 11.4467 31.7762  22
  -4   5   1 629.471 80.8076  21
   4  -5  -1 699.685 92.0060  28
   4  -5  -1 660.680 87.6022  19
  -4   5   1 673.098 89.9887  39
   4  -5  -1 656.665 84.1148  38
  -4   5   1 697.345 92.1122  22
  -4   5   0 1042.26 97.2848  20
   4  -5   0 1097.57 113.757  28
   4  -5   0 1175.28 113.915  19
  -4   5   0 1047.93 108.573  39
   4  -5   0 958.977 99.5307  38
  -4   5   0 1096.67 111.599  22
  -4   5  -1 1003.96 93.1042  15
  -4   5  -1 925.806 94.0046  20
   4  -5   1 990.139 106.843  28
   4  -5   1 979.699 103.640  19
  -4   5  -1 888.422 101.170  39
   4  -5   1 938.270 96.6098  38
  -4   5  -1 986.148 104.295  22
  -4   5  -2 50.1282 29.8512  15
  -4   5  -2 44.6911 28.5917  20
   4  -5   2 26.0065 29.0409  28
   4  -5   2 41.2186 28.6173  19
  -4   5  -2 43.6581 32.5628  39
   4  -5   2 50.0319 32.1995  38
  -4   5  -3 72.6825 31.1077  15
   4  -5   3 31.6984 30.9061  30
  -4   5  -3 90.0001 30.0239  20
   4  -5   3 57.6725 30.4105  28
   4  -5   3 88.1485 36.4780  40
  -4   5  -3 109.962 37.8315  39
   4  -5   3 154.861 49.9599  38
   4  -5   3 104.279 40.2318  36
  -4   5  -4 612.506 78.6472  15
   4  -5   4 786.860 89.5695  30
  -4   5  -4 837.726 95.2122  20
   4  -5   4 552.383 78.7794  28
  -4   5  -4 696.757 80.5595  10
   4  -5   4 599.675 82.0211  40
   4  -5   4 692.408 88.4953  38
   4  -5   4 755.493 89.3909  36
  -4   5  -5 14806.2 390.813  15
   4  -5   5 14041.8 370.991  30
  -4   5  -5 15338.5 409.070  20
   4  -5   5 14971.5 410.508  28
  -4   5  -5 14473.7 371.611  10
   4  -5   5 14635.8 406.410  40
   4  -5   5 14770.9 396.275  38
   4  -5   5 15436.8 394.447  36
  -4   5  -6 20232.0 461.291  15
   4  -5   6 20004.8 446.292  30
  -4   5  -6 20409.5 475.171  20
   4  -5   6 20257.8 474.978  28
  -4   5  -6 20007.2 446.579  10
   4  -5   6 20332.3 478.694  40
  -4   5  -6 19556.8 463.013  24
   4  -5   6 20883.2 462.732  36
  -4   5  -7 8589.59 302.464  15
   4  -5   7 8234.96 288.817  30
  -4   5  -7 8476.29 303.343  20
   4  -5   7 8636.90 312.124  28
   4  -5   7 8783.15 315.304  40
  -4   5  -7 8290.14 291.626  24
   4  -5   7 8294.53 293.238  36
   4  -5   8 4130.28 204.352  30
  -4   5  -8 4510.82 216.509  20
   4  -5   8 4488.30 223.548  28
   4  -5   8 4621.05 227.641  40
   4  -5   8 4431.12 212.857  36
   4  -5   9 199.511 45.5930  30
   4  -5   9 356.174 64.4106  28
   4  -5   9 414.996 68.7791  40
   4  -5   9 348.626 60.8982  36
  -4   5 -10 28.4852 27.3852  32
   4  -5  10-8.02150 19.6751  30
   4  -5  10 22.6419 22.0046  40
   4  -5  10-20.2777 28.4571  36
   4  -5  11 418.891 56.1425  30
   4  -5  11 408.421 60.0210  40
   4  -5  12 2.74746 17.7891  30
   4  -5  12 9.87076 17.5687  40
  -4   5 -12 13.6788 18.7300  37
   4  -4 -12 135.394 33.5796  28
  -4   4  12 128.977 33.4888  33
   4  -4 -11 263.965 52.3460  28
   4  -4 -11 293.451 52.9358  36
  -4   4  11 315.869 53.9287  33
   4  -4 -10 229.267 53.8277  28
   4  -4 -10 167.542 50.4496  36
  -4   4  10 224.977 50.3866  22
  -4   4  10 267.101 56.2591  33
  -4   4   9 381.207 68.0309  21
   4  -4  -9 437.468 75.8698  28
   4  -4  -9 209.950 52.9704  36
  -4   4   9 272.852 61.4856  22
  -4   4   9 325.420 62.6608  33
  -4   4   8 7655.53 297.318  21
   4  -4  -8 7383.55 307.947  28
  -4   4   8 7664.28 286.207  26
   4  -4  -8 6714.07 290.832  36
  -4   4   8 7325.46 288.028  22
  -4   4   8 7673.55 292.451  33
  -4   4   7 39951.6 683.335  21
   4  -4  -7 38227.6 702.938  28
  -4   4   7 41348.9 673.783  26
   4  -4  -7 37010.9 688.801  36
  -4   4   7 40039.4 679.918  22
  -4   4   7 39860.1 663.981  33
  -4   4   6 14446.4 409.874  21
   4  -4  -6 14364.8 431.328  28
  -4   4   6 14500.9 371.697  39
   4  -4  -6 14711.3 431.332  36
  -4   4   6 14302.9 409.921  22
  -4   4   6 14718.1 396.434  33
  -4   4   5 1191.89 117.017  21
   4  -4  -5 1304.85 130.081  28
   4  -4  -5 1210.75 115.121  19
  -4   4   5 1174.35 111.376  39
   4  -4  -5 1105.81 120.593  36
  -4   4   5 1166.25 117.526  22
  -4   4   5 1192.09 114.395  33
  -4   4   4 864.690 97.4898  21
   4  -4  -4 772.430 98.8219  28
   4  -4  -4 748.849 88.5140  19
  -4   4   4 780.398 89.9898  39
   4  -4  -4 754.428 96.4898  36
  -4   4   4 796.569 96.8660  22
  -4   4   3 1790.66 135.777  21
   4  -4  -3 1966.52 159.785   1
   4  -4  -3 1890.35 146.802  28
   4  -4  -3 1933.63 139.289  19
  -4   4   3 1842.16 133.500  39
   4  -4  -3 1755.92 148.121  36
  -4   4   3 1903.44 143.306  22
  -4   4   2 628.751 77.7229  21
   4  -4  -2 665.357 93.4320   1
   4  -4  -2 702.589 88.3644  28
   4  -4  -2 777.004 87.0598  19
  -4   4   2 705.957 85.7420  43
  -4   4   2 719.269 88.7694  42
  -4   4   2 707.773 88.6702  41
  -4   4   2 623.371 76.6656   4
  -4   4   2 747.641 87.4766  39
  -4   4   2 755.299 90.5390  22
  -4   4   1-7.39298 19.4120  21
  -4   4   1 54.1516 26.5758  20
  -4   4   1-6.79815 20.4392  43
  -4   4   1 24.6895 26.0110  42
   4  -4  -1 52.9602 27.8490  19
  -4   4   1 38.4321 24.1725  41
   4  -4  -1 47.5493 35.4466   1
  -4   4   1 50.4443 26.9574   4
  -4   4   0 29172.9 470.502  20
   4  -4   0 28794.7 508.703  19
  -4   4   0 28550.4 504.256  43
  -4   4   0 28455.9 505.583  42
   4  -4   0 29521.6 596.439   1
  -4   4   0 28874.3 514.753  41
  -4   4   0 27410.4 496.257   4
  -4   4  -1 2357.87 128.316  15
  -4   4  -1 2386.40 138.791  20
   4  -4   1 2375.99 146.812  19
  -4   4  -1 2289.58 139.138  43
  -4   4  -1 2453.81 144.967  42
  -4   4  -1 2420.73 144.971  41
  -4   4  -1 2181.64 142.907   4
   4  -4   1 2453.86 170.550   1
  -4   4  -2 30.4948 20.6680  15
   4  -4   2 46.4217 25.1498   5
  -4   4  -2 75.0289 30.5993  20
  -4   4  -2 8.67637 17.3216  43
   4  -4   2-5.12683 24.0549   7
   4  -4   2 12.3921 18.2919  19
  -4   4  -2 59.0865 21.7818  42
  -4   4  -2 59.8954 31.3445  41
   4  -4   2 60.4606 33.9830   1
  -4   4  -2-5.46283 22.9616   4
  -4   4  -3 462.169 61.6197  15
   4  -4   3 406.282 64.1275   5
  -4   4  -3 400.755 59.9213  20
   4  -4   3 399.594 62.6050  28
  -4   4  -3 378.598 53.9484  10
  -4   4  -3 404.866 66.9952   4
   4  -4   3 376.011 70.1439   1
  -4   4  -4 11164.3 312.215  15
  -4   4  -4 11217.0 328.647  20
   4  -4   4 11277.3 335.581  28
  -4   4  -4 11445.6 302.612  10
  -4   4  -4 10475.2 336.714   4
   4  -4   4 11042.1 319.948  38
   4  -4   4 11462.4 336.148  36
   4  -4   4 11083.6 365.301   1
   4  -4   4 10967.0 331.356  40
  -4   4  -5 1406.86 115.939  15
  -4   4  -5 1412.68 121.389  20
   4  -4   5 1280.17 116.422  28
  -4   4  -5 1461.02 114.886  10
   4  -4   5 1224.84 111.635  38
  -4   4  -5 1755.19 136.305  24
   4  -4   5 1241.39 116.609  36
   4  -4   5 1223.18 115.735  40
  -4   4  -6 25090.4 497.159  15
   4  -4   6 25970.1 486.712  30
  -4   4  -6 25516.6 511.337  20
   4  -4   6 24733.2 515.837  28
  -4   4  -6 24701.8 484.430  10
   4  -4   6 25309.7 523.485  40
  -4   4  -6 23733.9 489.808  24
   4  -4   6 25649.8 522.717  36
  -4   4  -7 4710.44 222.043  15
   4  -4   7 4752.97 231.456  40
   4  -4   7 5006.51 219.829  30
  -4   4  -7 4754.77 223.509  20
   4  -4   7 4748.03 232.465  28
  -4   4  -7 4835.64 221.667  10
   4  -4   7 4888.18 234.417  36
  -4   4  -8 160.235 48.5786  15
   4  -4   8 115.025 38.4735  30
  -4   4  -8 105.280 38.2241  20
   4  -4   8 116.581 41.1996  28
  -4   4  -8 91.1172 31.1703  10
   4  -4   8 155.384 48.8182  40
   4  -4   8 65.4523 36.0729  36
  -4   4  -9 19.1301 32.7068  32
   4  -4   9-11.8368 31.5203  30
  -4   4  -9 42.0211 30.3613  20
   4  -4   9 5.46046 26.3037  40
   4  -4   9 64.0605 32.8317  36
   4  -4  10 1543.14 121.189  30
   4  -4  10 1849.43 143.444  40
   4  -4  10 1973.60 146.826  36
   4  -4  11 848.212 85.4106  30
   4  -4  11 739.934 87.8885  40
   4  -4  12 699.486 70.4406  30
   4  -4  12 627.770 73.5547  40
  -4   4 -12 683.396 68.6941  37
   4  -4  13 268.147 43.5650  40
   4  -3 -13 989.196 77.3444  28
   4  -3 -13 912.328 78.1071  36
  -4   3  13 992.529 78.0007  33
   4  -3 -12 399.292 59.8706  28
   4  -3 -12 459.776 67.5572  36
  -4   3  12 411.627 60.5872  33
   4  -3 -11 872.154 97.0374  28
   4  -3 -11 706.692 93.9948  36
  -4   3  11 841.614 88.4353  22
  -4   3  11 834.254 93.0635  33
  -4   3  10 31.9902 30.0909  21
   4  -3 -10 32.4165 27.6081  28
  -4   3  10 101.324 41.9192  26
   4  -3 -10 51.7986 38.6843  36
  -4   3  10 85.7128 32.5601  22
  -4   3  10 79.5560 35.4366  33
  -4   3   9 2531.35 171.191  21
   4  -3  -9 2578.70 180.595  28
   4  -3  -9 2326.90 179.994  36
  -4   3   9 2488.35 172.160  26
  -4   3   9 2750.09 192.648  40
  -4   3   9 2533.52 170.880  22
  -4   3   9 2585.28 173.314  33
  -4   3   8 3235.24 194.380  21
   4  -3  -8 2694.17 187.366  28
  -4   3   8 3091.40 192.631  26
  -4   3   8 2719.68 190.551  40
   4  -3  -8 2628.01 197.733  36
  -4   3   8 3050.53 190.309  22
  -4   3   8 3116.81 190.177  33
  -4   3   7 543.245 85.1289  21
   4  -3  -7 592.913 91.8388  28
  -4   3   7 521.070 85.8786  40
  -4   3   7 600.681 87.4551  26
  -4   3   7 605.139 89.9941  22
  -4   3   7 689.057 90.6482  33
  -4   3   6 480.936 75.9570  21
   4  -3  -6 391.985 74.1035  28
  -4   3   6 422.862 65.9854  39
   4  -3  -6 298.334 74.9125  36
  -4   3   6 380.148 67.3408  22
  -4   3   6 417.517 71.1501  33
  -4   3   5 2278.30 152.403  21
   4  -3  -5 2222.95 167.202   3
   4  -3  -5 2567.83 169.979  28
   4  -3  -5 2192.49 162.608   1
  -4   3   5 2251.09 144.856  39
  -4   3   5 2222.72 129.492   2
  -4   3   5 2250.82 144.788   4
   4  -3  -5 2079.70 161.551  36
  -4   3   5 2231.68 154.757  22
  -4   3   5 2378.75 151.373  33
   4  -3  -4 1279.58 122.539   3
  -4   3   4 1313.83 114.365  21
  -4   3   4 1369.34 116.148  43
  -4   3   4 1323.41 116.590  42
  -4   3   4 1366.55 119.449  41
   4  -3  -4 1274.44 121.744   1
  -4   3   4 1268.29 95.9400   2
  -4   3   4 1300.21 106.367   4
  -4   3   3 7832.59 260.735  21
  -4   3   3 7695.94 266.676  43
  -4   3   3 7566.78 264.514  42
  -4   3   3 7618.69 269.163  41
   4  -3  -3 7572.59 289.211   1
  -4   3   3 7469.72 248.465   4
  -4   3   2 10662.5 292.541  21
   4  -3  -2 10696.4 278.648  19
  -4   3   2 10495.8 302.855  43
  -4   3   2 10848.5 311.140  42
  -4   3   2 10813.7 312.437  41
  -4   3   2 10386.5 288.520   4
   4  -3  -2 10530.5 334.271   1
  -4   3   1 4628.09 182.803  21
  -4   3   1 4853.77 171.404  20
   4  -3  -1 4594.36 179.467  19
  -4   3   1 4575.79 193.768  43
  -4   3   1 4600.41 194.997  42
  -4   3   1 4344.18 191.747  41
  -4   3   1 4284.68 186.269   4
   4  -3  -1 4407.34 213.489   1
  -4   3   0 333.631 48.5396  20
   4  -3   0 279.231 55.3027   1
   4  -3   0 397.741 53.9773  19
  -4   3   0 335.252 53.6785  42
  -4   3   0 294.356 49.5917  41
  -4   3   0 360.662 54.4857  43
  -4   3   0 354.134 55.0221   4
  -4   3  -1 2375.25 134.189  43
  -4   3  -1 2579.33 122.283  15
   4  -3   1 2381.16 152.964   1
  -4   3  -1 2387.78 129.618  20
   4  -3   1 2441.76 131.224  19
  -4   3  -1 2325.10 142.502   4
  -4   3  -1 2471.14 138.301  41
  -4   3  -1 2302.81 132.425  42
  -4   3  -2 8760.34 239.010  15
  -4   3  -2 8440.64 251.462  20
  -4   3  -2 8855.95 254.012  41
   4  -3   2 8530.45 289.617   1
  -4   3  -2 8736.62 251.045  43
  -4   3  -2 8380.91 218.930  10
  -4   3  -2 8271.05 274.736   4
  -4   3  -2 8657.97 250.893  42
   4  -3   3 20.3675 24.5498   1
  -4   3  -3 1.83628 13.0455  15
   4  -3   3 68.7663 24.4601   5
  -4   3  -3 8.75074 20.5627  20
  -4   3  -3 23.9015 20.1054  43
  -4   3  -3 7.06509 12.7506  10
  -4   3  -3 29.2030 17.0033  42
  -4   3  -3 37.2688 24.3785  41
  -4   3  -3-24.3234 25.9460   4
  -4   3  -4 7346.61 237.960  15
   4  -3   4 7222.68 266.805   1
   4  -3   4 7328.20 247.548   5
  -4   3  -4 7401.74 249.916  20
  -4   3  -4 7313.57 275.513   4
  -4   3  -4 7488.65 234.639  10
  -4   3  -5 7796.40 258.281  15
  -4   3  -5 7799.95 252.459  10
   4  -3   5 7446.14 252.243   5
  -4   3  -5 8143.23 273.669  20
   4  -3   5 8265.91 275.579  28
  -4   3  -5 7780.47 295.634   4
   4  -3   5 8092.12 275.448  40
   4  -3   5 8073.82 279.324  36
  -4   3  -6 15169.4 372.374  15
   4  -3   6 15112.6 359.031   5
  -4   3  -6 15254.2 380.537  20
   4  -3   6 15664.0 391.144  28
   4  -3   6 15011.4 390.806  27
  -4   3  -6 14338.4 358.334  10
   4  -3   6 15827.3 395.355  40
  -4   3  -6 15874.2 379.600  24
   4  -3   6 15723.3 403.456  36
  -4   3  -7 1334.21 115.770  15
  -4   3  -7 1312.24 117.316  32
  -4   3  -7 1275.28 113.488  20
   4  -3   7 1328.56 119.120  28
   4  -3   7 1224.19 116.850  27
  -4   3  -7 1323.99 114.338  10
   4  -3   7 1361.00 120.889  40
   4  -3   7 1344.51 122.593  36
  -4   3  -8 1335.01 117.279  15
  -4   3  -8 1406.28 120.273  32
  -4   3  -8 1348.74 117.229  20
   4  -3   8 1357.70 122.444  28
   4  -3   8 1393.19 126.901  27
   4  -3   8 1388.92 125.704  40
   4  -3   8 1347.68 125.068  36
  -4   3  -9 1084.25 108.046  15
   4  -3   9 1145.75 104.995  30
  -4   3  -9 1217.66 111.773  20
   4  -3   9 1244.92 122.478  27
   4  -3   9 1076.76 110.799  40
   4  -3   9 1325.86 125.377  36
   4  -3  10 2218.73 145.266  30
   4  -3  10 2328.89 163.797  27
   4  -3  10 2294.42 159.692  40
   4  -3  10 2367.37 167.007  36
   4  -3  11 891.324 99.1391  27
   4  -3  11 935.617 91.0547  30
   4  -3  11 820.129 93.6556  40
  -4   3 -11 837.786 88.8918  37
   4  -3  12 1991.30 121.954  30
   4  -3  12 2052.28 137.784  27
   4  -3  12 2155.42 139.515  40
  -4   3 -12 2326.66 130.480  37
   4  -3  13 1131.25 91.0292  40
   4  -3  14 194.425 33.2691  40
  -4   3 -14 173.118 31.2625  34
   4  -2 -14 11.5434 17.9220  36
   4  -2 -13 0.29385 22.0581  28
   4  -2 -13 70.2322 33.0081  36
  -4   2  13 14.8858 20.0519  33
   4  -2 -12-20.9665 26.9261  28
   4  -2 -12 60.4557 39.4595  36
  -4   2  12-14.3168 24.2444  33
   4  -2 -11 670.953 87.4906  28
   4  -2 -11 668.931 95.5950  36
  -4   2  11 735.913 92.7657  26
  -4   2  11 642.762 87.7111  40
  -4   2  11 827.670 92.1965  22
  -4   2  11 867.201 98.6838  33
   4  -2 -10 3284.93 194.532  28
  -4   2  10 3650.22 209.294  26
  -4   2  10 3360.26 205.091  40
   4  -2 -10 3535.30 218.123  36
  -4   2  10 3515.05 198.896  22
  -4   2  10 3674.30 207.621  33
  -4   2   9 33592.0 621.986  21
   4  -2  -9 33750.1 623.405  28
  -4   2   9 34173.6 649.121  26
  -4   2   9 31535.7 632.641  40
   4  -2  -9 30332.3 651.989  16
   4  -2  -9 32805.5 667.017  36
  -4   2   9 34613.6 634.574  22
  -4   2   9 32534.9 617.646  33
  -4   2   8 16266.7 429.249  21
   4  -2  -8 16121.0 427.367  28
  -4   2   8 16811.7 451.812  26
  -4   2   8 15172.9 432.411  40
   4  -2  -8 15132.4 450.032  16
   4  -2  -8 16007.1 461.077  36
  -4   2   8 16035.4 435.048  22
  -4   2   8 16160.3 427.704  33
  -4   2   7 6613.53 268.895  21
   4  -2  -7 6159.02 259.404  28
  -4   2   7 6376.00 271.844  26
  -4   2   7 6039.93 266.680  40
  -4   2   7 6436.20 244.237  39
   4  -2  -7 5734.15 268.300  16
   4  -2  -7 5975.74 275.164  36
  -4   2   7 6423.68 269.903  22
  -4   2   7 6164.20 257.928  33
  -4   2   6 6036.06 248.588  21
  -4   2   6 5531.19 227.333  43
  -4   2   6 5479.02 227.901  42
  -4   2   6 5713.48 250.168  26
  -4   2   6 5396.00 228.573  41
  -4   2   6 5361.85 242.610  40
  -4   2   6 5857.15 230.621  39
   4  -2  -6 5437.75 249.813  16
   4  -2  -6 5329.76 256.703  36
  -4   2   6 5496.00 244.135  22
  -4   2   6 5880.11 242.201  33
   4  -2  -6 5706.90 268.313   3
  -4   2   5 125.150 35.7471  43
  -4   2   5 78.4254 34.4103  21
   4  -2  -5 95.7101 37.2541   3
  -4   2   5 137.330 39.2472  41
  -4   2   5 120.649 34.4847   4
  -4   2   5 136.403 38.5310  42
   4  -2  -5 58.3878 34.3801  16
  -4   2   4 233.816 39.1153   2
  -4   2   4 269.944 51.4673  21
  -4   2   4 270.418 50.5679  43
  -4   2   4 183.705 42.5916  42
  -4   2   4 212.067 44.5329  41
   4  -2  -4 231.830 51.3471   3
  -4   2   4 286.159 48.2192   4
   4  -2  -4 113.369 31.5629  16
   4  -2  -3 2.82830 16.3392   3
  -4   2   3 26.6731 22.5143  43
  -4   2   3-4.89259 20.3992  42
  -4   2   3-2.67205 17.2018  41
  -4   2   3 39.6459 22.3672   4
   4  -2  -3-3.49621 17.7144  16
  -4   2   2 21379.5 395.699  21
  -4   2   2 21018.1 398.379  42
  -4   2   2 20808.4 400.417  41
  -4   2   2 20040.4 377.340   4
   4  -2  -2 20885.2 413.662  16
  -4   2   2 20860.0 394.594  43
   4  -2  -2 21249.0 396.506   3
  -4   2   1 8599.11 235.704  21
  -4   2   1 8593.92 215.274  20
  -4   2   1 8400.16 247.129  43
  -4   2   1 8358.63 247.816  42
  -4   2   1 8383.30 250.615  41
  -4   2   1 8357.24 243.913   4
   4  -2  -1 8171.38 253.994  16
  -4   2   0 608.593 60.8878  20
  -4   2   0 1066.99 88.1434  43
   4  -2   0 487.917 65.9403   1
  -4   2   0 1076.91 87.8693  42
  -4   2   0 567.162 65.8135   4
  -4   2   0 987.809 85.4558  41
   4  -2   0 562.982 68.3923  16
  -4   2  -1 7524.95 198.188  15
  -4   2  -1 7764.84 221.763  20
  -4   2  -1 8409.09 241.071  43
  -4   2  -1 7220.77 236.740   4
  -4   2  -1 8302.87 239.819  42
  -4   2  -1 8376.12 242.866  41
   4  -2   1 6944.61 239.634   1
   4  -2   1 7157.31 228.741  16
  -4   2  -2 1950.82 108.028  15
  -4   2  -2 2005.23 117.055  20
  -4   2  -2 2114.50 121.158  42
  -4   2  -2 2097.85 120.530  41
   4  -2   2 2042.30 124.114  16
  -4   2  -2 1996.24 129.258   4
  -4   2  -2 2087.65 119.329  43
   4  -2   2 1752.14 121.298   1
  -4   2  -3 13720.8 300.933  15
   4  -2   3 13357.4 332.420   1
  -4   2  -3 13887.2 319.995  20
  -4   2  -3 13027.9 342.493   4
  -4   2  -3 13590.6 304.414  42
  -4   2  -3 13914.9 309.311  41
  -4   2  -3 13807.6 306.830  43
   4  -2   3 13553.9 321.075  16
  -4   2  -4 8999.35 257.920  15
   4  -2   4 8922.52 253.059   5
  -4   2  -4 9277.39 271.850  20
  -4   2  -4 8938.65 295.301   4
  -4   2  -4 9414.84 256.416  43
  -4   2  -4 9765.81 260.814  42
  -4   2  -4 9637.33 260.534  41
   4  -2   4 9585.09 277.200  16
  -4   2  -5 195.306 42.1888  15
  -4   2  -5 174.485 40.6983  20
  -4   2  -5 263.149 47.1581  43
  -4   2  -5 226.485 43.6915  42
  -4   2  -5 267.142 48.7967  41
  -4   2  -5 224.057 53.0584   4
   4  -2   5 185.214 43.7089  16
  -4   2  -6 1161.94 101.202  15
  -4   2  -6 1228.95 108.037  32
  -4   2  -6 1199.30 106.238  20
   4  -2   6 1323.30 111.649  28
  -4   2  -6 1267.86 123.842   4
   4  -2   6 1176.71 114.028  27
   4  -2   6 1232.75 106.430  40
   4  -2   6 1160.79 105.626  16
   4  -2   6 1261.45 111.292  36
   4  -2   6 1342.58 124.143   2
  -4   2  -7 1324.27 114.262  15
  -4   2  -7 1283.47 111.419  32
  -4   2  -7 1236.33 109.226  20
   4  -2   7 1279.87 113.133  28
   4  -2   7 1204.06 118.604  27
   4  -2   7 1307.89 113.982  40
   4  -2   7 1233.48 114.034  16
   4  -2   7 1355.70 121.572  36
  -4   2  -8 90.2538 36.1673  15
  -4   2  -8 62.4789 25.8345  20
   4  -2   8 67.4103 35.5722  27
   4  -2   8 116.163 36.8779  40
   4  -2   8 123.727 44.5885  36
   4  -2   8 40.1890 27.4256  16
  -4   2  -9 274.239 57.2098  15
  -4   2  -9 217.040 42.6912  14
  -4   2  -9 281.034 54.6187  20
   4  -2   9 246.930 59.2018  27
  -4   2  -9 301.871 51.9578  19
   4  -2   9 256.325 54.7765  40
  -4   2  -9 267.323 55.6285  37
   4  -2   9 187.144 51.2991  36
   4  -2  10 250.870 56.0502  27
  -4   2 -10 310.273 57.5740  19
   4  -2  10 292.455 57.0543  40
  -4   2 -10 235.442 53.0811  37
   4  -2  10 356.372 66.1849  36
   4  -2  11 1180.18 118.900  27
   4  -2  11 1246.99 112.751  40
  -4   2 -11 1195.95 104.770  37
   4  -2  12 368.324 62.4193  27
   4  -2  12 440.780 65.6757  40
   4  -2  13 772.022 80.0133  27
   4  -2  13 680.871 69.5476  40
  -4   2 -13 728.361 75.6050  34
  -4   2 -14-18.3977 14.2467  34
   4  -1 -14 382.841 57.1085  36
  -4   1  13 1736.86 115.959  26
   4  -1 -13 2019.10 138.413  36
  -4   1  13 1861.03 123.859  33
  -4   1  12 4216.23 208.039  26
  -4   1  12 4639.25 207.164  40
   4  -1 -12 4490.29 226.083  36
  -4   1  12 4735.79 203.735  22
  -4   1  12 4843.79 221.392  33
  -4   1  11 38.6740 27.0252  40
  -4   1  11 34.6995 31.3464  26
   4  -1 -11 43.5878 34.6666  36
  -4   1  11 24.1614 27.0258  22
  -4   1  11 45.2699 39.7292  33
  -4   1  10 50.6436 36.2666  26
  -4   1  10 60.8525 38.7846  40
   4  -1 -10 156.312 58.3701  18
   4  -1 -10 98.8135 48.6283  36
   4  -1 -10 127.886 53.0639  16
  -4   1  10 72.0153 36.6807  22
  -4   1  10 118.670 47.5276  33
  -4   1   9 4407.08 241.654  26
  -4   1   9 4382.67 225.474  40
   4  -1  -9 3948.21 241.527  18
   4  -1  -9 4308.43 255.511  16
   4  -1  -9 4147.29 238.312  36
  -4   1   9 4515.62 236.138  22
  -4   1   9 4128.44 224.455  33
  -4   1   8 6130.20 278.115  26
  -4   1   8 6004.20 257.280  40
   4  -1  -8 5742.59 282.920  18
   4  -1  -8 5824.54 285.809  16
   4  -1  -8 5738.51 273.610  36
  -4   1   8 6293.73 278.824  23
  -4   1   8 6013.08 267.307  22
  -4   1   8 5897.07 262.541  33
  -4   1   7 12018.5 376.518  26
   4  -1  -7 11632.1 387.443  18
  -4   1   7 12371.6 342.279  39
   4  -1  -7 11653.4 389.137  16
   4  -1  -7 11340.6 375.760  36
  -4   1   7 12254.8 371.954  22
  -4   1   7 12226.1 360.851  33
  -4   1   6 2907.62 179.151  26
   4  -1  -6 2738.60 181.315  18
   4  -1  -6 2786.88 184.003  16
   4  -1  -6 2811.67 180.499  36
   4  -1  -6 2903.88 182.846   3
  -4   1   6 3223.95 184.300  22
  -4   1   6 2904.20 165.281   6
  -4   1   5 6666.28 229.338  43
  -4   1   5 6498.05 226.964  42
  -4   1   5 6607.09 230.794  41
   4  -1  -5 6595.35 266.328  18
  -4   1   5 6760.27 217.330   4
   4  -1  -5 6158.58 263.026  16
   4  -1  -5 6619.23 259.278   3
  -4   1   5 6530.15 237.430   6
   4  -1  -4 83.6619 34.6034   3
  -4   1   4 80.8666 26.1930  43
  -4   1   4 74.0980 27.1514  42
  -4   1   4 16.6703 20.1633  41
   4  -1  -4 84.0116 32.3056  18
  -4   1   4 28.5216 19.6392   4
   4  -1  -4 23.9219 21.1157  16
  -4   1   4 55.7358 23.7131   6
  -4   1   3 1139.96 91.5336  43
  -4   1   3 985.757 85.8644  42
  -4   1   3 911.134 83.3668  41
   4  -1  -3 85.0528 33.2337  18
  -4   1   3 192.760 36.4607   4
   4  -1  -3 87.1774 25.4436   3
   4  -1  -3 76.5621 35.5217  16
  -4   1   2 899.237 79.3287  43
  -4   1   2 1121.15 88.2809  42
  -4   1   2 1129.33 89.2654  41
  -4   1   1 7363.73 200.647  20
  -4   1   1 7143.37 220.906  43
  -4   1   1 7248.16 223.013  42
  -4   1   1 7105.01 214.076   4
  -4   1   1 7089.46 222.054  41
   4  -1  -1 7263.35 249.879  16
   4  -1  -1 7477.44 220.345   3
  -4   1   0 3230.23 139.175  20
  -4   1   0 3015.40 143.496  43
  -4   1   0 3160.47 146.986  42
  -4   1   0 3094.75 145.646  41
   4  -1   0 3079.58 160.817  16
   4  -1   0 3127.44 135.845   3
  -4   1   0 3238.39 124.593  15
  -4   1  -1 120.367 26.8013  15
  -4   1  -1 132.067 32.4487  20
  -4   1  -1 137.200 32.2274  43
  -4   1  -1 173.515 37.5785  42
  -4   1  -1 137.701 34.1895  41
  -4   1  -1 90.7076 26.8729   4
   4  -1   1 77.1937 31.4989  16
  -4   1  -2 5469.17 194.513  20
  -4   1  -2 5272.24 200.881   4
  -4   1  -2 5465.40 191.553  42
  -4   1  -2 5562.28 196.387  41
   4  -1   2 5313.56 195.803   1
   4  -1   2 5220.15 207.358  16
  -4   1  -2 5188.14 187.462  43
  -4   1  -2 5340.01 180.585  15
  -4   1  -3 9517.51 266.438  20
  -4   1  -3 9550.17 284.652   4
  -4   1  -3 9668.14 260.051  43
  -4   1  -3 9532.07 257.942  42
  -4   1  -3 9465.87 258.567  41
   4  -1   3 9471.98 285.875  16
  -4   1  -3 9542.78 256.495  15
  -4   1  -4 79401.1 861.100   4
  -4   1  -4 80282.3 770.818  43
  -4   1  -4 81704.8 776.221  42
  -4   1  -4 81831.6 778.619  41
   4  -1   4 81711.4 859.824  16
   4  -1   4 81922.4 840.155   2
  -4   1  -4 82846.0 795.825  15
  -4   1  -5 851.849 85.3819  20
  -4   1  -5 908.426 97.5346   4
  -4   1  -5 955.972 88.1701  43
  -4   1  -5 1051.63 91.8888  42
  -4   1  -5 981.429 88.8963  41
   4  -1   5 1018.66 101.504  16
   4  -1   5 1279.41 113.868   2
  -4   1  -5 1017.75 94.4309  15
  -4   1  -6 8365.03 278.158  20
  -4   1  -6 7457.40 292.359   4
   4  -1   6 7874.85 294.354  27
  -4   1  -6 7863.53 257.594  43
  -4   1  -6 8097.90 260.882  42
  -4   1  -6 8055.09 259.531  41
   4  -1   6 7882.65 290.087  16
  -4   1  -6 8288.18 280.851  37
   4  -1   6 7899.06 271.347  36
   4  -1   6 7973.85 296.235   2
  -4   1  -6 7868.37 270.269  15
  -4   1  -7 747.414 86.1469  20
   4  -1   7 734.906 94.2760  27
  -4   1  -7 768.903 76.9338  19
   4  -1   7 634.636 85.3192  16
   4  -1   7 691.272 89.2424  25
  -4   1  -7 761.038 91.9176  37
   4  -1   7 626.014 81.8440  36
  -4   1  -7 691.883 85.6327  15
  -4   1  -8 1169.39 110.133  20
   4  -1   8 1130.55 120.160  27
  -4   1  -8 1100.05 96.7902  19
   4  -1   8 1005.07 108.422  25
   4  -1   8 1097.62 117.009  16
  -4   1  -8 1290.05 116.334  37
   4  -1   8 1048.45 106.623  36
  -4   1  -8 1156.35 111.467  15
  -4   1  -9 2651.64 163.575  20
   4  -1   9 2484.41 178.545  27
  -4   1  -9 2412.56 148.674  19
   4  -1   9 2651.62 160.212  40
   4  -1   9 2411.51 167.997  25
   4  -1   9 2728.89 186.938  16
  -4   1  -9 2735.10 167.698  37
   4  -1   9 2529.76 166.323  36
  -4   1  -9 2691.95 172.813  15
   4  -1  10 295.101 63.7639  27
  -4   1 -10 271.270 53.3135  19
   4  -1  10 249.738 52.0920  40
   4  -1  10 103.326 36.1082  25
  -4   1 -10 256.857 54.2685  37
   4  -1  10 323.980 64.6373  36
   4  -1  11 159.940 46.9604  27
   4  -1  11 293.962 54.4156  40
   4  -1  11 284.385 55.9546  25
  -4   1 -11 236.550 51.4161  34
   4  -1  12 1386.81 119.157  27
   4  -1  12 1468.09 105.648  40
   4  -1  12 1514.69 115.730  25
  -4   1 -12 1486.33 116.232  34
   4  -1  13 402.185 57.8177  27
   4  -1  13 422.068 55.1588  25
  -4   1 -13 366.674 53.2374  34
   4   0 -14 1194.87 91.0987  36
  -4   0  13 523.940 69.9560  26
   4   0 -13 522.846 72.4936  36
  -4   0  12 6674.20 270.873  26
   4   0 -12 7343.30 280.313  36
  -4   0  12 7059.07 253.812  22
  -4   0  11 6078.56 278.344  26
   4   0 -11 6215.19 272.506  36
  -4   0  11 5975.79 257.421  22
  -4   0  11 5869.68 263.307  33
  -4   0  10 3170.20 210.703  26
   4   0 -10 3110.69 224.151  18
   4   0 -10 2897.92 212.321  16
  -4   0  10 3182.36 200.718  23
   4   0 -10 3011.32 197.514  36
  -4   0  10 3011.50 193.433  22
  -4   0  10 3133.75 196.110  33
  -4   0   9 78.4860 37.1418  26
   4   0  -9 103.638 52.0137  18
   4   0  -9 117.968 47.6864  36
   4   0  -9 161.614 54.9991  16
  -4   0   9 101.518 49.6099  23
  -4   0   9 174.182 53.4485  22
  -4   0   9 104.170 41.8717  33
  -4   0   8 545.456 90.9108  26
   4   0  -8 376.135 81.1715  18
   4   0  -8 540.559 85.3063  36
   4   0  -8 527.353 90.6304  16
  -4   0   8 626.330 96.6287  23
  -4   0   8 570.566 89.7346  22
  -4   0   8 518.428 81.1866  33
  -4   0   7 907.954 110.768  26
   4   0  -7 783.842 106.580  18
  -4   0   7 799.416 91.8944  39
   4   0  -7 777.575 106.022  16
   4   0  -7 852.141 104.770  36
  -4   0   7 779.817 102.630  23
  -4   0   7 854.233 101.574  22
  -4   0   7 736.063 92.2598  33
   4   0  -6 53.9878 33.3863   3
  -4   0   6 38.3676 38.2182  26
   4   0  -6-8.12147 23.2225  18
  -4   0   6 12.0736 25.0330  39
   4   0  -6 23.4901 29.6608  16
  -4   0   6 0.55537 27.5635  23
  -4   0   6 15.2869 24.8655  22
  -4   0   6 31.5438 23.4606   6
  -4   0   6-5.14886 32.3650  33
   4   0  -5 2909.62 188.164  18
   4   0  -5 2999.70 189.491  16
   4   0  -5 3225.34 181.848   3
  -4   0   5 3086.82 173.174   6
   4   0  -4 235.413 52.2587   3
  -4   0   4 261.894 45.0272  43
  -4   0   4 280.122 46.0173  42
  -4   0   4 294.265 47.3339  41
   4   0  -4 301.584 65.5676  18
   4   0  -4 210.454 54.4225  16
  -4   0   4 370.480 58.5430   6
  -4   0   3 51401.2 596.844  43
  -4   0   3 51659.3 600.235  42
  -4   0   3 51000.9 597.127  41
   4   0  -3 51950.6 739.999  18
   4   0  -3 51295.2 731.953  16
   4   0  -3 52983.8 673.504   3
  -4   0   3 49998.1 645.659   6
  -4   0   2 160010. 1050.32  42
  -4   0   2 161500. 1053.45  43
  -4   0   2 159255. 1052.09  41
   4   0  -2 159913. 1255.13  16
   4   0  -2 161091. 1110.00   3
  -4   0   1 57391.0 612.236  20
  -4   0   1 59866.8 643.930  43
  -4   0   1 58879.5 638.562  42
  -4   0   1 59460.7 645.403  41
   4   0  -1 57262.4 738.317  16
  -4   0   0 2291.48 125.375  20
  -4   0   0 2471.81 130.862  42
  -4   0   0 2553.89 133.625  43
  -4   0   0 2509.55 134.007  41
   4   0   0 2164.20 141.620  16
  -4   0   0 2368.34 115.684  15
  -4   0  -1 16758.8 348.455  20
  -4   0  -1 17531.6 351.656  43
  -4   0  -1 17167.5 331.473   4
  -4   0  -1 17085.9 346.228  42
  -4   0  -1 17071.8 347.494  41
   4   0   1 17615.6 398.700  16
  -4   0  -1 17312.4 329.817  15
  -4   0  -2 4361.38 184.657  20
  -4   0  -2 4798.87 189.026  43
  -4   0  -2 4535.81 180.557   4
  -4   0  -2 4689.63 185.748  42
  -4   0  -2 4667.02 185.523  41
   4   0   2 4742.77 211.150  16
  -4   0  -2 4326.32 174.324  15
  -4   0  -3 330.727 55.3199  20
  -4   0  -3 383.116 55.7620  43
  -4   0  -3 443.972 59.9668  42
  -4   0  -3 456.959 60.8735  41
  -4   0  -3 353.970 53.6570   4
   4   0   3 450.198 67.8905  16
  -4   0  -3 346.173 53.9190  15
  -4   0  -4 1021.39 96.1526  20
  -4   0  -4 999.606 96.1110   4
  -4   0  -4 1003.02 92.5165  43
  -4   0  -4 1015.31 92.2621  42
  -4   0  -4 997.361 92.1742  41
   4   0   4 952.588 101.231  16
  -4   0  -4 993.749 93.1125  15
  -4   0  -5 3.47590 14.6236  15
  -4   0  -5 55.6061 28.7271  20
  -4   0  -5-1.10899 15.2990  43
   4   0   5 13.0088 22.7689  27
  -4   0  -5 24.2746 18.5971  42
  -4   0  -5 38.1623 24.1391  41
  -4   0  -5 40.2355 31.3012   4
  -4   0  -5 5.84059 25.1457  37
   4   0   5 26.3209 23.2120  16
  -4   0  -6 509.478 74.9833  20
   4   0   6 532.912 79.8439  27
   4   0   6 726.701 93.3590  25
   4   0   6 558.591 82.4972  16
  -4   0  -6 495.800 75.4091  37
  -4   0  -6 519.457 75.0103  15
  -4   0  -7 1831.94 141.276  20
   4   0   7 1766.12 146.980  27
   4   0   7 1511.01 137.617  25
   4   0   7 1799.82 150.904  16
  -4   0  -7 1616.29 132.910  37
  -4   0  -7 1665.36 132.983  34
  -4   0  -7 1722.94 139.008  15
  -4   0  -8 6741.00 269.447  20
   4   0   8 6555.22 284.338  27
   4   0   8 6114.20 275.138  25
   4   0   8 6544.15 293.249  16
  -4   0  -8 6707.48 268.422  37
   4   0   8 6287.29 261.722  35
  -4   0  -8 6554.91 268.591  34
  -4   0  -8 6804.64 280.967  15
   4   0   9 5836.61 270.389  27
   4   0   9 5610.61 266.435  25
   4   0   9 6023.32 283.183  16
  -4   0  -9 5881.67 248.563  37
   4   0   9 5821.64 253.474  35
  -4   0  -9 5939.85 258.931  34
  -4   0  -9 5955.46 263.295  15
   4   0  10 10492.0 354.029  27
   4   0  10 10777.5 357.084  25
  -4   0 -10 10593.9 318.016  37
   4   0  10 10271.4 331.750  35
  -4   0 -10 10446.9 337.062  34
   4   0  11 492.193 73.3056  25
   4   0  11 502.621 76.0390  27
   4   0  11 505.164 72.2786  35
  -4   0 -11 443.764 70.7227  34
   4   0  12 386.657 60.9080  27
   4   0  12 359.880 58.7900  25
  -4   0 -12 417.159 57.9760  38
   4   0  12 434.947 60.3008  35
  -4   0 -12 367.253 58.4472  34
   4   0  13 1366.67 93.9792  25
  -4   0 -13 1489.76 90.7830  38
   4   0  13 1385.71 87.4701  35
  -4   0 -13 1360.42 95.3935  34
  -4  -1  13 4.06142 25.7478  26
  -4  -1  12 10.7033 31.9446  26
  -4  -1  11 39.6049 37.4279  26
  -4  -1  11 2.21110 27.7723  23
  -4  -1  11 10.6585 36.1957  22
  -4  -1  10 952.170 117.633  26
   4   1 -10 1018.29 130.174  18
  -4  -1  10 812.560 107.734  23
  -4  -1  10 802.265 102.988  22
  -4  -1   9 237.730 65.7788  26
   4   1  -9 149.912 61.9044  18
   4   1  -9 81.6738 40.6549  16
  -4  -1   9 110.514 51.1622  23
  -4  -1   9 51.4382 35.6617  22
  -4  -1   8 2143.08 176.856  26
   4   1  -8 2120.71 185.720  18
   4   1  -8 2276.19 193.750   9
  -4  -1   8 2045.43 148.569  39
   4   1  -8 2091.26 178.963  16
  -4  -1   8 2282.00 183.682  23
  -4  -1   8 2159.01 168.050  22
  -4  -1   7 115.510 49.1098  26
   4   1  -7 193.487 63.2121   9
   4   1  -7 127.537 49.0483  18
   4   1  -7 94.8592 44.5016  16
  -4  -1   7 87.7828 48.3346  23
  -4  -1   7 169.625 52.0829  22
  -4  -1   6 407.249 76.4619  26
   4   1  -6 514.603 88.3680   9
   4   1  -6 456.236 83.6166  18
  -4  -1   6 437.473 71.7069  39
   4   1  -6 437.718 80.0719  16
  -4  -1   6 509.769 87.5211  23
  -4  -1   6 455.656 79.8882  22
   4   1  -5 369.131 65.1690   3
   4   1  -5 383.154 72.5000   9
   4   1  -5 353.588 73.7151  18
  -4  -1   5 362.833 66.0915  39
   4   1  -5 293.131 68.6476  16
  -4  -1   5 519.295 87.0180  23
  -4  -1   5 349.781 68.0865  22
  -4  -1   5 327.792 59.5777   6
   4   1  -4 2743.24 183.745   9
   4   1  -4 2896.67 193.557  18
   4   1  -4 2818.97 187.167  16
   4   1  -4 3281.47 183.765   3
  -4  -1   4 2850.90 172.077   6
   4   1  -3 500.199 80.6022  46
  -4  -1   3 460.808 59.0873  43
  -4  -1   3 450.610 59.3617  42
  -4  -1   3 451.388 58.6673  41
   4   1  -3 414.197 73.2145   9
   4   1  -3 451.337 78.5262  16
  -4  -1   3 499.743 70.0294   6
  -4  -1   2 1341.73 101.303  20
   4   1  -2 1162.85 114.948  46
  -4  -1   2 1642.14 110.707  43
  -4  -1   2 1704.33 112.863  42
   4   1  -2 1272.90 115.642   9
  -4  -1   2 1630.97 110.286  41
   4   1  -2 1464.84 127.780  16
  -4  -1   2 1459.75 115.295   6
  -4  -1   1 145.629 37.2489  20
  -4  -1   1 157.347 38.2872  43
  -4  -1   1 115.999 28.3801  42
  -4  -1   1 95.6033 26.4856  41
   4   1  -1 143.051 47.6766  16
  -4  -1   0 1805.17 124.336  20
   4   1   0 1707.38 131.480  46
  -4  -1   0 1774.76 119.463  43
  -4  -1   0 1720.89 117.601  42
  -4  -1   0 1651.25 115.449  41
   4   1   0 1615.29 129.749  16
  -4  -1   0 1579.27 108.878  15
  -4  -1  -1 9583.30 290.699  20
  -4  -1  -1 9349.47 277.226  43
  -4  -1  -1 9546.58 278.586  42
  -4  -1  -1 9712.95 281.870  41
   4   1   1 9643.86 311.896  16
  -4  -1  -1 9749.00 279.101  15
  -4  -1  -2 1942.39 136.456  20
  -4  -1  -2 1749.74 123.403  43
  -4  -1  -2 1871.44 127.027  42
  -4  -1  -2 1812.74 125.305  41
   4   1   2 1845.96 139.462  16
  -4  -1  -2 1868.64 128.320  15
  -4  -1  -3 2582.20 161.368  20
  -4  -1  -3 2457.29 149.705  43
  -4  -1  -3 2465.50 149.896  42
  -4  -1  -3 2488.11 149.834  41
   4   1   3 2572.82 166.456  16
  -4  -1  -3 2490.71 154.151  15
  -4  -1  -4 1466.53 124.696  32
  -4  -1  -4 1274.39 117.948  20
   4   1   4 1379.35 119.642  27
   4   1   4 1253.13 123.981  25
   4   1   4 1131.99 115.714  16
  -4  -1  -4 1242.24 114.166  37
  -4  -1  -4 1252.55 113.936  15
  -4  -1  -5 2325.59 161.476  20
   4   1   5 2346.85 158.832  27
   4   1   5 2292.43 167.620  25
   4   1   5 2420.98 170.617  16
  -4  -1  -5 2406.76 163.409  37
  -4  -1  -5 2276.97 151.083  34
  -4  -1  -5 2259.22 159.465  15
  -4  -1  -6 186.791 49.2410  15
  -4  -1  -6 170.362 50.5004  20
   4   1   6 166.978 48.3094  27
   4   1   6 173.469 53.9539  25
   4   1   6 57.4065 28.2524  16
  -4  -1  -6 167.114 45.8544  34
  -4  -1  -7 3334.55 197.370  20
   4   1   7 2815.06 181.043  27
   4   1   7 2862.61 193.405  25
   4   1   7 3117.85 205.640  16
  -4  -1  -7 3028.97 187.411  37
  -4  -1  -7 3187.17 189.902  34
  -4  -1  -7 2943.87 192.612  15
  -4  -1  -8 30388.7 582.970  20
   4   1   8 29849.2 589.028  27
   4   1   8 30093.3 626.123  25
   4   1   8 31122.7 641.678  16
  -4  -1  -8 30387.5 577.800  37
  -4  -1  -8 29791.8 585.572  34
  -4  -1  -8 31018.8 620.448  15
   4   1   9 6970.65 279.027  27
   4   1   9 7121.64 299.285  25
  -4  -1  -9 6924.14 265.425  37
   4   1   9 6739.57 275.428  35
  -4  -1  -9 6933.10 281.978  34
   4   1  10 3576.57 191.011  27
   4   1  10 3739.63 206.664  25
  -4  -1 -10 3415.81 172.592  37
   4   1  10 3437.53 188.042  35
  -4  -1 -10 3496.16 192.191  34
   4   1  11 648.851 75.8670  27
   4   1  11 747.286 86.2479  25
   4   1  11 711.497 80.1638  35
  -4  -1 -11 670.458 78.7766  34
   4   1  12 2020.24 113.915  27
   4   1  12 2073.11 127.069  25
   4   1  12 1965.22 114.622  35
  -4  -1 -12 2045.70 121.215  34
   4   2 -13 1381.51 100.545  27
  -4  -2  13 1492.51 108.489  26
  -4  -2  12 578.821 78.7833  26
  -4  -2  12 606.517 75.8766  23
  -4  -2  11 139.014 52.0439  26
  -4  -2  11 139.156 45.8231  23
  -4  -2  10 956.840 117.555  26
  -4  -2  10 1153.00 125.894  23
  -4  -2   9 862.951 111.006  26
   4   2  -9 1018.57 129.736  18
  -4  -2   9 882.348 118.552  23
  -4  -2   9 845.584 107.671  22
   4   2  -8 50.8831 38.0893  46
  -4  -2   8 21.9247 39.7602  26
   4   2  -8 43.4176 45.1848  18
  -4  -2   8 31.6613 35.1974  39
   4   2  -8 55.3397 36.1277  16
  -4  -2   8 43.7164 43.2468  23
  -4  -2   8 36.5213 29.9402  22
   4   2  -7 21.9488 43.5937  46
  -4  -2   7 33.6789 33.6337  26
   4   2  -7 74.1707 44.1402   9
   4   2  -7 97.3357 49.0278  18
  -4  -2   7 124.314 41.9520  39
   4   2  -7 93.8739 46.3124  16
  -4  -2   7 88.6507 51.7277  23
  -4  -2   7 99.7878 48.0437  22
  -4  -2   6 56.0868 46.6133  32
   4   2  -6 52.9956 43.0251  46
  -4  -2   6 83.1861 41.6832  26
   4   2  -6 139.748 62.5810   9
  -4  -2   6 38.6291 32.8581  39
   4   2  -6 19.3107 30.1605  16
  -4  -2   6 27.2711 33.3967  23
  -4  -2   6 44.2998 38.4058  22
  -4  -2   5 1003.55 110.057  32
   4   2  -5 927.294 124.609  46
   4   2  -5 1108.96 118.913  27
  -4  -2   5 916.231 107.197  26
   4   2  -5 1103.85 131.960   9
  -4  -2   5 1068.10 116.114  39
  -4  -2   5 961.340 106.434  24
  -4  -2   5 900.510 116.793  23
  -4  -2   5 1033.48 115.831  22
  -4  -2   4 4181.42 223.888  32
   4   2  -4 4398.22 258.792  46
   4   2  -4 4247.15 246.028   9
  -4  -2   4 4092.38 220.227  39
  -4  -2   4 4270.86 220.809  24
   4   2  -4 5093.83 255.027  16
  -4  -2   4 4428.85 246.632  23
  -4  -2   4 4063.01 216.597  22
  -4  -2   3-18.4652 25.4164  32
   4   2  -3-19.8885 30.1024  46
  -4  -2   3 14.3563 35.2947  39
  -4  -2   3 22.1067 23.6081  24
   4   2  -3 30.8488 33.4899  16
  -4  -2   3-1.77481 26.0208  22
  -4  -2   2 1874.04 151.258  32
  -4  -2   2 1915.25 136.247  20
   4   2  -2 1729.44 143.008  12
   4   2  -2 1918.27 165.951  46
  -4  -2   2 1828.63 142.852  39
  -4  -2   2 1862.00 149.261  24
   4   2  -2 1785.58 144.501  16
  -4  -2   2 1904.74 140.668   6
  -4  -2   1 1643.05 140.345  32
  -4  -2   1 1562.89 125.524  20
   4   2  -1 1781.81 153.973  46
  -4  -2   1 1567.84 118.329  43
  -4  -2   1 1832.12 127.593  42
  -4  -2   1 1702.36 122.980  41
  -4  -2   1 1935.00 144.207  39
   4   2  -1 1469.94 138.198  25
  -4  -2   1 1454.60 129.929  24
   4   2  -1 1579.99 134.208  16
  -4  -2   1 1751.03 133.390   6
  -4  -2   0 4.52478 31.2953  32
  -4  -2   0 3.18703 15.7624  15
  -4  -2   0 1.63956 17.2597  20
   4   2   0 44.8828 32.7340  46
  -4  -2   0 19.7934 16.5328  43
  -4  -2   0 21.8881 15.6652  42
  -4  -2   0 23.8415 25.9947  41
  -4  -2   0-17.5307 27.6458  39
   4   2   0 7.39260 27.2960  25
  -4  -2   0 60.6628 31.2266  37
   4   2   0 2.98694 29.1525  16
  -4  -2   0 76.7314 37.0070   6
  -4  -2  -1 7229.52 292.897  32
   4   2   1 6572.24 277.927  31
  -4  -2  -1 7265.62 283.212  20
   4   2   1 7264.86 293.746  46
  -4  -2  -1 6925.90 259.387  43
  -4  -2  -1 6721.60 255.164  42
  -4  -2  -1 7071.50 261.319  41
   4   2   1 6912.70 292.259  25
  -4  -2  -1 7220.77 290.632  24
   4   2   1 7374.36 285.015  16
  -4  -2  -1 7192.75 273.685  37
  -4  -2  -1 6971.28 263.791  15
  -4  -2  -2 4309.51 225.939  32
   4   2   2 4251.69 224.899  31
  -4  -2  -2 4390.39 226.700  20
   4   2   2 4526.44 238.972  25
  -4  -2  -2 4608.71 230.440  24
   4   2   2 4504.30 227.592  16
  -4  -2  -2 4261.78 217.581  37
  -4  -2  -2 4483.86 219.377  15
  -4  -2  -3 8573.85 316.958  32
   4   2   3 8296.37 315.304  31
  -4  -2  -3 8750.27 325.904  20
   4   2   3 8472.61 327.673  25
  -4  -2  -3 8614.38 313.066  24
   4   2   3 8782.60 318.842  16
  -4  -2  -3 8606.25 312.519  37
  -4  -2  -3 8545.30 315.077  15
   4   2   4 2746.22 182.896  31
  -4  -2  -4 2865.46 192.010  20
   4   2   4 2546.49 176.975  16
  -4  -2  -4 2849.19 185.696  37
   4   2   4 2894.94 194.433  25
  -4  -2  -4 2708.71 168.518  34
  -4  -2  -4 2647.63 180.660  15
   4   2   5 4400.34 229.774  31
  -4  -2  -5 4395.26 237.623  20
   4   2   5 4409.59 240.399  25
   4   2   5 4448.22 237.434  16
  -4  -2  -5 4224.55 224.993  37
  -4  -2  -5 4445.75 223.458  34
  -4  -2  -5 4286.90 235.455  15
   4   2   6 745.507 97.8089  31
  -4  -2  -6 597.255 91.4887  20
   4   2   6 591.890 91.6760  25
  -4  -2  -6 686.159 95.1291  37
   4   2   6 613.675 90.3568  16
  -4  -2  -6 724.872 92.7109  34
  -4  -2  -6 629.029 95.0004  15
   4   2   7 55.7842 34.7540  31
  -4  -2  -7 18.5362 30.1380  20
   4   2   7 36.6708 38.0688  25
  -4  -2  -7-22.7512 41.2523  37
  -4  -2  -7 107.627 42.6492  34
   4   2   8 2531.33 177.920  25
  -4  -2  -8 2495.40 162.891  37
  -4  -2  -8 2456.73 167.567  34
   4   2   9 539.510 82.1071  25
  -4  -2  -9 441.818 67.3409  37
   4   2   9 398.934 69.3570  35
  -4  -2  -9 448.655 72.0038  34
   4   2  10 102.434 37.7993  25
   4   2  10 99.1633 36.0427  35
  -4  -2 -10 93.8426 32.6787  34
   4   2  11 22.3951 22.0203  25
   4   2  11 4.41151 18.2391  35
  -4  -2 -11 9.05589 23.4187  34
  -4  -3  12-10.1831 20.4955  26
  -4  -3  12 13.6292 24.2772  23
  -4  -3  11 590.548 79.4775  26
  -4  -3  11 617.538 81.1070  23
  -4  -3  10 1381.85 127.682  26
  -4  -3  10 1258.74 125.674  23
  -4  -3   9 157.037 50.2456  26
  -4  -3   9 203.318 59.1312  23
  -4  -3   8 64.3473 38.3665  26
  -4  -3   8 67.8501 41.0304  23
  -4  -3   7 228.292 57.0016  32
  -4  -3   7 190.324 58.4173  26
  -4  -3   7 180.911 61.9503  23
  -4  -3   6 36.0890 29.3261  32
   4   3  -6 78.6821 49.7198  46
  -4  -3   6 35.3661 35.1724  26
  -4  -3   6-0.13881 27.2621  39
  -4  -3   6 16.4157 22.8851  24
  -4  -3   6 52.8271 31.0441  23
  -4  -3   5 481.272 85.6081  32
   4   3  -5 423.894 86.3537  12
   4   3  -5 591.097 106.938  46
  -4  -3   5 424.516 76.1479  39
  -4  -3   5 441.481 77.1701  24
  -4  -3   5 433.008 86.0249  23
  -4  -3   4 53.7993 33.7832  32
   4   3  -4 50.5335 30.8259  12
   4   3  -4 60.0094 46.2002  46
  -4  -3   4 54.9586 29.6257  39
  -4  -3   4 27.7476 36.1631  24
  -4  -3   4 101.616 51.2742  23
  -4  -3   3 1529.70 146.996  32
   4   3  -3 1570.32 150.473  12
   4   3  -3 1681.61 169.882  46
  -4  -3   3 1331.01 130.310  39
   4   3  -3 1568.15 156.277  25
  -4  -3   3 1525.56 142.987  24
  -4  -3   3 1594.92 147.658  23
  -4  -3   2 13.9291 33.1814  32
  -4  -3   2 51.5990 31.1714  29
  -4  -3   2 19.7519 25.4514  20
   4   3  -2 5.69525 38.6098  46
  -4  -3   2-2.58338 40.7528  39
   4   3  -2 27.8038 39.4629  25
  -4  -3   2 36.8099 38.2205  24
  -4  -3   2 21.8108 29.9153  37
   4   3  -2-3.77534 38.1538  16
  -4  -3   1 54.4101 30.2388  32
   4   3  -1 83.3629 42.4867  21
  -4  -3   1 115.738 38.6657  29
  -4  -3   1 67.2235 35.4815  20
   4   3  -1 136.690 60.0798  46
  -4  -3   1 63.7524 32.0654  39
   4   3  -1 117.706 47.0729  25
  -4  -3   1 161.610 51.3802  24
  -4  -3   1 83.5792 34.5004  37
   4   3  -1 137.906 44.2415  16
  -4  -3   0 435.299 82.6030  32
  -4  -3   0 378.393 66.9897  15
   4   3   0 424.728 82.6106  21
   4   3   0 442.614 81.9262  31
  -4  -3   0 442.988 72.7552  29
  -4  -3   0 403.316 74.8625  20
   4   3   0 523.545 88.7786  46
   4   3   0 358.193 71.5197  25
  -4  -3   0 387.871 73.0569  24
  -4  -3   0 466.057 76.7684  37
   4   3   0 482.143 75.1406  16
  -4  -3  -1 3769.47 225.459  32
   4   3   1 4126.60 240.065  21
   4   3   1 3751.59 226.811  31
  -4  -3  -1 4052.75 232.764  20
  -4  -3  -1 3778.83 207.846  29
   4   3   1 4028.97 235.635  46
   4   3   1 3844.26 225.820  25
  -4  -3  -1 3713.66 221.274  24
   4   3   1 4065.90 215.011  16
  -4  -3  -1 3865.44 216.977  37
  -4  -3  -1 4042.96 221.215  15
  -4  -3  -2 2022.58 160.662  32
   4   3   2 2164.98 168.553  21
   4   3   2 2077.78 166.879  31
  -4  -3  -2 2040.73 168.027  20
  -4  -3  -2 2044.65 156.800  29
   4   3   2 2224.41 172.092  46
   4   3   2 2017.06 162.415  25
  -4  -3  -2 1832.92 154.172  24
   4   3   2 2011.42 153.865  16
  -4  -3  -2 2086.01 162.864  37
  -4  -3  -2 2009.57 161.461  15
  -4  -3  -3 1047.67 114.963  32
   4   3   3 984.505 117.056  31
  -4  -3  -3 926.368 117.194  20
   4   3   3 1146.77 123.555  25
  -4  -3  -3 1093.03 116.431  24
  -4  -3  -3 948.606 111.624  37
  -4  -3  -3 987.808 115.293  15
  -4  -3  -4 204.654 56.4009  15
   4   3   4 115.370 39.9111  31
  -4  -3  -4 225.886 58.7847  20
   4   3   4 186.655 55.0673  25
  -4  -3  -4 179.524 52.8521  37
  -4  -3  -4 258.046 57.7151  34
   4   3   5 4025.33 224.974  31
  -4  -3  -5 3800.11 225.620  20
   4   3   5 3990.91 226.789  25
  -4  -3  -5 4088.62 223.911  37
  -4  -3  -5 3987.44 213.121  34
   4   3   6 1505.66 133.815  31
  -4  -3  -6 1461.03 136.190  20
   4   3   6 1698.22 144.326  25
  -4  -3  -6 1468.86 130.693  37
  -4  -3  -6 1373.66 126.410  34
   4   3   7 1285.38 116.839  31
   4   3   7 1409.09 126.889  25
  -4  -3  -7 1240.75 115.149  37
  -4  -3  -7 1213.51 115.813  34
   4   3   8 22.3040 21.2244  31
   4   3   8 6.69855 25.2341  25
  -4  -3  -8 38.5338 27.3514  37
  -4  -3  -8-1.50346 25.4278  34
   4   3   9-6.03903 25.4423  31
   4   3   9 16.9558 23.8002  25
   4   3   9-0.27696 20.1852  35
  -4  -3  -9 8.04800 20.0258  34
  -4  -3 -10 1003.83 81.2665  29
   4   3  10 1018.31 81.9484  25
   4   3  10 979.556 78.9049  35
  -4  -3 -10 901.618 77.1416  34
  -4  -4  11 11.5019 19.8417  23
   4   4 -10 242.724 48.7556  25
  -4  -4  10 175.436 43.9615  23
   4   4  -9 412.945 65.3271  25
  -4  -4   9 260.935 59.2637  23
   4   4  -8 32.0831 37.1559  25
  -4  -4   8-65.8736 44.3969  23
  -4  -4   7 129.841 46.0655  32
   4   4  -7 200.409 58.7788  25
  -4  -4   7 141.818 54.1396  23
  -4  -4   6 15.1558 28.2711  32
   4   4  -6 21.4769 32.0894  21
   4   4  -6 92.2737 48.7849  25
  -4  -4   6 20.2012 26.1610  24
  -4  -4   6 8.04612 36.6826  23
  -4  -4   5 166.298 55.5554  32
   4   4  -5 240.968 64.1123  21
   4   4  -5 311.551 70.0613  25
  -4  -4   5 281.733 64.1959  24
  -4  -4   5 305.791 73.7331  23
  -4  -4   4 6646.17 304.410  32
   4   4  -4 6846.44 327.053  21
  -4  -4   4 7170.87 269.610  29
   4   4  -4 7266.72 299.877  25
  -4  -4   4 6632.64 294.699  24
  -4  -4   4 7031.12 305.072  23
  -4  -4   3 261.771 62.7393  32
   4   4  -3 238.972 70.4421  21
  -4  -4   3 259.739 55.3285  29
   4   4  -3 227.324 61.1811  25
  -4  -4   3 243.966 64.8574  24
  -4  -4   3 262.335 57.5939  37
  -4  -4   2 3283.13 218.055  32
   4   4  -2 3467.36 234.975  21
   4   4  -2 3498.16 224.466  31
  -4  -4   2 3177.73 200.851  20
  -4  -4   2 3413.99 193.150  29
   4   4  -2 3439.16 206.402  25
  -4  -4   2 3196.69 211.947  24
  -4  -4   2 3437.86 201.131  37
  -4  -4   1 983.789 119.077  32
   4   4  -1 1080.30 131.535  21
   4   4  -1 1135.69 130.288  31
  -4  -4   1 1024.19 116.960  20
  -4  -4   1 1118.47 112.389  29
   4   4  -1 1035.30 115.542  25
  -4  -4   1 1116.59 127.532  24
  -4  -4   1 1169.48 120.172  37
  -4  -4   0 2.42484 26.2390  32
   4   4   0-67.2013 43.5980  21
   4   4   0 2.46000 26.3051  31
  -4  -4   0 1.40725 26.9359  29
  -4  -4   0 54.8503 40.1158  20
   4   4   0-0.26913 29.2324  25
  -4  -4   0 28.9679 33.2181  24
  -4  -4   0 18.8524 24.5753  37
  -4  -4  -1 128.965 49.2766  32
   4   4   1 154.536 54.2267  21
   4   4   1 169.797 58.0143  31
  -4  -4  -1 182.558 50.5880  29
  -4  -4  -1 172.610 52.7316  20
   4   4   1 150.195 44.9899  25
  -4  -4  -1 174.564 53.1114  24
  -4  -4  -1 184.298 50.1639  37
  -4  -4  -2 397.027 71.1729  32
   4   4   2 573.302 93.6215  21
   4   4   2 480.271 81.2105  31
  -4  -4  -2 605.579 96.2830  20
  -4  -4  -2 471.211 75.6637  29
   4   4   2 474.899 77.6305  25
  -4  -4  -2 512.523 81.5768  24
  -4  -4  -2 539.995 86.6141  37
   4   4   3 2605.69 182.221  31
  -4  -4  -3 2620.43 175.937  29
   4   4   3 2585.74 170.198  25
  -4  -4  -3 2344.28 160.763  24
  -4  -4  -3 2629.97 182.098  37
   4   4   4 328.006 69.1960  31
  -4  -4  -4 396.012 72.6817  29
   4   4   4 350.164 65.8770  25
  -4  -4  -4 354.760 66.9853  37
  -4  -4  -4 316.361 58.3627  34
   4   4   5 78.8629 38.1144  31
  -4  -4  -5 21.5656 27.1059  29
   4   4   5 76.8935 35.7985  25
  -4  -4  -5 67.6093 31.3384  37
  -4  -4  -5 26.5999 22.9216  34
   4   4   6 72.3064 33.4097  31
  -4  -4  -6 81.0016 32.2659  29
   4   4   6 92.8423 33.5066  25
  -4  -4  -6 51.2111 32.1501  37
  -4  -4  -6 12.8933 23.3421  34
   4   4   7 718.121 79.0722  31
  -4  -4  -7 689.671 76.9652  29
   4   4   7 825.238 79.7946  25
  -4  -4  -7 730.267 74.4523  37
  -4  -4  -7 681.917 74.2564  34
   4   4   8 402.459 51.6014  31
  -4  -4  -8 397.967 52.8524  29
   4   4   8 457.827 52.7489  25
   4   4   8 405.030 53.6642  35
  -4  -4  -8 392.808 51.5186  34
   4   5  -9 345.878 48.1091  31
  -4  -5   9 338.144 55.4976  23
   4   5  -8 243.019 47.2003  31
  -4  -5   8 331.747 59.4996  23
   4   5  -7 84.0878 37.4282  31
  -4  -5   7 37.0447 31.5067  23
  -4  -5   6-6.79317 26.7622  32
   4   5  -6 24.4513 26.9262  31
  -4  -5   6 6.16267 27.7062  23
  -4  -5   5 171.012 44.8679  32
   4   5  -5 189.341 50.8461  31
  -4  -5   5 186.847 42.1412  29
  -4  -5   5 150.461 43.6355  23
  -4  -5   4 1430.80 131.473  32
   4   5  -4 1616.86 138.569  31
  -4  -5   4 1558.73 117.301  29
  -4  -5   4 1410.61 110.887  37
  -4  -5   3 149.440 52.1372  32
   4   5  -3 180.982 54.0291  31
  -4  -5   3 167.612 41.8566  29
  -4  -5   3 213.786 51.7573  37
  -4  -5   2 84.7022 42.5413  32
   4   5  -2 131.220 47.1317  31
  -4  -5   2 78.7451 33.1076  29
  -4  -5   2 102.545 39.1387  37
   4   5  -1 29.3021 31.7790  33
  -4  -5   1 39.4238 31.4005  32
   4   5  -1 71.3657 30.0436  31
  -4  -5   1 103.272 37.1832  29
  -4  -5   1 65.1163 30.6652  37
   4   5   0 149.976 40.9080  33
  -4  -5   0 122.011 44.3507  32
   4   5   0 120.718 43.1945  31
  -4  -5   0 151.909 42.9025  29
  -4  -5   0 149.902 43.8748  37
  -4  -5  -1 1099.68 105.174  32
   4   5   1 1263.33 119.503  31
  -4  -5  -1 1194.81 109.719  29
  -4  -5  -1 1230.31 114.209  37
   4   5   2 6988.98 266.806  31
  -4  -5  -2 6821.43 251.342  29
  -4  -5  -2 6309.31 248.072  37
   4   5   3 759.928 86.7042  31
  -4  -5  -3 863.034 88.7833  29
  -4  -5  -3 839.430 89.0089  37
   4   5   4 735.924 80.2610  31
  -4  -5  -4 683.629 76.1667  29
  -4  -5  -4 583.592 69.8949  37
   4   5   5 1018.15 86.9086  31
  -4  -5  -5 1005.88 84.1175  29
  -4  -5  -5 1033.92 83.9372  37
  -4  -5  -5 960.339 74.1820  34
  -4  -5  -6 189.134 36.5060  29
   4   6  -5 1397.04 92.9230  33
   4   6  -4 1021.79 80.7567  31
   4   6  -4 1076.75 84.7716  33
   4   6  -3-7.38179 20.6865  33
   4   6  -3-17.8892 18.0994  31
  -4  -6   3-13.1177 16.1727  29
   4   6  -2 23.6234 20.3673  33
   4   6  -2 3.24678 23.6212  31
  -4  -6   2-8.31335 21.2011  29
  -4  -6   2 19.3052 19.2416  37
   4   6  -1 8.57630 17.5840  31
  -4  -6   1 41.0603 22.7750  29
  -4  -6   1 23.0769 18.6729  37
   4   6   0 142.037 34.7793  31
  -4  -6   0 166.906 35.0754  29
  -4  -6   0 109.856 30.5895  37
   4   6   1 1934.01 108.878  31
  -4  -6  -1 2074.88 108.499  29
  -4  -6  -1 1912.06 106.608  37
  -5   8   1 285.154 40.6610  39
  -5   8   0-5.72069 15.8561  39
   5  -8   0-20.3591 19.7667  38
   5  -8   1 141.755 28.7884  28
  -5   8  -1 147.694 30.6374  39
   5  -8   1 151.735 31.4193  38
  -5   8  -1 181.612 32.6695  24
   5  -8   2 0.98837 17.0280  28
  -5   8  -2 26.0587 18.0590  39
   5  -8   2-19.2302 22.4848  38
  -5   8  -2 8.67531 13.1577  24
  -5   8  -3 156.685 30.6686  24
  -5   8  -4 58.0165 24.3262  24
   5  -7  -6 53.2749 21.0593  28
  -5   7   6-15.2999 16.4895  22
   5  -7  -5 20.2641 20.4149  28
  -5   7   5-5.72286 19.3338  39
   5  -7  -4 632.534 70.2676  28
  -5   7   4 636.117 66.3084  26
  -5   7   4 613.433 64.4969  39
  -5   7   4 676.266 73.3616  22
   5  -7  -3 150.930 40.6671  28
  -5   7   3 211.827 43.8242  39
   5  -7  -3 212.890 38.3027  38
  -5   7   3 204.234 45.7317  22
   5  -7  -2-18.4857 25.2465  28
   5  -7  -2 11.6658 21.7660  38
  -5   7   2-12.9341 22.5256  39
  -5   7   2-19.0962 23.6451  22
   5  -7  -1 139.327 42.1025  28
  -5   7   1 98.3357 35.6521  39
   5  -7  -1 109.756 34.8070  38
  -5   7   1 159.775 36.5070  24
  -5   7   1 134.256 39.8683  22
   5  -7   0 595.641 76.6752  28
   5  -7   0 522.089 72.2215  40
  -5   7   0 580.685 75.2182  39
   5  -7   0 569.135 70.0646  38
  -5   7   0 608.959 73.3984  24
  -5   7   0 523.094 69.8459  22
   5  -7   1 4864.51 209.774  28
   5  -7   1 4307.35 198.340  40
  -5   7  -1 4776.16 204.405  39
   5  -7   1 4844.57 201.233  38
  -5   7  -1 4564.18 201.082  24
  -5   7  -1 4466.78 189.246  22
  -5   7  -2 1443.36 107.824  32
   5  -7   2 1417.55 113.872  28
   5  -7   2 1190.53 103.942  40
  -5   7  -2 1362.32 108.329  39
   5  -7   2 1347.27 107.346  38
  -5   7  -2 1484.98 117.310  24
  -5   7  -3 6.99077 17.3560  32
   5  -7   3 0.78486 28.5504  28
   5  -7   3-64.4658 29.7034  40
  -5   7  -3 21.3891 22.0891  39
   5  -7   3-16.2172 25.0540  38
  -5   7  -3 7.24919 20.3708  24
  -5   7  -4 45.1263 25.4520  32
   5  -7   4 64.8267 29.1740  28
   5  -7   4 57.7827 25.6408  40
  -5   7  -4 20.2331 22.3214  24
  -5   7  -5 139.382 32.9804  32
   5  -7   5 174.712 39.9118  28
   5  -7   5 189.190 39.5096  40
  -5   7  -5 111.562 35.5615  24
  -5   7  -6 423.277 57.7465  32
   5  -7   6 438.850 59.0184  28
   5  -7   6 448.396 57.3170  40
  -5   7  -6 406.493 56.7961  24
  -5   7  -7 425.702 56.2653  32
   5  -7   7 533.634 61.2077  28
   5  -7   7 480.095 58.1733  40
  -5   7  -7 429.885 52.4595  24
  -5   7  -8 13.4119 16.3438  32
   5  -7   8 30.9560 16.7207  40
   5  -6  -8 125.295 32.0985  28
  -5   6   8 101.251 29.9555  22
   5  -6  -7 2.85882 19.9047  28
  -5   6   7-19.3601 21.4727  22
   5  -6  -6 72.3476 34.1901  28
  -5   6   6 20.0872 23.5492  39
  -5   6   6 23.2459 24.9107  22
   5  -6  -5 7707.67 278.978  28
  -5   6   5 7644.32 260.187  26
  -5   6   5 7981.12 254.140  39
  -5   6   5 7897.43 275.660  22
   5  -6  -4 258.188 57.7578  28
  -5   6   4 182.711 45.7600  39
  -5   6   4 185.886 50.5722  22
   5  -6  -3 298.831 62.6025  28
  -5   6   3 345.100 62.8681  39
  -5   6   3 294.665 63.4805  22
   5  -6  -2 402.805 71.3376  28
  -5   6   2 482.771 74.5402  39
   5  -6  -2 341.756 59.5293  38
  -5   6   2 336.901 59.2580  24
  -5   6   2 418.304 71.7148  22
   5  -6  -1-26.2211 35.1051  28
  -5   6   1 27.5797 37.0488  39
   5  -6  -1 19.4688 26.4674  38
  -5   6   1 1.30558 20.9633  24
  -5   6   1 27.0777 27.9289  22
   5  -6   0 334.450 66.1681  28
  -5   6   0 438.625 73.8586  39
   5  -6   0 345.301 63.6623  38
  -5   6   0 351.835 64.0748  24
  -5   6   0 350.707 67.3228  22
  -5   6  -1 1540.43 123.963  32
  -5   6  -1 1627.97 125.147  20
   5  -6   1 1538.38 133.162  28
  -5   6  -1 1473.66 127.030  39
   5  -6   1 1740.51 130.488  38
  -5   6  -1 1526.89 131.328  24
  -5   6  -2 855.755 96.0991  32
  -5   6  -2 995.709 100.737  20
   5  -6   2 1097.26 113.838  28
   5  -6   2 780.957 95.2369  40
  -5   6  -2 855.922 95.5994  39
   5  -6   2 961.633 99.2458  38
  -5   6  -2 859.575 100.049  24
  -5   6  -3 51.5339 31.4829  32
  -5   6  -3 48.8733 26.7788  20
   5  -6   3-14.3420 35.6371  28
   5  -6   3-19.9004 26.9264  40
  -5   6  -3-23.9109 27.2927  39
   5  -6   3 24.6969 27.1526  38
  -5   6  -3-8.42337 36.4928  24
   5  -6   4 2438.20 161.945  28
   5  -6   4 2199.34 155.259  40
   5  -6   4 2512.50 157.717  38
  -5   6  -4 2407.08 162.894  24
  -5   6  -5-52.9313 52.3695  32
   5  -6   5 44.0786 36.7682  28
   5  -6   5 44.6803 34.7295  40
  -5   6  -5 5.38756 31.6610  24
  -5   6  -6 9362.38 310.024  32
   5  -6   6 9687.36 308.728  28
   5  -6   6 9767.19 312.064  40
  -5   6  -6 9387.31 296.289  24
   5  -6   7 44.4299 31.6502  28
   5  -6   7 8.48622 25.3187  40
  -5   6  -7 23.2268 33.6378  24
  -5   6  -8 1437.31 109.701  32
   5  -6   8 1502.91 113.141  28
   5  -6   8 1637.31 117.506  40
  -5   6  -9 74.6504 28.2973  32
   5  -6   9 38.0847 23.3756  40
   5  -6  10 820.640 70.0693  40
   5  -5 -10 15.0261 16.0938  28
   5  -5  -9 1283.62 100.071  28
  -5   5   9 1403.37 101.319  22
  -5   5   9 1300.96 92.7067  33
   5  -5  -8 1300.98 112.728  28
  -5   5   8 1167.77 98.0977  26
   5  -5  -8 1049.76 94.5774  36
  -5   5   8 1218.88 104.018  22
  -5   5   8 1242.87 98.3007  33
   5  -5  -7 1637.94 135.087  28
  -5   5   7 1818.38 131.602  26
  -5   5   7 2036.65 124.826  39
   5  -5  -7 1670.48 127.847  36
  -5   5   7 1846.73 135.759  22
  -5   5   6 1083.63 113.344  21
   5  -5  -6 852.294 104.510  28
  -5   5   6 976.381 103.698  26
  -5   5   6 844.481 89.1497  39
   5  -5  -6 920.488 102.041  36
  -5   5   6 848.674 102.552  22
  -5   5   5 869.182 102.223  21
   5  -5  -5 662.885 92.6204  28
  -5   5   5 667.172 85.1338  39
   5  -5  -5 576.920 90.2160  36
  -5   5   5 747.018 95.0433  22
  -5   5   4 543.695 79.8834  21
   5  -5  -4 534.240 83.6249  28
  -5   5   4 433.762 71.8906  39
   5  -5  -4 356.111 71.7079  36
  -5   5   4 551.316 83.8160  22
  -5   5   3 240.691 55.8485  21
   5  -5  -3 253.821 59.2317  28
  -5   5   3 299.138 63.5907  39
   5  -5  -3 211.107 55.8868  36
  -5   5   3 178.780 47.3408  22
   5  -5  -2-18.3066 27.1817  28
  -5   5   2 7.54973 25.1112  39
  -5   5   2 91.7272 32.8835  24
   5  -5  -2 8.93836 24.8519  36
  -5   5   2-23.7811 36.8728  22
   5  -5  -1 80.1749 38.3426  28
   5  -5  -1 37.2653 29.1168  19
  -5   5   1 71.6622 39.7221  39
  -5   5   1 71.0824 33.9230  24
   5  -5  -1 48.3276 27.5273  36
  -5   5   1 62.4992 32.6668  22
  -5   5   0 48.7447 31.0023  32
   5  -5   0 3.11060 30.6882  28
   5  -5   0-0.35951 29.1543  19
  -5   5   0 19.5182 28.9143  39
  -5   5   0 102.304 43.5182  24
   5  -5   0 25.2482 33.4034  36
  -5   5   0-19.5109 24.0787  22
  -5   5  -1 1171.64 111.911  32
  -5   5  -1 1142.63 106.020  20
   5  -5   1 1103.16 115.076  28
  -5   5  -1 1097.33 111.191  39
  -5   5  -1 1105.47 115.659  24
   5  -5   1 1089.66 112.421  36
  -5   5  -2 93.7639 33.6647  32
  -5   5  -2 190.638 45.7330  20
   5  -5   2 161.957 48.5070  28
  -5   5  -2 185.018 46.7682  39
   5  -5   2 137.905 41.2120  38
  -5   5  -2 181.195 52.0986  24
   5  -5   2 146.826 42.5152  36
  -5   5  -3 1.15345 32.3675  32
  -5   5  -3 79.5616 33.3224  15
  -5   5  -3 24.6972 27.6042  20
   5  -5   3-24.1165 41.3974  28
   5  -5   3-6.26975 31.6466  40
  -5   5  -3 33.7797 33.4992  39
   5  -5   3 78.4373 39.2241  38
  -5   5  -3-5.31510 33.4916  24
   5  -5   3-7.93299 25.4859  36
  -5   5  -4 214.787 50.1709  32
  -5   5  -4 302.532 58.4774  15
  -5   5  -4 254.446 55.8247  20
   5  -5   4 236.231 58.4476  28
   5  -5   4 235.326 59.9648  40
   5  -5   4 315.565 62.0239  38
  -5   5  -4 250.903 58.2560  24
   5  -5   4 325.073 61.9081  36
  -5   5  -5 1141.98 118.380  32
  -5   5  -5 1291.66 120.620  20
   5  -5   5 1353.40 124.455  28
   5  -5   5 1242.59 125.563  40
  -5   5  -5 1206.16 119.856  24
   5  -5   5 1257.73 117.447  36
  -5   5  -6 12266.1 375.114  32
  -5   5  -6 12612.1 367.782  20
   5  -5   6 12709.4 373.870  28
   5  -5   6 12721.9 381.633  40
  -5   5  -6 11929.6 355.177  24
   5  -5   6 12530.9 364.328  36
  -5   5  -7 881.536 101.567  32
   5  -5   7 792.575 93.9797  28
   5  -5   7 930.117 104.602  40
  -5   5  -7 741.389 83.7407  24
   5  -5   7 863.726 95.0216  36
  -5   5  -8 43.5330 29.1086  32
   5  -5   8-40.3532 40.6663  28
   5  -5   8 13.5661 23.8273  40
   5  -5   8-17.4305 37.0016  36
  -5   5  -9 0.83988 20.8231  32
   5  -5   9 9.54075 23.4307  40
   5  -5   9 4.82673 20.3932  36
  -5   5 -10 73.1952 29.5856  32
   5  -5  10 12.4803 29.3256  40
  -5   5 -10 56.1646 26.7055  37
   5  -5  10 54.0199 23.2843  36
   5  -5  11 75.1408 28.0480  40
  -5   5 -11 28.6886 20.2231  37
   5  -4 -11 188.901 34.5592  28
   5  -4 -11 157.175 34.6688  36
  -5   4  11 208.566 35.2738  22
  -5   4  11 215.688 39.6453  33
   5  -4 -10 147.101 40.3944  28
   5  -4 -10 67.8002 29.5756  36
  -5   4  10 87.5678 29.6244  22
  -5   4  10 79.3547 31.8510  33
   5  -4  -9 205.517 51.6519  28
  -5   4   9 189.260 48.1242  26
   5  -4  -9 244.069 55.7950  36
  -5   4   9 351.864 61.1939  22
  -5   4   9 275.459 52.1076  33
   5  -4  -8 4731.82 228.144  28
  -5   4   8 4979.95 228.323  26
   5  -4  -8 4890.93 237.548  36
  -5   4   8 5271.77 235.183  22
  -5   4   8 5261.34 222.316  33
  -5   4   7 13080.6 384.463  21
   5  -4  -7 11939.8 372.084  28
  -5   4   7 12943.1 382.272  26
  -5   4   7 13263.5 346.277  39
   5  -4  -7 12398.4 394.745  36
  -5   4   7 12460.1 375.992  22
  -5   4   7 12978.8 354.504  33
  -5   4   6 468.567 78.1405  21
   5  -4  -6 520.994 84.0810  28
  -5   4   6 527.803 85.2064  26
  -5   4   6 484.678 72.7891  39
   5  -4  -6 513.504 85.4153  36
  -5   4   6 581.097 86.8128  22
  -5   4   5 385.534 69.7944  21
   5  -4  -5 439.987 75.4656  28
  -5   4   5 296.516 60.6332  39
   5  -4  -5 350.700 78.0045  36
  -5   4   5 370.911 69.9026  22
  -5   4   4 4.86526 24.8656  21
   5  -4  -4-1.31621 28.3502  28
  -5   4   4 15.2118 25.1461  39
   5  -4  -4-4.85480 24.8388  36
  -5   4   4 39.3938 32.1533  22
  -5   4   3 123.397 38.9465  21
   5  -4  -3 228.530 59.4093  28
  -5   4   3 253.144 55.3939  39
   5  -4  -3 167.859 52.9237  36
  -5   4   3 233.401 57.0297  22
  -5   4   2 3310.74 180.926  21
   5  -4  -2 3004.04 185.469  28
  -5   4   2 3233.48 187.799  39
  -5   4   2 3167.82 176.050  24
   5  -4  -2 2964.99 195.618  36
  -5   4   2 3208.09 188.890  22
   5  -4  -1 32.3835 27.4709  28
  -5   4   1 56.9524 36.7019  39
  -5   4   1 42.1260 28.8146  24
   5  -4  -1 22.3169 26.1266  36
  -5   4   1 61.7682 32.4199  22
  -5   4   0 515.238 73.5299  32
  -5   4   0 550.311 70.1750  20
   5  -4   0 501.000 76.5727  28
  -5   4   0 539.190 76.8680  39
  -5   4   0 558.331 78.4983  24
   5  -4   0 593.790 86.2778  36
  -5   4  -1 938.400 101.236  32
  -5   4  -1 952.178 93.3099  20
   5  -4   1 787.012 94.9648  28
  -5   4  -1 957.602 100.591  39
  -5   4  -1 978.739 104.485  24
   5  -4   1 908.390 102.290  36
  -5   4  -2 194.187 49.1458  32
  -5   4  -2 226.077 47.4125  20
   5  -4   2 243.132 54.7696  28
  -5   4  -2 191.375 47.8799  39
  -5   4  -2 230.480 56.6809  24
   5  -4   2 188.242 53.5885  36
  -5   4  -3 544.824 71.1222  15
  -5   4  -3 517.487 76.9954  32
  -5   4  -3 490.998 71.9713  20
   5  -4   3 559.284 81.7081  28
   5  -4   3 486.120 78.3190  40
  -5   4  -3 621.499 87.2685  24
   5  -4   3 592.641 83.7743  36
  -5   4  -4 42658.1 632.992  15
  -5   4  -4 42357.9 698.081  32
  -5   4  -4 42115.6 667.069  20
   5  -4   4 42135.1 670.553  28
   5  -4   4 40338.8 672.758  40
  -5   4  -4 42119.0 683.658  24
   5  -4   4 42345.9 703.281  36
  -5   4  -5 1092.52 107.910  15
  -5   4  -5 1292.37 124.697  32
  -5   4  -5 1321.26 121.014  20
   5  -4   5 1206.56 118.226  28
   5  -4   5 1338.62 124.862  40
  -5   4  -5 1218.07 116.668  24
   5  -4   5 1233.54 123.813  36
  -5   4  -6 6175.36 254.894  15
  -5   4  -6 5959.34 263.546  32
  -5   4  -6 6227.18 262.665  20
   5  -4   6 6107.78 261.664  28
   5  -4   6 6190.70 265.313  40
  -5   4  -6 6381.84 260.255  24
   5  -4   6 6283.28 268.636  36
  -5   4  -7 24.5679 26.3721  32
  -5   4  -7 7.72480 27.4609  20
   5  -4   7 12.8058 29.1241  28
   5  -4   7 27.4158 26.9209  40
  -5   4  -7-2.96442 28.2632  24
   5  -4   7-7.94942 27.5434  36
  -5   4  -8 309.631 58.3042  32
  -5   4  -8 340.193 63.1460  20
   5  -4   8 311.249 55.4078  28
   5  -4   8 313.815 60.4034  40
   5  -4   8 252.793 53.4317  36
  -5   4  -9 289.401 54.1219  32
   5  -4   9 262.783 54.4297  40
   5  -4   9 320.760 59.8472  36
   5  -4  10 1549.39 118.950  40
  -5   4 -10 1453.90 112.049  37
   5  -4  10 1327.06 112.662  36
   5  -4  11 5515.00 203.423  40
  -5   4 -11 5502.49 196.491  37
   5  -4  12-20.8297 19.4126  40
  -5   4 -12 11.9882 14.6392  37
   5  -3 -12 602.750 65.4200  36
  -5   3  12 651.911 62.3292  33
   5  -3 -11 1898.84 113.425  28
  -5   3  11 1734.41 113.739  26
   5  -3 -11 1798.52 125.709  36
  -5   3  11 1715.22 112.100  22
  -5   3  11 1972.90 122.154  33
   5  -3 -10 591.592 72.6238  28
  -5   3  10 671.878 82.3257  26
   5  -3 -10 541.839 82.2674  36
  -5   3  10 657.863 79.6535  22
  -5   3  10 610.199 76.4698  33
   5  -3  -9 162.265 46.1487  28
  -5   3   9 82.5447 31.7007  26
   5  -3  -9 142.614 46.2502  36
  -5   3   9 135.230 45.6756  22
  -5   3   9 160.364 46.6171  33
   5  -3  -8 36.2143 36.6046  28
  -5   3   8 35.4704 30.1144  26
   5  -3  -8 16.3723 31.6934  36
  -5   3   8-22.1175 45.1022  22
  -5   3   8 5.73738 26.4557  33
  -5   3   7-47.0571 50.1805  21
   5  -3  -7-3.24489 34.4222  28
  -5   3   7 61.7657 37.2843  26
  -5   3   7 4.32762 28.1094  39
   5  -3  -7-14.3658 43.4974  36
  -5   3   7 7.77138 27.7700  22
  -5   3   7 11.6968 27.0407  33
  -5   3   6 598.718 85.2186  21
   5  -3  -6 612.180 85.5726  28
  -5   3   6 583.488 88.1168  26
  -5   3   6 610.073 83.5967  39
   5  -3  -6 535.623 92.6328  36
  -5   3   6 473.561 80.4920  22
  -5   3   5 57.2012 27.0843  21
   5  -3  -5 28.8925 29.3052  28
  -5   3   5 77.4660 45.6136  26
  -5   3   5 91.3413 37.7672  39
   5  -3  -5 29.1950 36.5614  36
  -5   3   5 47.0363 37.7676  22
  -5   3   4 136.605 44.1978  21
   5  -3  -4 57.0735 41.3578  28
  -5   3   4 85.9227 34.6395  39
   5  -3  -4 89.5755 41.3367  36
  -5   3   4 54.0282 31.2167  22
  -5   3   3 862.476 95.0566  21
   5  -3  -3 863.932 97.4903  28
  -5   3   3 1004.02 102.669  39
  -5   3   3 1044.64 99.6198  24
   5  -3  -3 882.506 110.895  36
  -5   3   3 910.469 101.414  22
  -5   3   2 19056.7 421.632  21
   5  -3  -2 17545.4 416.697  28
  -5   3   2 19036.8 441.840  39
  -5   3   2 19029.2 424.510  24
   5  -3  -2 18146.5 471.603  36
  -5   3   2 18741.4 438.528  22
  -5   3   1 4914.89 213.706  32
   5  -3  -1 4874.50 216.702  28
  -5   3   1 4735.19 219.376  39
  -5   3   1 4728.39 214.825  24
   5  -3  -1 4714.32 233.318  36
  -5   3   0 2432.33 153.166  32
  -5   3   0 2431.41 139.147  20
   5  -3   0 2284.25 147.384  28
  -5   3   0 2338.80 152.016  39
  -5   3   0 2431.97 157.596  24
   5  -3   0 2362.83 163.006  36
  -5   3  -1 828.363 92.7206  32
  -5   3  -1 787.255 82.8034  20
   5  -3   1 828.500 87.6872  28
   5  -3   1 723.718 89.5029  27
  -5   3  -1 754.137 87.4208  39
  -5   3  -1 758.095 90.8535  24
   5  -3   1 623.753 86.3286  36
  -5   3  -2 158.669 43.1613  32
  -5   3  -2 108.396 30.3851  15
  -5   3  -2 183.665 43.9965  20
   5  -3   2 129.074 38.0722  28
   5  -3   2 220.150 56.8353  27
  -5   3  -2 194.456 50.1059  39
  -5   3  -2 163.456 46.3461  24
   5  -3   2 199.913 54.6721  36
  -5   3  -3 169.659 49.3771  32
  -5   3  -3 98.9811 30.1824  15
  -5   3  -3 130.852 39.5620  20
   5  -3   3 153.363 43.7036  28
   5  -3   3 199.559 52.3956  27
   5  -3   3 232.345 51.3459  40
  -5   3  -3 207.389 51.0196  24
   5  -3   3 208.858 55.6545  36
  -5   3  -4 7244.97 258.103  15
  -5   3  -4 7461.36 289.985  32
  -5   3  -4 7087.17 268.810  20
   5  -3   4 7318.62 268.826  28
   5  -3   4 7138.23 281.923  27
   5  -3   4 6947.74 269.289  40
  -5   3  -4 6833.57 271.731  24
   5  -3   4 7248.91 286.409  36
  -5   3  -5 1216.71 109.854  15
  -5   3  -5 1245.74 121.204  32
  -5   3  -5 1303.05 119.262  20
   5  -3   5 1163.34 112.114  28
   5  -3   5 1201.84 117.596  27
   5  -3   5 1190.99 113.531  40
  -5   3  -5 1182.37 115.114  24
   5  -3   5 1180.85 116.916  36
  -5   3  -6 391.375 70.2565  32
  -5   3  -6 422.287 69.2264  15
  -5   3  -6 306.198 59.7065  20
   5  -3   6 439.432 70.8367  28
   5  -3   6 266.784 60.8224  27
   5  -3   6 466.363 73.9581  40
  -5   3  -6 400.389 69.3555  24
   5  -3   6 434.659 74.4588  36
  -5   3  -7 459.845 72.2986  15
  -5   3  -7 402.635 68.9633  32
  -5   3  -7 455.906 72.4906  20
   5  -3   7 405.961 66.2339  28
   5  -3   7 406.307 70.2577  27
   5  -3   7 426.916 70.4332  40
   5  -3   7 378.366 69.4200  36
  -5   3  -8 2.99335 36.7538  32
  -5   3  -8 21.5543 25.6087  20
   5  -3   8 14.1526 24.3123  27
   5  -3   8 65.8516 30.3796  40
  -5   3  -8 54.3111 31.0835  37
   5  -3   8 27.1599 29.4452  36
   5  -3   9 35.4933 29.2171  27
   5  -3   9-6.91621 26.9440  40
  -5   3  -9 44.4156 25.6524  37
   5  -3   9 59.0022 34.5437  36
   5  -3  10 6402.45 252.377  27
   5  -3  10 7198.67 255.601  40
  -5   3 -10 6693.56 247.050  37
   5  -3  10 6636.54 255.547  36
   5  -3  11 3649.93 175.618  27
   5  -3  11 3831.54 171.819  40
  -5   3 -11 3807.67 170.227  37
   5  -3  12 2451.40 126.683  27
   5  -3  12 2361.77 119.430  40
  -5   3 -12 2508.44 119.162  37
  -5   3 -12 2488.91 126.296  34
   5  -2 -12 20.9400 23.0926  27
  -5   2  12 74.7892 33.0435  26
   5  -2 -12 28.0188 21.1772  36
  -5   2  12 63.6789 26.4602  22
  -5   2  12 39.4739 27.4056  33
  -5   2  11 1222.42 108.799  26
   5  -2 -11 1444.76 123.266  36
  -5   2  11 1284.09 105.743  22
  -5   2  11 1327.01 108.111  33
  -5   2  10 31.2054 28.0365  26
   5  -2 -10 20.3044 32.0139  36
  -5   2  10 68.7368 38.6748  22
  -5   2  10 31.0147 31.5566  33
  -5   2   9 216.747 59.7072  26
   5  -2  -9 263.162 63.4836  36
  -5   2   9 259.656 61.3889  22
  -5   2   9 243.816 56.9859  33
  -5   2   8 1866.04 159.490  26
  -5   2   8 2055.60 142.433  39
   5  -2  -8 2017.76 166.994  36
  -5   2   8 1996.70 160.018  23
  -5   2   8 2019.41 159.101  22
  -5   2   8 1927.80 147.470  33
  -5   2   7 3047.56 200.565  26
  -5   2   7 3256.53 183.819  39
   5  -2  -7 2958.80 203.434  16
   5  -2  -7 3122.67 208.906  36
  -5   2   7 3057.22 195.349  22
  -5   2   7 3244.15 187.739  33
  -5   2   6 733.577 101.610  26
  -5   2   6 784.589 94.3279  39
   5  -2  -6 641.807 98.4676  36
   5  -2  -6 610.492 95.6011  16
  -5   2   6 792.559 101.451  22
  -5   2   6 593.375 80.0861  33
   5  -2  -5 1274.63 132.340  27
  -5   2   5 1212.84 125.674  26
  -5   2   5 1321.56 121.386  39
   5  -2  -5 1241.94 127.225  16
   5  -2  -5 1201.77 131.259  36
  -5   2   5 1240.48 121.726  22
   5  -2  -4 93.2405 44.6643  27
  -5   2   4 120.152 40.5593  26
  -5   2   4 86.8620 37.1242  39
   5  -2  -4 89.1654 46.0991  36
   5  -2  -4 122.389 48.8109  16
  -5   2   4 77.6981 34.7205  22
   5  -2  -3 352.780 73.1717  27
  -5   2   3 566.645 72.5207   4
  -5   2   3 776.357 90.7375  39
   5  -2  -3 661.727 88.3473  16
   5  -2  -3 455.469 81.5932  36
  -5   2   3 305.748 59.6534  22
  -5   2   3 358.089 61.8423   6
   5  -2  -2 187.459 52.2285  27
  -5   2   2 143.718 34.7566   4
  -5   2   2 224.419 51.6938  24
   5  -2  -2 256.357 61.1681  36
   5  -2  -2 254.303 56.5742  16
  -5   2   1 161.254 44.7680  32
  -5   2   1 141.559 37.5963  43
   5  -2  -1 189.542 51.0082  27
  -5   2   1 165.703 40.4389  42
  -5   2   1 153.149 40.9918  41
  -5   2   1 222.613 51.7217  39
  -5   2   1 133.236 36.0432   4
  -5   2   1 131.998 40.8637  24
   5  -2  -1 120.475 42.0000  36
   5  -2  -1 91.3041 34.4171  16
   5  -2  -1 146.343 47.3603   1
  -5   2   0 5318.92 227.320  32
  -5   2   0 5352.98 204.130  20
  -5   2   0 5426.11 228.653  43
   5  -2   0 5118.83 241.084  27
  -5   2   0 5360.04 226.668  42
  -5   2   0 4830.02 215.356   4
  -5   2   0 5355.17 227.336  41
   5  -2   0 4960.29 240.431   1
  -5   2   0 5634.93 231.042  39
  -5   2   0 5529.95 235.136  24
   5  -2   0 5093.55 227.222  16
   5  -2   0 5170.45 235.491  36
  -5   2  -1 6505.43 256.047  32
  -5   2  -1 6313.81 229.553  20
   5  -2   1 6086.75 260.730  27
  -5   2  -1 6351.27 245.432  43
  -5   2  -1 5935.18 244.698   4
  -5   2  -1 6146.18 242.714  41
  -5   2  -1 6263.26 251.791  24
   5  -2   1 6350.23 249.631  16
   5  -2   1 5720.00 251.514   1
   5  -2   1 6547.82 262.172  36
  -5   2  -1 6297.75 244.826  42
   5  -2   2 46836.4 708.198   1
  -5   2  -2 49532.2 715.194  32
  -5   2  -2 49299.8 665.067  20
   5  -2   2 48996.4 738.432  27
  -5   2  -2 49083.9 679.024  43
  -5   2  -2 48903.5 678.232  42
  -5   2  -2 46260.8 699.105   4
  -5   2  -2 48536.1 678.476  41
   5  -2   2 49958.6 699.605  16
  -5   2  -2 49145.2 711.445  24
  -5   2  -2 50404.9 650.624  37
   5  -2   2 49205.6 709.234  36
  -5   2  -2 49409.0 610.403  15
  -5   2  -3 34417.1 607.447  32
  -5   2  -3 33341.8 562.412  20
   5  -2   3 33528.1 616.882  27
   5  -2   3 33466.8 580.792  16
  -5   2  -3 33633.4 591.042  24
  -5   2  -3 33551.8 554.917  37
   5  -2   3 34009.8 593.936  36
  -5   2  -3 32921.2 526.600  15
  -5   2  -4 57.2348 33.0111  32
  -5   2  -4 49.4383 30.6342  15
   5  -2   4 56.4212 37.3015  27
  -5   2  -4 86.2808 49.1467  24
  -5   2  -4 76.4161 35.3226  37
   5  -2   4 163.988 39.0598  36
   5  -2   4 28.5630 27.5600  16
  -5   2  -5 12302.7 370.477  32
  -5   2  -5 11938.2 357.557  20
   5  -2   5 12052.3 379.678  27
   5  -2   5 12183.5 366.199  16
  -5   2  -5 12696.8 363.808  24
  -5   2  -5 12330.1 360.400  37
   5  -2   5 12495.7 367.073  36
  -5   2  -5 11889.6 344.716  15
  -5   2  -6 2011.57 150.435  32
  -5   2  -6 1895.03 145.621  20
   5  -2   6 1817.84 149.345  27
   5  -2   6 1735.63 141.720  16
  -5   2  -6 1885.83 143.770  37
   5  -2   6 1859.33 144.144  36
  -5   2  -6 1848.01 141.161  15
  -5   2  -7 155.844 47.8637  32
  -5   2  -7 132.204 46.3877  15
  -5   2  -7 128.150 42.9054  20
   5  -2   7 55.7643 32.3377  27
   5  -2   7 93.6483 36.6041  40
  -5   2  -7 103.414 44.3984  37
   5  -2   7 80.6782 37.0547  36
   5  -2   7 73.6290 38.3627  16
  -5   2  -8 2782.04 176.306  20
   5  -2   8 2874.70 189.877  27
   5  -2   8 3266.07 179.133  40
  -5   2  -8 2985.49 181.349  37
   5  -2   8 2927.34 181.684  36
   5  -2   9 11901.8 376.949  27
   5  -2   9 12492.0 339.502  40
  -5   2  -9 12359.2 358.316  37
   5  -2   9 12189.8 357.998  36
   5  -2  10 370.469 66.9956  27
   5  -2  10 449.135 64.3187  40
  -5   2 -10 457.756 70.5766  37
   5  -2  10 420.803 67.3642  36
   5  -2  11 4.09853 24.0027  27
  -5   2 -11-20.8795 20.3612  37
  -5   2 -11-16.3294 22.5690  34
   5  -2  12 49.7707 22.8945  27
  -5   2 -12 41.2253 19.8189  37
  -5   2 -12 45.6760 22.3020  34
   5  -1 -13 1200.90 88.6236  27
   5  -1 -13 1203.22 86.5400  36
   5  -1 -12 654.430 78.5694  27
  -5   1  12 741.110 79.1741  26
   5  -1 -12 783.415 83.0373  36
  -5   1  12 713.850 72.8438  22
  -5   1  11 92.1856 36.5543  26
   5  -1 -11 68.8025 39.1230  36
  -5   1  11 86.0268 35.7586  33
  -5   1  11 52.8405 23.8978  22
  -5   1  10 244.994 62.2234  26
   5  -1 -10 238.161 59.9657  36
  -5   1  10 296.565 61.6185  23
  -5   1  10 270.466 56.7584  22
  -5   1  10 371.714 67.1958  33
  -5   1   9 1380.71 137.815  26
   5  -1  -9 1462.56 137.561  36
  -5   1   9 1716.82 147.881  23
  -5   1   9 1496.33 136.427  22
  -5   1   9 1420.44 128.125  33
  -5   1   8 1965.98 163.382  26
   5  -1  -8 1548.10 151.858  18
  -5   1   8 1819.13 137.982  39
   5  -1  -8 1601.01 156.089  16
   5  -1  -8 1622.23 150.521  36
  -5   1   8 1810.92 159.134  23
  -5   1   8 1799.00 152.951  22
  -5   1   8 1815.14 144.884  33
  -5   1   7 97.3648 45.2983  26
   5  -1  -7 15.5832 31.1595  18
  -5   1   7 103.863 34.3002  39
   5  -1  -7 91.4787 45.2392  36
   5  -1  -7 51.9932 34.4770  16
  -5   1   7 120.363 53.2770  23
  -5   1   7 150.651 54.4204  22
  -5   1   7 70.2126 34.6095  33
  -5   1   6 1366.77 135.093  26
   5  -1  -6 1352.43 138.177  18
  -5   1   6 1349.06 125.795  39
   5  -1  -6 1430.86 147.184  16
   5  -1  -6 1445.04 137.351  36
  -5   1   6 1467.83 138.018  22
  -5   1   6 1327.95 120.823  33
   5  -1  -5 1688.90 154.227  27
  -5   1   5 1995.11 159.152  26
  -5   1   5 1984.99 151.045  39
   5  -1  -5 1993.96 167.341  16
   5  -1  -5 1813.77 155.020  36
  -5   1   5 1941.43 152.539  22
   5  -1  -4 5654.15 275.326  27
  -5   1   4 6109.90 265.329  26
  -5   1   4 6329.50 263.390  39
   5  -1  -4 6187.14 288.071  16
   5  -1  -4 5897.72 265.939  36
  -5   1   4 6115.30 260.972  22
  -5   1   3 760.499 85.8796  32
   5  -1  -3 415.658 76.9247  27
  -5   1   3 392.605 67.3426  26
  -5   1   3 457.329 73.6435  39
  -5   1   3 545.421 76.0391  24
   5  -1  -3 538.513 85.3491  16
   5  -1  -3 537.905 87.6361  36
   5  -1  -3 554.224 79.3519   3
  -5   1   3 362.159 62.1845  22
  -5   1   2 760.279 87.9404  32
  -5   1   2 686.088 82.3024  43
   5  -1  -2 699.876 97.0202  27
  -5   1   2 716.955 85.6032  42
  -5   1   2 756.681 86.9869  41
  -5   1   2 739.436 90.3198  39
  -5   1   2 741.536 87.3457  24
   5  -1  -2 644.782 86.4957  36
   5  -1  -2 631.268 87.3664  16
  -5   1   1 10463.0 325.331  32
  -5   1   1 10444.3 313.630  43
   5  -1  -1 10030.4 344.573  27
  -5   1   1 10948.9 320.975  42
  -5   1   1 10720.1 319.146  41
  -5   1   1 10683.1 326.947  39
  -5   1   1 10734.2 332.831  24
   5  -1  -1 9946.57 338.092  16
  -5   1   0 23.6662 24.6421  43
   5  -1   0 37.5094 37.9621  27
  -5   1   0 54.9653 30.9090  42
  -5   1   0 47.4766 26.4150  41
  -5   1   0 42.2736 24.7615  39
  -5   1   0 42.0303 34.5756  24
   5  -1   0 21.0788 28.2590  16
  -5   1  -1 6685.88 266.886  32
  -5   1  -1 6696.12 244.449  20
  -5   1  -1 6862.63 256.133  43
   5  -1   1 6783.79 279.176  27
  -5   1  -1 7060.61 259.358  42
  -5   1  -1 6451.61 241.747   4
  -5   1  -1 7004.51 258.099  41
  -5   1  -1 6528.16 261.556  24
   5  -1   1 6675.20 272.183  16
   5  -1   1 7088.17 261.675  36
  -5   1  -2 4791.96 228.850  32
  -5   1  -2 4687.17 211.237  20
   5  -1   2 4559.11 230.642  27
  -5   1  -2 4457.76 208.801   4
  -5   1  -2 4674.03 223.112  24
   5  -1   2 4660.18 227.573  16
  -5   1  -2 4804.52 208.563  37
   5  -1   2 4713.92 213.229  36
  -5   1  -2 4282.16 186.134  15
  -5   1  -3 15563.2 412.554  32
  -5   1  -3 15722.3 396.984  20
   5  -1   3 15282.7 426.912  27
   5  -1   3 15778.3 423.364  16
  -5   1  -3 15399.7 406.281  24
  -5   1  -3 15501.9 387.130  37
   5  -1   3 15419.1 384.999  36
  -5   1  -3 14976.9 365.157  15
  -5   1  -4 644.436 87.1709  32
  -5   1  -4 598.894 82.8941  20
   5  -1   4 591.573 86.0378  27
  -5   1  -4 642.561 85.4163  37
  -5   1  -4 561.682 80.8619  24
   5  -1   4 492.804 72.0047  36
   5  -1   4 543.481 80.6034  16
  -5   1  -4 523.047 74.3906  15
  -5   1  -5 618.197 84.8607  32
  -5   1  -5 432.846 73.1046  20
   5  -1   5 601.355 90.6321  27
  -5   1  -5 533.066 80.1116  37
  -5   1  -5 502.544 75.3070  24
   5  -1   5 508.181 74.6825  36
   5  -1   5 572.820 84.8876  16
  -5   1  -5 516.884 75.1241  15
  -5   1  -6 1714.37 138.820  32
  -5   1  -6 1644.47 138.781  20
   5  -1   6 1583.17 143.271  27
   5  -1   6 1600.99 135.917  25
   5  -1   6 1612.09 144.654  16
  -5   1  -6 1700.05 138.860  37
   5  -1   6 1663.66 131.653  36
  -5   1  -6 1571.62 135.116  15
  -5   1  -7 85.3350 33.2749  15
  -5   1  -7 90.0457 41.0765  20
   5  -1   7 129.588 53.1070  27
   5  -1   7 60.8602 31.9875  25
  -5   1  -7 147.339 50.5828  37
   5  -1   7 104.208 42.9287  36
   5  -1   7 79.6676 44.3270  16
  -5   1  -8 14532.6 404.304  20
   5  -1   8 14429.1 426.746  27
   5  -1   8 14490.7 397.337  25
  -5   1  -8 15072.2 407.083  37
   5  -1   8 14719.3 385.517  36
  -5   1  -8 14848.8 393.552  34
   5  -1   9 10050.6 347.842  27
   5  -1   9 9506.23 308.580  25
  -5   1  -9 9464.11 314.206  37
   5  -1   9 9323.99 293.910  36
  -5   1  -9 9517.36 311.471  34
   5  -1  10 99.0099 40.5854  27
  -5   1 -10 87.9544 35.5071  37
   5  -1  11 58.3848 28.4518  27
  -5   1 -11 35.7278 18.7548  37
  -5   1 -11 39.9787 23.5633  34
   5  -1  12 182.930 40.4741  27
  -5   1 -12 165.235 34.9214  34
   5   0 -13 15.5217 20.2253  27
   5   0 -12 922.827 94.2095  27
  -5   0  12 934.369 89.6546  26
   5   0 -12 861.727 81.8804  36
  -5   0  12 903.375 81.2024  22
  -5   0  11 535.673 78.6014  26
   5   0 -11 418.221 63.5621  36
  -5   0  11 434.530 64.7115  23
  -5   0  11 611.015 77.7496  22
  -5   0  10 711.773 96.2964  26
   5   0 -10 717.179 89.8573  36
  -5   0  10 733.348 95.9331  23
  -5   0  10 750.806 92.4266  22
  -5   0   9 741.538 103.464  26
   5   0  -9 800.233 99.8298  36
  -5   0   9 799.185 106.735  23
  -5   0   9 787.636 101.668  22
  -5   0   8 109.594 45.4655  26
   5   0  -8 54.6428 40.9774  18
  -5   0   8 31.3108 28.2653  39
   5   0  -8 45.9207 35.4905  36
  -5   0   8 73.6148 40.4153  23
  -5   0   8 44.9036 37.4558  22
  -5   0   7 558.701 89.9834  26
   5   0  -7 604.405 101.887  18
  -5   0   7 575.218 85.2534  39
   5   0  -7 455.922 79.3447  36
   5   0  -7 466.164 87.3004  16
  -5   0   7 439.989 85.5270  23
  -5   0   7 530.528 88.3655  22
   5   0  -6 96.5892 37.3626  27
  -5   0   6 192.047 59.0970  26
  -5   0   6 127.119 44.3494  39
   5   0  -6 181.154 60.6445  16
  -5   0   6 138.067 48.4901  23
  -5   0   6 138.104 47.4375  22
   5   0  -5 787.719 108.496  27
  -5   0   5 919.273 110.471  26
  -5   0   5 800.691 102.354  39
   5   0  -5 894.840 117.359  16
  -5   0   5 812.907 108.931  23
  -5   0   5 690.411 95.8380  22
  -5   0   4 1145.24 112.914  32
   5   0  -4 1179.93 130.746  27
  -5   0   4 1119.90 118.170  26
  -5   0   4 1212.95 121.442  39
  -5   0   4 1155.17 113.019  24
   5   0  -4 1118.79 128.707  16
  -5   0   4 1144.92 128.814  23
  -5   0   4 1350.45 127.362  22
  -5   0   3 5422.39 244.095  32
   5   0  -3 5287.08 264.208  27
  -5   0   3 5396.73 247.948  39
  -5   0   3 5382.71 242.614  24
   5   0  -3 5424.73 273.355  16
  -5   0   3 5478.94 242.174  22
  -5   0   2 947.574 104.162  32
   5   0  -2 1086.31 119.486  27
  -5   0   2 1167.56 118.332  39
  -5   0   2 1105.85 113.722  24
   5   0  -2 894.548 110.371  16
   5   0  -2 1181.57 113.401   3
  -5   0   1 16916.3 436.713  32
  -5   0   1 16350.8 377.278  20
   5   0  -1 16407.0 447.302  27
  -5   0   1 16980.2 424.605  39
  -5   0   1 17264.0 439.368  24
   5   0  -1 16313.2 455.174  16
  -5   0   0 32373.1 609.775  32
  -5   0   0 31428.2 541.256  20
   5   0   0 32586.3 621.962  27
   5   0   0 30782.3 608.294  25
  -5   0   0 32187.3 574.717  39
  -5   0   0 32504.8 605.369  24
   5   0   0 31983.9 628.480  16
  -5   0  -1 50137.0 762.200  32
  -5   0  -1 48527.4 691.542  20
   5   0   1 50732.0 772.916  27
   5   0   1 47332.0 756.834  25
  -5   0  -1 49998.1 692.241  39
  -5   0  -1 49714.2 753.735  24
   5   0   1 49995.1 777.866  16
  -5   0  -1 48558.3 676.923  37
  -5   0  -2 793.419 99.6416  32
  -5   0  -2 794.641 93.5166  20
   5   0   2 666.767 92.2467  27
   5   0   2 584.091 82.9193  25
  -5   0  -2 843.643 101.764  24
   5   0   2 976.434 112.277  16
  -5   0  -2 859.521 95.6646  37
  -5   0  -2 878.012 90.9361  15
  -5   0  -3 54.6707 33.6014  32
  -5   0  -3 46.8756 27.2221  15
  -5   0  -3 63.2547 33.5849  20
   5   0   3 50.1896 33.0760  27
   5   0   3 47.1423 35.4810  25
  -5   0  -3 64.0377 41.1097  24
  -5   0  -3 85.3129 31.8804  37
   5   0   3 47.7311 30.8844  16
  -5   0  -4 182.570 49.8685  32
  -5   0  -4 197.428 49.4271  15
  -5   0  -4 219.771 52.5874  20
   5   0   4 306.173 65.3225  27
   5   0   4 170.530 46.1208  25
  -5   0  -4 237.892 54.5822  24
  -5   0  -4 229.989 56.6981  37
   5   0   4 210.589 57.3974  16
  -5   0  -5 270.953 56.5029  32
  -5   0  -5 274.206 60.5749  15
  -5   0  -5 368.318 73.2515  20
   5   0   5 232.946 59.9779  27
   5   0   5 343.459 67.7161  25
  -5   0  -5 278.216 59.8196  37
   5   0   5 363.025 71.5113  16
  -5   0  -6 3750.98 214.185  20
   5   0   6 3693.10 215.662  27
   5   0   6 3724.64 215.514  25
   5   0   6 3858.05 227.717  16
  -5   0  -6 3807.58 213.461  37
  -5   0  -6 3765.13 194.560  34
  -5   0  -6 4005.51 222.102  15
  -5   0  -7 4974.20 243.454  20
   5   0   7 4917.11 246.465  27
   5   0   7 4876.90 245.199  25
  -5   0  -7 5143.29 244.184  37
  -5   0  -7 4922.14 226.012  34
   5   0   8 1162.40 120.470  27
   5   0   8 1019.07 113.469  25
  -5   0  -8 1055.22 109.897  37
  -5   0  -8 1104.18 109.591  34
   5   0   9 9790.76 325.869  27
   5   0   9 9454.92 315.511  25
  -5   0  -9 9271.53 300.348  37
  -5   0  -9 10084.1 312.449  34
   5   0  10 3356.91 177.893  27
   5   0  10 3514.94 178.616  25
  -5   0 -10 3230.69 163.057  37
  -5   0 -10 3353.15 169.874  34
   5   0  11-24.2296 26.7564  27
   5   0  11 55.0062 28.8553  25
  -5   0 -11-2.45911 19.7594  37
  -5   0 -11 92.6914 33.1910  34
  -5   0 -12 237.687 36.4707  34
   5   1 -12 7.41478 22.1573  27
  -5  -1  12 22.9771 20.4071  26
   5   1 -11 121.035 40.8927  27
  -5  -1  11 116.295 39.8542  26
  -5  -1  11 44.4440 26.6692  23
   5   1 -10 72.4545 36.8171  27
  -5  -1  10 102.466 39.9845  26
  -5  -1  10 53.3839 31.8738  23
  -5  -1  10 83.4499 41.5543  22
   5   1  -9 151.104 50.8059  27
  -5  -1   9 198.025 58.1708  26
  -5  -1   9 199.126 46.1325  39
  -5  -1   9 194.089 57.5288  23
  -5  -1   9 217.233 56.6373  22
   5   1  -8 1289.06 134.095  27
  -5  -1   8 1477.27 143.473  26
  -5  -1   8 1429.14 126.150  39
  -5  -1   8 1718.61 159.237  23
  -5  -1   8 1544.87 143.881  22
   5   1  -7 21.3732 31.6645  46
   5   1  -7-22.9141 43.9068  27
  -5  -1   7 47.1999 41.9006  26
  -5  -1   7 28.7091 30.1324  39
   5   1  -7 98.2032 42.0909  16
  -5  -1   7 37.1193 37.2139  23
  -5  -1   7 36.2540 29.5347  22
   5   1  -6 104.014 59.7382  46
   5   1  -6-25.7419 43.3580  27
  -5  -1   6 47.9935 39.0935  26
  -5  -1   6 36.4652 29.6359  39
   5   1  -6 38.0072 45.7373  16
  -5  -1   6 6.94004 36.3860  23
  -5  -1   5 10131.0 344.535  32
   5   1  -5 10475.8 408.859  46
   5   1  -5 9893.74 370.113  27
  -5  -1   5 10100.3 355.646  26
  -5  -1   5 10299.1 358.526  39
  -5  -1   5 10528.8 344.482  24
   5   1  -5 11876.2 425.149  16
  -5  -1   5 10551.5 396.389  23
  -5  -1   5 10236.5 359.728  22
  -5  -1   4 26128.1 562.507  32
   5   1  -4 26488.5 632.708  46
   5   1  -4 25685.9 586.253  27
  -5  -1   4 25691.1 564.048  39
  -5  -1   4 26008.5 555.661  24
   5   1  -4 26542.7 628.794  16
  -5  -1   4 26566.3 619.610  23
  -5  -1   4 24796.0 542.809  22
  -5  -1   3 30631.7 612.614  32
   5   1  -3 30321.6 628.388  27
  -5  -1   3 31360.5 617.876  39
  -5  -1   3 31242.4 615.269  24
   5   1  -3 32568.7 683.673  16
  -5  -1   3 31820.6 662.593  23
  -5  -1   3 30798.4 581.169  22
  -5  -1   2 2579.36 183.099  32
   5   1  -2 2468.50 178.456  27
  -5  -1   2 2578.05 179.226  39
   5   1  -2 2206.95 181.733  25
  -5  -1   2 2670.56 182.879  24
   5   1  -2 2533.89 189.978  16
  -5  -1   2 2515.74 184.820  23
  -5  -1   1 12229.3 397.151  32
  -5  -1   1 12635.8 358.830  20
   5   1  -1 12649.9 393.773  27
  -5  -1   1 12424.1 379.050  39
   5   1  -1 11514.3 398.989  25
  -5  -1   1 12345.7 393.492  24
   5   1  -1 13069.1 419.848  16
  -5  -1   0 10970.0 376.563  32
  -5  -1   0 11344.8 350.736  20
   5   1   0 11986.1 377.513  27
   5   1   0 11166.6 389.396  25
  -5  -1   0 10830.4 343.638  39
  -5  -1   0 11210.8 378.258  24
   5   1   0 11506.2 388.622  16
  -5  -1   0 10494.9 326.528  37
  -5  -1  -1 2632.07 184.977  32
  -5  -1  -1 2927.83 184.362  20
   5   1   1 2991.32 188.265  27
   5   1   1 3051.66 203.960  25
  -5  -1  -1 2925.40 194.228  24
   5   1   1 3210.87 206.992  16
  -5  -1  -1 3074.14 181.824  37
  -5  -1  -2 1995.13 162.345  32
  -5  -1  -2 1946.43 154.788  20
   5   1   2 1939.82 152.306  27
   5   1   2 1932.70 162.712  25
  -5  -1  -2 2051.18 161.860  24
   5   1   2 2037.06 164.472  16
  -5  -1  -2 1981.99 149.760  37
  -5  -1  -2 1921.29 146.406  15
  -5  -1  -3 1308.30 131.371  32
  -5  -1  -3 1188.58 122.162  20
   5   1   3 1464.52 133.311  27
   5   1   3 1262.26 133.188  25
  -5  -1  -3 1201.18 122.467  24
   5   1   3 1359.58 135.865  16
  -5  -1  -3 1344.07 126.690  37
  -5  -1  -3 1183.55 120.910  15
  -5  -1  -4 1342.00 128.732  32
  -5  -1  -4 1548.65 142.158  20
   5   1   4 1301.67 126.525  27
   5   1   4 1450.28 140.219  25
   5   1   4 1560.56 146.299  16
  -5  -1  -4 1446.32 131.964  24
  -5  -1  -4 1222.43 121.344  37
  -5  -1  -4 1273.08 128.456  15
  -5  -1  -5 4197.28 219.125  32
  -5  -1  -5 4335.17 237.850  20
   5   1   5 4036.02 218.754  27
   5   1   5 4259.44 238.586  25
   5   1   5 4586.30 249.448  16
  -5  -1  -5 4382.38 230.217  37
  -5  -1  -5 4452.02 241.040  15
  -5  -1  -6 5963.21 275.945  20
   5   1   6 6109.76 265.383  27
   5   1   6 6122.10 280.852  25
  -5  -1  -6 6042.57 267.735  37
  -5  -1  -6 5836.31 243.756  34
   5   1   7 18517.1 448.176  27
   5   1   7 18026.0 470.850  25
  -5  -1  -7 17855.5 448.092  37
  -5  -1  -7 17100.1 414.848  34
   5   1   8 2461.50 157.624  27
   5   1   8 2730.13 177.168  25
  -5  -1  -8 2406.56 157.967  37
  -5  -1  -8 2550.72 159.019  34
   5   1   9 354.453 57.1559  27
   5   1   9 362.606 62.3313  25
  -5  -1  -9 301.370 54.2322  37
  -5  -1  -9 366.235 60.2885  34
   5   1  10 1073.08 86.7960  27
   5   1  10 1107.20 95.1199  25
  -5  -1 -10 1060.24 84.1618  37
  -5  -1 -10 1169.63 92.4947  34
   5   1  11 698.522 64.2747  25
  -5  -1 -11 677.646 61.5873  34
  -5  -2  12 44.7260 16.6073  26
   5   2 -11 45.9331 28.3511  27
  -5  -2  11 54.9737 30.0113  26
  -5  -2  11 20.3973 26.8069  23
   5   2 -10 1876.28 130.896  27
  -5  -2  10 1761.81 133.734  26
  -5  -2  10 1681.72 134.399  23
   5   2  -9 148.780 46.9027  27
  -5  -2   9 218.690 55.4743  26
  -5  -2   9 287.928 64.6006  23
   5   2  -8 2299.02 162.888  27
  -5  -2   8 2344.39 167.235  26
  -5  -2   8 2244.79 152.421  39
  -5  -2   8 2457.36 184.686  23
   5   2  -7 613.787 90.3611  27
  -5  -2   7 741.669 99.6321  26
  -5  -2   7 704.652 92.7436  39
  -5  -2   7 714.680 105.868  23
  -5  -2   6 476.694 79.3161  32
   5   2  -6 364.902 72.4866  27
  -5  -2   6 417.072 76.9962  26
  -5  -2   6 408.768 74.0970  39
  -5  -2   6 561.098 97.7437  23
  -5  -2   5-5.31488 26.2314  32
   5   2  -5 14.2676 33.7977  27
  -5  -2   5 85.2014 46.0688  39
   5   2  -5 48.4971 32.9452  16
  -5  -2   5 23.3583 43.6846  23
  -5  -2   4 248.826 63.3396  32
   5   2  -4 248.707 74.4505  46
   5   2  -4 314.807 69.4468  27
  -5  -2   4 287.640 70.0688  39
   5   2  -4 438.243 95.5782  25
  -5  -2   4 287.219 64.5911  24
   5   2  -4 208.448 62.9121  16
  -5  -2   4 325.247 77.6490  23
  -5  -2   3 14751.7 445.153  32
   5   2  -3 15410.1 492.385  46
   5   2  -3 14874.7 420.764  27
  -5  -2   3 13887.7 422.238  39
   5   2  -3 14245.9 463.087  25
  -5  -2   3 14499.3 433.716  24
   5   2  -3 14707.8 455.494  16
  -5  -2   3 15206.9 460.647  23
  -5  -2   2 31397.1 658.048  32
  -5  -2   2 29658.9 605.947  39
   5   2  -2 30991.1 673.085  25
  -5  -2   2 30456.4 635.007  24
   5   2  -2 32061.3 662.233  16
  -5  -2   1 9622.91 365.575  32
  -5  -2   1 9420.24 330.791  20
  -5  -2   1 8501.13 318.146  39
   5   2  -1 9430.51 371.545  25
  -5  -2   1 9215.48 354.265  24
  -5  -2   1 8891.04 305.448  37
  -5  -2   0 451.669 83.3156  32
   5   2   0 366.403 75.2632  31
  -5  -2   0 433.012 75.3466  20
  -5  -2   0 340.095 67.0332  39
   5   2   0 243.224 48.0438  25
  -5  -2   0 390.134 77.5981  24
  -5  -2   0 375.522 72.4618  37
   5   2   0 406.834 78.5044  16
  -5  -2  -1 1778.79 158.273  32
   5   2   1 1824.44 154.960  31
  -5  -2  -1 1820.69 154.104  20
   5   2   1 1830.20 159.917  25
  -5  -2  -1 1791.05 156.036  24
   5   2   1 1793.37 156.580  16
  -5  -2  -1 1764.03 144.088  37
  -5  -2  -2 4649.48 250.593  32
   5   2   2 4658.35 238.910  31
  -5  -2  -2 4678.68 249.982  20
  -5  -2  -2 4446.71 213.507  29
   5   2   2 4889.70 260.962  25
  -5  -2  -2 4716.58 247.416  24
   5   2   2 4883.77 252.350  16
  -5  -2  -2 4509.41 231.603  37
  -5  -2  -2 4445.36 229.625  15
  -5  -2  -3 7006.04 299.198  32
  -5  -2  -3 6468.07 295.550  20
   5   2   3 7318.61 315.491  25
  -5  -2  -3 6590.99 285.786  24
   5   2   3 7178.33 306.638  16
  -5  -2  -3 6912.57 289.243  37
  -5  -2  -3 6549.49 285.833  15
  -5  -2  -4 3200.30 194.080  32
  -5  -2  -4 3131.44 206.687  20
   5   2   4 2988.25 200.153  25
  -5  -2  -4 2954.15 184.258  24
  -5  -2  -4 2760.80 184.561  37
  -5  -2  -5 13.2879 33.3972  20
   5   2   5 28.9584 38.3679  25
  -5  -2  -5 91.1596 43.3125  37
   5   2   6 1161.58 120.618  25
  -5  -2  -6 1061.26 111.259  37
  -5  -2  -6 1047.48 98.7485  34
   5   2   7 4603.84 222.914  25
  -5  -2  -7 4459.88 209.680  37
  -5  -2  -7 4474.59 196.702  34
   5   2   8 526.353 72.2293  25
  -5  -2  -8 475.415 65.5129  37
   5   2   8 442.112 61.9207  35
  -5  -2  -8 485.344 63.9628  34
   5   2   9 121.897 33.8185  25
  -5  -2  -9 172.250 37.9980  37
   5   2   9 137.430 33.6688  35
  -5  -2  -9 138.375 34.9902  34
   5   2  10 181.727 33.5939  25
  -5  -3  10 65.5935 30.3852  26
   5   3 -10 88.3425 37.5948  25
  -5  -3  10 2.97343 22.2498  23
  -5  -3   9 20.5619 23.1139  26
   5   3  -9 72.4036 43.9030  25
  -5  -3   9-5.75835 29.3383  23
  -5  -3   8 1.22961 23.8419  26
  -5  -3   8-32.1810 31.5004  23
  -5  -3   7 261.989 54.5037  32
   5   3  -7 290.302 70.3060  25
  -5  -3   7 280.022 65.9956  23
  -5  -3   6 341.053 63.8487  32
   5   3  -6 550.008 96.4717  25
  -5  -3   6 445.803 69.9809  24
  -5  -3   6 481.606 84.5965  23
  -5  -3   5 38.1726 39.2724  32
   5   3  -5 49.1239 44.9311  25
  -5  -3   5 12.2595 29.6957  24
  -5  -3   5-17.2670 36.7294  23
  -5  -3   4 47.8421 43.7363  32
   5   3  -4-31.9488 44.3258  25
  -5  -3   4 45.3964 41.0809  24
  -5  -3   4-13.6425 38.7905  23
  -5  -3   3 8520.72 340.205  32
   5   3  -3 9006.91 370.945  21
   5   3  -3 9347.07 356.787  25
  -5  -3   3 8251.48 328.717  24
  -5  -3   2 6970.85 312.023  32
   5   3  -2 7271.45 332.797  21
   5   3  -2 7290.14 316.896  31
   5   3  -2 7234.13 314.426  25
  -5  -3   2 6866.19 302.556  24
  -5  -3   1 3210.03 214.046  32
   5   3  -1 3276.94 222.378  21
   5   3  -1 2939.24 199.395  31
  -5  -3   1 3087.41 195.538  20
   5   3  -1 3068.20 204.068  25
  -5  -3   1 2723.42 192.730  24
  -5  -3   1 3068.99 182.983  37
  -5  -3   0 566.988 93.7321  32
   5   3   0 763.595 106.743  21
   5   3   0 545.201 87.0508  31
  -5  -3   0 726.751 95.8806  20
   5   3   0 602.392 91.2069  25
  -5  -3   0 652.490 90.7092  37
  -5  -3   0 517.997 85.8562  24
  -5  -3  -1 31.6842 41.4875  32
   5   3   1-8.38596 38.3732  31
  -5  -3  -1-2.55712 21.9967  29
  -5  -3  -1-11.3767 24.1001  20
   5   3   1-24.9513 33.2552  25
  -5  -3  -1 0.14227 27.4466  24
  -5  -3  -1 7.90348 23.3840  37
  -5  -3  -2 219.337 56.1462  32
   5   3   2 504.568 82.5917  31
  -5  -3  -2 398.633 64.8420  29
   5   3   2 516.722 85.4869  25
  -5  -3  -2 343.909 69.1835  24
  -5  -3  -2 498.828 80.1895  37
  -5  -3  -3 1527.49 129.876  32
   5   3   3 1493.88 131.430  31
  -5  -3  -3 1533.03 126.123  29
   5   3   3 1518.34 139.456  25
  -5  -3  -3 1434.81 127.776  24
  -5  -3  -3 1665.30 138.817  37
   5   3   4 8346.94 290.782  31
  -5  -3  -4 8328.21 287.020  29
   5   3   4 9048.83 320.144  25
  -5  -3  -4 8795.42 307.396  37
   5   3   5 1876.39 130.762  31
  -5  -3  -5 1715.06 128.016  29
   5   3   5 1919.36 142.098  25
  -5  -3  -5 1768.34 134.581  37
  -5  -3  -6 320.061 54.2978  29
   5   3   6 463.467 68.9141  25
  -5  -3  -6 302.724 56.1330  37
  -5  -3  -7 341.402 54.3091  29
   5   3   7 299.163 50.7014  25
  -5  -3  -7 297.642 49.2713  37
  -5  -3  -7 341.172 48.9621  34
  -5  -3  -8 118.049 30.6807  29
   5   3   8 80.1194 25.1308  25
  -5  -3  -8 63.6733 24.5266  37
   5   4  -8-17.3348 21.3936  25
  -5  -4   8-21.7161 28.1682  23
  -5  -4   7-15.5253 21.2379  32
   5   4  -7-37.0809 33.6367  25
  -5  -4   7 47.0161 30.7155  23
  -5  -4   6 634.847 77.9675  32
   5   4  -6 676.663 79.1044  25
  -5  -4   6 740.963 87.4012  23
  -5  -4   5 7787.10 279.646  32
   5   4  -5 8476.61 302.204  31
   5   4  -5 8687.36 287.963  25
  -5  -4   5 7685.13 265.828  24
  -5  -4   5 8585.28 286.137  23
  -5  -4   4 6923.75 274.882  32
   5   4  -4 7833.99 295.025  31
   5   4  -4 7611.33 271.161  25
  -5  -4   4 6745.20 262.627  24
  -5  -4   3 2032.59 154.565  32
   5   4  -3 2235.72 160.598  31
   5   4  -3 2253.66 150.654  25
  -5  -4   3 1882.53 144.919  24
  -5  -4   2 211.396 59.4534  32
   5   4  -2 211.452 53.3971  31
   5   4  -2 173.579 45.2877  25
  -5  -4   2 261.579 58.1828  24
  -5  -4   2 195.770 44.1120  37
  -5  -4   1-16.3935 29.9090  32
   5   4  -1 3.75850 24.0553  31
  -5  -4   1 33.6867 23.6285  29
   5   4  -1 19.3886 25.7499  25
  -5  -4   1-20.3153 30.5083  24
  -5  -4   1 7.64567 22.7184  37
  -5  -4   0 180.774 51.4082  32
   5   4   0 80.8541 32.5946  31
  -5  -4   0 114.306 34.6964  29
   5   4   0 76.1104 32.0528  25
  -5  -4   0 77.2413 35.6745  24
  -5  -4   0 167.755 46.2472  37
  -5  -4  -1 1344.32 118.060  32
   5   4   1 1372.40 120.310  31
  -5  -4  -1 1268.71 103.244  29
   5   4   1 1501.64 119.773  25
  -5  -4  -1 1165.06 112.779  24
  -5  -4  -1 1295.47 111.126  37
  -5  -4  -2 1103.22 99.7699  32
   5   4   2 1420.63 117.612  31
  -5  -4  -2 1407.61 107.708  29
   5   4   2 1351.16 110.398  25
  -5  -4  -2 1225.90 107.479  24
  -5  -4  -2 1325.64 111.897  37
   5   4   3 20.8416 26.1908  31
  -5  -4  -3 38.1066 27.5654  29
   5   4   3 85.8341 33.4849  25
  -5  -4  -3 57.1824 29.6729  37
   5   4   4 346.456 53.6800  31
  -5  -4  -4 365.351 54.6997  29
   5   4   4 415.222 58.2809  25
  -5  -4  -4 325.669 55.1941  37
   5   4   5-8.90025 17.6932  31
  -5  -4  -5-5.39964 15.8896  29
   5   4   5 5.81175 16.7491  25
  -5  -4  -5-16.1671 22.0304  37
   5   5  -5 3500.35 148.649  31
  -5  -5   4 1929.07 116.605  32
   5   5  -4 2363.88 126.979  31
  -5  -5   3 222.843 44.6427  32
   5   5  -3 216.469 43.4973  31
  -5  -5   2 25.1606 25.0875  32
   5   5  -2 19.1263 18.7829  31
  -5  -5   1 53.4926 26.5125  32
   5   5  -1 83.9660 29.2300  31
  -5  -5   1 49.4343 19.0802  37
   5   5   0 0.83396 21.9570  31
  -5  -5   0 47.6177 23.7940  37
   5   5   1 1010.26 80.4743  31
  -5  -5  -1 838.413 70.6141  37
   6  -7  -3 200.398 38.5301  28
  -6   7   3 140.372 31.1819  26
   6  -7  -3 184.599 34.5868  40
  -6   7   3 207.627 35.3519  39
  -6   7   3 176.858 32.7658  22
   6  -7  -2 210.925 42.4868  28
   6  -7  -2 147.568 35.6028  40
  -6   7   2 210.324 40.3028  39
  -6   7   2 223.526 37.8321  22
   6  -7  -1 836.481 78.0616  28
   6  -7  -1 754.510 74.6278  40
  -6   7   1 981.025 80.7908  39
   6  -7   0 123.414 35.1562  28
   6  -7   0 94.3793 32.9228  40
  -6   7   0 132.615 33.7581  39
  -6   7   0 165.707 35.0019  24
   6  -7   1 58.1237 26.5937  28
   6  -7   1 52.7205 24.6960  40
  -6   7  -1 52.8032 26.1299  39
  -6   7  -1 84.6655 30.3992  24
  -6   7  -2 529.082 55.3336  32
   6  -7   2 552.728 64.7613  28
   6  -7   2 508.360 62.1838  40
  -6   7  -2 541.310 58.0499  39
  -6   7  -2 581.193 63.9941  24
  -6   7  -3 19.6410 18.5411  32
   6  -7   3 32.8731 21.4294  28
   6  -7   3 26.9589 17.1127  40
  -6   7  -3 5.19918 18.5232  24
  -6   7  -4 96.6680 29.0912  32
   6  -7   4 95.7344 28.5996  28
   6  -7   4 99.5818 28.2421  40
  -6   7  -4 115.049 31.7597  24
  -6   7  -5 915.415 72.3842  32
   6  -7   5 999.326 77.6622  28
   6  -7   5 963.887 76.0584  40
  -6   7  -5 919.877 72.9021  24
   6  -7   6 1485.56 87.8940  28
   6  -6  -6 8.90899 22.9035  28
  -6   6   6-3.78649 17.0055  26
  -6   6   6-6.95454 14.7345  39
  -6   6   6 12.9930 22.9418  22
   6  -6  -5 751.583 74.7549  28
  -6   6   5 843.387 79.1034  26
  -6   6   5 757.040 71.2630  39
  -6   6   5 769.953 76.0149  22
   6  -6  -4 25.5639 23.6085  28
  -6   6   4 16.5581 25.5632  26
  -6   6   4 31.6788 20.9086  39
  -6   6   4 76.8020 31.0356  22
   6  -6  -3 114.564 38.3912  28
  -6   6   3 104.675 36.2481  39
  -6   6   3 62.0911 29.3804  22
   6  -6  -2 108.025 38.9883  28
  -6   6   2 90.5891 38.9937  39
   6  -6  -2 137.006 36.3830  36
  -6   6   2 126.933 40.5263  22
   6  -6  -1 8790.54 286.054  28
  -6   6   1 9167.64 286.175  39
  -6   6   1 9363.28 271.405  24
   6  -6  -1 8783.60 266.382  36
  -6   6   1 8722.66 263.889  22
   6  -6   0-23.0642 32.0468  28
   6  -6   0-12.0566 28.3773  40
  -6   6   0 9.30870 25.8947  39
  -6   6   0 15.9260 20.7849  24
   6  -6   0-22.7902 26.1860  36
  -6   6  -1 5.29764 24.4905  32
   6  -6   1-28.9642 37.6747  28
   6  -6   1-8.77627 28.5722  40
  -6   6  -1-16.9196 25.7757  39
  -6   6  -1 7.78750 24.5233  24
   6  -6   1-27.4636 31.6607  36
  -6   6  -2 295.132 53.4710  32
   6  -6   2 202.005 48.8943  28
   6  -6   2 193.581 47.1990  40
  -6   6  -2 299.342 53.7389  39
  -6   6  -2 332.825 59.4652  24
   6  -6   2 223.643 45.4361  36
   6  -6   3 127.433 35.0986  28
   6  -6   3 145.962 42.3146  40
  -6   6  -3 207.872 51.2486  24
   6  -6   3 141.920 35.5522  36
  -6   6  -4 975.256 94.1603  32
   6  -6   4 1076.15 98.5577  28
   6  -6   4 1087.04 101.525  40
  -6   6  -4 1005.18 96.9700  24
   6  -6   4 1019.06 91.1910  36
  -6   6  -5 20045.0 409.113  32
   6  -6   5 20268.5 411.756  28
   6  -6   5 19634.3 405.335  40
  -6   6  -5 19628.3 397.734  24
   6  -6   5 20116.4 383.076  36
  -6   6  -6 10819.9 289.800  32
   6  -6   6 10670.6 284.136  28
   6  -6   6 11092.6 292.005  40
  -6   6  -6 10632.8 273.945  24
   6  -6   6 10805.9 268.690  36
  -6   6  -7 2366.82 128.472  32
   6  -6   7 2275.21 125.148  28
   6  -6   7 2446.85 129.752  40
  -6   6  -7 2166.39 112.410  24
  -6   6  -7 2656.48 125.029  37
   6  -6   7 2241.28 114.983  36
  -6   6  -8 503.992 54.1913  32
   6  -6   8 522.355 56.7047  40
  -6   6  -8 513.718 51.6286  37
   6  -5  -8 2029.84 105.884  28
  -6   5   8 2145.20 113.797  26
   6  -5  -8 1823.70 101.686  36
  -6   5   8 2088.52 115.184  22
   6  -5  -7 5372.19 192.123  28
  -6   5   7 5536.37 205.650  26
  -6   5   7 5428.78 177.984  39
   6  -5  -7 5158.64 196.542  36
  -6   5   7 5603.69 205.859  22
   6  -5  -6 6117.85 223.260  28
  -6   5   6 6335.17 236.879  26
  -6   5   6 6338.09 215.897  39
   6  -5  -6 5720.73 223.261  36
  -6   5   6 6097.21 228.906  22
   6  -5  -5 1356.27 112.464  28
  -6   5   5 1387.16 120.158  26
  -6   5   5 1532.10 115.382  39
   6  -5  -5 1342.00 115.414  36
  -6   5   5 1258.22 111.474  22
   6  -5  -4 282.595 57.2509  28
  -6   5   4 433.866 70.7977  26
  -6   5   4 373.822 65.2306  39
   6  -5  -4 204.897 51.6419  36
  -6   5   4 374.046 65.5656  22
   6  -5  -3 148.241 46.5607  28
  -6   5   3 139.641 45.6001  39
   6  -5  -3 143.380 48.9120  36
  -6   5   3 196.071 52.6116  22
   6  -5  -2 124.725 42.9220  28
  -6   5   2 151.793 44.9342  39
  -6   5   2 188.101 45.6358  24
   6  -5  -2 124.202 47.3995  36
  -6   5   2 207.835 52.7929  22
   6  -5  -1 72.6657 35.6644  28
  -6   5   1 19.0009 29.2558  39
  -6   5   1 106.653 40.8444  24
   6  -5  -1-4.08302 25.0876  36
  -6   5   0 11.9591 26.1525  32
   6  -5   0-5.04897 26.6563  28
  -6   5   0 1.03900 29.1114  39
  -6   5   0 8.10099 21.4000  24
   6  -5   0-9.24191 27.4577  36
  -6   5  -1 668.511 82.5518  32
   6  -5   1 605.124 82.3563  28
   6  -5   1 571.440 81.9074  40
  -6   5  -1 667.406 84.3746  39
  -6   5  -1 796.983 94.1949  24
   6  -5   1 721.928 91.8327  36
  -6   5  -2 151.879 48.5559  32
   6  -5   2 148.527 38.8850  28
   6  -5   2 119.206 36.5637  40
  -6   5  -2 199.100 48.9249  39
  -6   5  -2 215.045 56.8541  24
   6  -5   2 178.988 52.8057  36
  -6   5  -3 231.215 54.6621  32
   6  -5   3 98.3268 37.0309  28
   6  -5   3 144.106 45.2603  40
  -6   5  -3 260.130 61.4765  24
   6  -5   3 234.221 58.0522  36
  -6   5  -4 1781.60 139.677  32
   6  -5   4 1732.69 136.011  28
   6  -5   4 1597.27 130.968  40
  -6   5  -4 1918.82 145.178  24
   6  -5   4 1643.14 134.221  36
  -6   5  -5 38780.7 632.142  32
   6  -5   5 39299.2 611.076  28
   6  -5   5 37964.6 613.379  40
  -6   5  -5 38076.0 609.201  24
   6  -5   5 38548.6 612.277  36
  -6   5  -6 1080.90 104.770  32
   6  -5   6 1056.31 101.072  28
   6  -5   6 1153.62 107.815  40
  -6   5  -6 1123.80 102.500  24
   6  -5   6 1058.95 102.666  36
  -6   5  -7 85.3173 32.3855  32
   6  -5   7 83.5997 34.2037  28
   6  -5   7 104.441 35.6113  40
  -6   5  -7 118.960 33.5918  24
  -6   5  -7 168.107 41.6549  37
   6  -5   7 76.4691 25.9886  36
  -6   5  -8 101.204 35.0730  32
   6  -5   8 50.1591 25.4457  40
  -6   5  -8 90.9173 28.9937  37
   6  -5   8 62.3396 25.6839  36
  -6   5  -9 1090.44 79.5753  32
   6  -5   9 1097.91 82.8014  40
  -6   5  -9 1178.09 84.7481  37
   6  -5   9 1087.85 82.6331  36
  -6   4   9 3888.93 163.614  26
   6  -4  -9 3568.32 160.148  36
  -6   4   9 3820.28 160.012  22
   6  -4  -8 93.7055 33.7596  28
  -6   4   8 63.0593 32.0267  26
   6  -4  -8 76.1826 37.6871  36
  -6   4   8 115.160 36.5774  22
   6  -4  -7 458.379 64.0728  28
  -6   4   7 330.502 61.9643  26
  -6   4   7 293.297 49.8356  39
   6  -4  -7 311.658 64.1389  36
  -6   4   7 398.811 64.9067  23
  -6   4   7 383.424 63.4722  22
   6  -4  -6 35.4467 30.7262  28
  -6   4   6 40.8441 30.6694  26
  -6   4   6 80.9617 37.5340  39
   6  -4  -6 38.2467 38.7125  36
  -6   4   6 38.8677 29.4510  22
   6  -4  -5-17.5418 27.6683  28
  -6   4   5-21.7476 30.7359  26
  -6   4   5 12.8061 26.7208  39
   6  -4  -5-3.05713 31.2884  36
  -6   4   5 6.34680 30.5532  22
   6  -4  -4 3846.75 197.930  28
  -6   4   4 3823.82 212.907  26
  -6   4   4 3817.26 202.578  39
   6  -4  -4 3442.71 209.779  36
  -6   4   4 3971.52 208.660  22
   6  -4  -3 3263.34 185.067  28
  -6   4   3 3405.49 193.941  39
  -6   4   3 3523.57 180.807  24
   6  -4  -3 3424.26 210.932  36
  -6   4   3 3586.51 197.523  22
   6  -4  -2 537.291 77.9143  28
  -6   4   2 603.824 86.3711  39
  -6   4   2 664.235 84.3203  24
   6  -4  -2 550.277 89.4574  36
  -6   4   1 3446.87 183.498  32
   6  -4  -1 2848.96 173.949  28
  -6   4   1 2973.44 182.745  39
  -6   4   1 2764.32 172.078  24
   6  -4  -1 2878.10 190.430  36
  -6   4   0 2778.78 170.193  32
   6  -4   0 2457.92 160.180  28
  -6   4   0 2584.77 169.538  39
  -6   4   0 2520.65 168.958  24
   6  -4   0 2419.16 174.166  36
  -6   4  -1 243.185 55.1055  32
   6  -4   1 171.803 40.6203  28
   6  -4   1 139.791 39.3285  40
  -6   4  -1 227.345 51.9218  39
  -6   4  -1 268.462 58.9450  24
   6  -4   1 123.022 36.3211  36
  -6   4  -2 14697.0 405.004  32
  -6   4  -2 14492.8 378.269  20
   6  -4   2 14854.4 389.737  28
   6  -4   2 13361.4 380.737  40
  -6   4  -2 14937.2 382.382  39
  -6   4  -2 15227.2 418.385  24
   6  -4   2 15065.9 420.508  36
  -6   4  -3 11309.4 359.230  32
  -6   4  -3 10995.7 337.064  20
   6  -4   3 10736.7 334.529  28
   6  -4   3 10600.7 337.288  40
  -6   4  -3 11235.4 358.127  24
   6  -4   3 11438.7 364.913  36
  -6   4  -4 47751.7 737.894  32
  -6   4  -4 47212.0 705.716  20
   6  -4   4 48321.5 694.368  28
   6  -4   4 46842.7 707.710  40
  -6   4  -4 48806.3 735.802  24
  -6   4  -4 47183.9 661.911  37
   6  -4   4 48699.2 746.536  36
  -6   4  -5 108.598 48.7661  32
  -6   4  -5 54.9286 32.5990  20
   6  -4   5 72.4512 36.3371  28
   6  -4   5 104.746 45.6647  40
  -6   4  -5 191.218 55.0233  24
  -6   4  -5 248.566 58.3414  37
   6  -4   5 102.678 50.3903  36
  -6   4  -6 43.1542 28.5593  32
   6  -4   6-15.1096 30.0837  28
   6  -4   6 48.1165 34.9434  40
  -6   4  -6 17.3363 25.4279  24
  -6   4  -6 61.2569 31.7503  37
   6  -4   6 26.2781 39.1998  36
  -6   4  -7 330.449 60.1387  32
   6  -4   7 199.551 42.9487  28
   6  -4   7 380.253 62.2878  40
  -6   4  -7 323.371 58.5806  24
  -6   4  -7 309.235 56.5131  37
   6  -4   7 266.369 51.0668  36
  -6   4  -8 408.108 61.9081  32
   6  -4   8 370.298 57.3692  40
  -6   4  -8 453.085 62.7964  37
   6  -4   8 358.794 57.0092  36
  -6   4  -9 96.8553 34.6523  32
   6  -4   9 49.0471 22.1215  40
  -6   4  -9 65.8536 27.0569  37
   6  -4   9 86.0305 28.6472  36
   6  -4  10 2272.96 112.212  40
  -6   4 -10 2118.60 112.625  37
   6  -4  10 2176.50 116.740  36
  -6   4 -10 2272.98 108.027  34
  -6   3  10 160.510 37.9202  26
   6  -3 -10 236.940 46.2372  36
  -6   3  10 160.931 36.3095  22
  -6   3   9 595.942 75.4420  26
   6  -3  -9 494.287 69.7499  36
  -6   3   9 564.922 70.9009  22
   6  -3  -8 140.375 42.7161  27
  -6   3   8 270.840 58.4366  26
  -6   3   8 256.803 46.3679  39
   6  -3  -8 266.138 59.6415  36
  -6   3   8 381.218 63.8911  23
  -6   3   8 325.239 58.2366  22
   6  -3  -7-4.53464 26.1733  27
  -6   3   7-5.01060 32.3114  26
  -6   3   7 51.0195 30.5468  39
   6  -3  -7-4.67812 34.0826  36
  -6   3   7 5.15971 29.5267  23
  -6   3   7-0.23723 34.9151  22
   6  -3  -6 759.282 96.4839  27
  -6   3   6 1131.50 120.168  26
  -6   3   6 1145.51 110.829  39
   6  -3  -6 911.958 112.068  36
  -6   3   6 1194.15 117.046  22
   6  -3  -5 1160.77 121.584  27
  -6   3   5 1507.35 140.374  26
  -6   3   5 1546.91 130.728  39
   6  -3  -5 1480.95 146.716  36
  -6   3   5 1294.30 124.650  22
   6  -3  -4 61.8215 42.7729  27
  -6   3   4 74.6330 39.7122  26
  -6   3   4 68.6259 35.1450  39
   6  -3  -4 45.1111 36.9134  36
  -6   3   4 102.886 41.4292  22
   6  -3  -3 430.606 81.0482  27
  -6   3   3 394.058 72.2894  26
  -6   3   3 439.477 74.7061  39
  -6   3   3 446.194 71.8358  24
   6  -3  -3 526.443 89.3151  36
  -6   3   3 449.681 75.9597  22
   6  -3  -2 438.878 78.7643  27
  -6   3   2 517.704 82.2713  39
  -6   3   2 505.702 76.2328  24
   6  -3  -2 512.584 87.5178  36
  -6   3   1 13.4685 26.5889  32
   6  -3  -1 69.4973 34.7355  27
  -6   3   1 36.1011 30.5477  39
  -6   3   1 113.856 42.8270  24
   6  -3  -1 85.7142 42.9292  36
  -6   3   0 91.3855 39.9959  32
   6  -3   0 127.870 45.7285  27
  -6   3   0 144.991 47.9612  39
  -6   3   0 87.2555 35.5256  24
   6  -3   0 46.0941 32.4911  36
  -6   3  -1 730.959 96.6789  32
  -6   3  -1 686.070 81.4482  20
   6  -3   1 720.094 96.2828  27
   6  -3   1 724.399 88.9349  40
  -6   3  -1 687.327 88.2403  39
  -6   3  -1 803.494 97.9373  24
   6  -3   1 818.234 99.7027  36
  -6   3  -2 3102.57 192.185  32
  -6   3  -2 3093.85 177.686  20
   6  -3   2 3288.29 198.422  27
   6  -3   2 3030.10 178.213  40
  -6   3  -2 3267.30 196.791  24
   6  -3   2 3190.78 197.952  36
  -6   3  -3 35933.6 654.393  32
  -6   3  -3 34933.1 608.023  20
   6  -3   3 35952.5 646.858  27
   6  -3   3 35775.6 596.799  40
  -6   3  -3 36850.9 654.189  24
  -6   3  -3 35058.1 571.762  37
   6  -3   3 36332.7 649.853  36
  -6   3  -4 5220.11 249.933  32
  -6   3  -4 5175.29 238.922  20
   6  -3   4 5315.14 250.140  27
   6  -3   4 5436.04 233.056  40
  -6   3  -4 5426.28 248.455  24
  -6   3  -4 5086.26 225.790  37
   6  -3   4 5566.21 254.314  36
  -6   3  -5-7.38240 30.9609  32
  -6   3  -5 8.11551 27.1584  20
   6  -3   5 31.3281 38.1073  27
   6  -3   5 17.5387 24.0431  40
  -6   3  -5 28.0539 27.3510  24
  -6   3  -5-13.6224 27.4813  37
   6  -3   5 14.3315 24.2692  36
  -6   3  -6 2118.43 154.106  32
  -6   3  -6 2356.94 161.403  20
   6  -3   6 2381.98 163.326  27
   6  -3   6 2086.42 140.337  40
  -6   3  -6 2129.29 147.565  24
  -6   3  -6 2370.68 155.132  37
   6  -3   6 2396.92 162.205  36
  -6   3  -7 26.0283 30.4059  32
   6  -3   7 27.2748 29.4276  27
   6  -3   7 20.1784 21.0054  40
  -6   3  -7 28.6215 23.0051  37
   6  -3   7 14.4949 23.1600  36
  -6   3  -8 1413.28 111.102  32
   6  -3   8 1367.61 114.631  27
   6  -3   8 1560.50 111.617  40
  -6   3  -8 1639.11 122.382  37
   6  -3   8 1584.58 121.779  36
   6  -3   9 514.590 66.0772  27
  -6   3  -9 550.398 70.0605  37
   6  -3   9 546.709 68.4403  36
  -6   3  -9 474.585 58.5637  34
   6  -3  10 6063.18 201.890  27
  -6   3 -10 6162.26 201.376  37
   6  -3  10 6228.25 203.460  36
  -6   3 -10 6138.36 187.638  34
  -6   2  11 2845.63 133.437  26
   6  -2 -11 2715.99 129.831  36
  -6   2  11 2613.31 122.206  22
   6  -2 -10 152.721 41.1922  27
  -6   2  10 61.5293 27.7479  26
   6  -2 -10 131.339 39.3459  36
  -6   2  10 84.9672 30.1533  22
   6  -2  -9 32.6604 28.4166  27
  -6   2   9 26.4856 32.5914  26
   6  -2  -9-25.1458 27.8714  36
  -6   2   9 54.9140 28.3139  23
  -6   2   9 10.0489 26.2993  22
   6  -2  -8 1629.45 139.511  27
  -6   2   8 1894.50 147.841  26
  -6   2   8 1834.01 126.887  39
   6  -2  -8 1956.05 151.796  36
  -6   2   8 1851.72 144.755  23
  -6   2   8 1857.02 140.503  22
   6  -2  -7 2497.68 180.965  27
  -6   2   7 2634.43 178.214  26
  -6   2   7 2658.22 165.005  39
   6  -2  -7 3171.50 197.456  36
  -6   2   7 2690.97 184.511  23
  -6   2   7 2621.14 174.472  22
   6  -2  -6 2683.14 192.095  27
  -6   2   6 3022.69 193.116  26
  -6   2   6 2929.56 180.497  39
   6  -2  -6 2648.99 186.072  36
  -6   2   6 3046.04 203.455  23
  -6   2   6 2974.37 187.996  22
   6  -2  -5 5318.60 270.193  27
  -6   2   5 5905.16 272.401  26
  -6   2   5 5758.27 257.709  39
   6  -2  -5 5405.46 265.806  36
  -6   2   5 6087.49 266.665  22
   6  -2  -4 433.354 80.0211  27
  -6   2   4 495.062 81.8749  26
  -6   2   4 512.261 82.9805  39
   6  -2  -4 555.403 87.5000  36
   6  -2  -4 449.870 81.3376  16
  -6   2   4 523.979 81.6052  22
   6  -2  -3 3908.27 230.655  27
  -6   2   3 4244.56 224.275  26
  -6   2   3 4463.96 229.364  39
  -6   2   3 4576.96 221.195  24
   6  -2  -3 4149.40 234.245  16
   6  -2  -3 4399.33 237.864  36
  -6   2   3 4529.57 224.076  22
  -6   2   2 4347.10 216.002  32
   6  -2  -2 3772.16 225.796  27
  -6   2   2 4236.31 219.470  26
  -6   2   2 4345.30 226.527  39
  -6   2   2 4153.74 215.315  24
   6  -2  -2 3832.39 221.432  16
   6  -2  -2 4174.59 229.864  36
  -6   2   1 3692.47 203.429  32
   6  -2  -1 3368.98 211.736  27
  -6   2   1 3768.83 209.403  39
  -6   2   1 3755.00 208.774  24
   6  -2  -1 3595.40 211.823  16
   6  -2  -1 3490.82 207.419  36
  -6   2   0 8920.62 322.770  32
   6  -2   0 9091.91 345.312  27
  -6   2   0 9168.94 318.173  39
  -6   2   0 9272.56 329.877  24
   6  -2   0 9130.92 332.183  16
   6  -2   0 8762.76 322.207  36
  -6   2  -1 43576.7 718.787  32
  -6   2  -1 43865.8 657.606  20
   6  -2   1 42925.5 746.819  27
  -6   2  -1 44827.8 683.508  39
   6  -2   1 43306.9 716.008  16
  -6   2  -1 44705.6 730.370  24
   6  -2   1 43966.8 709.116  36
  -6   2  -2 14547.4 420.968  32
  -6   2  -2 14114.7 385.265  20
   6  -2   2 14288.0 427.114  27
   6  -2   2 14040.6 407.488  16
  -6   2  -2 14349.5 414.008  24
   6  -2   2 14090.1 399.588  36
  -6   2  -3 582.367 88.7242  32
  -6   2  -3 551.442 80.8958  20
   6  -2   3 629.209 94.2283  27
  -6   2  -3 511.383 80.3490  24
  -6   2  -3 459.423 71.5261  37
   6  -2   3 396.365 70.0834  36
  -6   2  -4 28.0363 32.0301  32
  -6   2  -4-14.6955 29.6407  20
   6  -2   4-58.6127 34.6582  27
  -6   2  -4 9.71427 33.4639  24
   6  -2   4 10.2745 26.3505  36
  -6   2  -5 297.621 62.6672  32
  -6   2  -5 293.894 63.5677  20
   6  -2   5 249.840 60.1214  27
  -6   2  -5 255.789 58.3437  24
  -6   2  -5 278.857 58.0622  37
   6  -2   5 320.106 62.4488  36
  -6   2  -6 153.161 45.1773  32
  -6   2  -6 163.030 47.6063  20
   6  -2   6 91.0519 38.7047  27
  -6   2  -6 80.7133 37.0272  24
  -6   2  -6 132.682 43.4906  37
   6  -2   6 158.885 47.7146  36
  -6   2  -7 853.928 94.7916  32
   6  -2   7 755.249 93.1920  27
  -6   2  -7 784.603 92.1442  37
   6  -2   7 767.397 89.4519  36
   6  -2   8 540.804 76.2182  27
  -6   2  -8 525.389 73.2475  37
   6  -2   8 560.229 70.5137  36
   6  -2   9 1012.34 97.0858  27
  -6   2  -9 983.987 90.9249  37
   6  -2   9 983.802 87.6895  36
  -6   2  -9 979.689 82.6719  34
   6  -2  10 96.2029 30.9998  27
  -6   2 -10 90.2226 27.9701  37
  -6   2 -10 49.3245 20.8078  34
   6  -1 -11 81.3333 30.0393  27
  -6   1  11 25.5809 23.7463  26
   6  -1 -11 23.2210 21.0187  36
  -6   1  11 2.74431 17.4398  22
   6  -1 -10 713.377 83.7099  27
  -6   1  10 679.999 79.6230  26
   6  -1 -10 699.900 76.3137  36
  -6   1  10 740.036 77.8253  23
  -6   1  10 699.173 76.4440  22
   6  -1  -9 1293.10 120.279  27
  -6   1   9 1438.87 125.227  26
  -6   1   9 1423.24 103.280  39
   6  -1  -9 1415.24 115.567  36
  -6   1   9 1428.14 122.393  23
  -6   1   9 1466.23 120.184  22
   6  -1  -8 4327.79 231.143  27
  -6   1   8 4725.33 233.460  26
  -6   1   8 4847.67 211.953  39
   6  -1  -8 5028.11 234.457  36
  -6   1   8 4941.94 242.444  23
  -6   1   8 4705.84 225.927  22
   6  -1  -7 5.64112 31.2830  27
  -6   1   7 47.7364 35.1038  26
  -6   1   7 47.3366 36.7897  39
   6  -1  -7 32.8432 30.5656  36
  -6   1   7 5.77424 29.6921  23
  -6   1   7-31.5158 32.1300  22
   6  -1  -6 129.452 48.5857  27
  -6   1   6 177.127 55.7382  26
  -6   1   6 122.816 46.3885  39
   6  -1  -6 84.0270 42.8254  36
  -6   1   6 178.564 53.8822  23
  -6   1   6 130.006 45.4603  22
   6  -1  -5 34.9893 38.8501  27
  -6   1   5 108.013 44.8143  26
  -6   1   5 32.5034 31.4486  39
   6  -1  -5 43.0840 37.8036  36
  -6   1   5 68.1394 44.0793  23
   6  -1  -4 23.4546 36.1297  27
  -6   1   4 9.41824 30.1648  26
  -6   1   4 44.6799 36.3007  39
   6  -1  -4 110.707 63.6004  25
  -6   1   4 44.3748 24.8995  24
   6  -1  -4 48.4777 37.4248  36
   6  -1  -4-55.6533 38.2676  16
  -6   1   3-32.4124 33.0146  32
   6  -1  -3 52.8228 38.6763  27
  -6   1   3 15.9690 34.4297  39
  -6   1   3 1.78523 30.0251  24
   6  -1  -3-9.93258 27.4527  36
   6  -1  -3-26.4533 31.5091  16
  -6   1   2 3252.18 196.625  32
   6  -1  -2 3133.96 210.975  27
  -6   1   2 3367.42 201.140  39
  -6   1   2 3286.81 197.629  24
   6  -1  -2 3265.61 216.185  16
   6  -1  -2 3133.68 191.217  36
  -6   1   1 968.194 110.102  32
   6  -1  -1 977.195 119.370  27
  -6   1   1 1153.91 120.781  39
  -6   1   1 1178.13 124.651  24
   6  -1  -1 1142.54 127.025  16
   6  -1  -1 1081.84 113.573  36
  -6   1   0 8573.62 324.948  32
   6  -1   0 8859.08 345.180  27
  -6   1   0 8810.33 314.675  39
  -6   1   0 8746.30 329.459  24
   6  -1   0 8682.67 342.541  16
   6  -1   0 9024.06 310.746  36
  -6   1  -1 11301.7 376.051  32
  -6   1  -1 11432.8 347.471  20
   6  -1   1 11639.9 396.135  27
  -6   1  -1 11926.0 354.717  39
  -6   1  -1 11596.2 378.128  24
   6  -1   1 12229.8 401.964  16
   6  -1   1 11983.8 352.022  36
  -6   1  -2 26293.8 575.277  32
  -6   1  -2 25874.8 538.402  20
   6  -1   2 26668.6 591.511  27
   6  -1   2 26773.9 591.400  16
  -6   1  -2 26507.5 574.621  24
  -6   1  -2 25918.7 505.386  37
   6  -1   2 28154.8 534.654  36
  -6   1  -3 11586.6 380.790  32
  -6   1  -3 11231.5 361.759  20
   6  -1   3 11350.9 387.611  27
   6  -1   3 11467.1 385.817  16
  -6   1  -3 11630.9 374.316  24
  -6   1  -3 10690.1 336.955  37
  -6   1  -4 137.233 49.9590  32
  -6   1  -4 128.573 39.2305  20
   6  -1   4 122.731 51.0116  27
  -6   1  -4 109.749 43.1980  24
  -6   1  -4 225.020 53.5317  37
  -6   1  -5 177.553 51.7157  32
  -6   1  -5 180.233 47.4097  20
   6  -1   5 155.628 44.6442  27
  -6   1  -5 120.301 46.0039  24
  -6   1  -5 112.369 43.1930  37
  -6   1  -6 380.578 66.0080  32
   6  -1   6 607.592 89.8584  27
  -6   1  -6 640.481 84.9583  37
   6  -1   7 1157.08 116.784  27
  -6   1  -7 1067.49 106.411  37
   6  -1   8 3856.32 196.992  27
  -6   1  -8 3865.71 188.762  37
   6  -1   9 892.158 90.0505  27
  -6   1  -9 845.874 84.3861  37
  -6   1  -9 837.796 75.3527  34
   6  -1  10 1021.03 84.6596  27
  -6   1 -10 856.294 73.4961  37
  -6   1 -10 838.954 66.8081  34
   6   0 -11 52.6769 25.8782  27
  -6   0  11 65.5668 26.6387  26
   6   0 -10-8.54706 22.8958  27
  -6   0  10 34.7951 30.3367  26
  -6   0  10-11.3956 24.0089  23
  -6   0  10 15.4127 21.7188  22
   6   0  -9 420.131 70.9079  27
  -6   0   9 378.606 66.7175  26
  -6   0   9 379.877 55.0052  39
  -6   0   9 395.061 68.4230  23
  -6   0   9 346.224 60.3433  22
   6   0  -8 4071.27 220.970  27
  -6   0   8 4167.03 216.688  26
  -6   0   8 3984.99 190.867  39
  -6   0   8 4174.98 226.591  23
  -6   0   8 4312.24 212.269  22
   6   0  -7 4365.30 238.828  27
  -6   0   7 4587.38 232.822  26
  -6   0   7 4504.36 217.894  39
  -6   0   7 4423.26 244.553  23
  -6   0   7 4626.93 227.793  22
   6   0  -6 747.206 106.381  27
  -6   0   6 673.599 92.8920  26
  -6   0   6 771.620 96.7560  39
  -6   0   6 819.223 112.165  23
  -6   0   6 739.207 96.9097  22
   6   0  -5 68.1482 49.9186  27
  -6   0   5 127.825 43.2983  26
  -6   0   5 73.4070 41.1689  39
  -6   0   5 142.530 52.3823  23
  -6   0   5 115.993 47.7595  22
  -6   0   4 5976.65 263.051  32
   6   0  -4 5863.45 288.448  27
  -6   0   4 6316.17 279.822  39
   6   0  -4 5288.05 276.052  25
  -6   0   4 6057.57 262.097  24
  -6   0   4 5963.46 295.372  23
  -6   0   4 6124.58 263.374  22
  -6   0   3 7768.14 306.194  32
   6   0  -3 8195.57 335.967  27
  -6   0   3 8030.97 317.714  39
   6   0  -3 6966.38 310.580  25
  -6   0   3 8119.62 311.987  24
   6   0  -3 8496.77 355.121  16
  -6   0   3 8355.86 346.274  23
  -6   0   2 41004.6 716.883  32
   6   0  -2 44167.1 774.494  27
   6   0  -2 41458.1 749.750  25
  -6   0   2 41435.0 711.793  39
  -6   0   2 42452.2 726.267  24
   6   0  -2 43510.9 799.552  16
  -6   0   2 43619.0 773.795  23
  -6   0   1 13312.6 414.627  32
   6   0  -1 14117.2 436.803  27
   6   0  -1 13416.0 423.116  25
  -6   0   1 13556.7 400.748  39
  -6   0   1 13059.5 408.462  24
   6   0  -1 13991.3 448.596  16
  -6   0   1 13697.6 423.170  23
  -6   0   0 1416.76 138.690  32
   6   0   0 1603.90 148.726  27
   6   0   0 1417.83 137.904  25
  -6   0   0 1566.57 136.124  39
  -6   0   0 1583.52 145.680  24
   6   0   0 1462.86 144.832  16
  -6   0  -1 2164.76 170.824  32
  -6   0  -1 2185.29 158.645  20
   6   0   1 2238.56 172.080  27
   6   0   1 2269.24 172.590  25
  -6   0  -1 2306.48 174.173  24
   6   0   1 2319.70 180.381  16
  -6   0  -1 2199.43 148.143  37
  -6   0  -2 1226.73 130.417  32
  -6   0  -2 1259.38 124.903  20
   6   0   2 1387.20 135.710  27
   6   0   2 1146.55 122.988  25
  -6   0  -2 1301.14 132.053  24
   6   0   2 1224.15 131.589  16
  -6   0  -2 1075.78 107.730  37
  -6   0  -3 494.087 81.8499  32
  -6   0  -3 472.499 79.1677  20
   6   0   3 391.478 74.9428  27
   6   0   3 396.438 73.0592  25
  -6   0  -3 412.983 74.5863  24
  -6   0  -3 516.977 77.1479  37
  -6   0  -4 689.365 94.7066  32
  -6   0  -4 596.530 87.7468  20
   6   0   4 639.128 91.2427  27
   6   0   4 593.180 87.2552  25
  -6   0  -4 581.356 86.5382  24
  -6   0  -4 614.705 84.0516  37
  -6   0  -5-25.4577 31.5409  32
   6   0   5-14.2566 27.6327  27
   6   0   5 27.3841 25.0773  25
  -6   0  -5 18.4301 34.1668  24
  -6   0  -5-14.3146 29.1387  37
  -6   0  -6 36.3548 30.9070  32
   6   0   6 6.56153 25.8946  27
   6   0   6-8.80349 31.6287  25
  -6   0  -6 34.1969 31.1308  37
   6   0   7 271.149 54.5528  27
   6   0   7 197.874 44.1428  25
  -6   0  -7 235.865 51.9744  37
   6   0   8 4448.41 196.821  27
   6   0   8 4426.17 188.096  25
  -6   0  -8 4207.66 188.065  37
   6   0   9 3049.86 147.033  27
   6   0   9 3044.32 137.976  25
  -6   0  -9 2992.20 142.423  37
   6   1 -10 221.157 44.1109  27
  -6  -1  10 215.899 42.4285  26
   6   1 -10 245.052 50.4144  25
  -6  -1  10 265.392 49.7612  23
   6   1  -9 41.8830 29.1770  27
  -6  -1   9-34.7459 25.6500  26
  -6  -1   9-29.5370 26.0404  39
  -6  -1   9 29.9215 26.9823  23
   6   1  -8 38.0220 31.1602  27
  -6  -1   8-6.03397 26.1112  26
  -6  -1   8 69.3371 32.5784  39
  -6  -1   8 37.5824 30.5166  23
   6   1  -7 622.016 88.9065  27
  -6  -1   7 604.072 82.6429  26
   6   1  -7 578.194 91.8756  25
  -6  -1   7 483.782 71.7479  39
  -6  -1   7 459.387 80.9548  23
   6   1  -6 2.50789 27.2319  27
  -6  -1   6-8.20558 33.3118  39
  -6  -1   6-3.56269 33.4880  23
  -6  -1   6-20.2693 36.4519  22
  -6  -1   5 182.247 49.6692  32
   6   1  -5 183.479 55.4915  27
  -6  -1   5 243.374 59.9621  39
   6   1  -5 346.752 80.2014  25
  -6  -1   5 299.223 58.7727  24
  -6  -1   5 151.758 56.0757  23
  -6  -1   5 257.306 58.4305  22
  -6  -1   4 85.8623 38.1286  32
   6   1  -4 88.4317 48.8205  27
  -6  -1   4 52.3075 42.6209  39
   6   1  -4 67.4205 52.2780  25
  -6  -1   4 30.8467 30.2350  24
  -6  -1   4 73.8815 43.5256  23
  -6  -1   3-12.6462 31.0457  32
   6   1  -3 8.71244 34.4650  27
  -6  -1   3 40.1033 39.4071  39
   6   1  -3 4.97343 39.1722  25
  -6  -1   3-0.90547 35.7276  23
  -6  -1   2 7106.00 303.834  32
   6   1  -2 7848.21 315.097  27
  -6  -1   2 6810.59 287.418  39
   6   1  -2 7373.00 325.565  25
  -6  -1   2 7260.33 304.562  24
  -6  -1   2 7498.03 310.596  23
  -6  -1   1 11739.8 397.093  32
   6   1  -1 12121.8 389.783  27
   6   1  -1 11781.2 403.030  25
  -6  -1   1 11401.6 362.018  39
  -6  -1   1 12052.0 394.413  24
  -6  -1   0 333.803 71.6626  32
  -6  -1   0 509.631 78.1923  20
   6   1   0 370.459 70.7697  27
  -6  -1   0 383.842 68.8673  39
   6   1   0 402.622 69.8391  25
  -6  -1   0 454.156 82.1479  24
  -6  -1  -1 663.529 97.1159  32
  -6  -1  -1 726.518 94.9486  20
   6   1   1 646.941 87.5993  27
   6   1   1 728.996 101.728  25
  -6  -1  -1 816.986 104.885  24
  -6  -1  -1 694.805 87.5226  37
  -6  -1  -2 115.679 47.6424  32
  -6  -1  -2 123.935 38.9065  20
   6   1   2 88.3765 39.6884  27
   6   1   2 164.056 51.2468  25
  -6  -1  -2 102.161 45.7951  24
  -6  -1  -2 116.984 36.5347  37
  -6  -1  -3 257.094 58.9750  32
   6   1   3 160.141 45.0460  27
   6   1   3 308.258 67.4875  25
  -6  -1  -3 219.430 52.5931  24
  -6  -1  -3 281.021 59.3453  37
  -6  -1  -4 2362.67 162.813  32
   6   1   4 2558.83 164.993  27
   6   1   4 2670.00 178.099  25
  -6  -1  -4 2520.14 165.078  24
  -6  -1  -4 2555.93 166.374  37
  -6  -1  -5 1514.59 121.191  32
   6   1   5 1593.18 126.064  27
   6   1   5 1581.14 131.312  25
  -6  -1  -5 1544.66 126.564  37
   6   1   6 1936.11 130.358  27
   6   1   6 1806.47 134.820  25
  -6  -1  -6 1759.20 129.160  37
   6   1   7 2589.11 139.013  27
   6   1   7 2765.87 154.241  25
  -6  -1  -7 2653.92 148.409  37
   6   1   8 7521.46 209.719  27
   6   1   8 7898.20 232.596  25
  -6  -1  -8 7279.19 220.532  37
   6   2  -9 2081.38 126.735  25
  -6  -2   9 2111.37 126.710  23
   6   2  -8 522.285 73.8224  25
  -6  -2   8 555.466 74.1538  23
   6   2  -7 228.667 56.6655  25
  -6  -2   7 108.318 41.1407  23
  -6  -2   6 879.708 88.4485  32
  -6  -2   6 977.573 97.5898  39
   6   2  -6 1125.93 116.786  25
  -6  -2   6 965.358 107.128  23
  -6  -2   5 64.7663 35.5494  32
  -6  -2   5 32.9837 29.7560  39
  -6  -2   5 58.2996 28.9731  24
  -6  -2   5-1.04087 33.5994  23
  -6  -2   4 6190.49 261.235  32
  -6  -2   4 6437.54 263.931  39
   6   2  -4 7137.03 302.619  25
  -6  -2   4 6196.75 256.360  24
  -6  -2   4 6399.24 273.262  23
  -6  -2   3 4736.18 235.933  32
   6   2  -3 4565.47 228.891  31
  -6  -2   3 4679.78 227.273  39
   6   2  -3 5054.93 256.487  25
  -6  -2   3 4561.13 228.987  24
  -6  -2   2 988.268 112.689  32
   6   2  -2 1038.22 108.765  31
   6   2  -2 888.706 110.586  25
  -6  -2   2 879.496 100.476  39
  -6  -2   2 846.764 103.950  24
  -6  -2   1 373.437 75.6027  32
  -6  -2   1 386.103 67.4668  39
   6   2  -1 347.251 72.7662  25
  -6  -2   1 407.642 78.7427  24
  -6  -2   0 38.4602 34.7766  32
   6   2   0 111.925 41.5602  25
  -6  -2   0 92.9946 41.0798  24
  -6  -2   0 4.11926 19.3397  37
  -6  -2  -1 386.707 71.5952  32
   6   2   1 385.528 69.2208  25
  -6  -2  -1 374.025 72.1429  24
  -6  -2  -1 297.727 58.3145  37
  -6  -2  -2 150.900 45.7779  32
   6   2   2 190.738 54.5318  25
  -6  -2  -2 137.002 46.8813  24
  -6  -2  -2 233.451 54.7814  37
  -6  -2  -3 428.505 69.9637  32
   6   2   3 389.378 67.7584  25
  -6  -2  -3 313.838 59.1784  24
  -6  -2  -3 343.121 58.9068  37
  -6  -2  -4 51.0564 27.9696  32
   6   2   4 136.481 46.2489  25
  -6  -2  -4 78.8962 33.7655  24
  -6  -2  -4 118.936 37.9437  37
   6   2   5 16.3106 19.8589  25
  -6  -2  -5 13.6047 20.2713  37
  -6  -2  -6 357.243 45.2929  29
   6   2   6 418.961 59.8414  25
  -6  -2  -6 345.976 53.3037  37
   6   2   7 775.836 70.7128  25
  -6  -2  -7 731.270 67.1854  37
   6   3  -7 39.9013 24.3211  25
  -6  -3   7 97.8871 32.5711  23
  -6  -3   6 21.8317 17.8233  32
   6   3  -6 2.10634 25.8712  31
   6   3  -6 19.1766 22.4234  25
  -6  -3   6 32.3310 22.9996  23
  -6  -3   5 66.3319 31.5273  32
   6   3  -5 58.3533 29.8493  31
   6   3  -5 15.0860 27.8098  25
  -6  -3   5 17.8760 20.3387  24
  -6  -3   5-1.94217 31.2798  23
  -6  -3   4 2088.53 137.589  32
   6   3  -4 2369.85 146.987  31
   6   3  -4 2429.13 153.537  25
  -6  -3   4 2278.16 140.156  24
  -6  -3   3 1300.78 114.665  32
   6   3  -3 1509.01 118.924  31
   6   3  -3 1470.17 121.570  25
  -6  -3   3 1386.99 115.472  24
  -6  -3   2 197.621 50.9933  32
   6   3  -2 222.832 48.3644  31
   6   3  -2 176.587 44.8707  25
  -6  -3   2 145.683 38.5099  24
  -6  -3   1 1247.31 114.632  32
   6   3  -1 1247.91 105.870  31
   6   3  -1 1380.41 118.239  25
  -6  -3   1 1249.56 112.981  24
  -6  -3   0 221.547 51.6731  32
   6   3   0 209.961 46.9032  31
   6   3   0 318.351 58.9749  25
  -6  -3   0 220.333 52.2345  24
  -6  -3   0 232.159 42.1699  37
  -6  -3  -1 223.497 50.5960  32
   6   3   1 268.400 48.4237  31
   6   3   1 253.112 51.4885  25
  -6  -3  -1 309.828 55.5036  24
  -6  -3  -1 257.717 47.3090  37
  -6  -3  -2 889.538 86.3285  32
   6   3   2 992.656 94.2394  25
  -6  -3  -2 940.520 88.7085  24
  -6  -3  -2 872.035 82.8309  37
   6   3   3 65.3277 28.0005  25
  -6  -3  -3 109.594 31.6973  24
  -6  -3  -3 79.8930 29.9772  37
   6   3   4 35.6766 22.0153  25
  -6  -3  -4 59.3158 30.1912  37
  -6  -4   2-11.2670 16.8709  32
  -7   6   3 623.812 61.6121  26
   7  -6  -3 560.216 56.0707  40
  -7   6   3 662.867 60.8163  39
   7  -6  -2 2913.16 123.779  28
  -7   6   2 3037.20 138.798  26
   7  -6  -2 2625.20 125.300  40
  -7   6   2 3160.33 135.171  39
   7  -6  -1 3007.58 130.237  28
  -7   6   1 2851.26 137.132  26
   7  -6  -1 2730.88 130.575  40
  -7   6   1 3132.96 137.422  39
  -7   6   1 2997.53 123.138  24
   7  -6  -1 2963.37 129.005  36
   7  -6   0-13.8525 24.6743  28
  -7   6   0 54.1939 27.6759  26
   7  -6   0 24.1541 22.0253  40
  -7   6   0 91.1973 28.2971  39
  -7   6   0 17.1702 16.3052  24
   7  -6   0 34.0099 19.9065  36
   7  -6   1 541.536 58.4033  28
   7  -6   1 475.341 58.0096  40
  -7   6  -1 531.523 55.6979  39
  -7   6  -1 551.301 60.3531  24
   7  -6   1 525.453 57.4041  36
  -7   6  -2 265.771 40.4387  32
   7  -6   2 226.203 39.0511  28
   7  -6   2 245.298 41.2671  40
  -7   6  -2 296.165 45.5306  24
   7  -6   2 236.044 39.6216  36
  -7   6  -3 32.7735 18.1512  32
   7  -6   3 5.75346 18.0253  28
   7  -6   3 33.5397 16.7349  40
  -7   6  -3 20.5803 21.2612  24
   7  -6   3 13.8531 17.3227  36
  -7   6  -4 2233.87 112.104  32
   7  -6   4 2157.38 106.337  28
   7  -6   4 2162.30 109.917  40
  -7   6  -4 2267.64 114.170  24
  -7   5   6 102.266 28.5707  26
  -7   5   5 150.642 38.0015  26
  -7   5   5 166.189 35.4267  39
   7  -5  -5 186.716 38.6886  36
  -7   5   5 143.435 32.6183  22
  -7   5   4 41.3618 25.3120  26
  -7   5   4 11.4783 19.6932  39
   7  -5  -4 2.52953 17.2421  36
  -7   5   4 13.2866 19.0154  22
  -7   5   3 133.314 40.0467  26
  -7   5   3 132.236 37.5815  39
   7  -5  -3 133.149 38.5402  36
   7  -5  -2 707.572 69.9490  28
  -7   5   2 654.397 75.4311  26
   7  -5  -2 634.775 71.7877  40
  -7   5   2 709.038 75.9219  39
  -7   5   2 654.278 67.4719  24
   7  -5  -2 768.044 82.4488  36
   7  -5  -1 127.404 34.3922  28
  -7   5   1 87.3301 35.4983  26
   7  -5  -1 115.178 33.5424  40
  -7   5   1 93.1558 36.4295  39
  -7   5   1 103.381 32.0158  24
   7  -5  -1 116.533 35.4015  36
   7  -5   0 403.887 55.5723  28
  -7   5   0 365.769 56.0310  26
   7  -5   0 349.732 54.8112  40
  -7   5   0 328.020 54.6030  39
  -7   5   0 397.503 58.9441  24
   7  -5   0 345.813 58.5688  36
  -7   5  -1 29.2759 23.9514  32
   7  -5   1-5.91133 25.5709  28
   7  -5   1 2.01401 18.8577  40
  -7   5  -1 23.0681 24.5396  39
  -7   5  -1 13.8984 24.0214  24
   7  -5   1-3.05168 26.6712  36
  -7   5  -2 264.491 47.6211  32
   7  -5   2 196.972 41.8969  28
   7  -5   2 201.311 42.1251  40
  -7   5  -2 203.643 43.9693  24
   7  -5   2 210.250 44.8161  36
  -7   5  -3 633.685 73.2686  32
   7  -5   3 669.465 70.5934  28
   7  -5   3 578.499 67.4002  40
  -7   5  -3 595.440 72.9776  24
   7  -5   3 635.017 73.4799  36
  -7   5  -4 722.112 77.9166  32
   7  -5   4 743.604 71.8720  28
   7  -5   4 714.388 73.2575  40
  -7   5  -4 643.194 72.6802  24
   7  -5   4 784.818 78.6896  36
  -7   5  -5 4823.24 187.146  32
   7  -5   5 4870.08 168.117  28
   7  -5   5 4740.08 172.730  40
  -7   5  -5 4736.97 180.074  24
   7  -5   5 4735.52 181.891  36
  -7   5  -6 981.791 80.6500  32
   7  -5   6 1005.86 75.5733  40
  -7   5  -6 967.785 74.9316  24
  -7   5  -6 920.372 66.5902  37
   7  -5   6 995.247 79.4571  36
   7  -5   7 135.836 28.5390  36
  -7   4   7 1072.37 84.7189  26
  -7   4   7 1022.10 71.8531  39
   7  -4  -7 883.867 76.3713  36
  -7   4   7 1039.31 78.1489  22
  -7   4   6 161.203 41.6140  26
  -7   4   6 208.792 40.0743  39
   7  -4  -6 210.456 44.6314  36
  -7   4   6 250.708 48.5055  23
  -7   4   6 183.494 39.2435  22
  -7   4   5 1894.43 127.122  26
  -7   4   5 1936.80 121.554  39
   7  -4  -5 1844.93 126.183  36
  -7   4   5 1839.08 117.486  22
  -7   4   4 3434.69 176.042  26
  -7   4   4 3504.24 172.164  39
   7  -4  -4 3316.70 176.744  36
  -7   4   4 3287.62 158.958  22
  -7   4   3 547.320 74.2048  26
  -7   4   3 593.712 75.0992  39
   7  -4  -3 645.354 84.4779  36
  -7   4   2 675.959 81.7591  26
   7  -4  -2 553.567 68.2304  40
  -7   4   2 780.382 88.5818  39
  -7   4   2 697.448 76.9977  24
   7  -4  -2 692.140 88.4220  36
  -7   4   1 70.9913 34.9020  26
   7  -4  -1 56.3733 25.7695  40
  -7   4   1 87.3857 36.4519  39
  -7   4   1 73.6436 33.1648  24
   7  -4  -1 87.0042 36.8242  36
  -7   4   0 167.770 42.5448  32
  -7   4   0 163.557 43.3330  26
   7  -4   0 114.122 34.6081  40
  -7   4   0 126.473 42.1440  39
  -7   4   0 202.955 45.5949  24
   7  -4   0 136.311 42.4823  36
  -7   4  -1 1318.86 112.382  32
   7  -4   1 1129.89 98.6690  40
  -7   4  -1 1257.25 105.344  39
  -7   4  -1 1365.19 116.417  24
   7  -4   1 1401.94 120.453  36
  -7   4  -2 276.677 54.2389  32
   7  -4   2 253.655 46.7449  40
  -7   4  -2 316.595 61.4173  24
   7  -4   2 342.936 63.7678  36
  -7   4  -3 10198.0 309.723  32
   7  -4   3 10341.9 283.431  40
  -7   4  -3 10398.3 314.584  24
   7  -4   3 10914.1 319.077  36
  -7   4  -4 2008.81 137.576  32
  -7   4  -4 1913.40 133.676  24
   7  -4   4 2148.03 138.511  36
  -7   4  -5 355.875 58.8538  32
  -7   4  -5 392.308 59.0685  24
  -7   4  -5 406.186 52.3484  37
   7  -4   5 435.506 63.1423  36
  -7   4  -6-0.17149 19.5289  32
  -7   4  -6-46.4377 29.5924  24
  -7   4  -6-2.93647 25.7032  37
   7  -4   6 4.44516 20.4686  36
  -7   4  -7 139.910 32.7526  32
  -7   4  -7 155.520 32.9010  37
   7  -4   7 156.479 35.6592  36
   7  -4   8 283.397 39.4349  36
  -7   3   8 6.85028 20.4108  26
   7  -3  -8 10.2005 17.1333  36
  -7   3   8-24.3000 23.4907  22
   7  -3  -7 103.976 31.2467  27
  -7   3   7 63.8324 27.3020  26
  -7   3   7 70.5869 25.2776  39
   7  -3  -7 89.4051 28.3127  36
  -7   3   7 120.968 34.3226  23
  -7   3   7 102.458 31.0713  22
   7  -3  -6 29.3758 20.1470  27
  -7   3   6 10.2071 25.0382  26
  -7   3   6 31.8492 27.4291  39
   7  -3  -6 37.7488 26.8857  36
  -7   3   6 12.5810 26.8756  23
  -7   3   6 11.7110 22.8268  22
   7  -3  -5 90.3763 37.3507  27
  -7   3   5 125.125 40.8656  26
  -7   3   5 131.790 36.6787  39
   7  -3  -5 95.9776 35.6117  36
  -7   3   5 106.242 43.3380  23
  -7   3   5 148.211 37.4227  22
   7  -3  -4 1631.57 127.624  27
  -7   3   4 1659.38 127.095  26
  -7   3   4 1733.96 129.742  39
   7  -3  -4 1692.27 132.991  36
  -7   3   4 1642.35 118.935  22
   7  -3  -3 1396.05 122.134  27
  -7   3   3 1565.71 124.966  26
  -7   3   3 1651.38 129.203  39
  -7   3   3 1614.59 117.259  24
   7  -3  -3 1734.35 136.922  36
   7  -3  -2 1438.67 125.293  27
  -7   3   2 1436.43 118.168  26
  -7   3   2 1490.88 124.244  39
  -7   3   2 1264.21 109.445  24
   7  -3  -2 1377.52 125.074  36
  -7   3   1 347.588 60.4023  32
   7  -3  -1 262.690 57.6485  27
  -7   3   1 376.845 65.0154  39
  -7   3   1 366.147 63.0524  24
   7  -3  -1 407.128 68.7151  36
  -7   3   0 37.9519 26.1711  32
   7  -3   0 12.4464 27.7034  27
  -7   3   0 113.194 42.4107  39
  -7   3   0 80.5570 37.1142  24
   7  -3   0 15.2191 26.4999  36
  -7   3  -1 2292.50 154.877  32
   7  -3   1 2187.65 151.975  27
  -7   3  -1 2139.12 140.439  39
  -7   3  -1 2327.53 159.312  24
   7  -3   1 2411.01 161.411  36
  -7   3  -2 44.3978 32.9328  32
   7  -3   2 72.5819 32.9655  27
  -7   3  -2 34.8427 30.0198  24
   7  -3   2 6.31435 32.3652  36
  -7   3  -3 1528.01 128.949  32
   7  -3   3 1337.74 116.953  27
  -7   3  -3 1366.17 120.359  24
   7  -3   3 1641.08 127.045  36
  -7   3  -4 886.443 97.5212  32
   7  -3   4 905.980 94.1348  27
  -7   3  -4 833.540 91.4537  24
  -7   3  -4 885.218 82.0028  37
   7  -3   4 922.882 92.9881  36
  -7   3  -5 160.897 46.3084  32
   7  -3   5 173.635 41.5792  27
  -7   3  -5 209.015 45.7900  24
  -7   3  -5 146.655 35.7463  37
   7  -3   5 213.627 45.8886  36
  -7   3  -6 49.5613 25.8588  32
   7  -3   6 1.16451 20.7822  27
  -7   3  -6 53.8519 30.0114  24
  -7   3  -6-1.82863 19.2195  37
   7  -3   6 6.66049 20.5536  36
  -7   3  -7 929.347 81.6771  32
   7  -3   7 921.911 80.9287  27
  -7   3  -7 981.937 80.6292  37
   7  -3   7 936.405 79.6279  36
   7  -3   8 236.357 36.1134  27
  -7   3  -8 221.098 38.5645  37
   7  -3   8 277.623 39.5824  36
   7  -2  -8 109.755 33.2284  27
  -7   2   8 147.164 37.6078  26
  -7   2   8 95.0963 25.6988  39
   7  -2  -8 74.9453 28.4357  36
  -7   2   8 148.873 36.4264  23
  -7   2   8 35.2816 23.6499  22
   7  -2  -7 1883.08 125.995  27
  -7   2   7 1920.16 127.423  26
  -7   2   7 1996.85 119.729  39
   7  -2  -7 1843.56 119.133  36
  -7   2   7 1952.46 133.290  23
  -7   2   7 2006.80 123.125  22
   7  -2  -6 565.753 77.4012  27
  -7   2   6 548.502 74.6424  26
  -7   2   6 602.966 73.8550  39
   7  -2  -6 505.865 69.2246  36
  -7   2   6 528.806 77.8301  23
  -7   2   6 498.662 65.1870  22
   7  -2  -5 1057.96 107.806  27
  -7   2   5 892.546 94.1655  26
  -7   2   5 1012.56 98.9760  39
   7  -2  -5 1062.90 101.212  36
  -7   2   5 1196.53 118.262  23
  -7   2   5 978.788 94.4048  22
   7  -2  -4 9.71076 28.6205  27
  -7   2   4 30.1063 26.7163  26
  -7   2   4 34.0203 30.3188  39
   7  -2  -4-15.4087 27.8421  36
  -7   2   4-11.7249 30.2722  23
   7  -2  -3 343.722 69.1229  27
  -7   2   3 307.658 59.8647  39
  -7   2   3 284.482 53.9071  24
   7  -2  -3 443.477 70.7390  36
  -7   2   3 288.228 66.4474  23
  -7   2   2 360.752 62.8562  32
   7  -2  -2 348.282 69.7023  27
  -7   2   2 244.075 56.2163  39
  -7   2   2 316.369 61.7780  24
   7  -2  -2 345.981 64.6719  36
  -7   2   1 217.752 52.6267  32
   7  -2  -1 198.480 50.6450  27
  -7   2   1 192.658 51.1522  39
  -7   2   1 234.059 52.1831  24
   7  -2  -1 209.663 51.6445  36
  -7   2   0-16.5189 31.5122  32
   7  -2   0-22.9608 24.2741  27
  -7   2   0-3.98047 29.5280  39
  -7   2   0 16.8855 26.9821  24
   7  -2   0-17.1045 27.0949  36
  -7   2  -1 151.937 46.1423  32
   7  -2   1 139.438 48.7557  27
  -7   2  -1 195.441 52.2653  24
   7  -2   1 210.293 49.6016  36
  -7   2  -2 47.3963 28.5915  32
   7  -2   2 10.1196 29.8405  27
  -7   2  -2 24.0796 31.8558  24
   7  -2   2 115.078 36.5148  36
  -7   2  -3 911.245 103.001  32
   7  -2   3 1048.70 107.990  27
  -7   2  -3 910.179 100.768  24
   7  -2   3 1053.73 100.278  36
  -7   2  -4 1784.35 137.346  32
   7  -2   4 2007.17 143.806  27
  -7   2  -4 1733.69 132.044  24
  -7   2  -4 1960.20 126.942  37
   7  -2   4 1983.54 130.181  36
  -7   2  -5 253.575 53.6366  32
   7  -2   5 303.879 56.7873  27
  -7   2  -5 269.576 54.3617  24
  -7   2  -5 250.868 46.9303  37
   7  -2   5 299.253 50.2947  36
  -7   2  -6 98.8313 32.8675  32
   7  -2   6 131.588 37.9810  27
  -7   2  -6 179.914 39.5229  37
   7  -2   6 167.230 39.7706  36
  -7   2  -7 587.778 64.1182  32
   7  -2   7 599.967 68.6232  27
  -7   2  -7 616.971 66.2876  37
   7  -2   8 1422.68 93.4442  27
  -7   2  -8 1156.40 81.3300  37
   7  -1  -8 3.57765 20.7568  27
  -7   1   8 1.21161 21.2419  26
  -7   1   8 23.2657 19.6698  39
  -7   1   8 3.32738 23.9583  23
  -7   1   8 28.9336 21.0928  22
   7  -1  -7 545.708 69.6943  27
  -7   1   7 475.278 63.9333  26
  -7   1   7 436.659 57.6390  39
  -7   1   7 499.562 69.1520  23
  -7   1   7 456.116 58.7480  22
   7  -1  -6 110.066 39.9184  27
  -7   1   6 115.764 36.4389  26
  -7   1   6 162.055 40.6990  39
  -7   1   6 105.017 43.2964  23
  -7   1   6 142.660 41.7645  22
   7  -1  -5 166.490 46.3706  27
  -7   1   5 132.336 38.9895  26
  -7   1   5 238.394 50.4268  39
  -7   1   5 170.686 50.7435  23
  -7   1   5 204.179 48.4912  22
   7  -1  -4 345.825 69.4926  27
  -7   1   4 221.665 53.3023  39
  -7   1   4 300.510 53.0657  24
  -7   1   4 251.884 62.8937  23
  -7   1   3 57.3117 30.4892  32
   7  -1  -3 101.761 40.5092  27
  -7   1   3 92.5915 40.2671  39
  -7   1   3 105.377 38.7393  24
  -7   1   3 18.1051 29.9571  23
  -7   1   2 27.3494 29.9448  32
   7  -1  -2-11.2676 31.1499  27
  -7   1   2 48.4161 36.0009  39
  -7   1   2 27.0883 30.5928  24
  -7   1   2-21.9266 26.1623  23
  -7   1   1 234.000 54.9493  32
   7  -1  -1 164.377 47.7842  27
  -7   1   1 145.313 47.0918  39
  -7   1   1 150.749 47.2708  24
  -7   1   1 236.835 56.1883  23
  -7   1   0 183.390 49.9972  32
   7  -1   0 113.569 42.4276  27
  -7   1   0 120.755 40.0501  39
  -7   1  -1 633.156 87.5874  32
   7  -1   1 541.620 84.7357  27
  -7   1  -1 625.040 88.3230  24
  -7   1  -2-1.24540 25.6110  32
   7  -1   2-9.06656 24.4979  27
  -7   1  -2 21.8981 31.1146  24
  -7   1  -3 710.618 89.6889  32
   7  -1   3 685.030 88.3137  27
  -7   1  -3 655.756 86.1365  24
  -7   1  -3 658.666 74.7309  37
  -7   1  -4 1428.71 120.312  32
   7  -1   4 1431.46 120.647  27
  -7   1  -4 1460.27 116.980  24
  -7   1  -4 1510.85 109.836  37
  -7   1  -5 48.9831 26.8423  32
   7  -1   5 56.3504 30.5119  27
  -7   1  -5 0.79764 19.9209  24
  -7   1  -5 84.6785 28.1471  37
  -7   1  -6 273.307 48.9412  32
   7  -1   6 194.538 45.0845  27
  -7   1  -6 253.221 45.8136  37
   7  -1   7 10.8048 17.5613  27
  -7   1  -7-19.7000 23.0075  37
   7   0  -8 354.166 50.3779  27
  -7   0   8 353.201 50.5950  23
   7   0  -7 3.74532 20.1440  27
  -7   0   7 13.6511 17.5838  39
   7   0  -7 34.0669 22.0142  25
  -7   0   7 2.84104 23.2628  23
   7   0  -6 124.380 40.6856  27
  -7   0   6 108.546 34.2965  39
   7   0  -6 109.214 36.6307  25
  -7   0   6 57.2580 34.5189  23
   7   0  -5 676.106 86.5730  27
  -7   0   5 663.233 79.2839  39
   7   0  -5 671.355 79.9825  25
  -7   0   5 720.781 88.5999  23
  -7   0   4 931.590 88.5111  32
   7   0  -4 859.635 98.1201  27
   7   0  -4 882.356 94.8222  25
  -7   0   4 930.048 96.9643  39
  -7   0   4 881.994 87.5919  24
  -7   0   4 849.638 97.4743  23
  -7   0   3 46.0531 31.9076  32
   7   0  -3 34.4123 33.0522  27
  -7   0   3-6.97482 24.4031  39
   7   0  -3 18.8057 26.5420  25
  -7   0   3 33.4210 25.3320  24
  -7   0   3 37.3874 34.4830  23
  -7   0   2 249.507 52.4951  32
   7   0  -2 306.857 62.9818  27
  -7   0   2 252.157 52.2869  39
   7   0  -2 217.236 50.4551  25
  -7   0   2 180.683 50.0557  24
  -7   0   2 200.195 51.8485  23
  -7   0   1 600.386 82.2535  32
   7   0  -1 741.002 91.8659  27
   7   0  -1 801.254 93.9587  25
  -7   0   1 751.218 85.9420  39
  -7   0   1 831.542 96.6619  24
  -7   0   0 472.631 76.6328  32
   7   0   0 357.394 67.5431  27
  -7   0   0 375.549 61.1322  39
   7   0   0 361.373 63.7778  25
  -7   0   0 298.654 62.5418  24
  -7   0  -1 461.202 76.1156  32
   7   0   1 509.308 76.2524  27
   7   0   1 408.576 67.4909  25
  -7   0  -1 403.879 68.1930  24
  -7   0  -2 183.812 48.7620  32
   7   0   2 289.393 57.1877  27
   7   0   2 225.445 50.1261  25
  -7   0  -2 209.977 48.2591  24
  -7   0  -3 18.5898 26.6909  32
   7   0   3 24.3681 28.8443  27
   7   0   3-11.5497 19.1877  25
  -7   0  -3-4.87154 28.5985  24
  -7   0  -3 11.8781 17.8733  37
  -7   0  -4 381.881 60.8653  32
   7   0   4 388.656 60.6051  27
   7   0   4 377.910 56.0372  25
  -7   0  -4 330.628 56.9620  24
  -7   0  -4 391.032 54.4453  37
  -7   0  -5 23.1620 21.2826  32
   7   0   5 24.4244 18.3035  27
   7   0   5 3.80382 18.1699  25
  -7   0  -5 19.2462 17.2372  37
   7   0   6 422.433 54.5685  27
  -7   0  -6 412.883 52.4588  37
   7   1  -7 211.758 39.3853  25
  -7  -1   7 250.089 43.5335  23
   7   1  -6 1654.27 106.138  27
  -7  -1   6 1629.84 104.048  39
   7   1  -6 1573.09 109.244  25
  -7  -1   6 1449.96 107.332  23
   7   1  -5 6308.66 217.339  27
  -7  -1   5 5755.51 207.786  39
   7   1  -5 6552.21 232.322  25
  -7  -1   5 6051.86 224.610  23
  -7  -1   4 3740.00 168.387  32
   7   1  -4 4113.76 182.602  27
   7   1  -4 4077.55 190.445  25
  -7  -1   4 3848.50 175.703  39
  -7  -1   4 3674.98 166.348  24
  -7  -1   4 3897.02 181.757  23
  -7  -1   3 211.149 47.0215  32
   7   1  -3 294.002 53.8534  27
  -7  -1   3 242.767 49.8843  39
   7   1  -3 285.275 56.1804  25
  -7  -1   3 335.480 54.4865  24
  -7  -1   2 86.5203 33.9851  32
   7   1  -2 33.7414 23.8713  27
  -7  -1   2 76.1261 32.8300  39
   7   1  -2 73.8311 31.2339  25
  -7  -1   2 121.892 36.9009  24
  -7  -1   1 808.576 90.2908  32
   7   1  -1 773.154 83.0917  27
   7   1  -1 875.143 92.9455  25
  -7  -1   1 701.918 75.1121  39
  -7  -1   1 673.778 82.4516  24
  -7  -1   0 110.373 37.2932  32
   7   1   0 74.9267 25.2985  27
   7   1   0 56.5054 23.3763  25
  -7  -1   0 78.6419 39.6322  24
  -7  -1  -1 173.496 45.3591  32
   7   1   1 242.840 49.8976  27
   7   1   1 203.741 43.9304  25
  -7  -1  -1 245.674 50.8262  24
  -7  -1  -2 151.142 43.4860  32
   7   1   2 95.7087 33.3681  27
   7   1   2 158.358 39.6153  25
  -7  -1  -2 125.726 40.5768  24
  -7  -1  -2 122.286 32.8048  37
  -7  -1  -3 47.1917 23.8105  32
   7   1   3 52.7568 25.0232  27
   7   1   3 18.5057 20.4440  25
  -7  -1  -3 94.3242 32.9067  24
  -7  -1  -3 89.6271 32.7918  37
  -7  -1  -4 23.4195 20.1754  32
   7   1   4-6.09150 18.8780  25
  -7  -1  -4 17.7713 15.1791  37
  -7  -1  -5 579.416 57.0349  37
   7   2  -4 252.675 43.5235  25
  -7  -2   3-8.63245 18.4876  32
   7   2  -3 40.5065 18.7358  25
  -7  -2   3-11.8069 24.0241  24
  -7  -2   2 42.1325 23.2274  32
   7   2  -2 70.6812 28.0470  25
  -7  -2   2 73.1241 27.1321  24
  -7  -2   1-4.12758 19.0036  32
   7   2  -1-18.1308 23.1634  25
  -7  -2   1 7.72157 19.2673  24
  -7  -2   0 580.013 66.9209  32
   7   2   0 506.117 61.2585  25
  -7  -2   0 453.199 58.6923  24
  -7  -2  -1 1198.71 91.1039  32
   7   2   1 1284.99 93.7767  25
  -7  -2  -1 1081.51 86.7781  24
   7   2   2 212.530 37.8290  25
   8  -4  -2 486.634 52.8940  36
  -8   4   2 497.110 56.9199  23
   8  -4  -1 831.332 70.8058  36
  -8   4   1 821.895 74.5034  23
  -8   4   0 2477.92 117.842  24
   8  -4   0 2613.62 123.066  36
  -8   4   0 2580.11 128.163  23
  -8   4  -1 1472.45 93.2781  24
   8  -4   1 1473.70 92.4012  36
  -8   4  -2 3214.94 136.033  24
   8  -4   2 3163.69 130.900  36
  -8   3   4 3.04295 15.3009  23
  -8   3   3 184.844 35.9816  39
   8  -3  -3 156.154 31.1513  36
  -8   3   3 147.696 36.4084  23
   8  -3  -2 433.081 51.6400  27
  -8   3   2 370.075 48.4957  39
  -8   3   2 427.866 49.4909  24
   8  -3  -2 487.722 56.2179  36
  -8   3   2 381.990 55.7875  23
   8  -3  -1-29.6165 24.5672  27
  -8   3   1-25.3532 25.2627  39
  -8   3   1-3.31752 18.0990  24
   8  -3  -1 17.8095 21.2027  36
  -8   3   1 22.6087 26.4184  23
  -8   3   0 1159.98 84.9301  32
   8  -3   0 1147.39 84.7905  27
  -8   3   0 1163.28 88.6042  24
   8  -3   0 1308.15 88.8205  36
  -8   3   0 1157.20 87.8921  23
  -8   3  -1 4370.38 166.841  32
   8  -3   1 4452.02 163.484  27
  -8   3  -1 4520.66 174.309  24
   8  -3   1 4709.65 165.404  36
  -8   3  -2 18.7306 18.8912  32
   8  -3   2 69.0913 20.9432  27
  -8   3  -2 34.5308 18.8075  24
   8  -3   2 16.4093 16.8036  36
  -8   3  -3 361.370 49.0603  32
  -8   3  -3 325.915 45.6413  24
  -8   2   4 900.770 71.1598  39
  -8   2   4 791.591 72.8157  23
   8  -2  -3 2945.31 137.175  27
  -8   2   3 2952.90 132.445  39
  -8   2   3 2823.51 139.389  23
   8  -2  -2 1755.08 110.311  27
  -8   2   2 1708.23 102.569  39
  -8   2   2 1754.06 103.326  24
  -8   2   2 1756.00 111.295  23
  -8   2   1 3426.48 144.920  32
   8  -2  -1 3840.56 163.318  27
  -8   2   1 3512.22 142.458  39
  -8   2   1 3722.56 156.498  24
  -8   2   0 216.120 42.2936  32
   8  -2   0 199.186 39.9269  27
  -8   2   0 187.376 39.8457  24
  -8   2  -1 67.0915 26.8695  32
   8  -2   1 79.5145 27.7964  27
  -8   2  -1 91.0268 29.8105  24
  -8   2  -2 66.7835 27.8639  32
   8  -2   2 27.9718 19.6069  27
  -8   2  -2 18.5872 19.1054  24
  -8   2  -3 9.73937 17.3565  32
   8  -2   3-1.15405 15.3331  27
  -8   2  -3 7.96900 14.5963  24
   8  -1  -3 680.996 67.7183  27
  -8   1   3 545.583 56.2666  39
   8  -1  -2 1491.69 100.256  27
  -8   1   2 1287.62 84.3998  39
  -8   1   2 1219.77 84.6576  24
  -8   1   1 1694.89 102.829  32
   8  -1  -1 1867.39 112.398  27
  -8   1   1 1760.56 106.871  24
  -8   1   0 1244.50 90.5083  32
   8  -1   0 1311.24 94.6435  27
  -8   1   0 1198.07 89.7747  24
  -8   1  -1 1487.45 98.8911  32
   8  -1   1 1525.24 99.3134  27
  -8   1  -1 1455.58 98.4665  24
  -8   1  -2 518.796 58.4579  32
   8  -1   2 540.916 58.0252  27
  -8   1  -2 595.220 60.7630  24
   0   0   0    0.00    0.00   0
TITL tube5 in P-1
REM P-1 (#2 in standard setting)
CELL 1.54184   6.811644   7.240163  13.482632  96.9427  90.8624 106.1393
ZERR    2.00   0.000154   0.000202   0.000315   0.0021   0.0019   0.0022
LATT  1
SFAC C H O F
UNIT 32.00 18.00 8.00 2.00
TREF
HKLF 4
END
;
_shelx_hkl_checksum              58510
_shelx_res_file
;
TITL tube5 in P-1
CELL  1.54184   6.8116   7.2402  13.4826   96.943   90.862  106.139
ZERR     2.00   0.0002   0.0002   0.0003    0.002    0.002    0.002
LATT   1
SFAC  C    H    F    O
UNIT  32   18   2    8
MERG   2
ACTA
FMAP   2
PLAN   20
CONF
BOND $H
HTAB  C16  O3
TEMP 20
SIZE 0.36  0.26  0.16
L.S.   4
WGHT    0.043500    0.131500
EXTI    0.004746
FVAR      10.87949
MOLE    1
O1    4    0.288426    0.329896    0.546363    11.00000    0.04412    0.05772 =
         0.04753    0.00466    0.00225    0.02111
O3    4    0.132698    0.554413    0.775556    11.00000    0.06892    0.05531 =
         0.03859    0.00145   -0.00706    0.02809
C3    1   -0.066351    0.375122    0.632305    11.00000    0.04470    0.04717 =
         0.04268    0.01004    0.00450    0.01984
AFIX  43
H3    2   -0.184026    0.393835    0.660742    11.00000   -1.20000
AFIX   0
C2    1    0.113574    0.441058    0.683583    11.00000    0.05231    0.04390 =
         0.03856    0.00527   -0.00222    0.01905
C4    1   -0.077059    0.275249    0.533095    11.00000    0.04649    0.03889 =
         0.04123    0.00920   -0.00197    0.01476
C8    1    0.108114    0.164716    0.396858    11.00000    0.07173    0.05093 =
         0.04307    0.00729    0.00510    0.02966
AFIX  43
H8    2    0.231304    0.156409    0.370601    11.00000   -1.20000
AFIX   0
O2    4    0.470365    0.477186    0.684748    11.00000    0.04630    0.08437 =
         0.06440    0.00672   -0.00973    0.01554
C9    1    0.103746    0.256245    0.492197    11.00000    0.04925    0.03953 =
         0.04198    0.00839   -0.00098    0.01739
O4    4    0.199445    0.320952    0.855383    11.00000    0.06873    0.05933 =
         0.05745    0.01208   -0.00230    0.02614
C5    1   -0.259123    0.196385    0.474214    11.00000    0.04840    0.05007 =
         0.05463    0.01039   -0.00701    0.01361
AFIX  43
H5    2   -0.382288    0.208045    0.499140    11.00000   -1.20000
AFIX   0
C1    1    0.303845    0.420396    0.642529    11.00000    0.04701    0.04867 =
         0.04706    0.00851   -0.00333    0.01553
C11   1    0.229792    0.633558    0.946039    11.00000    0.03766    0.06512 =
         0.03971    0.00749    0.00054    0.01619
C10   1    0.189395    0.483908    0.857717    11.00000    0.04214    0.05881 =
         0.04380    0.01014    0.00012    0.01754
F     3    0.344155    1.034405    1.195885    11.00000    0.10022    0.15311 =
         0.06197   -0.04437   -0.01236    0.04134
C6    1   -0.256422    0.101785    0.379691    11.00000    0.07067    0.05040 =
         0.05578    0.00633   -0.02004    0.01257
AFIX  43
H6    2   -0.378090    0.048185    0.341315    11.00000   -1.20000
AFIX   0
C16   1    0.204038    0.815797    0.942439    11.00000    0.05283    0.06558 =
         0.04713    0.00171   -0.00539    0.02012
AFIX  43
H16   2    0.160970    0.847041    0.882472    11.00000   -1.20000
AFIX   0
C15   1    0.241487    0.951703    1.026746    11.00000    0.06004    0.07312 =
         0.06304   -0.01032   -0.00290    0.02249
AFIX  43
H15   2    0.223361    1.073858    1.024651    11.00000   -1.20000
AFIX   0
C7    1   -0.073432    0.085864    0.341288    11.00000    0.09443    0.04789 =
         0.04176    0.00271   -0.00795    0.02750
AFIX  43
H7    2   -0.073333    0.021257    0.277338    11.00000   -1.20000
AFIX   0
C12   1    0.294691    0.588306    1.035825    11.00000    0.04783    0.08563 =
         0.04550    0.01563    0.00326    0.02535
AFIX  43
H12   2    0.311113    0.465836    1.039033    11.00000   -1.20000
AFIX   0
C13   1    0.335002    0.723600    1.120311    11.00000    0.05164    0.12234 =
         0.03613    0.00866   -0.00001    0.02950
AFIX  43
H13   2    0.380656    0.694851    1.180371    11.00000   -1.20000
AFIX   0
C14   1    0.305963    0.901237    1.113305    11.00000    0.04963    0.10864 =
         0.04599   -0.01754   -0.00191    0.02343
HKLF 4
REM  tube5 in P-1
REM R1 =  0.0355 for    2112 Fo > 4sig(Fo)  and  0.0394 for all    2358 data
REM    191 parameters refined using      0 restraints
END
WGHT      0.0429      0.1326
REM Highest difference peak  0.152,  deepest hole -0.189,  1-sigma level  0.029
Q1    1   0.2630  0.7828  1.1216  11.00000  0.05    0.15
Q2    1   0.0345  0.3507  0.6730  11.00000  0.05    0.14
Q3    1   0.1998  0.4319  0.6601  11.00000  0.05    0.14
Q4    1   0.1800  0.6911  0.9499  11.00000  0.05    0.14
Q5    1  -0.0712  0.3291  0.5770  11.00000  0.05    0.13
Q6    1   0.0101  0.2731  0.5143  11.00000  0.05    0.13
Q7    1   0.3152  0.9021  1.2207  11.00000  0.05    0.12
Q8    1   0.2601  0.7205  0.9393  11.00000  0.05    0.12
Q9    1  -0.1367  0.2905  0.4993  11.00000  0.05    0.12
Q10   1   0.2262  0.5938  0.9201  11.00000  0.05    0.12
Q11   1   0.2137  0.8711  1.0692  11.00000  0.05    0.11
Q12   1   0.0516  0.4672  0.6462  11.00000  0.05    0.11
Q13   1  -0.1585  0.1976  0.5147  11.00000  0.05    0.11
Q14   1   0.2360  0.6155  0.9917  11.00000  0.05    0.11
Q15   1   0.2767  0.4093  1.0134  11.00000  0.05    0.10
Q16   1   0.1677  0.2744  0.5165  11.00000  0.05    0.10
Q17   1   0.2983  0.1666  0.3847  11.00000  0.05    0.10
Q18   1   0.0129  0.0873  0.3811  11.00000  0.05    0.10
Q19   1   0.0967  0.1667  0.4577  11.00000  0.05    0.09
Q20   1  -0.4097  0.2590  0.5282  11.00000  0.05    0.09
;
_shelx_res_checksum              71873
_shelxl_version_number           .2013
loop_
_space_group_symop_operation_xyz
'x, y, z'
'-x, -y, -z'
loop_
_atom_site_type_symbol
_atom_site_label
_atom_site_fract_x
_atom_site_fract_y
_atom_site_fract_z
_atom_site_U_iso_or_equiv
_atom_site_adp_type
_atom_site_calc_flag
_atom_site_occupancy
O O1 0.28843(13) 0.32990(14) 0.54636(7) 0.0486(3) Uani d 1
O O3 0.13270(16) 0.55441(14) 0.77556(7) 0.0526(3) Uani d 1
C C3 -0.06635(19) 0.37512(18) 0.63231(9) 0.0431(3) Uani d 1
H H3 -0.1840 0.3938 0.6607 0.052 Uiso calc 1
C C2 0.1136(2) 0.44106(18) 0.68358(10) 0.0439(3) Uani d 1
C C4 -0.07706(19) 0.27525(17) 0.53310(10) 0.0414(3) Uani d 1
C C8 0.1081(2) 0.1647(2) 0.39686(10) 0.0526(4) Uani d 1
H H8 0.2313 0.1564 0.3706 0.063 Uiso calc 1
O O2 0.47036(15) 0.47719(17) 0.68475(8) 0.0660(3) Uani d 1
C C9 0.1037(2) 0.25624(18) 0.49220(9) 0.0424(3) Uani d 1
O O4 0.19944(16) 0.32095(15) 0.85538(8) 0.0599(3) Uani d 1
C C5 -0.2591(2) 0.1964(2) 0.47421(11) 0.0509(3) Uani d 1
H H5 -0.3823 0.2080 0.4991 0.061 Uiso calc 1
C C1 0.3038(2) 0.4204(2) 0.64253(10) 0.0470(3) Uani d 1
C C11 0.22979(19) 0.6336(2) 0.94604(10) 0.0471(3) Uani d 1
C C10 0.1894(2) 0.4839(2) 0.85772(10) 0.0473(3) Uani d 1
F F 0.34415(19) 1.0344(2) 1.19588(8) 0.1091(5) Uani d 1
C C6 -0.2564(3) 0.1018(2) 0.37969(12) 0.0602(4) Uani d 1
H H6 -0.3781 0.0482 0.3413 0.072 Uiso calc 1
C C16 0.2040(2) 0.8158(2) 0.94244(11) 0.0550(4) Uani d 1
H H16 0.1610 0.8470 0.8825 0.066 Uiso calc 1
C C15 0.2415(2) 0.9517(3) 1.02675(13) 0.0663(4) Uani d 1
H H15 0.2234 1.0739 1.0247 0.080 Uiso calc 1
C C7 -0.0734(3) 0.0859(2) 0.34129(11) 0.0602(4) Uani d 1
H H7 -0.0733 0.0213 0.2773 0.072 Uiso calc 1
C C12 0.2947(2) 0.5883(3) 1.03582(11) 0.0577(4) Uani d 1
H H12 0.3111 0.4658 1.0390 0.069 Uiso calc 1
C C13 0.3350(2) 0.7236(3) 1.12031(11) 0.0692(5) Uani d 1
H H13 0.3807 0.6949 1.1804 0.083 Uiso calc 1
C C14 0.3060(2) 0.9012(3) 1.11331(12) 0.0703(5) Uani d 1
loop_
_atom_site_aniso_label
_atom_site_aniso_U_11
_atom_site_aniso_U_22
_atom_site_aniso_U_33
_atom_site_aniso_U_12
_atom_site_aniso_U_13
_atom_site_aniso_U_23
O1 0.0441(5) 0.0577(6) 0.0475(5) 0.0211(4) 0.0023(4) 0.0047(4)
O3 0.0689(6) 0.0553(6) 0.0386(5) 0.0281(5) -0.0071(4) 0.0014(4)
C3 0.0447(7) 0.0472(7) 0.0427(7) 0.0198(6) 0.0045(5) 0.0100(6)
C2 0.0523(7) 0.0439(7) 0.0386(7) 0.0190(6) -0.0022(5) 0.0053(5)
C4 0.0465(7) 0.0389(6) 0.0412(7) 0.0148(5) -0.0020(5) 0.0092(5)
C8 0.0717(9) 0.0509(8) 0.0431(7) 0.0297(7) 0.0051(7) 0.0073(6)
O2 0.0463(6) 0.0844(8) 0.0644(7) 0.0155(5) -0.0097(5) 0.0067(6)
C9 0.0493(7) 0.0395(6) 0.0420(7) 0.0174(5) -0.0010(5) 0.0084(5)
O4 0.0687(7) 0.0593(6) 0.0574(6) 0.0261(5) -0.0023(5) 0.0121(5)
C5 0.0484(7) 0.0501(8) 0.0546(8) 0.0136(6) -0.0070(6) 0.0104(6)
C1 0.0470(7) 0.0487(7) 0.0471(7) 0.0155(6) -0.0033(6) 0.0085(6)
C11 0.0377(6) 0.0651(9) 0.0397(7) 0.0162(6) 0.0005(5) 0.0075(6)
C10 0.0421(7) 0.0588(8) 0.0438(7) 0.0175(6) 0.0001(5) 0.0101(6)
F 0.1002(9) 0.1531(12) 0.0620(7) 0.0413(8) -0.0124(6) -0.0444(7)
C6 0.0707(10) 0.0504(8) 0.0558(9) 0.0126(7) -0.0200(7) 0.0063(7)
C16 0.0528(8) 0.0656(9) 0.0471(8) 0.0201(7) -0.0054(6) 0.0017(7)
C15 0.0600(9) 0.0731(10) 0.0630(10) 0.0225(8) -0.0029(7) -0.0103(8)
C7 0.0944(12) 0.0479(8) 0.0418(8) 0.0275(8) -0.0080(8) 0.0027(6)
C12 0.0478(8) 0.0856(11) 0.0455(8) 0.0253(7) 0.0033(6) 0.0156(7)
C13 0.0516(9) 0.1223(16) 0.0361(8) 0.0295(9) 0.0000(6) 0.0087(8)
C14 0.0496(8) 0.1086(14) 0.0460(9) 0.0234(9) -0.0019(7) -0.0175(9)
loop_
_atom_type_symbol
_atom_type_description
_atom_type_scat_dispersion_real
_atom_type_scat_dispersion_imag
_atom_type_scat_source
C C 0.0181 0.0091 'International Tables Vol C Tables 4.2.6.8 and 6.1.1.4'
H H 0.0000 0.0000 'International Tables Vol C Tables 4.2.6.8 and 6.1.1.4'
F F 0.0727 0.0534 'International Tables Vol C Tables 4.2.6.8 and 6.1.1.4'
O O 0.0492 0.0322 'International Tables Vol C Tables 4.2.6.8 and 6.1.1.4'
loop_
_geom_angle_atom_site_label_1
_geom_angle_atom_site_label_2
_geom_angle_atom_site_label_3
_geom_angle
C1 O1 C9 122.55(10)
C10 O3 C2 118.12(10)
C2 C3 C4 119.50(12)
C2 C3 H3 120.2
C4 C3 H3 120.2
C3 C2 O3 120.88(12)
C3 C2 C1 122.92(12)
O3 C2 C1 115.77(11)
C9 C4 C5 117.83(12)
C9 C4 C3 118.33(11)
C5 C4 C3 123.83(12)
C7 C8 C9 118.66(14)
C7 C8 H8 120.7
C9 C8 H8 120.7
C8 C9 O1 116.95(12)
C8 C9 C4 122.25(12)
O1 C9 C4 120.80(11)
C6 C5 C4 120.23(14)
C6 C5 H5 119.9
C4 C5 H5 119.9
O2 C1 O1 118.12(13)
O2 C1 C2 126.03(13)
O1 C1 C2 115.84(11)
C16 C11 C12 119.20(14)
C16 C11 C10 122.38(12)
C12 C11 C10 118.42(14)
O4 C10 O3 122.73(13)
O4 C10 C11 126.62(13)
O3 C10 C11 110.64(12)
C5 C6 C7 120.37(14)
C5 C6 H6 119.8
C7 C6 H6 119.8
C15 C16 C11 120.84(15)
C15 C16 H16 119.6
C11 C16 H16 119.6
C14 C15 C16 117.96(17)
C14 C15 H15 121.0
C16 C15 H15 121.0
C8 C7 C6 120.63(14)
C8 C7 H7 119.7
C6 C7 H7 119.7
C13 C12 C11 120.52(16)
C13 C12 H12 119.7
C11 C12 H12 119.7
C14 C13 C12 118.18(15)
C14 C13 H13 120.9
C12 C13 H13 120.9
F C14 C15 118.14(19)
F C14 C13 118.57(16)
C15 C14 C13 123.29(15)
loop_
_geom_bond_atom_site_label_1
_geom_bond_atom_site_label_2
_geom_bond_distance
O1 C1 1.3688(16)
O1 C9 1.3804(15)
O3 C10 1.3676(16)
O3 C2 1.3849(15)
C3 C2 1.3332(18)
C3 C4 1.4322(17)
C3 H3 0.9300
C2 C1 1.4553(19)
C4 C9 1.3914(18)
C4 C5 1.4005(18)
C8 C7 1.376(2)
C8 C9 1.3779(18)
C8 H8 0.9300
O2 C1 1.2018(16)
O4 C10 1.1974(17)
C5 C6 1.375(2)
C5 H5 0.9300
C11 C16 1.385(2)
C11 C12 1.389(2)
C11 C10 1.4765(19)
F C14 1.3525(18)
C6 C7 1.386(2)
C6 H6 0.9300
C16 C15 1.381(2)
C16 H16 0.9300
C15 C14 1.366(3)
C15 H15 0.9300
C7 H7 0.9300
C12 C13 1.380(2)
C12 H12 0.9300
C13 C14 1.368(3)
C13 H13 0.9300
loop_
_geom_hbond_atom_site_label_D
_geom_hbond_atom_site_label_H
_geom_hbond_atom_site_label_A
_geom_hbond_distance_DH
_geom_hbond_distance_HA
_geom_hbond_distance_DA
_geom_hbond_angle_DHA
C16 H16 O3 0.93 2.37 2.7031(17) 100.6
loop_
_geom_torsion_atom_site_label_1
_geom_torsion_atom_site_label_2
_geom_torsion_atom_site_label_3
_geom_torsion_atom_site_label_4
_geom_torsion
C4 C3 C2 O3 173.63(11)
C4 C3 C2 C1 1.4(2)
C10 O3 C2 C3 117.23(14)
C10 O3 C2 C1 -70.06(16)
C2 C3 C4 C9 -2.15(18)
C2 C3 C4 C5 178.32(12)
C7 C8 C9 O1 178.67(11)
C7 C8 C9 C4 -1.5(2)
C1 O1 C9 C8 -178.64(11)
C1 O1 C9 C4 1.50(18)
C5 C4 C9 C8 0.44(19)
C3 C4 C9 C8 -179.12(12)
C5 C4 C9 O1 -179.71(11)
C3 C4 C9 O1 0.73(18)
C9 C4 C5 C6 0.8(2)
C3 C4 C5 C6 -179.72(12)
C9 O1 C1 O2 178.72(12)
C9 O1 C1 C2 -2.18(18)
C3 C2 C1 O2 179.71(14)
O3 C2 C1 O2 7.2(2)
C3 C2 C1 O1 0.69(19)
O3 C2 C1 O1 -171.86(10)
C2 O3 C10 O4 -9.0(2)
C2 O3 C10 C11 172.17(11)
C16 C11 C10 O4 -176.64(14)
C12 C11 C10 O4 3.0(2)
C16 C11 C10 O3 2.11(18)
C12 C11 C10 O3 -178.30(12)
C4 C5 C6 C7 -0.9(2)
C12 C11 C16 C15 -0.2(2)
C10 C11 C16 C15 179.41(13)
C11 C16 C15 C14 0.5(2)
C9 C8 C7 C6 1.3(2)
C5 C6 C7 C8 -0.2(2)
C16 C11 C12 C13 -0.6(2)
C10 C11 C12 C13 179.79(13)
C11 C12 C13 C14 1.1(2)
C16 C15 C14 F 179.56(14)
C16 C15 C14 C13 0.0(3)
C12 C13 C14 F 179.68(14)
C12 C13 C14 C15 -0.8(3)

_cod_database_fobs_code 1546640
