#------------------------------------------------------------------------------
#$Date: 2017-07-25 13:37:46 +0300 (Tue, 25 Jul 2017) $
#$Revision: 199293 $
#$URL: file:///home/coder/svn-repositories/cod/cif/1/54/66/1546699.cif $
#------------------------------------------------------------------------------
#
# This file is available in the Crystallography Open Database (COD),
# http://www.crystallography.net/. The original data for this entry
# were provided by IUCr Journals, http://journals.iucr.org/.
#
# The file may be used within the scientific community so long as
# proper attribution is given to the journal article from which the
# data were obtained.
#
data_1546699
loop_
_publ_author_name
'El Bourakadi, Khadija'
'El Bakri, Youness'
'Sebhaoui, Jihad'
'Rayni, Ibtissam'
'Essassi, El Mokhtar'
'Mague, Joel T.'
_publ_section_title
;
 1-(Prop-2-en-1-yl)-3-[(prop-2-en-1-yl)oxy]quinoxalin-2(1<i>H</i>)-one
;
_journal_coeditor_code           SJ4106
_journal_issue                   5
_journal_name_full               IUCrData
_journal_page_first              x170656
_journal_paper_doi               10.1107/S2414314617006563
_journal_volume                  2
_journal_year                    2017
_chemical_formula_iupac          'C14 H14 N2 O2'
_chemical_formula_moiety         'C14 H14 N2 O2'
_chemical_formula_sum            'C14 H14 N2 O2'
_chemical_formula_weight         242.27
_chemical_name_systematic
;
1-(Prop-2-en-1-yl)-3-[(prop-2-en-1-yl)oxy]quinoxalin-2(1<i>H</i>)-one
;
_space_group_crystal_system      triclinic
_space_group_IT_number           2
_space_group_name_Hall           '-P 1'
_space_group_name_H-M_alt        'P -1'
_symmetry_space_group_name_Hall  '-P 1'
_symmetry_space_group_name_H-M   'P -1'
_atom_sites_solution_hydrogens   difmap
_atom_sites_solution_primary     direct
_atom_sites_solution_secondary   difmap
_audit_creation_method           SHELXL-2014/7
_cell_angle_alpha                114.214(3)
_cell_angle_beta                 101.275(4)
_cell_angle_gamma                90.978(3)
_cell_formula_units_Z            2
_cell_length_a                   8.4015(6)
_cell_length_b                   9.0041(6)
_cell_length_c                   9.1465(7)
_cell_measurement_reflns_used    4058
_cell_measurement_temperature    150(2)
_cell_measurement_theta_max      74.5349
_cell_measurement_theta_min      5.4009
_cell_volume                     615.19(8)
_computing_cell_refinement
;
<i>SAINT</i> (Bruker, 2016)
;
_computing_data_collection
;
<i>APEX3</i> (Bruker, 2016)
;
_computing_data_reduction
;
<i>SAINT</i>  (Bruker, 2016)
;
_computing_molecular_graphics
;
<i>DIAMOND</i> (Brandenburg & Putz, 2012)
;
_computing_publication_material
;
<i>SHELXTL</i> (Sheldrick, 2008)
;
_computing_structure_refinement
;
<i>SHELXL2014</i> (Sheldrick, 2015<i>b</i>)
;
_computing_structure_solution
;
<i>SHELXT</i> (Sheldrick, 2015<i>a</i>)
;
_diffrn_ambient_temperature      150(2)
_diffrn_detector_area_resol_mean 10.4167
_diffrn_measured_fraction_theta_full 0.965
_diffrn_measured_fraction_theta_max 0.929
_diffrn_measurement_device_type  'Bruker D8 VENTURE PHOTON 100 CMOS'
_diffrn_measurement_method       '\w scans'
_diffrn_radiation_monochromator  mirror
_diffrn_radiation_type           CuK\a
_diffrn_radiation_wavelength     1.54178
_diffrn_reflns_av_R_equivalents  0.0240
_diffrn_reflns_limit_h_max       10
_diffrn_reflns_limit_h_min       -10
_diffrn_reflns_limit_k_max       10
_diffrn_reflns_limit_k_min       -11
_diffrn_reflns_limit_l_max       10
_diffrn_reflns_limit_l_min       -10
_diffrn_reflns_number            4854
_diffrn_reflns_theta_full        68.000
_diffrn_reflns_theta_max         74.528
_diffrn_reflns_theta_min         5.401
_exptl_absorpt_coefficient_mu    0.722
_exptl_absorpt_correction_T_max  0.97
_exptl_absorpt_correction_T_min  0.84
_exptl_absorpt_correction_type   multi-scan
_exptl_absorpt_process_details
;
(<i>SADABS</i>; Bruker, 2016)
;
_exptl_crystal_colour            colourless
_exptl_crystal_density_diffrn    1.308
_exptl_crystal_density_method    'not measured'
_exptl_crystal_description       plate
_exptl_crystal_F_000             256
_exptl_crystal_size_max          0.188
_exptl_crystal_size_mid          0.166
_exptl_crystal_size_min          0.048
_refine_diff_density_max         0.197
_refine_diff_density_min         -0.271
_refine_ls_extinction_method     none
_refine_ls_goodness_of_fit_ref   1.063
_refine_ls_hydrogen_treatment    refall
_refine_ls_matrix_type           full
_refine_ls_number_parameters     219
_refine_ls_number_reflns         2344
_refine_ls_number_restraints     0
_refine_ls_restrained_S_all      1.063
_refine_ls_R_factor_all          0.0459
_refine_ls_R_factor_gt           0.0412
_refine_ls_shift/su_max          0.000
_refine_ls_shift/su_mean         0.000
_refine_ls_structure_factor_coef Fsqd
_refine_ls_weighting_details
'w=1/[\s^2^(Fo^2^)+(0.0580P)^2^+0.1639P] where P=(Fo^2^+2Fc^2^)/3'
_refine_ls_weighting_scheme      calc
_refine_ls_wR_factor_gt          0.1040
_refine_ls_wR_factor_ref         0.1122
_reflns_number_gt                2090
_reflns_number_total             2344
_reflns_threshold_expression     'I > 2\s(I)'
_cod_data_source_file            sj4106sup1.cif
_cod_data_source_block           I
_cod_database_code               1546699
_shelx_space_group_comment
;
The symmetry employed for this shelxl refinement is uniquely defined
by the following loop, which should always be used as a source of
symmetry information in preference to the above space-group names.
They are only intended as comments.
;
_shelx_estimated_absorpt_t_min   0.876
_shelx_estimated_absorpt_t_max   0.966
_shelx_hkl_file
;
  -1   0   0   37.38    1.43
   1   0   0   42.60    1.43
  -2   0   0   12.29    0.46
   2   0   0   11.70    0.46
  -3   0   0    2.36    0.15
  -4   0   0   66.67    2.52
  -4   0   0   73.42    2.53
  -5   0   0   20.60    0.80
  -6   0   0    1.64    0.21
   6   0   0    1.58    0.27
  -7   0   0    0.11    0.16
   7   0   0    0.08    0.09
   7   0   0   -0.11    0.15
   8   0   0   -0.02    0.09
   9   0   0    1.98    0.17
  10   0   0    6.62    0.29
  10  -1   0    0.06    0.06
   9  -1   0    0.45    0.11
   7  -1   0   10.94    0.50
  -7   1   0   10.67    0.49
   6  -1   0    7.59    0.38
  -6   1   0    7.27    0.37
  -5   1   0    0.14    0.07
  -4   1   0    5.25    0.28
  -4   1   0    5.16    0.26
  -4   1   0    5.30    0.25
  -3   1   0  115.54    4.02
  -3   1   0  109.62    4.02
  -2   1   0   80.66    2.88
   1  -1   0    6.89    0.30
  -1   1   0    8.59    0.31
   0  -1   0  114.87    3.97
   0   1   0  108.88    4.05
  -1  -1   0   17.68    0.67
   1   1   0   18.04    0.67
  -2  -1   0   99.48    3.55
   2   1   0   99.28    3.56
  -3  -1   0    0.00    0.04
   3   1   0    0.03    0.05
  -4  -1   0   40.63    1.54
   4   1   0   41.12    1.56
  -5  -1   0  231.27    8.23
  -6  -1   0   40.53    1.53
   6   1   0   40.29    1.52
  -7  -1   0    3.51    0.29
   7   1   0    3.72    0.28
  -8  -1   0    1.39    0.27
   8   1   0    1.13    0.18
   8   1   0    0.79    0.26
   9   1   0    0.22    0.08
  10   1   0    4.52    0.21
  10  -2   0   94.06    3.35
   9  -2   0    0.54    0.13
   8  -2   0   11.91    0.52
  -8   2   0   11.14    0.52
   7  -2   0   25.32    1.02
  -7   2   0   26.23    1.01
   6  -2   0   13.01    0.58
  -6   2   0   13.03    0.56
   5  -2   0   12.52    0.56
  -5   2   0   12.56    0.52
  -4   2   0    5.05    0.35
  -4   2   0    5.19    0.30
  -4   2   0    5.36    0.26
  -3   2   0   35.69    1.35
  -3   2   0   38.11    1.38
   2  -2   0    2.58    0.17
  -2   2   0    2.48    0.16
   1  -2   0   31.03    1.17
  -1   2   0   31.23    1.16
   0  -2   0  816.33   29.69
   0   2   0  849.71   29.73
  -1  -2   0   14.82    0.58
   1   2   0   13.51    0.57
  -2  -2   0  216.12    7.54
   2   2   0  206.57    7.53
  -3  -2   0    2.31    0.27
   3   2   0    2.52    0.24
  -4  -2   0    1.69    0.40
   4   2   0    1.38    0.35
  -5  -2   0   25.21    0.95
  -5  -2   0   24.29    0.97
  -5  -2   0   25.00    1.10
   5   2   0   23.90    0.95
  -6  -2   0    0.92    0.21
   6   2   0    0.56    0.13
  -7  -2   0    8.89    0.46
   7   2   0    9.15    0.43
  -8  -2   0    0.51    0.18
   8   2   0    0.12    0.09
   8   2   0    0.16    0.10
  -9  -2   0    7.66    0.38
   9   2   0    8.03    0.35
  10  -3   0   15.33    0.58
   9  -3   0    2.36    0.18
  -9   3   0    2.71    0.24
   8  -3   0    1.79    0.20
  -8   3   0    1.20    0.18
   7  -3   0    0.92    0.18
  -7   3   0    0.86    0.15
   6  -3   0   22.45    0.94
  -6   3   0   25.24    0.94
   5  -3   0  212.28    7.54
  -5   3   0  211.02    7.53
  -4   3   0   40.58    1.59
  -4   3   0   41.23    1.51
  -3   3   0    0.05    0.06
  -3   3   0    0.01    0.06
   2  -3   0   15.36    0.68
  -2   3   0   15.74    0.66
   1  -3   0   17.50    0.73
  -1   3   0   17.18    0.72
   0  -3   0  108.60    3.97
   0   3   0  110.23    3.97
  -1  -3   0   67.22    2.46
   1   3   0   64.66    2.44
  -2  -3   0    0.08    0.09
   2   3   0    0.08    0.07
  -3  -3   0    9.13    0.63
   3   3   0   10.17    0.58
  -4  -3   0   15.25    0.64
  -4  -3   0   15.92    0.64
   4   3   0   13.80    0.92
  -5  -3   0   26.76    1.00
  -5  -3   0   24.60    1.03
  -5  -3   0   26.12    1.02
  -6  -3   0   61.64    2.37
  -6  -3   0   65.89    2.38
   6   3   0   64.37    2.35
  -7  -3   0    7.43    0.40
   7   3   0    7.20    0.37
  -8  -3   0    0.06    0.10
   8   3   0    0.05    0.08
   8   3   0    0.00    0.08
  -9  -3   0    0.49    0.12
   9   3   0    0.48    0.11
   9  -4   0    5.16    0.26
  -9   4   0    5.15    0.30
   8  -4   0    9.12    0.41
  -8   4   0    8.57    0.42
   7  -4   0   13.09    0.54
  -7   4   0   10.93    0.53
   6  -4   0    2.94    0.28
  -6   4   0    3.24    0.22
   5  -4   0   16.09    0.68
  -5   4   0   15.63    0.65
   4  -4   0   16.17    0.71
  -4   4   0   17.45    0.67
  -3   4   0   39.73    1.44
  -3   4   0   38.47    1.57
   2  -4   0    8.85    0.55
  -2   4   0    9.35    0.50
  -2   4   0    8.54    0.37
   1  -4   0  123.07    4.66
  -1   4   0  130.69    4.64
   0  -4   0   54.94    2.23
   0   4   0   60.76    2.22
   1   4   0  180.54    6.55
   2   4   0    3.85    0.42
  -3  -4   0    7.72    0.37
  -3  -4   0    7.60    0.40
  -3  -4   0    8.01    0.40
   3   4   0    8.42    0.76
  -4  -4   0    2.97    0.26
  -4  -4   0    2.46    0.23
  -5  -4   0   33.76    1.35
  -5  -4   0   35.84    1.35
  -5  -4   0   35.16    1.33
  -6  -4   0   43.38    1.66
  -6  -4   0   45.13    1.67
   6   4   0   42.95    1.64
  -7  -4   0    2.54    0.23
   7   4   0    2.05    0.19
  -8  -4   0    0.27    0.09
   8   4   0    0.33    0.08
   8   4   0    0.20    0.08
   9  -5   0    3.25    0.30
   8  -5   0    0.97    0.17
  -8   5   0    1.29    0.17
   7  -5   0    0.04    0.12
  -7   5   0    0.05    0.08
   6  -5   0    0.72    0.23
   5  -5   0   10.10    0.49
  -5   5   0   10.32    0.47
   4  -5   0   45.02    1.65
   4  -5   0   42.33    1.64
  -4   5   0   45.27    1.65
   3  -5   0   45.61    1.76
   3  -5   0   47.27    1.78
  -3   5   0   50.22    1.76
   2  -5   0    0.86    0.20
  -2   5   0    0.98    0.16
   1  -5   0    7.25    0.36
  -1   5   0    7.84    0.43
   0  -5   0    0.21    0.11
  -1  -5   0    2.69    0.22
  -1  -5   0    2.25    0.23
  -2  -5   0   34.72    1.25
  -2  -5   0   32.94    1.21
  -2  -5   0   31.96    1.24
  -2  -5   0   30.16    1.24
  -3  -5   0   11.24    0.52
  -3  -5   0   11.82    0.53
  -3  -5   0   11.50    0.54
  -4  -5   0   90.18    3.21
  -4  -5   0   85.94    3.22
  -4  -5   0   89.63    3.23
  -5  -5   0    7.01    0.36
  -5  -5   0    6.88    0.38
  -5  -5   0    7.32    0.41
  -6  -5   0  231.48    8.09
  -6  -5   0  213.15    8.06
   6   5   0  234.68    8.06
  -7  -5   0    1.76    0.17
   7   5   0    1.59    0.15
  -8  -5   0    2.72    0.17
   8   5   0    2.60    0.17
  -8   6   0    3.50    0.23
   7  -6   0    0.72    0.21
  -7   6   0    1.03    0.17
   6  -6   0    0.13    0.13
  -6   6   0    0.15    0.09
   5  -6   0   10.07    0.48
  -5   6   0    9.86    0.46
   4  -6   0   14.37    0.63
   4  -6   0   14.30    0.65
  -4   6   0   16.09    0.64
   3  -6   0    3.72    0.27
  -3   6   0    4.09    0.27
   2  -6   0    3.75    0.25
  -2   6   0    3.37    0.26
   1  -6   0   29.27    1.15
   1  -6   0   31.18    1.16
   0  -6   0    4.03    0.27
   0  -6   0    4.15    0.27
  -1  -6   0   15.92    0.70
  -1  -6   0   17.36    0.68
  -1  -6   0   17.00    0.70
  -2  -6   0    5.76    0.39
  -2  -6   0    6.32    0.32
  -2  -6   0    6.07    0.36
  -2  -6   0    5.92    0.34
  -3  -6   0    0.09    0.11
  -3  -6   0    0.04    0.10
  -3  -6   0    0.07    0.18
  -4  -6   0    9.81    0.49
  -4  -6   0   10.62    0.49
  -4  -6   0   10.70    0.49
  -5  -6   0   16.19    0.69
  -5  -6   0   16.56    0.69
   5   6   0   16.38    0.67
  -6  -6   0    1.92    0.25
  -6  -6   0    2.21    0.19
   6   6   0    2.08    0.16
  -7  -6   0    0.59    0.11
   7   6   0    0.43    0.10
  -7   7   0    0.62    0.17
  -6   7   0   28.57    1.11
   4  -7   0  280.11    9.79
  -4   7   0  271.29    9.80
   3  -7   0    5.49    0.32
  -3   7   0    5.83    0.37
   2  -7   0    0.25    0.09
   1  -7   0   21.21    0.86
   1  -7   0   21.41    0.85
   0  -7   0   36.01    1.35
   0  -7   0   36.02    1.37
  -1  -7   0    2.03    0.26
  -1  -7   0    1.68    0.21
  -1  -7   0    1.72    0.20
  -2  -7   0    1.19    0.23
  -2  -7   0    1.16    0.20
  -3  -7   0    0.55    0.19
  -3  -7   0    0.58    0.18
  -4  -7   0    6.88    0.35
  -4  -7   0    6.77    0.35
  -5  -7   0    0.19    0.10
  -5  -7   0    0.27    0.10
   5   7   0    0.24    0.07
  -6  -7   0    1.22    0.13
   6   7   0    1.36    0.13
   4  -8   0    4.93    0.27
   3  -8   0    1.00    0.18
   2  -8   0    6.58    0.34
   1  -8   0    6.23    0.34
   0  -8   0   30.05    1.16
  -1  -8   0   72.25    2.64
  -2  -8   0    4.93    0.32
  -2  -8   0    5.34    0.29
  -3  -8   0    4.77    0.27
  -3  -8   0    5.20    0.29
   3   8   0    5.14    0.26
  -4  -8   0    1.01    0.15
  -4  -8   0    0.89    0.14
   4   8   0    0.79    0.13
  -5  -8   0   13.46    0.54
  -5  -8   0   12.95    0.54
   5   8   0   14.34    0.53
   4  -9   0    2.56    0.21
   3  -9   0    0.13    0.08
   2  -9   0    7.38    0.34
   1  -9   0    5.81    0.29
   0  -9   0    1.24    0.15
  -1  -9   0    0.00    0.06
  -2  -9   0    3.45    0.20
   2   9   0    3.50    0.22
  -3  -9   0    3.89    0.22
   3   9   0    4.49    0.22
   2 -10   0    0.62    0.13
   1 -10   0    0.29    0.07
   0 -10   0    0.93    0.11
  -1 -10   0    0.36    0.10
  -2 -10   1    1.06    0.12
  -1 -10   1    0.06    0.06
   0 -10   1    2.11    0.16
   1 -10   1    2.14    0.17
   2 -10   1    4.37    0.24
   4   9  -1   18.34    0.69
  -4  -9   1   18.07    0.70
   3   9  -1    0.52    0.11
  -3  -9   1    0.69    0.12
  -2  -9   1    7.21    0.34
  -1  -9   1    2.30    0.19
   0  -9   1    0.09    0.08
   1  -9   1    0.20    0.08
   2  -9   1    1.34    0.17
   3  -9   1    0.07    0.10
   6   8  -1    0.00    0.05
  -6  -8   1    0.07    0.08
  -5  -8   1    0.82    0.14
  -5  -8   1    0.74    0.15
  -4  -8   1   16.10    0.68
  -4  -8   1   17.26    0.68
  -3  -8   1    4.93    0.28
  -3  -8   1    5.01    0.34
  -3  -8   1    4.85    0.31
  -2  -8   1   38.07    1.45
  -2  -8   1   39.38    1.47
  -1  -8   1   15.82    0.64
  -1  -8   1   13.96    0.64
  -1  -8   1   14.97    0.61
   0  -8   1   37.79    1.52
   0  -8   1   42.32    1.54
   0  -8   1   41.38    1.50
   1  -8   1   22.01    1.03
   1  -8   1   24.40    0.95
   1  -8   1   25.23    0.93
   2  -8   1   29.91    1.05
   2  -8   1   23.47    1.12
   3  -8   1   -0.04    0.10
   3  -8   1    0.09    0.18
  -5   8  -1    2.09    0.28
  -6   8  -1    0.07    0.14
   7   7  -1    0.46    0.10
  -7  -7   1    0.62    0.11
   6   7  -1    2.63    0.17
  -6  -7   1    2.94    0.21
  -6  -7   1    2.81    0.19
  -5  -7   1    2.53    0.21
  -5  -7   1    2.50    0.21
  -5  -7   1    1.95    0.19
  -4  -7   1   12.00    0.52
  -4  -7   1   11.75    0.53
  -4  -7   1   10.95    0.52
  -3  -7   1    2.03    0.23
  -3  -7   1    2.55    0.27
  -3  -7   1    2.29    0.25
  -2  -7   1   38.00    1.45
  -2  -7   1   38.86    1.44
  -2  -7   1   40.43    1.48
  -2  -7   1   37.03    1.46
  -1  -7   1    0.11    0.10
  -1  -7   1    0.19    0.09
  -1  -7   1    0.09    0.14
   0  -7   1    1.32    0.20
   0  -7   1    1.90    0.29
   0  -7   1    1.51    0.20
   1  -7   1    1.16    0.20
   1  -7   1    0.99    0.21
   1  -7   1    0.80    0.26
   2  -7   1   70.77    2.57
   2  -7   1   69.14    2.56
   2  -7   1   71.47    2.57
  -3   7  -1    5.02    0.34
   3  -7   1    5.10    0.32
   3  -7   1    4.85    0.32
  -4   7  -1  161.81    5.80
   4  -7   1  162.07    5.78
  -5   7  -1   21.90    0.90
   5  -7   1   22.89    0.89
  -6   7  -1    0.79    0.18
   6  -7   1    0.67    0.19
  -7   7  -1    5.15    0.29
   7  -7   1    5.27    0.28
   8   6  -1    3.09    0.18
  -8  -6   1    3.21    0.18
   7   6  -1    3.88    0.21
  -7  -6   1    3.74    0.23
  -7  -6   1    3.99    0.29
   6   6  -1   14.73    0.60
  -6  -6   1   15.17    0.62
  -6  -6   1   13.86    0.62
  -5  -6   1    0.22    0.11
  -5  -6   1    0.00    0.12
  -5  -6   1    0.17    0.11
  -4  -6   1    5.24    0.33
  -4  -6   1    5.33    0.33
  -4  -6   1    5.60    0.33
  -3  -6   1    1.51    0.18
  -3  -6   1    1.22    0.22
  -3  -6   1    1.53    0.22
  -3  -6   1    1.26    0.23
  -2  -6   1   29.33    1.10
  -2  -6   1   27.61    1.11
  -2  -6   1   28.06    1.07
  -2  -6   1   28.08    1.09
  -1  -6   1   20.43    0.85
  -1  -6   1   21.45    0.82
  -1  -6   1   20.72    0.83
   0  -6   1    3.55    0.25
   0  -6   1    3.62    0.32
   0  -6   1    3.76    0.26
   1  -6   1   26.98    1.05
   1  -6   1   27.09    1.04
   1  -6   1   27.40    1.05
  -2   6  -1   26.50    0.99
   2  -6   1   25.33    1.00
   2  -6   1   25.94    1.00
   2  -6   1   25.33    1.01
  -3   6  -1    7.69    0.36
   3  -6   1    7.47    0.39
   3  -6   1    7.00    0.40
  -4   6  -1   13.08    0.57
   4  -6   1   13.79    0.58
  -5   6  -1    0.40    0.10
   5  -6   1    0.26    0.12
  -6   6  -1    1.00    0.16
   6  -6   1    1.53    0.20
  -7   6  -1   18.63    0.77
   7  -6   1   19.25    0.75
  -8   6  -1    1.27    0.18
   8  -6   1    1.50    0.15
   8   5  -1   16.11    0.63
   8   5  -1   16.75    0.63
  -8  -5   1   15.73    0.64
   7   5  -1    3.79    0.23
  -7  -5   1    3.82    0.30
  -7  -5   1    3.59    0.25
   6   5  -1  129.34    4.64
  -6  -5   1  125.62    4.64
  -6  -5   1  132.09    4.67
  -6  -5   1  129.63    4.65
  -5  -5   1   47.80    1.85
  -5  -5   1   51.20    1.85
  -5  -5   1   48.81    1.82
  -4  -5   1    1.76    0.22
  -4  -5   1    2.03    0.25
  -4  -5   1    1.72    0.22
  -3  -5   1   12.29    0.52
  -3  -5   1   12.61    0.56
  -3  -5   1   12.22    0.54
  -3  -5   1   12.86    0.56
  -2  -5   1    8.70    0.39
  -2  -5   1    7.77    0.40
  -2  -5   1    8.21    0.42
  -2  -5   1    8.81    0.42
   1   5  -1   49.15    1.99
   0   5  -1   29.45    1.28
  -1   5  -1    7.27    0.35
  -1   5  -1    7.77    0.54
  -2   5  -1   45.08    1.67
  -2   5  -1   45.82    1.87
  -3   5  -1    1.04    0.15
   3  -5   1    0.94    0.23
  -4   5  -1    6.53    0.33
   4  -5   1    6.51    0.37
  -5   5  -1    2.61    0.20
   5  -5   1    1.86    0.24
  -6   5  -1    1.57    0.16
   6  -5   1    1.32    0.22
  -7   5  -1   13.13    0.61
   7  -5   1   15.59    0.61
  -8   5  -1    2.48    0.20
   8  -5   1    2.66    0.19
   9  -5   1    0.15    0.07
   9   4  -1    1.84    0.14
  -9  -4   1    1.69    0.16
   8   4  -1    7.75    0.35
  -8  -4   1    7.45    0.36
   7   4  -1   13.99    0.59
  -7  -4   1   13.69    0.63
  -7  -4   1   13.03    0.60
   6   4  -1   52.47    1.97
  -6  -4   1   52.32    1.97
  -6  -4   1   53.51    1.99
  -6  -4   1   54.45    2.00
  -5  -4   1   14.99    0.63
  -5  -4   1   15.18    0.65
  -4  -4   1   13.63    0.60
  -4  -4   1   14.27    0.61
  -4  -4   1   13.44    0.59
   3   4  -1  115.30    4.28
   2   4  -1  110.87    3.95
  -2  -4   1  102.90    3.97
   1   4  -1  213.93    7.55
  -1  -4   1  205.39    7.57
   0   4  -1   65.18    2.42
   0  -4   1   63.30    2.44
  -1   4  -1  171.09    6.10
   1  -4   1  166.05    6.11
  -2   4  -1  109.46    4.19
  -2   4  -1  122.71    4.32
   2  -4   1  120.88    4.35
  -3   4  -1   36.88    1.51
  -3   4  -1   37.39    1.37
  -4   4  -1    0.01    0.06
  -4   4  -1   -0.07    0.21
   4  -4   1   -0.12    0.12
  -5   4  -1   -0.04    0.06
   5  -4   1    0.02    0.12
  -6   4  -1    1.20    0.16
   6  -4   1    1.08    0.21
  -7   4  -1    0.43    0.13
   7  -4   1    0.82    0.18
  -8   4  -1    0.21    0.09
   8  -4   1    0.27    0.09
  -9   4  -1    0.27    0.13
   9  -4   1    0.21    0.07
   9   3  -1   -0.02    0.06
  -9  -3   1    0.06    0.09
   8   3  -1    0.83    0.19
  -8  -3   1    0.71    0.16
   7   3  -1    2.15    0.25
  -7  -3   1    2.70    0.25
  -7  -3   1    2.44    0.34
   6   3  -1    0.32    0.11
  -6  -3   1    0.62    0.17
  -6  -3   1    1.11    0.20
  -5  -3   1    0.99    0.21
  -5  -3   1    0.87    0.17
  -5  -3   1    0.68    0.20
   4   3  -1    1.07    0.41
  -4  -3   1    0.78    0.19
   3   3  -1  106.04    3.79
  -3  -3   1  101.32    3.80
   2   3  -1    3.10    0.23
  -2  -3   1    3.24    0.25
   1   3  -1   14.06    0.60
  -1  -3   1   13.95    0.61
   0   3  -1    1.38    0.15
   0  -3   1    1.52    0.16
  -1   3  -1   21.56    0.87
   1  -3   1   22.33    0.89
  -2   3  -1  229.21    8.19
  -3   3  -1  159.67    5.74
  -3   3  -1  158.64    5.66
  -4   3  -1  148.51    5.30
  -4   3  -1  140.89    5.13
  -4   3  -1  142.31    5.23
  -5   3  -1   15.92    0.65
   5  -3   1   15.71    0.67
  -6   3  -1    3.66    0.24
   6  -3   1    3.47    0.25
  -7   3  -1   14.11    0.61
   7  -3   1   14.55    0.62
  -8   3  -1   78.27    2.97
   8  -3   1   84.89    2.97
  -9   3  -1    3.16    0.30
   9  -3   1    3.13    0.19
  10   2  -1    0.60    0.09
   9   2  -1    0.11    0.07
  -9  -2   1   -0.22    0.11
   8   2  -1   16.43    0.71
   8   2  -1   17.11    0.70
  -8  -2   1   17.07    0.71
   7   2  -1   11.97    0.52
  -7  -2   1   11.65    0.53
  -7  -2   1   10.15    0.56
   6   2  -1   19.90    0.80
  -6  -2   1   18.98    0.83
  -6  -2   1   19.71    0.81
  -5  -2   1   25.56    1.02
  -5  -2   1   24.39    0.94
  -5  -2   1   22.25    0.95
   4   2  -1    0.59    0.25
  -4  -2   1    0.76    0.21
   3   2  -1    4.93    0.27
  -3  -2   1    5.28    0.27
   2   2  -1   49.10    1.88
  -2  -2   1   54.26    1.90
   1   2  -1   11.43    0.46
  -1  -2   1   11.25    0.47
   0   2  -1    8.64    0.39
   0  -2   1   10.15    0.40
  -1   2  -1   12.17    0.50
   1  -2   1   12.25    0.51
  -2   2  -1    0.33    0.10
  -3   2  -1   12.36    0.56
  -3   2  -1   13.18    0.60
  -4   2  -1   17.84    0.85
  -4   2  -1   17.83    0.69
  -4   2  -1   17.30    0.76
  -5   2  -1    5.17    0.27
   5  -2   1    5.10    0.31
  -6   2  -1    2.45    0.20
   6  -2   1    2.25    0.22
   6  -2   1    2.39    0.32
  -7   2  -1   15.80    0.70
   7  -2   1   17.97    0.71
  -8   2  -1   68.22    2.59
   8  -2   1   73.45    2.60
   9  -2   1    1.06    0.13
  10  -2   1   10.43    0.41
  10   1  -1    0.55    0.10
   9   1  -1    0.03    0.07
  -9  -1   1   -0.14    0.15
   8   1  -1    6.55    0.36
  -8  -1   1    7.18    0.39
  -7  -1   1    7.95    0.42
   6   1  -1   53.14    2.07
  -6  -1   1   54.58    2.09
  -6  -1   1   60.48    2.09
   3   1  -1  151.29    5.36
   2   1  -1  951.40   34.50
  -2  -1   1 1000.00   34.52
   1   1  -1  265.34    9.81
  -1  -1   1  284.04    9.82
   0   1  -1  161.72    5.85
  -1   1  -1  216.14    7.77
  -2   1  -1   86.19    3.11
  -3   1  -1    1.56    0.20
  -4   1  -1   53.74    2.01
  -4   1  -1   55.66    2.08
  -4   1  -1   56.38    2.08
  -5   1  -1   32.62    1.23
   5  -1   1   32.78    1.24
  -6   1  -1    2.89    0.22
   6  -1   1    2.71    0.30
   6  -1   1    2.75    0.23
  -7   1  -1   10.73    0.48
   7  -1   1   10.29    0.48
   7  -1   1    9.06    0.47
   8  -1   1    5.77    0.32
   9  -1   1    7.12    0.33
  10  -1   1    0.32    0.06
  10   0  -1    0.15    0.06
   9   0  -1    6.20    0.31
   8   0  -1    1.10    0.19
  -8   0   1    0.67    0.19
   7   0  -1    0.27    0.10
  -7   0   1    0.14    0.13
  -7   0   1    0.53    0.17
  -6   0   1   22.32    0.95
  -6   0   1   22.72    0.92
  -6   0   1   22.94    0.88
  -5   0   1   52.70    1.92
  -4   0   1    1.10    0.15
   0   0  -1  682.57   24.25
  -1   0  -1   60.59    2.07
   1   0   1   53.47    2.06
  -2   0  -1    0.87    0.12
   2   0   1    0.95    0.11
  -3   0  -1  109.11    3.86
   3   0   1  104.02    3.87
  -4   0  -1  233.28    8.35
  -5   0  -1   27.56    1.03
   5   0   1   26.67    1.04
  -6   0  -1    1.98    0.22
  -6   0  -1    1.51    0.32
   6   0   1    2.22    0.21
   7   0   1    0.01    0.09
   7   0   1    0.18    0.12
   8   0   1    1.09    0.17
   8   0   1    1.51    0.21
   9   0   1    1.42    0.13
  10  -1  -1    2.24    0.15
   9  -1  -1    8.33    0.38
   8  -1  -1    0.21    0.11
  -8   1   1    0.12    0.13
   7  -1  -1    2.30    0.24
  -7   1   1    2.63    0.23
   6  -1  -1   10.81    0.50
  -6   1   1   10.40    0.59
  -6   1   1   11.24    0.48
  -6   1   1   11.01    0.58
  -5   1   1    0.10    0.07
  -4   1   1   20.29    0.78
  -3   1   1    3.14    0.16
   2  -1  -1  230.67    8.01
  -2   1   1  217.51    7.97
   1  -1  -1  165.83    5.91
  -1   1   1  163.18    5.86
   0  -1  -1  181.81    6.56
   0   1   1  183.20    6.54
  -1  -1  -1  541.02   19.31
   1   1   1  535.40   19.30
  -2  -1  -1   31.49    1.18
   2   1   1   29.45    1.18
  -3  -1  -1  228.76    7.79
   3   1   1  205.71    7.77
  -4  -1  -1   96.26    3.58
   4   1   1   96.98    3.59
  -5  -1  -1   28.16    1.09
   5   1   1   27.43    1.06
  -6  -1  -1   22.26    0.91
   6   1   1   22.33    0.88
  -7  -1  -1   11.19    0.52
   7   1   1   10.15    0.49
   7   1   1   10.51    0.48
  -8  -1  -1    2.28    0.28
   8   1   1    2.26    0.22
   8   1   1    2.27    0.19
   9   1   1    8.14    0.35
  10  -2  -1   43.25    1.56
   9  -2  -1   23.60    0.91
  -9   2   1   23.63    0.94
   8  -2  -1    1.71    0.19
  -8   2   1    1.79    0.22
   7  -2  -1   13.61    0.61
  -7   2   1   13.95    0.60
   6  -2  -1   41.30    1.49
  -6   2   1   36.96    1.51
  -6   2   1   39.27    1.47
   5  -2  -1   32.67    1.36
  -5   2   1   37.63    1.32
  -4   2   1    5.50    0.33
  -4   2   1    5.20    0.28
  -4   2   1    5.15    0.25
   3  -2  -1    0.02    0.05
  -3   2   1   -0.01    0.04
  -3   2   1    0.06    0.05
   2  -2  -1    0.02    0.04
  -2   2   1    0.04    0.03
   1  -2  -1   50.37    1.86
  -1   2   1   50.68    1.86
   0  -2  -1  103.91    3.76
  -1  -2  -1   31.80    1.23
   1   2   1   31.48    1.22
  -2  -2  -1   15.94    0.72
   2   2   1   16.45    0.71
  -3  -2  -1   42.77    1.71
   3   2   1   43.37    1.71
  -4  -2  -1  107.40    3.70
   4   2   1  103.68    3.68
   4   2   1   94.56    5.61
  -5  -2  -1    0.69    0.20
   5   2   1    0.64    0.12
  -6  -2  -1   29.28    1.15
   6   2   1   29.02    1.13
  -7  -2  -1   -0.06    0.12
   7   2   1    0.11    0.10
   7   2   1   -0.11    0.08
  -8  -2  -1    2.91    0.25
   8   2   1    3.38    0.22
   8   2   1    3.12    0.21
   9   2   1    5.70    0.25
   9   2   1    4.93    0.28
   9  -3  -1   19.83    0.77
  -9   3   1   20.33    0.80
   8  -3  -1    2.61    0.24
  -8   3   1    2.58    0.23
   7  -3  -1   30.73    1.18
  -7   3   1   30.49    1.19
   6  -3  -1   27.96    1.10
  -6   3   1   30.40    1.10
  -6   3   1   26.14    1.10
   5  -3  -1   13.72    0.61
  -5   3   1   14.06    0.65
  -5   3   1   14.73    0.59
  -4   3   1   30.14    1.13
   3  -3  -1    4.21    0.36
  -3   3   1    4.91    0.33
  -3   3   1    4.56    0.23
   2  -3  -1   59.27    2.21
  -2   3   1   57.34    2.11
  -2   3   1   58.86    2.19
   1  -3  -1   40.98    1.52
  -1   3   1   36.92    1.50
   0  -3  -1    0.35    0.10
   0   3   1    0.45    0.17
  -1  -3  -1   16.38    0.80
   1   3   1   17.93    0.78
   2   3   1   13.21    0.69
  -3  -3  -1    1.73    0.22
   3   3   1    2.31    0.53
  -4  -3  -1    5.94    0.41
  -4  -3  -1    6.59    0.35
  -4  -3  -1    6.20    0.37
  -5  -3  -1    0.40    0.12
   5   3   1    0.46    0.10
  -6  -3  -1    2.97    0.27
   6   3   1    3.15    0.24
  -7  -3  -1    4.04    0.28
   7   3   1    3.48    0.25
   7   3   1    3.32    0.23
  -8  -3  -1    5.26    0.28
   8   3   1    5.14    0.26
   8   3   1    5.04    0.27
   9  -4  -1    1.21    0.20
  -9   4   1    1.33    0.18
   8  -4  -1    1.77    0.22
  -8   4   1    1.55    0.18
   7  -4  -1   11.33    0.52
  -7   4   1   11.39    0.52
   6  -4  -1    2.24    0.30
  -6   4   1    2.88    0.22
   5  -4  -1    3.31    0.36
  -5   4   1    4.55    0.26
  -4   4   1   49.30    1.82
  -3   4   1   15.50    0.62
  -3   4   1   15.35    0.85
  -2   4   1    9.03    0.58
  -2   4   1    8.64    0.39
  -1   4   1   85.59    3.20
  -1   4   1   92.81    3.36
   0   4   1   43.49    1.77
   1   4   1  161.66    5.94
  -2  -4  -1    1.68    0.24
  -2  -4  -1    1.02    0.21
  -3  -4  -1   10.12    0.44
  -3  -4  -1    9.21    0.46
  -3  -4  -1    7.18    0.74
  -4  -4  -1  269.06    9.44
  -4  -4  -1  259.94    9.40
  -4  -4  -1  265.47    9.42
  -5  -4  -1    9.52    0.46
  -5  -4  -1    8.67    0.48
   5   4   1    9.14    0.43
  -6  -4  -1    1.30    0.21
   6   4   1    1.22    0.18
  -7  -4  -1    0.57    0.16
   7   4   1    0.47    0.11
   7   4   1    0.43    0.11
  -8  -4  -1    0.54    0.13
   8   4   1    0.51    0.11
  -8   5   1    2.70    0.21
  -7   5   1    0.93    0.16
   6  -5  -1    2.01    0.24
  -6   5   1    2.08    0.20
  -5   5   1    4.92    0.30
  -4   5   1    0.08    0.08
  -3   5   1    3.35    0.23
  -2   5   1    3.62    0.25
   1  -5  -1    5.37    0.29
  -1   5   1    4.52    0.33
   0  -5  -1    1.22    0.18
   0  -5  -1    1.10    0.27
  -1  -5  -1    0.00    0.12
  -1  -5  -1    0.15    0.10
  -1  -5  -1    0.21    0.14
  -2  -5  -1    3.47    0.25
  -2  -5  -1    3.00    0.25
  -3  -5  -1   34.42    1.33
  -3  -5  -1   35.25    1.35
  -4  -5  -1  177.45    6.35
  -4  -5  -1  176.41    6.33
  -5  -5  -1    0.07    0.14
  -5  -5  -1    0.15    0.10
   5   5   1    0.32    0.10
  -6  -5  -1    1.83    0.18
   6   5   1    2.08    0.17
  -7  -5  -1    0.40    0.12
   7   5   1    0.42    0.10
  -8   6   1    0.10    0.08
  -7   6   1    0.10    0.08
  -6   6   1   50.73    1.90
   5  -6  -1   22.61    0.90
  -5   6   1   23.10    0.92
   4  -6  -1    1.15    0.18
  -4   6   1    0.96    0.19
   3  -6  -1   27.92    1.11
  -3   6   1   29.75    1.12
   2  -6  -1    0.48    0.16
  -2   6   1    0.38    0.12
   1  -6  -1    2.32    0.21
   0  -6  -1    6.32    0.34
   0  -6  -1    6.39    0.38
   0  -6  -1    6.36    0.37
  -1  -6  -1    1.24    0.20
  -1  -6  -1    0.81    0.16
  -2  -6  -1    0.28    0.11
  -2  -6  -1    0.20    0.11
  -3  -6  -1   16.82    0.71
  -3  -6  -1   16.38    0.71
  -4  -6  -1   15.72    0.69
  -4  -6  -1   16.47    0.69
   4   6   1   16.45    0.67
  -5  -6  -1    0.01    0.12
  -5  -6  -1    0.24    0.09
   5   6   1   -0.11    0.06
  -6  -6  -1    1.94    0.16
   6   6   1    1.75    0.14
  -7  -6  -1    3.21    0.18
   7   6   1    3.30    0.17
  -7   7   1    9.53    0.44
  -6   7   1   76.01    2.77
   5  -7  -1    0.76    0.17
  -5   7   1    1.07    0.19
   4  -7  -1   32.44    1.19
  -4   7   1   29.96    1.21
   3  -7  -1    7.43    0.37
   2  -7  -1   13.45    0.58
   1  -7  -1   18.91    0.77
   0  -7  -1   49.22    1.84
  -1  -7  -1    0.63    0.17
  -1  -7  -1    0.51    0.14
  -2  -7  -1    7.54    0.40
  -2  -7  -1    7.82    0.39
  -3  -7  -1    0.22    0.10
  -3  -7  -1    0.73    0.16
   3   7   1    0.46    0.14
  -4  -7  -1   -0.02    0.09
  -4  -7  -1    0.09    0.09
   4   7   1    0.13    0.07
  -5  -7  -1    4.28    0.24
   5   7   1    4.58    0.23
  -6  -7  -1    6.32    0.28
   6   7   1    6.51    0.27
   5  -8  -1    1.11    0.16
   4  -8  -1    1.67    0.16
   3  -8  -1   36.71    1.37
   2  -8  -1   18.77    0.75
   1  -8  -1   23.06    0.91
   0  -8  -1    8.00    0.38
  -1  -8  -1    0.09    0.13
  -1  -8  -1    0.65    0.15
  -2  -8  -1    4.13    0.27
  -2  -8  -1    4.39    0.24
   2   8   1    4.32    0.25
  -3  -8  -1    5.42    0.26
  -3  -8  -1    4.96    0.27
   3   8   1    5.02    0.26
  -4  -8  -1    3.16    0.20
  -4  -8  -1    3.41    0.24
   4   8   1    3.59    0.19
   4  -9  -1    3.62    0.21
   3  -9  -1    0.76    0.12
   2  -9  -1    2.82    0.18
   1  -9  -1    2.55    0.17
   0  -9  -1    6.45    0.30
  -1  -9  -1   -0.05    0.06
  -2  -9  -1   10.87    0.44
   3  10  -2    1.20    0.12
  -3 -10   2    1.08    0.12
  -2 -10   2    6.09    0.28
  -1 -10   2    1.56    0.15
   0 -10   2    4.33    0.24
   1 -10   2    0.68    0.15
   2 -10   2    3.28    0.23
   5   9  -2    9.09    0.37
  -5  -9   2    8.96    0.38
  -4  -9   2    0.04    0.07
  -3  -9   2   13.72    0.56
  -3  -9   2   13.18    0.55
  -2  -9   2    3.92    0.24
  -2  -9   2    3.74    0.26
  -1  -9   2    6.00    0.29
  -1  -9   2    6.43    0.32
  -1  -9   2    5.90    0.32
   0  -9   2    5.76    0.33
   0  -9   2    6.22    0.29
   0  -9   2    5.66    0.32
   1  -9   2    6.11    0.33
   1  -9   2    6.21    0.34
   1  -9   2    6.55    0.32
   2  -9   2   12.81    0.57
   2  -9   2   13.98    0.57
   2  -9   2   13.84    0.86
   3  -9   2   12.87    0.55
   4  -9   2    5.65    0.31
   6   8  -2    7.12    0.30
  -6  -8   2    6.73    0.31
  -6  -8   2    6.71    0.31
  -5  -8   2   -0.05    0.10
  -5  -8   2    0.04    0.07
  -5  -8   2    0.16    0.09
  -4  -8   2   17.10    0.72
  -4  -8   2   18.19    0.71
  -4  -8   2   17.60    0.72
  -3  -8   2   49.07    1.77
  -3  -8   2   46.38    1.79
  -2  -8   2   52.69    1.94
  -2  -8   2   51.53    1.92
  -2  -8   2   51.86    1.91
  -1  -8   2    3.61    0.22
  -1  -8   2    3.52    0.27
  -1  -8   2    3.04    0.25
   0  -8   2    0.86    0.17
   0  -8   2    0.25    0.13
   0  -8   2    0.47    0.12
   1  -8   2    0.99    0.24
   1  -8   2    0.38    0.13
   1  -8   2    0.64    0.18
   2  -8   2   74.03    2.67
   2  -8   2   74.26    2.66
   2  -8   2   72.13    2.68
   3  -8   2    2.59    0.24
  -4   8  -2    9.38    0.50
   4  -8   2   10.18    0.44
  -5   8  -2   -0.13    0.13
   5  -8   2    0.08    0.08
  -6   8  -2    0.55    0.21
   6  -8   2    0.79    0.14
   7   7  -2    3.04    0.18
  -7  -7   2    2.93    0.22
  -7  -7   2    3.15    0.18
   6   7  -2    6.40    0.30
  -6  -7   2    6.46    0.33
  -6  -7   2    6.16    0.32
  -5  -7   2    0.21    0.11
  -5  -7   2    0.31    0.11
  -5  -7   2    0.05    0.10
  -4  -7   2    0.11    0.12
  -4  -7   2    0.16    0.10
  -4  -7   2   -0.01    0.14
  -3  -7   2   17.14    0.71
  -3  -7   2   17.33    0.72
  -3  -7   2   16.80    0.73
  -3  -7   2   16.69    0.69
  -2  -7   2   -0.04    0.07
  -2  -7   2    0.02    0.11
  -2  -7   2    0.14    0.10
  -2  -7   2    0.13    0.28
  -1  -7   2    3.51    0.27
  -1  -7   2    3.96    0.25
  -1  -7   2    3.71    0.29
   0  -7   2    0.69    0.16
   0  -7   2    0.71    0.19
   1  -7   2    0.94    0.20
   1  -7   2    0.92    0.15
   1  -7   2    1.04    0.19
   2  -7   2  360.78   12.85
   2  -7   2  360.89   12.84
   2  -7   2  366.32   12.85
  -3   7  -2   44.59    1.66
   3  -7   2   44.71    1.65
   3  -7   2   43.65    1.64
  -4   7  -2   16.47    0.70
   4  -7   2   17.57    0.71
  -5   7  -2    2.62    0.22
   5  -7   2    2.37    0.22
  -6   7  -2    5.09    0.30
   6  -7   2    5.51    0.29
  -7   7  -2   10.02    0.45
   7  -7   2    9.87    0.42
   8  -7   2    3.05    0.18
   8   6  -2    8.01    0.34
   8   6  -2    7.94    0.34
  -8  -6   2    7.92    0.35
   7   6  -2    0.02    0.07
  -7  -6   2    0.18    0.11
  -7  -6   2    0.16    0.08
  -6  -6   2    6.71    0.34
  -6  -6   2    6.21    0.35
  -6  -6   2    6.11    0.35
  -5  -6   2    0.73    0.20
  -5  -6   2    1.25    0.21
  -5  -6   2    0.89    0.20
  -4  -6   2   14.08    0.62
  -4  -6   2   14.37    0.59
  -4  -6   2   13.67    0.60
  -4  -6   2   13.94    0.62
  -3  -6   2    1.02    0.23
  -3  -6   2    1.04    0.21
  -3  -6   2    0.77    0.20
  -3  -6   2    0.83    0.16
  -2  -6   2    1.56    0.18
  -2  -6   2    1.48    0.30
  -2  -6   2    1.54    0.20
  -2  -6   2    1.57    0.24
  -1  -6   2   14.15    0.60
  -1  -6   2   13.71    0.57
  -1  -6   2   14.07    0.61
   0  -6   2    0.00    0.11
   0  -6   2   -0.02    0.11
   0  -6   2    0.14    0.10
   1  -6   2   13.35    0.58
   1  -6   2   13.30    0.56
   1  -6   2   13.90    0.60
  -2   6  -2    0.20    0.11
   2  -6   2    0.01    0.11
   2  -6   2    0.17    0.16
   2  -6   2    0.12    0.11
  -3   6  -2   10.51    0.45
   3  -6   2    9.81    0.46
   3  -6   2    9.31    0.46
  -4   6  -2    3.02    0.23
   4  -6   2    2.69    0.24
   4  -6   2    2.81    0.30
  -5   6  -2    3.35    0.24
   5  -6   2    3.89    0.26
  -6   6  -2    0.12    0.07
   6  -6   2    0.06    0.09
  -7   6  -2    8.84    0.42
   7  -6   2    9.49    0.41
  -8   6  -2    1.21    0.17
   8  -6   2    1.27    0.13
   9   5  -2    2.41    0.15
  -9  -5   2    2.29    0.16
   8   5  -2  100.10    3.66
  -8  -5   2  102.61    3.67
  -8  -5   2  104.45    3.69
   7   5  -2    5.42    0.30
  -7  -5   2    5.84    0.32
  -7  -5   2    5.24    0.32
  -6  -5   2   55.44    1.99
  -6  -5   2   51.36    2.01
  -6  -5   2   53.89    2.00
  -5  -5   2   -0.04    0.13
  -5  -5   2    0.12    0.11
  -5  -5   2    0.20    0.11
  -4  -5   2   24.63    0.95
  -4  -5   2   23.99    0.98
  -4  -5   2   24.87    0.99
  -4  -5   2   25.47    0.97
  -3  -5   2    8.85    0.43
  -3  -5   2    9.17    0.42
  -3  -5   2    8.50    0.45
   2   5  -2   14.73    0.84
  -2  -5   2   15.88    0.66
  -2  -5   2   16.50    0.67
  -2  -5   2   16.03    0.63
   1   5  -2    9.60    0.60
   0   5  -2  129.24    4.78
  -1   5  -2    0.05    0.10
  -1   5  -2    0.13    0.13
  -2   5  -2   72.10    2.62
  -2   5  -2   72.97    2.82
  -3   5  -2    3.98    0.24
   3  -5   2    4.37    0.29
   3  -5   2    4.48    0.31
  -4   5  -2    0.14    0.08
   4  -5   2    0.12    0.11
   4  -5   2    0.20    0.14
  -5   5  -2   13.79    0.58
   5  -5   2   13.53    0.59
   5  -5   2   12.99    0.60
  -6   5  -2    8.19    0.40
   6  -5   2    8.20    0.41
  -7   5  -2   -0.03    0.07
   7  -5   2    0.08    0.09
  -8   5  -2    2.84    0.21
   8  -5   2    2.78    0.19
   9  -5   2    0.23    0.06
   9   4  -2    2.69    0.17
  -9  -4   2    2.48    0.18
   8   4  -2    6.64    0.34
  -8  -4   2    6.36    0.37
  -8  -4   2    6.26    0.33
   7   4  -2    0.99    0.22
  -7  -4   2    1.10    0.19
  -7  -4   2    0.95    0.25
  -6  -4   2    6.48    0.39
  -6  -4   2    7.11    0.37
  -6  -4   2    7.56    0.40
  -5  -4   2    0.42    0.12
  -5  -4   2    0.64    0.15
  -5  -4   2    0.40    0.13
  -4  -4   2    7.36    0.39
  -4  -4   2    7.34    0.36
  -4  -4   2    6.87    0.38
  -4  -4   2    7.29    0.37
   3   4  -2  111.16    4.01
  -3  -4   2  105.94    4.04
   2   4  -2    8.74    0.48
  -2  -4   2    8.96    0.54
   1   4  -2    3.35    0.29
  -1  -4   2    3.43    0.31
   0   4  -2   32.48    1.30
   0  -4   2   32.50    1.32
  -1   4  -2   28.24    1.16
  -2   4  -2   20.50    0.92
  -2   4  -2   21.22    0.80
  -3   4  -2  126.85    4.69
  -3   4  -2  126.71    4.53
  -4   4  -2   14.25    0.88
  -4   4  -2   15.42    0.60
   4  -4   2   13.96    0.63
   4  -4   2   14.52    0.62
  -5   4  -2   36.95    1.37
   5  -4   2   36.41    1.37
   5  -4   2   34.44    1.36
  -6   4  -2   25.86    1.00
   6  -4   2   24.87    0.99
   6  -4   2   24.93    0.99
  -7   4  -2    0.01    0.08
   7  -4   2    0.12    0.09
  -8   4  -2    9.09    0.42
   8  -4   2    9.31    0.40
   9  -4   2    0.35    0.10
   9   3  -2    3.47    0.21
  -9  -3   2    3.37    0.22
  -8  -3   2   17.51    0.76
  -8  -3   2   18.76    0.76
   7   3  -2   28.30    1.13
  -7  -3   2   29.20    1.15
  -7  -3   2   29.69    1.15
   6   3  -2    0.09    0.12
  -6  -3   2    0.04    0.11
  -6  -3   2    0.10    0.13
  -6  -3   2    0.19    0.13
  -5  -3   2    2.79    0.28
  -5  -3   2    2.07    0.23
  -5  -3   2    3.05    0.24
   4   3  -2    7.22    0.46
   3   3  -2   26.69    1.06
  -3  -3   2   27.17    1.07
   2   3  -2   16.35    0.68
  -2  -3   2   16.49    0.69
   1   3  -2    0.20    0.09
  -1  -3   2    0.28    0.12
   0   3  -2  278.73   10.07
   0  -3   2  287.20   10.08
  -1   3  -2  147.16    5.31
  -2   3  -2  339.82   12.31
  -2   3  -2  351.19   12.34
  -3   3  -2  224.77    8.12
  -3   3  -2  224.23    8.08
  -4   3  -2   30.32    1.31
  -4   3  -2   30.96    1.14
   4  -3   2   29.21    1.15
  -5   3  -2    4.35    0.26
   5  -3   2    4.22    0.32
   5  -3   2    5.07    0.28
  -6   3  -2    6.58    0.34
   6  -3   2    5.51    0.33
   6  -3   2    6.29    0.36
  -7   3  -2   15.32    0.67
   7  -3   2   15.93    0.67
   7  -3   2   16.69    0.68
  -8   3  -2   80.54    2.97
   8  -3   2   83.25    2.97
   9  -3   2    0.05    0.06
  10   2  -2   -0.05    0.06
   9   2  -2    5.04    0.27
  -9  -2   2    4.82    0.28
  -8  -2   2   -0.03    0.12
  -8  -2   2    0.01    0.15
  -7  -2   2   26.91    1.05
  -7  -2   2   25.70    1.05
  -6  -2   2    3.61    0.34
  -6  -2   2    3.83    0.28
  -6  -2   2    4.16    0.27
  -5  -2   2   59.51    2.23
  -5  -2   2   62.85    2.21
  -5  -2   2   59.06    2.23
   3   2  -2   18.74    0.72
   2   2  -2  261.88    9.28
   1   2  -2    3.51    0.19
   0   2  -2  243.49    8.77
  -1   2  -2   32.52    1.22
  -1   2  -2   30.42    1.21
  -2   2  -2    0.08    0.05
  -2   2  -2    0.11    0.07
  -3   2  -2   10.75    0.54
  -4   2  -2    0.38    0.22
  -4   2  -2    1.32    0.31
  -5   2  -2   46.84    1.70
   5  -2   2   44.25    1.70
   5  -2   2   46.30    1.71
  -6   2  -2    9.50    0.43
   6  -2   2    9.09    0.43
   6  -2   2    8.01    0.42
  -7   2  -2   -0.02    0.09
   7  -2   2    0.29    0.12
   7  -2   2   -0.01    0.07
  -8   2  -2  113.38    4.17
   8  -2   2  119.43    4.15
   8  -2   2  115.46    4.17
   9  -2   2    2.32    0.15
  10   1  -2    0.80    0.10
   9   1  -2    0.35    0.09
  -9  -1   2    0.47    0.13
   8   1  -2   19.39    0.78
  -8  -1   2   17.82    0.80
  -8  -1   2   19.12    0.79
  -7  -1   2  131.51    4.78
  -7  -1   2  133.65    4.78
  -6  -1   2   58.91    2.17
  -6  -1   2   58.51    2.18
  -5  -1   2    0.00    0.11
  -5  -1   2    0.28    0.15
   2   1  -2  838.48   29.22
   2   1  -2  811.12   29.20
   1   1  -2   24.18    0.91
   0   1  -2    5.06    0.25
  -1   1  -2  115.02    4.22
   1  -1   2  120.13    4.24
  -2   1  -2   89.83    3.28
  -3   1  -2   71.42    2.64
   3  -1   2   68.93    2.53
  -4   1  -2    1.13    0.51
  -5   1  -2    0.25    0.09
   5  -1   2    0.49    0.13
   5  -1   2    0.93    0.20
  -6   1  -2    3.49    0.25
   6  -1   2    3.25    0.27
   6  -1   2    3.54    0.26
  -7   1  -2    7.80    0.41
   7  -1   2    8.50    0.41
   7  -1   2    8.41    0.41
   8  -1   2    4.80    0.28
   8  -1   2    4.95    0.27
   9  -1   2    0.12    0.07
  10   0  -2    0.02    0.06
   9   0  -2    0.58    0.15
   8   0  -2    1.04    0.20
  -8   0   2    1.34    0.26
  -8   0   2    1.35    0.30
  -7   0   2   11.55    0.58
  -7   0   2   11.88    0.57
  -7   0   2   11.77    0.53
  -6   0   2    3.10    0.33
  -6   0   2    2.90    0.29
  -6   0   2    2.83    0.24
  -5   0   2    5.78    0.29
  -4   0   2   46.17    1.68
   1   0  -2   14.55    0.56
  -1   0   2   14.30    0.56
   0   0  -2   57.14    2.00
   0   0   2   51.84    1.99
  -1   0  -2    6.13    0.35
   1   0   2    8.40    0.36
  -2   0  -2  357.16   12.15
   2   0   2  325.96   12.15
  -3   0  -2   73.23    2.75
   3   0   2   74.99    2.76
   3   0   2   71.94    2.64
   4   0   2    6.13    0.56
  -5   0  -2    0.68    0.18
  -5   0  -2    0.32    0.18
   5   0   2    0.45    0.13
   5   0   2    0.24    0.09
  -6   0  -2   13.96    0.91
   6   0   2   17.49    0.69
   6   0   2   16.68    0.67
   7   0   2    1.19    0.18
   7   0   2    1.24    0.20
   8   0   2    4.13    0.25
   8   0   2    4.34    0.25
   9   0   2   -0.02    0.06
  10  -1  -2    6.08    0.28
   9  -1  -2   -0.08    0.07
   8  -1  -2    0.05    0.10
  -8   1   2   -0.17    0.12
  -8   1   2    0.24    0.17
  -8   1   2   -0.26    0.21
   7  -1  -2    2.57    0.25
  -7   1   2    2.44    0.32
  -7   1   2    2.37    0.25
  -7   1   2    2.13    0.34
   6  -1  -2    1.14    0.23
  -6   1   2    1.15    0.18
  -6   1   2    1.78    0.33
  -6   1   2    1.46    0.29
  -5   1   2   39.78    1.48
  -4   1   2    4.85    0.24
   3  -1  -2    0.48    0.10
  -3   1   2    0.62    0.11
  -3   1   2    0.48    0.11
   2  -1  -2    0.01    0.04
  -2   1   2    0.05    0.04
   1  -1  -2    8.29    0.37
  -1   1   2    8.25    0.38
   0  -1  -2    4.36    0.26
   0   1   2    4.36    0.25
  -1  -1  -2    2.64    0.24
   1   1   2    2.50    0.22
  -2  -1  -2   60.37    2.24
   2   1   2   57.47    2.23
  -3  -1  -2  249.50    8.75
   3   1   2  231.18    8.72
   3   1   2  247.28    8.61
  -4  -1  -2    5.24    0.36
   4   1   2    5.50    0.31
   4   1   2    5.64    0.70
  -5  -1  -2   29.96    1.15
   5   1   2   28.41    1.12
  -6  -1  -2    6.13    0.37
   6   1   2    5.90    0.34
   6   1   2    5.50    0.31
  -7  -1  -2   15.21    0.67
   7   1   2   15.53    0.63
   7   1   2   14.61    0.64
   8   1   2    5.01    0.26
   8   1   2    4.83    0.26
   9   1   2    2.06    0.15
   9   1   2    2.48    0.20
   9  -2  -2    0.56    0.17
   8  -2  -2    6.58    0.35
  -8   2   2    6.12    0.35
   7  -2  -2    1.24    0.26
  -7   2   2    0.81    0.19
   6  -2  -2    0.40    0.16
  -6   2   2    0.33    0.23
  -6   2   2    0.11    0.16
  -6   2   2    0.61    0.16
  -5   2   2   14.05    0.58
  -4   2   2   23.74    0.91
   3  -2  -2    1.38    0.23
  -3   2   2    1.34    0.21
  -3   2   2    1.52    0.14
   2  -2  -2   58.15    2.12
  -2   2   2   55.35    2.11
  -2   2   2   56.90    2.05
   1  -2  -2  139.78    5.12
  -1   2   2  144.06    5.12
   0  -2  -2    8.78    0.43
   0   2   2    7.15    0.42
  -1  -2  -2    2.70    0.30
   1   2   2    3.02    0.28
   2   2   2   18.74    0.89
   3   2   2    0.00    0.08
   3   2   2    0.09    0.17
  -4  -2  -2    4.66    0.30
   4   2   2    4.30    0.26
  -5  -2  -2    0.35    0.12
   5   2   2    0.20    0.10
  -6  -2  -2    5.12    0.33
   6   2   2    4.73    0.28
   6   2   2    4.55    0.31
  -7  -2  -2   15.97    0.68
   7   2   2   16.88    0.66
   7   2   2   15.09    0.66
  -8  -2  -2    3.82    0.26
   8   2   2    3.54    0.21
   8   2   2    3.59    0.21
  -9   3   2    0.08    0.11
   8  -3  -2    0.88    0.24
  -8   3   2    0.72    0.17
   7  -3  -2   28.83    1.12
  -7   3   2   28.95    1.13
  -7   3   2   28.06    1.11
  -6   3   2   24.25    0.95
  -6   3   2   23.27    0.96
  -5   3   2    0.64    0.14
  -5   3   2    0.57    0.16
  -4   3   2    0.06    0.06
  -4   3   2   -0.05    0.12
   3  -3  -2    1.23    0.42
  -3   3   2    0.52    0.13
  -3   3   2    0.31    0.14
   2  -3  -2    3.02    0.36
  -2   3   2    3.30    0.36
  -2   3   2    3.23    0.20
   1  -3  -2  124.58    4.74
  -1   3   2  125.32    4.61
  -1   3   2  137.94    4.75
   0   3   2    0.13    0.10
   0   3   2   -0.04    0.11
   1   3   2   71.97    2.78
  -3  -3  -2   30.23    1.15
  -3  -3  -2   27.33    1.17
   3   3   2   32.29    1.14
  -4  -3  -2   16.59    0.72
   4   3   2   17.19    0.69
  -5  -3  -2   33.47    1.27
   5   3   2   31.46    1.24
  -6  -3  -2   20.12    0.81
   6   3   2   18.64    0.79
   6   3   2   19.54    0.78
  -7  -3  -2    5.72    0.31
   7   3   2    5.51    0.30
   7   3   2    5.64    0.28
  -8  -3  -2    1.83    0.19
   8   3   2    2.01    0.15
  -9   4   2    0.58    0.19
  -8   4   2    5.29    0.30
  -7   4   2    8.63    0.42
  -6   4   2    1.75    0.18
  -5   4   2    9.30    0.44
  -4   4   2    9.84    0.44
  -3   4   2   46.54    1.72
  -2   4   2   23.32    0.90
   1  -4  -2  163.84    5.99
  -1   4   2  172.38    5.99
   0  -4  -2   39.96    1.49
  -1  -4  -2    9.95    0.46
  -2  -4  -2   86.28    3.19
  -2  -4  -2   90.08    3.20
  -3  -4  -2   51.41    1.82
  -3  -4  -2   52.09    1.83
   3   4   2   42.83    1.80
  -4  -4  -2   82.10    2.91
  -4  -4  -2   76.56    2.90
   4   4   2   78.40    2.88
  -5  -4  -2    0.57    0.18
   5   4   2    0.89    0.17
  -6  -4  -2    0.62    0.16
   6   4   2    0.51    0.13
  -7  -4  -2    2.98    0.20
   7   4   2    2.98    0.18
  -8   5   2    0.11    0.08
   7  -5  -2    2.43    0.21
  -7   5   2    2.56    0.20
  -6   5   2   29.63    1.16
  -5   5   2   11.37    0.51
  -4   5   2    1.16    0.18
  -3   5   2    2.73    0.21
   2  -5  -2    0.67    0.15
  -2   5   2    0.69    0.18
   1  -5  -2   12.82    0.56
  -1   5   2   13.39    0.59
   0  -5  -2    0.71    0.17
  -1  -5  -2   13.33    0.58
  -1  -5  -2   13.34    0.58
  -2  -5  -2   69.74    2.59
  -2  -5  -2   71.19    2.58
  -3  -5  -2    0.63    0.15
  -3  -5  -2    0.81    0.19
   3   5   2    0.77    0.18
  -4  -5  -2   97.17    3.57
  -4  -5  -2   96.76    3.55
   4   5   2  100.45    3.55
  -5  -5  -2    8.04    0.39
   5   5   2    7.89    0.37
  -6  -5  -2    1.19    0.15
   6   5   2    1.29    0.13
  -7  -5  -2    0.08    0.07
   7   5   2    0.02    0.05
   7  -6  -2   22.36    0.94
  -7   6   2   23.46    0.91
   6  -6  -2   60.02    2.16
  -6   6   2   58.35    2.19
   5  -6  -2   11.52    0.49
  -5   6   2   10.82    0.51
   4  -6  -2    2.62    0.21
  -4   6   2    2.10    0.21
   3  -6  -2    4.67    0.29
  -3   6   2    5.65    0.35
   2  -6  -2    0.51    0.16
   1  -6  -2    7.64    0.41
   1  -6  -2    7.43    0.38
   0  -6  -2    7.08    0.39
   0  -6  -2    6.93    0.37
  -1  -6  -2    7.04    0.38
  -1  -6  -2    7.58    0.39
  -2  -6  -2    3.68    0.26
  -2  -6  -2    3.60    0.27
   2   6   2    3.75    0.26
  -3  -6  -2    3.85    0.26
  -3  -6  -2    4.11    0.29
   3   6   2    4.22    0.25
  -4  -6  -2    0.73    0.15
  -4  -6  -2    0.94    0.15
   4   6   2    0.99    0.15
  -5  -6  -2    0.16    0.07
   5   6   2   -0.04    0.06
  -6  -6  -2    4.40    0.22
   6   6   2    4.24    0.21
   6  -7  -2   94.88    3.42
  -6   7   2   96.16    3.45
   5  -7  -2    4.42    0.25
  -5   7   2    4.78    0.33
   4  -7  -2    6.04    0.30
  -4   7   2    5.69    0.39
   3  -7  -2    0.06    0.08
   2  -7  -2   35.25    1.34
   0  -7  -2    0.19    0.09
   0  -7  -2    0.45    0.14
  -1  -7  -2    3.66    0.24
  -1  -7  -2    2.71    0.24
  -2  -7  -2    0.22    0.09
  -2  -7  -2    0.15    0.09
   2   7   2    0.24    0.10
  -3  -7  -2    1.96    0.18
  -3  -7  -2    2.13    0.19
   3   7   2    2.09    0.18
  -4  -7  -2    2.15    0.16
   4   7   2    1.69    0.15
  -5  -7  -2    1.65    0.13
   5   7   2    1.60    0.14
   5  -8  -2    7.83    0.34
   4  -8  -2    0.04    0.06
   3  -8  -2    0.67    0.12
   2  -8  -2    4.05    0.23
   1  -8  -2   15.87    0.64
   0  -8  -2    5.26    0.27
  -1  -8  -2    6.77    0.31
  -1  -8  -2    6.22    0.32
  -2  -8  -2    0.38    0.11
  -2  -8  -2    0.56    0.12
  -3  -8  -2    5.19    0.29
  -3  -8  -2    6.21    0.28
   3  -9  -2    0.10    0.06
   2  -9  -2    0.66    0.10
   1  -9  -2    0.21    0.06
   0  -9  -2    1.37    0.12
  -1  -9  -2    0.91    0.12
  -4 -10   3    5.39    0.25
  -3 -10   3    0.11    0.07
  -2 -10   3    1.54    0.19
  -2 -10   3    1.58    0.14
  -1 -10   3    3.57    0.20
  -1 -10   3    3.72    0.22
  -1 -10   3    3.15    0.22
   0 -10   3    7.64    0.33
   0 -10   3    7.75    0.35
   0 -10   3    7.36    0.35
   1 -10   3    0.62    0.19
   1 -10   3    0.68    0.17
   1 -10   3    1.11    0.16
   2 -10   3    2.41    0.19
   3 -10   3    0.07    0.11
   5   9  -3    4.48    0.22
  -5  -9   3    4.60    0.23
  -4  -9   3    3.32    0.21
  -4  -9   3    3.33    0.21
  -3  -9   3    5.79    0.30
  -3  -9   3    5.72    0.30
  -2  -9   3    1.06    0.16
  -2  -9   3    1.28    0.16
  -1  -9   3   11.15    0.49
  -1  -9   3   10.43    0.46
  -1  -9   3   10.88    0.48
   0  -9   3    1.03    0.20
   0  -9   3    0.96    0.15
   0  -9   3    0.90    0.19
   1  -9   3   10.64    0.50
   1  -9   3   11.74    0.48
   1  -9   3   11.78    0.50
   2  -9   3    8.40    0.39
   2  -9   3    8.10    0.37
   3  -9   3    3.65    0.24
   3  -9   3    3.22    0.23
   4  -9   3    0.12    0.08
   5  -9   3    1.32    0.14
   6   8  -3    2.02    0.14
  -6  -8   3    1.58    0.16
  -6  -8   3    1.62    0.16
  -5  -8   3    0.97    0.14
  -5  -8   3    0.93    0.16
  -5  -8   3    1.03    0.18
  -4  -8   3   35.30    1.35
  -4  -8   3   39.35    1.36
  -4  -8   3   31.98    1.33
  -3  -8   3    3.48    0.22
  -3  -8   3    3.50    0.25
  -3  -8   3    3.20    0.24
  -2  -8   3   16.94    0.68
  -2  -8   3   15.94    0.66
  -2  -8   3   15.70    0.68
  -1  -8   3    3.04    0.25
  -1  -8   3    3.11    0.25
  -1  -8   3    3.04    0.22
   0  -8   3   94.69    3.49
   0  -8   3   98.24    3.52
   0  -8   3   97.91    3.51
   1  -8   3    0.24    0.12
   1  -8   3    0.29    0.13
   1  -8   3    0.23    0.09
   2  -8   3  162.58    5.88
   2  -8   3  166.15    5.86
   3  -8   3   10.23    0.47
   3  -8   3   10.55    0.46
  -4   8  -3    1.01    0.24
   4  -8   3    0.79    0.16
   4  -8   3    0.89    0.22
  -5   8  -3    2.33    0.24
   5  -8   3    2.46    0.18
   6  -8   3    0.49    0.12
   7  -8   3    6.75    0.29
   7   7  -3    3.82    0.21
  -7  -7   3    3.61    0.22
  -7  -7   3    4.05    0.23
  -6  -7   3    6.52    0.34
  -6  -7   3    7.09    0.35
  -6  -7   3    6.91    0.33
  -5  -7   3   11.26    0.51
  -5  -7   3   11.69    0.53
  -5  -7   3   11.27    0.52
  -4  -7   3    0.10    0.11
  -4  -7   3   -0.10    0.14
  -4  -7   3    0.13    0.10
  -4  -7   3    0.05    0.08
  -3  -7   3    8.76    0.45
  -3  -7   3    8.21    0.42
  -3  -7   3    8.52    0.43
  -3  -7   3    8.04    0.39
  -2  -7   3   -0.01    0.11
  -2  -7   3   -0.01    0.08
  -2  -7   3    0.17    0.10
  -1  -7   3    8.32    0.41
  -1  -7   3    7.01    0.41
  -1  -7   3    9.13    0.39
   0  -7   3  104.98    3.77
   0  -7   3  103.91    3.78
   0  -7   3  105.82    3.79
   1  -7   3   58.86    2.02
   1  -7   3   57.20    2.04
   1  -7   3   49.55    2.03
  -2   7  -3   88.27    3.46
   2  -7   3   97.79    3.44
   2  -7   3   99.46    3.43
  -3   7  -3    1.79    0.23
   3  -7   3    1.42    0.20
   3  -7   3    1.33    0.20
  -4   7  -3    9.79    0.46
   4  -7   3    9.57    0.44
   4  -7   3    9.97    0.45
  -5   7  -3   16.67    0.71
   5  -7   3   17.63    0.71
   5  -7   3   17.44    0.70
  -6   7  -3   14.49    0.60
   6  -7   3   14.08    0.59
  -7   7  -3    8.82    0.41
   7  -7   3    8.90    0.38
   8  -7   3    0.41    0.10
  -8  -6   3   35.89    1.32
  -8  -6   3   35.35    1.31
   7   6  -3    4.09    0.24
  -7  -6   3    4.03    0.24
  -7  -6   3    3.94    0.26
  -6  -6   3    0.14    0.11
  -6  -6   3    0.18    0.11
  -6  -6   3    0.19    0.11
  -5  -6   3    5.56    0.35
  -5  -6   3    5.25    0.34
  -5  -6   3    6.18    0.33
  -4  -6   3    0.64    0.22
  -4  -6   3    0.30    0.11
  -3  -6   3   16.23    0.67
  -3  -6   3   16.48    0.66
  -3  -6   3   16.17    0.68
  -3  -6   3   15.54    0.69
  -2  -6   3    3.66    0.28
  -2  -6   3    3.81    0.26
  -2  -6   3    3.87    0.25
  -1  -6   3   22.40    0.89
  -1  -6   3   24.26    0.92
  -1  -6   3   23.06    0.92
   0  -6   3   47.26    1.70
   0  -6   3   45.33    1.72
   0  -6   3   45.56    1.70
   1  -6   3    2.51    0.23
   1  -6   3    1.99    0.21
  -2   6  -3    9.36    0.43
   2  -6   3    9.95    0.44
   2  -6   3    9.45    0.44
  -3   6  -3   12.53    0.54
   3  -6   3   12.52    0.54
   3  -6   3   11.93    0.53
  -4   6  -3    0.70    0.16
   4  -6   3    0.45    0.13
   4  -6   3    0.36    0.11
  -5   6  -3    0.57    0.15
   5  -6   3    1.12    0.22
   5  -6   3    0.95    0.18
  -6   6  -3    0.27    0.09
   6  -6   3    0.58    0.15
  -7   6  -3   19.65    0.80
   7  -6   3   20.60    0.79
  -8   6  -3    0.07    0.09
   8  -6   3   -0.05    0.05
   9   5  -3    0.90    0.11
  -9  -5   3    0.79    0.12
  -8  -5   3   76.87    2.79
  -8  -5   3   76.26    2.77
   7   5  -3   15.25    0.67
  -7  -5   3   16.62    0.70
  -7  -5   3   17.78    0.71
  -6  -5   3    8.50    0.41
  -6  -5   3    8.20    0.43
  -6  -5   3    7.67    0.42
  -5  -5   3   19.17    0.82
  -5  -5   3   19.34    0.81
  -5  -5   3   20.17    0.80
  -4  -5   3   33.91    1.25
  -4  -5   3   31.19    1.21
  -4  -5   3   31.66    1.24
  -4  -5   3   32.18    1.23
   3   5  -3  101.27    4.17
  -3  -5   3  115.82    3.97
  -3  -5   3  110.95    3.98
  -3  -5   3  113.15    3.99
  -3  -5   3  111.44    3.96
   2   5  -3    8.95    0.66
  -2  -5   3    9.43    0.43
  -2  -5   3    9.25    0.45
  -2  -5   3   10.44    0.48
   1   5  -3    8.57    0.59
   0   5  -3   11.05    0.65
  -1   5  -3   32.03    1.39
   2  -5   3    0.50    0.12
   2  -5   3    0.35    0.11
  -3   5  -3    8.81    0.40
   3  -5   3    8.43    0.41
   3  -5   3    8.71    0.42
  -4   5  -3   10.72    0.47
   4  -5   3   10.45    0.48
   4  -5   3   10.18    0.47
  -5   5  -3    3.22    0.23
   5  -5   3    3.34    0.26
   5  -5   3    2.62    0.24
  -6   5  -3    7.78    0.40
   6  -5   3    8.29    0.41
   6  -5   3    8.37    0.40
  -7   5  -3    0.50    0.15
   7  -5   3    0.44    0.14
  -8   5  -3    0.07    0.08
   8  -5   3    0.06    0.06
   9  -5   3    0.01    0.05
   9   4  -3    3.21    0.19
  -9  -4   3    3.20    0.20
  -8  -4   3    3.55    0.27
  -8  -4   3    3.81    0.25
   7   4  -3    3.50    0.31
  -7  -4   3    4.05    0.28
  -7  -4   3    3.86    0.30
  -7  -4   3    4.19    0.27
  -6  -4   3    0.17    0.11
  -6  -4   3    0.24    0.13
  -6  -4   3    0.13    0.13
  -5  -4   3   43.87    1.61
  -5  -4   3   43.85    1.63
  -5  -4   3   41.45    1.62
  -4  -4   3   10.81    0.49
  -4  -4   3   10.88    0.51
  -4  -4   3   11.51    0.50
  -4  -4   3   11.51    0.51
   3   4  -3   62.56    2.37
   2   4  -3    7.37    0.45
   1   4  -3   66.21    2.50
   0   4  -3   60.06    2.29
  -1   4  -3  199.01    7.21
  -2   4  -3   54.30    2.15
  -3   4  -3   19.86    1.01
   3  -4   3   19.51    0.79
  -4   4  -3    2.22    0.19
   4  -4   3    2.20    0.23
   4  -4   3    2.42    0.25
  -5   4  -3   16.42    0.68
   5  -4   3   16.63    0.68
   5  -4   3   15.89    0.68
  -6   4  -3    1.29    0.17
   6  -4   3    1.03    0.21
   6  -4   3    0.97    0.18
  -7   4  -3   21.27    0.89
   7  -4   3   23.08    0.88
   7  -4   3   22.45    0.87
  -8   4  -3    0.63    0.16
   8  -4   3    0.52    0.12
   9  -4   3    0.21    0.05
  10   3  -3    2.14    0.14
   9   3  -3    0.51    0.12
  -9  -3   3    0.75    0.15
  -9  -3   3    0.38    0.14
  -8  -3   3    7.35    0.40
  -8  -3   3    7.77    0.40
  -7  -3   3    1.46    0.25
  -7  -3   3    1.32    0.20
  -6  -3   3    0.10    0.12
  -6  -3   3   -0.11    0.12
  -6  -3   3   -0.04    0.12
  -5  -3   3   17.79    0.70
  -5  -3   3   16.70    0.71
  -5  -3   3   16.20    0.71
   3   3  -3    1.13    0.19
   2   3  -3    4.42    0.27
   1   3  -3    0.04    0.05
   0   3  -3    0.60    0.14
  -1   3  -3   36.76    1.47
  -1   3  -3   38.61    1.51
   1  -3   3   36.56    1.37
  -2   3  -3   67.52    2.52
  -2   3  -3   62.56    2.54
   2  -3   3   67.74    2.39
  -3   3  -3   14.06    0.77
   4  -3   3   10.67    0.47
   4  -3   3   10.28    0.48
  -5   3  -3    9.61    0.44
   5  -3   3    8.94    0.43
   5  -3   3    9.23    0.44
  -6   3  -3  281.89    9.63
   6  -3   3  264.74    9.61
   6  -3   3  264.60    9.60
  -7   3  -3    0.69    0.16
   7  -3   3    0.57    0.17
   7  -3   3    0.45    0.12
  -8   3  -3   18.64    0.74
   8  -3   3   18.47    0.72
   8  -3   3   18.14    0.72
   9  -3   3    0.43    0.10
  10   2  -3    1.70    0.14
   9   2  -3   27.34    1.02
  -9  -2   3   25.82    1.02
  -9  -2   3   26.86    1.03
  -8  -2   3    1.30    0.22
  -8  -2   3    1.24    0.21
  -7  -2   3    2.56    0.27
  -7  -2   3    2.71    0.25
  -6  -2   3    8.97    0.46
  -6  -2   3    8.77    0.44
  -5  -2   3    1.50    0.29
  -5  -2   3    2.05    0.23
  -5  -2   3    2.38    0.26
   3   2  -3   16.85    0.66
   3   2  -3   17.31    0.67
   2   2  -3   96.22    3.52
   2   2  -3   98.74    3.52
   1   2  -3   13.30    0.57
   1   2  -3   13.70    0.59
   0   2  -3   44.96    1.71
  -1   2  -3   38.75    1.51
  -2   2  -3   29.70    1.25
   2  -2   3   30.46    1.13
   3  -2   3    3.55    0.21
  -4   2  -3   -0.22    0.19
   4  -2   3    0.02    0.13
   4  -2   3   -0.03    0.10
   5  -2   3    8.03    0.40
   5  -2   3    7.48    0.38
  -6   2  -3   92.66    3.21
   6  -2   3   82.71    3.20
   6  -2   3   88.83    3.19
  -7   2  -3   26.42    1.08
   7  -2   3   28.29    1.08
   7  -2   3   29.20    1.08
   8  -2   3    1.50    0.17
   8  -2   3    1.42    0.15
   9  -2   3    1.68    0.13
  10   1  -3    1.88    0.15
   9   1  -3    7.95    0.37
  -9  -1   3    7.86    0.41
  -9  -1   3    7.35    0.37
   8   1  -3   40.96    1.58
  -8  -1   3   43.01    1.60
  -8  -1   3   41.70    1.59
  -7  -1   3    2.15    0.27
  -7  -1   3    1.70    0.25
  -6  -1   3    2.04    0.25
  -6  -1   3    1.98    0.26
  -6  -1   3    1.82    0.22
  -5  -1   3    1.01    0.25
  -5  -1   3    0.82    0.18
  -5  -1   3    0.95    0.22
  -4  -1   3  562.31   19.85
   2   1  -3  675.69   24.04
   1   1  -3  162.92    5.83
   0   1  -3    2.99    0.23
   0  -1   3    2.44    0.20
  -1   1  -3   27.65    1.10
   1  -1   3   25.95    1.09
  -2   1  -3   62.90    2.41
   2  -1   3   63.55    2.28
   2  -1   3   62.46    2.40
   3  -1   3   33.66    1.26
   4  -1   3    4.91    0.34
   4  -1   3    5.58    0.30
   5  -1   3    0.67    0.20
   5  -1   3    0.58    0.12
  -6   1  -3   44.06    1.59
   6  -1   3   41.14    1.57
   6  -1   3   40.83    1.58
   7  -1   3    0.98    0.17
   7  -1   3    0.88    0.16
   8  -1   3    0.22    0.08
   8  -1   3    0.10    0.08
   9  -1   3    0.87    0.12
  10   0  -3    0.01    0.09
   9   0  -3    9.29    0.40
  -9   0   3    8.86    0.43
  -9   0   3    8.43    0.43
   8   0  -3    0.86    0.20
  -8   0   3    0.48    0.16
  -8   0   3    0.36    0.14
   7   0  -3   19.33    0.77
  -7   0   3   19.15    0.79
  -7   0   3   17.26    0.76
  -7   0   3   18.80    0.79
  -6   0   3    4.66    0.32
  -6   0   3    4.55    0.33
  -6   0   3    4.20    0.28
  -5   0   3    0.35    0.14
  -5   0   3    0.30    0.08
  -5   0   3    0.23    0.16
  -3   0   3   11.66    0.47
   2   0  -3  317.41   11.22
  -2   0   3  315.60   11.23
   1   0  -3    0.55    0.15
  -1   0   3    0.30    0.12
   0   0  -3  300.08   10.79
   0   0   3  305.83   10.79
  -1   0  -3  224.51    7.44
   1   0   3  200.52    7.42
   1   0   3  195.15    7.34
  -2   0  -3  296.33   10.53
   2   0   3  280.64   10.40
   2   0   3  303.89   10.54
   3   0   3   60.76    2.20
   3   0   3   59.73    2.39
   4   0   3   54.62    2.02
   4   0   3   54.42    2.00
  -5   0  -3    1.96    0.31
   5   0   3    1.75    0.19
   5   0   3    1.83    0.25
   6   0   3    0.11    0.10
   6   0   3   -0.03    0.11
   7   0   3   12.79    0.54
   7   0   3   12.21    0.54
   8   0   3    9.41    0.39
   8   0   3    8.36    0.38
   9  -1  -3    0.17    0.10
   8  -1  -3    3.03    0.28
  -8   1   3    3.01    0.31
  -8   1   3    3.04    0.27
  -8   1   3    2.71    0.25
   7  -1  -3   11.66    0.56
  -7   1   3   11.54    0.57
  -7   1   3   11.77    0.54
  -7   1   3   11.93    0.56
   6  -1  -3   16.68    0.78
  -6   1   3   19.02    0.76
  -6   1   3   18.69    0.79
  -6   1   3   19.53    0.79
  -5   1   3    6.17    0.32
  -5   1   3    6.51    0.40
  -5   1   3    6.53    0.38
  -4   1   3   67.83    2.46
   3  -1  -3   49.70    1.82
  -3   1   3   47.01    1.81
  -3   1   3   50.72    1.79
   2  -1  -3    2.02    0.22
  -2   1   3    1.90    0.14
  -2   1   3    1.85    0.22
   1  -1  -3  115.42    4.10
  -1   1   3  111.94    4.10
  -1   1   3  110.06    4.01
   0  -1  -3    4.05    0.34
   0   1   3    4.14    0.32
   0   1   3    4.09    0.23
  -1  -1  -3  121.39    4.57
   1   1   3  125.93    4.44
   1   1   3  125.94    4.57
   2   1   3    0.33    0.13
   3   1   3    0.07    0.10
   3   1   3    0.20    0.11
  -4  -1  -3   12.66    0.58
   4   1   3   13.68    0.56
  -5  -1  -3    1.53    0.25
   5   1   3    1.17    0.25
   5   1   3    0.94    0.16
  -6  -1  -3   11.01    0.53
   6   1   3   10.12    0.50
   6   1   3   10.71    0.48
   7   1   3    4.04    0.24
   7   1   3    3.99    0.24
   8   1   3    1.26    0.13
   8   1   3    1.12    0.17
  -9   2   3    2.54    0.28
  -8   2   3   34.12    1.21
  -8   2   3   29.20    1.22
  -7   2   3   40.55    1.54
  -7   2   3   40.61    1.53
  -7   2   3   39.50    1.53
  -6   2   3    6.06    0.36
  -6   2   3    5.89    0.40
  -6   2   3    6.24    0.34
  -5   2   3   -0.05    0.11
  -5   2   3    0.02    0.06
  -5   2   3    0.12    0.16
  -4   2   3    2.85    0.36
  -4   2   3    3.62    0.28
   3  -2  -3    3.67    0.38
  -3   2   3    3.79    0.41
  -3   2   3    3.61    0.21
   2  -2  -3    7.26    0.51
  -2   2   3    7.30    0.48
  -2   2   3    7.99    0.35
   1  -2  -3    2.28    0.35
  -1   2   3    2.17    0.18
  -1   2   3    2.65    0.33
   0   2   3    0.74    0.32
   0   2   3    0.65    0.17
   1   2   3   24.78    1.15
   1   2   3   25.29    0.96
   2   2   3   53.13    1.95
  -3  -2  -3    0.74    0.21
  -4  -2  -3   12.23    0.56
   4   2   3   12.52    0.54
  -5  -2  -3   -0.06    0.11
   5   2   3   -0.01    0.08
  -6  -2  -3    3.23    0.27
   6   2   3    2.41    0.20
  -7  -2  -3    3.49    0.26
   7   2   3    3.14    0.20
   8   2   3    0.27    0.06
  -9   3   3    4.26    0.29
  -8   3   3   15.06    0.64
  -7   3   3    9.27    0.44
  -6   3   3    3.85    0.29
  -6   3   3    3.72    0.38
  -6   3   3    4.43    0.28
  -5   3   3    9.75    0.46
  -5   3   3    8.79    0.50
  -5   3   3    9.44    0.44
  -4   3   3    1.57    0.29
  -4   3   3    1.34    0.16
  -4   3   3    1.36    0.22
  -3   3   3  172.36    5.95
  -3   3   3  163.63    5.93
  -3   3   3  162.41    5.93
  -2   3   3   15.60    0.62
  -2   3   3   14.62    0.89
  -1   3   3    5.13    0.59
  -1   3   3    5.24    0.28
   0   3   3    3.62    0.28
   0   3   3    3.54    0.26
  -1  -3  -3    9.07    0.46
   1   3   3    8.78    0.43
  -2  -3  -3    2.98    0.36
   2   3   3    4.26    0.27
  -3  -3  -3    1.62    0.21
   3   3   3    1.53    0.21
  -4  -3  -3   10.88    0.50
   4   3   3   10.24    0.48
  -5  -3  -3    1.12    0.19
   5   3   3    1.09    0.16
  -6  -3  -3    3.01    0.23
   6   3   3    2.91    0.20
  -7  -3  -3    3.74    0.24
   7   3   3    3.57    0.20
   8  -4  -3   11.49    0.46
  -8   4   3   10.70    0.49
  -7   4   3    0.08    0.08
  -6   4   3    6.74    0.35
  -5   4   3    0.05    0.07
  -5   4   3   -0.03    0.23
  -4   4   3    2.36    0.29
  -4   4   3    2.44    0.20
  -3   4   3   17.53    0.75
  -3   4   3   18.64    0.74
  -2   4   3   25.54    1.01
  -2   4   3   26.41    1.02
   1  -4  -3    2.42    0.21
  -1   4   3    2.47    0.25
  -1   4   3    2.48    0.24
   0  -4  -3    6.19    0.34
   0   4   3    6.69    0.39
  -1  -4  -3   26.17    1.03
   1   4   3   26.46    1.03
  -2  -4  -3  312.35   11.26
   2   4   3  322.28   11.25
  -3  -4  -3   12.95    0.58
   3   4   3   13.54    0.57
  -4  -4  -3   16.73    0.70
   4   4   3   15.71    0.67
  -5  -4  -3    1.82    0.19
   5   4   3    2.21    0.17
  -6  -4  -3    1.15    0.14
   6   4   3    1.15    0.13
  -7  -4  -3    1.58    0.16
   7   4   3    1.91    0.13
  -8   5   3    1.19    0.18
   7  -5  -3    0.32    0.09
  -7   5   3    0.27    0.09
  -6   5   3    1.24    0.17
  -5   5   3    0.01    0.08
  -4   5   3    2.09    0.32
  -4   5   3    2.31    0.21
   3  -5  -3    7.15    0.37
  -3   5   3    7.84    0.40
   2  -5  -3   16.44    0.69
  -2   5   3   17.12    0.71
   1  -5  -3    3.02    0.22
  -1   5   3    2.40    0.52
   0  -5  -3    4.32    0.28
  -1  -5  -3    0.19    0.11
  -1  -5  -3    0.08    0.09
   1   5   3    0.06    0.14
  -2  -5  -3   65.60    2.38
  -2  -5  -3   63.61    2.36
   2   5   3   63.72    2.35
  -3  -5  -3    0.10    0.10
  -3  -5  -3    0.10    0.15
   3   5   3    0.13    0.10
  -4  -5  -3    0.16    0.08
   4   5   3    0.15    0.08
  -5  -5  -3   -0.06    0.07
   5   5   3    0.07    0.06
  -6  -5  -3   41.49    1.52
   6   5   3   41.40    1.50
   7  -6  -3    2.01    0.17
  -7   6   3    2.14    0.22
   6  -6  -3    5.87    0.27
  -6   6   3    4.82    0.30
   5  -6  -3    9.68    0.44
  -5   6   3   10.08    0.47
   4  -6  -3    0.57    0.15
  -4   6   3    0.50    0.14
   3  -6  -3    6.12    0.31
  -3   6   3    5.59    0.37
   2  -6  -3    0.66    0.15
   1  -6  -3    2.63    0.22
   1  -6  -3    2.72    0.25
   0  -6  -3    2.62    0.25
   0  -6  -3    2.81    0.23
  -1  -6  -3    2.50    0.22
  -1  -6  -3    2.25    0.21
  -2  -6  -3   17.39    0.70
  -2  -6  -3   15.83    0.68
  -3  -6  -3    0.00    0.12
  -3  -6  -3    0.07    0.07
   3   6   3   -0.07    0.08
  -4  -6  -3    0.37    0.12
   4   6   3    0.05    0.07
   5   6   3    3.01    0.18
   6  -7  -3    1.06    0.13
   5  -7  -3    0.25    0.07
   4  -7  -3   13.08    0.54
   3  -7  -3   11.10    0.48
   2  -7  -3   45.75    1.70
   1  -7  -3    7.46    0.37
   1  -7  -3    7.59    0.36
   0  -7  -3   14.31    0.58
   0  -7  -3   13.39    0.57
  -1  -7  -3    3.53    0.23
  -1  -7  -3    4.00    0.23
  -2  -7  -3    0.74    0.17
  -2  -7  -3    0.65    0.13
  -3  -7  -3    1.44    0.14
  -4  -7  -3    5.70    0.26
   5  -8  -3    5.33    0.24
   4  -8  -3    5.43    0.25
   3  -8  -3   10.76    0.44
   2  -8  -3    0.39    0.10
   1  -8  -3    2.79    0.17
   0  -8  -3   -0.01    0.06
  -1  -8  -3    1.05    0.14
  -4 -10   4    3.84    0.20
  -4 -10   4    3.61    0.21
  -3 -10   4    0.51    0.14
  -3 -10   4    0.68    0.13
  -2 -10   4   14.44    0.57
  -2 -10   4   14.25    0.56
  -2 -10   4   14.74    0.59
  -1 -10   4    0.13    0.06
  -1 -10   4    0.20    0.08
  -1 -10   4    0.04    0.09
   0 -10   4    3.58    0.25
   0 -10   4    3.81    0.22
   0 -10   4    4.01    0.20
   1 -10   4    0.43    0.11
   1 -10   4    0.52    0.13
   2 -10   4    3.63    0.21
   2 -10   4    3.78    0.21
   3 -10   4    8.62    0.36
   4 -10   4    5.39    0.25
   6   9  -4    2.11    0.14
  -6  -9   4    1.97    0.15
  -5  -9   4   21.88    0.84
  -5  -9   4   22.05    0.83
  -4  -9   4    5.28    0.27
  -4  -9   4    5.45    0.28
  -3  -9   4    9.99    0.44
  -3  -9   4   10.13    0.46
  -3  -9   4   10.36    0.43
  -2  -9   4    0.30    0.09
  -2  -9   4    0.56    0.16
  -2  -9   4    0.20    0.06
  -1  -9   4    0.83    0.16
  -1  -9   4    0.63    0.20
  -1  -9   4    0.70    0.14
   0  -9   4    0.70    0.18
   0  -9   4    0.64    0.14
   0  -9   4    0.90    0.14
   1  -9   4    4.65    0.26
   1  -9   4    4.34    0.28
   2  -9   4    1.52    0.17
   2  -9   4    1.40    0.15
   3  -9   4    2.00    0.17
   3  -9   4    1.93    0.17
   4  -9   4    0.53    0.12
   4  -9   4    0.36    0.11
   5  -9   4    0.20    0.06
   6  -9   4    0.06    0.06
  -7  -8   4    0.26    0.08
   6   8  -4    2.68    0.17
  -6  -8   4    2.86    0.19
  -6  -8   4    2.63    0.18
  -6  -8   4    2.56    0.21
  -5  -8   4   13.19    0.56
  -5  -8   4   12.94    0.55
  -5  -8   4   13.07    0.56
  -4  -8   4   30.23    1.18
  -4  -8   4   31.20    1.17
  -4  -8   4   30.07    1.15
  -3  -8   4    0.08    0.07
  -3  -8   4    0.09    0.10
  -3  -8   4    0.04    0.09
  -2  -8   4    1.29    0.17
  -2  -8   4    1.89    0.23
  -2  -8   4    1.24    0.18
  -1  -8   4    0.78    0.17
  -1  -8   4    0.75    0.22
  -1  -8   4    0.51    0.13
   0  -8   4  324.76   11.30
   0  -8   4  308.96   11.28
   0  -8   4  321.51   11.30
   1  -8   4    7.67    0.37
   1  -8   4    7.95    0.39
   2  -8   4    1.58    0.17
   2  -8   4    1.50    0.19
   3  -8   4    2.30    0.21
   3  -8   4    2.32    0.21
  -4   8  -4    0.17    0.11
   4  -8   4    0.20    0.09
   4  -8   4    0.14    0.08
  -5   8  -4    1.90    0.22
   5  -8   4    2.05    0.21
   5  -8   4    2.16    0.17
  -6   8  -4    1.53    0.22
   6  -8   4    1.49    0.13
   7  -8   4    0.08    0.05
  -8  -7   4    0.11    0.12
  -8  -7   4    0.18    0.08
   7   7  -4    0.03    0.09
  -7  -7   4    0.01    0.08
  -7  -7   4    0.12    0.08
  -6  -7   4    0.19    0.10
  -6  -7   4    0.11    0.09
  -6  -7   4    0.14    0.11
  -5  -7   4    1.21    0.17
  -5  -7   4    1.07    0.20
  -5  -7   4    1.37    0.21
  -4  -7   4    0.13    0.10
  -4  -7   4    0.21    0.10
  -4  -7   4    0.03    0.08
  -4  -7   4    0.33    0.15
  -3  -7   4    0.20    0.11
  -3  -7   4    0.55    0.19
  -3  -7   4    0.32    0.10
  -2  -7   4    0.88    0.20
  -2  -7   4    0.84    0.22
  -1  -7   4    0.17    0.09
  -1  -7   4    0.20    0.13
  -1  -7   4    0.07    0.11
   0  -7   4  104.49    3.78
   0  -7   4  103.24    3.78
   0  -7   4  106.42    3.77
   1  -7   4    4.91    0.28
   1  -7   4    4.52    0.27
  -2   7  -4    4.28    0.30
   2  -7   4    4.27    0.26
   2  -7   4    4.21    0.27
  -3   7  -4    9.38    0.44
   3  -7   4    8.19    0.42
   3  -7   4    8.62    0.41
  -4   7  -4    3.91    0.27
   4  -7   4    4.39    0.27
   4  -7   4    3.77    0.27
  -5   7  -4   41.11    1.59
   5  -7   4   43.94    1.56
   5  -7   4   41.55    1.58
  -6   7  -4    2.59    0.20
   6  -7   4    2.63    0.27
   6  -7   4    2.74    0.18
  -7   7  -4    0.43    0.10
  -8  -6   4    5.70    0.28
  -8  -6   4    5.66    0.28
   7   6  -4    9.03    0.39
  -7  -6   4    8.24    0.38
  -7  -6   4    8.11    0.40
  -7  -6   4    8.56    0.41
  -6  -6   4    2.12    0.22
  -6  -6   4    2.28    0.23
  -6  -6   4    2.18    0.22
  -5  -6   4    4.04    0.31
  -5  -6   4    3.89    0.29
  -5  -6   4    4.04    0.28
  -5  -6   4    3.87    0.26
  -4  -6   4    0.05    0.10
  -4  -6   4    0.39    0.12
  -4  -6   4    0.30    0.15
  -3  -6   4   -0.02    0.19
  -3  -6   4    0.20    0.10
  -3  -6   4    0.03    0.10
  -3  -6   4   -0.12    0.11
  -2  -6   4    0.20    0.09
  -2  -6   4    0.09    0.12
  -2  -6   4    0.06    0.11
  -1  -6   4   21.72    0.88
  -1  -6   4   22.15    0.87
  -1  -6   4   21.61    0.85
   0  -6   4   23.22    0.92
   0  -6   4   24.05    0.91
  -1   6  -4    2.45    0.24
   1  -6   4    2.64    0.21
   1  -6   4    2.55    0.23
  -2   6  -4   11.36    0.51
   2  -6   4   11.48    0.51
   2  -6   4   11.42    0.50
  -3   6  -4    1.01    0.18
   3  -6   4    0.99    0.18
   3  -6   4    0.80    0.18
  -4   6  -4    2.38    0.21
   4  -6   4    2.14    0.21
   4  -6   4    2.55    0.22
  -5   6  -4   11.56    0.53
   5  -6   4   11.63    0.52
   5  -6   4   11.84    0.51
  -6   6  -4    0.13    0.09
   6  -6   4    0.15    0.08
   6  -6   4    0.12    0.10
  -7   6  -4    6.77    0.33
   7  -6   4    6.83    0.31
   8  -6   4    3.63    0.18
   9   5  -4    3.80    0.20
  -9  -5   4    3.99    0.21
  -9  -5   4    3.78    0.24
  -8  -5   4    4.83    0.28
  -8  -5   4    4.99    0.27
   7   5  -4    6.50    0.45
  -7  -5   4    7.71    0.39
  -7  -5   4    7.34    0.36
  -7  -5   4    7.56    0.39
  -6  -5   4    1.84    0.22
  -6  -5   4    1.66    0.22
  -6  -5   4    1.74    0.23
  -5  -5   4   59.19    2.18
  -5  -5   4   56.70    2.17
  -5  -5   4   58.85    2.15
  -5  -5   4   58.67    2.13
  -4  -5   4    2.54    0.28
  -4  -5   4    2.83    0.25
  -4  -5   4    2.31    0.21
  -4  -5   4    2.45    0.24
  -3  -5   4    0.05    0.12
  -3  -5   4    0.32    0.12
  -3  -5   4    0.48    0.18
  -3  -5   4    0.09    0.11
   2   5  -4   59.96    2.43
  -2  -5   4   59.72    2.24
  -2  -5   4   61.39    2.21
  -2  -5   4   62.62    2.23
   1   5  -4    1.47    0.39
  -1  -5   4    1.83    0.20
  -1  -5   4    1.41    0.22
   0   5  -4    1.58    0.40
   0  -5   4    1.64    0.19
   0  -5   4    1.89    0.21
   1  -5   4   13.69    0.57
   1  -5   4   13.77    0.58
   2  -5   4   10.19    0.46
   2  -5   4    9.95    0.45
   3  -5   4    0.12    0.08
   3  -5   4    0.07    0.10
  -4   5  -4   23.67    0.91
   4  -5   4   22.82    0.89
   4  -5   4   21.61    0.90
  -5   5  -4    8.68    0.42
   5  -5   4    8.37    0.40
   5  -5   4    8.35    0.41
  -6   5  -4   19.43    0.83
   6  -5   4   21.39    0.82
   6  -5   4   20.71    0.81
  -7   5  -4    1.00    0.16
   7  -5   4    1.08    0.16
  -8   5  -4    1.74    0.19
   8  -5   4    1.61    0.12
   9   4  -4    0.85    0.12
  -9  -4   4    1.02    0.17
  -9  -4   4    1.10    0.13
  -8  -4   4    3.77    0.26
  -8  -4   4    3.74    0.25
  -7  -4   4    3.22    0.27
  -7  -4   4    3.41    0.27
  -6  -4   4    0.16    0.12
  -6  -4   4    0.24    0.12
  -6  -4   4    0.08    0.13
  -5  -4   4    5.38    0.35
  -5  -4   4    5.73    0.35
  -5  -4   4    6.05    0.35
  -5  -4   4    5.77    0.34
  -4  -4   4   53.43    1.94
  -4  -4   4   51.32    1.94
  -4  -4   4   49.83    1.92
  -4  -4   4   54.72    1.93
   3   4  -4    7.16    0.53
  -3  -4   4    6.87    0.38
   2   4  -4    4.93    0.56
   2   4  -4    5.14    0.39
   1   4  -4    4.20    0.35
   1   4  -4    3.46    0.46
   0   4  -4   28.16    1.19
   0  -4   4   26.58    1.04
  -1   4  -4  266.84    9.45
   1  -4   4  255.64    9.27
   2  -4   4    3.88    0.24
   2  -4   4    4.41    0.27
   3  -4   4   57.75    2.11
   3  -4   4   57.34    2.10
   4  -4   4    6.28    0.35
   4  -4   4    6.98    0.35
  -5   4  -4   10.77    0.48
   5  -4   4    9.51    0.46
   5  -4   4   10.19    0.47
  -6   4  -4    2.26    0.20
   6  -4   4    2.58    0.21
   6  -4   4    2.15    0.21
  -7   4  -4    5.14    0.29
   7  -4   4    5.05    0.27
   7  -4   4    4.73    0.26
  -8   4  -4    2.96    0.23
   8  -4   4    3.25    0.32
   8  -4   4    2.88    0.17
  10   3  -4    5.96    0.29
   9   3  -4    0.18    0.07
  -9  -3   4    0.19    0.09
  -9  -3   4    0.26    0.10
  -8  -3   4    1.01    0.19
  -8  -3   4    1.24    0.20
  -7  -3   4    8.94    0.45
  -7  -3   4    8.16    0.44
  -6  -3   4   16.66    0.69
  -6  -3   4   16.51    0.70
  -6  -3   4   16.01    0.70
  -5  -3   4    0.07    0.12
  -5  -3   4    0.03    0.11
  -5  -3   4    0.21    0.12
  -4  -3   4   16.71    0.69
  -4  -3   4   16.35    0.69
  -4  -3   4   16.16    0.69
   3   3  -4    5.12    0.36
   3   3  -4    4.81    0.39
   2   3  -4   46.18    1.81
   2   3  -4   46.49    1.78
   1   3  -4   28.37    1.16
   1   3  -4   28.76    1.21
   0   3  -4   27.54    1.12
   0   3  -4   24.93    1.15
   0  -3   4   27.11    1.00
  -1   3  -4   65.94    2.53
   1  -3   4   65.07    2.38
  -2   3  -4   92.49    3.51
   2  -3   4   91.08    3.31
   3  -3   4   11.97    0.51
   3  -3   4   12.14    0.52
   3  -3   4   11.45    0.53
   4  -3   4   67.67    2.49
   4  -3   4   68.72    2.49
   5  -3   4    2.16    0.20
   5  -3   4    2.40    0.24
  -6   3  -4  217.32    8.07
   6  -3   4  233.22    8.05
   6  -3   4  228.05    8.05
  -7   3  -4    0.49    0.17
   7  -3   4    0.81    0.15
   7  -3   4    0.77    0.15
  -8   3  -4    1.76    0.24
   8  -3   4    1.50    0.14
   8  -3   4    1.53    0.15
  10   2  -4    0.60    0.13
 -10  -2   4    0.31    0.10
   9   2  -4   18.99    0.74
  -9  -2   4   18.87    0.74
  -9  -2   4   18.44    0.75
  -8  -2   4    6.50    0.36
  -8  -2   4    6.47    0.37
  -7  -2   4    5.92    0.36
  -7  -2   4    5.60    0.35
  -6  -2   4    5.02    0.32
  -6  -2   4    4.81    0.32
  -5  -2   4   -0.01    0.19
  -5  -2   4    0.09    0.13
  -5  -2   4    0.07    0.12
  -4  -2   4   23.66    0.82
  -4  -2   4   17.39    0.89
   3   2  -4    0.12    0.06
   3   2  -4    0.15    0.08
  -3  -2   4    0.16    0.10
   2   2  -4    0.67    0.27
   2   2  -4    0.97    0.17
  -2  -2   4    1.05    0.17
   1   2  -4   16.89    0.75
  -1  -2   4   15.56    0.63
   0   2  -4    3.97    0.39
   0  -2   4    3.21    0.21
  -1   2  -4    7.80    0.57
   1  -2   4    8.30    0.37
   2  -2   4    0.99    0.14
   3  -2   4   19.28    0.77
   3  -2   4   19.30    0.78
   4  -2   4   16.74    0.68
   4  -2   4   16.98    0.70
   5  -2   4    6.40    0.35
   5  -2   4    6.55    0.34
  -6   2  -4   12.21    0.56
   6  -2   4   12.90    0.55
   6  -2   4   12.84    0.55
  -7   2  -4    2.31    0.24
   7  -2   4    2.89    0.19
   7  -2   4    3.05    0.21
   8  -2   4    0.82    0.12
   8  -2   4    0.94    0.13
   9   1  -4   10.50    0.45
  -9  -1   4   10.37    0.46
  -9  -1   4    9.99    0.45
   8   1  -4    2.03    0.23
  -8  -1   4    1.95    0.24
  -8  -1   4    1.84    0.23
  -7  -1   4    5.75    0.36
  -7  -1   4    5.58    0.35
  -6  -1   4   19.80    0.82
  -6  -1   4   19.32    0.80
  -6  -1   4   19.66    0.82
  -5  -1   4   33.28    1.26
  -5  -1   4   33.83    1.28
  -5  -1   4   32.43    1.28
  -4  -1   4  691.29   24.40
   3   1  -4   22.00    0.87
   3   1  -4   22.90    0.87
  -3  -1   4   21.71    0.85
   2   1  -4    9.97    0.50
  -2  -1   4   10.20    0.43
   1   1  -4    0.07    0.09
  -1  -1   4    0.09    0.07
  -1  -1   4    0.24    0.08
   0   1  -4   38.33    1.53
   0  -1   4   36.24    1.40
   0  -1   4   39.24    1.52
  -1   1  -4   13.29    0.75
   1  -1   4   15.25    0.73
   1  -1   4   13.64    0.57
   2  -1   4   17.76    0.93
   2  -1   4   18.89    0.73
   3  -1   4    5.59    0.32
   3  -1   4    5.69    0.31
   4  -1   4    7.39    0.38
   4  -1   4    7.28    0.41
   4  -1   4    7.76    0.37
   5  -1   4    0.21    0.10
   5  -1   4    0.25    0.12
  -6   1  -4    2.61    0.25
   6  -1   4    3.53    0.25
   6  -1   4    2.79    0.22
   7  -1   4    1.31    0.18
   7  -1   4    1.38    0.15
   8  -1   4    1.42    0.15
   8  -1   4    1.28    0.13
  -9   0   4    0.11    0.11
  -9   0   4    0.02    0.10
   8   0  -4    0.27    0.14
  -8   0   4    0.18    0.12
  -8   0   4    0.08    0.23
  -8   0   4   -0.01    0.11
   7   0  -4    0.16    0.16
  -7   0   4    0.07    0.12
  -7   0   4    0.05    0.12
  -7   0   4    0.21    0.13
  -6   0   4   -0.01    0.13
  -6   0   4    0.04    0.09
  -6   0   4   -0.10    0.11
  -5   0   4    0.80    0.24
  -5   0   4    0.98    0.16
  -5   0   4    1.16    0.22
  -4   0   4  296.39   10.47
  -4   0   4  293.98   10.48
   3   0  -4    1.39    0.24
  -3   0   4    1.72    0.15
   2   0  -4   25.85    1.07
  -2   0   4   25.98    0.98
  -2   0   4   26.00    1.08
   1   0  -4  127.30    4.92
  -1   0   4  140.07    4.94
  -1   0   4  138.02    4.82
   0   0  -4   84.84    3.29
   0   0   4   89.93    3.16
   0   0   4   88.65    3.29
   1   0   4  274.74    9.46
   1   0   4  258.18    9.61
   2   0   4    2.54    0.54
   2   0   4    3.00    0.22
  -3   0  -4   11.93    0.58
   3   0   4   13.62    0.56
   3   0   4   12.23    0.53
  -4   0  -4   14.47    0.66
   4   0   4   14.65    0.62
   4   0   4   15.29    0.64
   5   0   4    2.04    0.26
   5   0   4    2.01    0.21
   6   0   4   12.84    0.58
   6   0   4   13.70    0.57
   7   0   4    0.85    0.13
   7   0   4    0.59    0.19
   8   0   4    4.63    0.22
  -9   1   4   -0.04    0.10
  -8   1   4    4.39    0.31
  -8   1   4    4.33    0.31
  -8   1   4    5.41    0.30
  -7   1   4    5.97    0.36
  -7   1   4    6.08    0.34
  -7   1   4    5.99    0.37
  -6   1   4    1.24    0.18
  -6   1   4    0.89    0.22
  -5   1   4    5.90    0.37
  -5   1   4    6.18    0.33
  -5   1   4    6.51    0.36
  -4   1   4   18.51    0.77
  -4   1   4   18.72    0.77
  -4   1   4   18.81    0.75
  -3   1   4    9.19    0.60
  -3   1   4    9.77    0.42
   2  -1  -4   41.12    1.76
  -2   1   4   47.63    1.65
  -2   1   4   45.39    1.76
   1  -1  -4   -0.01    0.17
  -1   1   4    0.04    0.08
  -1   1   4    0.04    0.12
   0   1   4    0.12    0.13
   1   1   4   18.33    0.89
   1   1   4   14.39    0.65
   2   1   4   42.37    1.56
   2   1   4   41.24    1.56
  -3  -1  -4   47.52    1.79
   3   1   4   48.60    1.78
   3   1   4   48.12    1.79
  -4  -1  -4   -0.18    0.13
   4   1   4   -0.02    0.08
  -5  -1  -4   15.11    0.65
   5   1   4   14.65    0.62
  -6  -1  -4    1.26    0.25
   6   1   4    1.00    0.16
   7   1   4   13.85    0.56
   8   1   4    0.12    0.05
  -9   2   4   13.35    0.59
  -8   2   4    0.07    0.10
  -8   2   4    0.10    0.16
  -8   2   4    0.04    0.09
  -7   2   4    0.72    0.17
  -7   2   4    0.81    0.18
  -7   2   4    0.80    0.21
  -6   2   4   23.71    0.98
  -6   2   4   25.28    0.99
  -6   2   4   24.41    0.99
  -5   2   4    0.11    0.10
  -5   2   4    0.12    0.07
  -5   2   4    0.22    0.14
  -4   2   4    2.24    0.19
  -4   2   4    2.36    0.25
  -4   2   4    2.24    0.23
  -3   2   4   13.25    0.57
  -3   2   4   13.97    0.60
  -3   2   4   13.63    0.60
  -2   2   4    6.11    0.31
  -2   2   4    6.00    0.72
  -2   2   4    5.88    0.33
  -2   2   4    5.75    0.35
  -1   2   4   17.67    1.02
  -1   2   4   18.18    0.71
  -1   2   4   16.90    0.72
   0   2   4    0.35    0.10
   0   2   4    0.52    0.18
   1   2   4   -0.20    0.16
   1   2   4    0.08    0.10
   2   2   4    5.23    0.32
   2   2   4    4.81    0.33
  -3  -2  -4   20.09    0.83
   3   2   4   20.42    0.81
  -4  -2  -4    0.87    0.19
   4   2   4    0.93    0.16
  -5  -2  -4    5.50    0.33
   5   2   4    5.24    0.30
  -6  -2  -4    0.69    0.20
   6   2   4    0.64    0.13
   7   2   4    1.45    0.12
  -8   3   4    1.00    0.18
  -7   3   4   16.48    0.69
  -7   3   4   15.64    0.68
  -6   3   4   11.45    0.54
  -6   3   4   12.24    0.57
  -6   3   4   12.22    0.54
  -5   3   4   35.83    1.43
  -5   3   4   37.22    1.43
  -5   3   4   39.04    1.44
  -4   3   4    9.63    0.46
  -4   3   4    9.71    0.46
  -3   3   4   40.34    1.51
  -3   3   4   39.61    1.51
  -2   3   4    0.58    0.16
  -2   3   4    0.38    0.12
  -1   3   4   23.67    0.92
  -1   3   4   22.65    0.92
   0  -3  -4   18.85    0.79
   0   3   4   20.08    0.79
  -1  -3  -4   12.35    0.58
   1   3   4   12.90    0.57
  -2  -3  -4    0.82    0.19
   2   3   4    0.82    0.15
  -3  -3  -4    9.36    0.45
   3   3   4    8.61    0.42
  -4  -3  -4    0.59    0.13
   4   3   4    0.49    0.10
  -5  -3  -4    1.39    0.18
   5   3   4    1.47    0.16
  -6  -3  -4    0.44    0.14
   6   3   4    0.82    0.12
   7   3   4    0.86    0.10
   8  -4  -4    0.07    0.07
  -8   4   4   -0.02    0.09
  -7   4   4    0.20    0.09
  -6   4   4    0.45    0.16
  -6   4   4    0.49    0.27
  -5   4   4    3.26    0.29
  -5   4   4    2.80    0.23
  -4   4   4    6.98    0.36
  -4   4   4    6.07    0.36
  -3   4   4   21.62    0.89
  -3   4   4   22.99    0.91
   2  -4  -4    3.16    0.24
  -2   4   4    3.51    0.27
  -2   4   4    3.25    0.26
   1  -4  -4    3.81    0.26
  -1   4   4    4.05    0.32
   0  -4  -4  100.10    3.60
   0   4   4   99.43    3.62
  -1  -4  -4   51.51    1.91
  -2  -4  -4  146.64    5.05
  -2  -4  -4  133.18    5.04
   2   4   4  140.90    5.02
  -3  -4  -4    0.07    0.09
   3   4   4    0.29    0.10
  -4  -4  -4    4.44    0.26
   4   4   4    4.61    0.25
  -5  -4  -4    0.00    0.07
   5   4   4    0.08    0.07
   6   4   4   12.05    0.47
   7  -5  -4   13.81    0.54
  -7   5   4   13.50    0.57
   6  -5  -4    1.99    0.16
  -6   5   4    1.87    0.20
   5  -5  -4    9.06    0.40
  -5   5   4    7.77    0.42
   4  -5  -4    3.45    0.23
  -4   5   4    3.31    0.25
   3  -5  -4    6.62    0.33
  -3   5   4    6.16    0.37
   2  -5  -4    0.12    0.09
  -2   5   4    0.03    0.14
   1  -5  -4    3.18    0.23
   0  -5  -4   11.82    0.53
  -1  -5  -4    1.92    0.23
  -1  -5  -4    2.05    0.22
  -2  -5  -4    8.63    0.42
  -2  -5  -4    8.84    0.43
  -3  -5  -4    5.68    0.30
   3   5   4    5.41    0.29
  -4  -5  -4   13.14    0.54
   4   5   4   12.55    0.51
  -5  -5  -4    9.35    0.39
   5   5   4    9.08    0.37
   7  -6  -4    1.22    0.13
   6  -6  -4    0.11    0.06
  -6   6   4    0.19    0.13
   5  -6  -4    0.48    0.11
  -5   6   4    0.33    0.13
   4  -6  -4    8.60    0.39
  -4   6   4    9.21    0.46
   3  -6  -4    0.19    0.07
   2  -6  -4    0.86    0.18
   2  -6  -4    1.37    0.16
   1  -6  -4    1.59    0.18
   1  -6  -4    2.01    0.19
   0  -6  -4    2.48    0.21
   0  -6  -4    2.52    0.20
  -1  -6  -4    3.72    0.23
  -1  -6  -4    3.60    0.23
  -2  -6  -4   -0.25    0.19
  -2  -6  -4    0.19    0.08
  -3  -6  -4    1.16    0.13
  -4  -6  -4    1.88    0.14
   5  -7  -4    1.38    0.12
   4  -7  -4   27.17    1.02
   3  -7  -4   21.08    0.81
   2  -7  -4    3.46    0.20
   1  -7  -4    0.35    0.11
   1  -7  -4    0.40    0.11
   0  -7  -4    1.06    0.14
   0  -7  -4    1.01    0.15
  -1  -7  -4    4.27    0.24
  -1  -7  -4    4.02    0.22
  -2  -7  -4    7.26    0.31
   2  -8  -4    3.45    0.18
  -1 -11   5    4.97    0.23
   0 -11   5    1.10    0.12
   0 -11   5    1.09    0.11
   1 -11   5    0.67    0.12
   1 -11   5    0.36    0.07
  -4 -10   5    0.52    0.13
  -4 -10   5    0.52    0.11
  -3 -10   5    0.01    0.07
  -3 -10   5    0.10    0.08
  -2 -10   5    0.42    0.11
  -2 -10   5    0.34    0.10
  -2 -10   5    0.48    0.16
  -1 -10   5    0.03    0.05
  -1 -10   5   -0.05    0.07
  -1 -10   5   -0.02    0.13
   0 -10   5    2.81    0.18
   0 -10   5    2.72    0.17
   1 -10   5    0.10    0.06
   1 -10   5    0.09    0.07
   2 -10   5    0.03    0.07
   2 -10   5    0.03    0.06
   3 -10   5    0.17    0.07
   3 -10   5    0.20    0.07
   4 -10   5   12.72    0.49
   6   9  -5    9.13    0.46
  -6  -9   5   11.84    0.43
  -5  -9   5    9.05    0.39
  -5  -9   5    9.86    0.41
  -4  -9   5   18.76    0.74
  -4  -9   5   18.97    0.75
  -3  -9   5    6.84    0.33
  -3  -9   5    7.13    0.35
  -3  -9   5    6.82    0.31
  -2  -9   5   11.84    0.49
  -2  -9   5   11.31    0.50
  -2  -9   5   11.89    0.52
  -1  -9   5   14.38    0.57
  -1  -9   5   13.11    0.59
  -1  -9   5   13.95    0.59
   0  -9   5    0.57    0.13
   0  -9   5    0.65    0.17
   1  -9   5    4.84    0.26
   1  -9   5    4.84    0.28
   2  -9   5    0.18    0.07
   2  -9   5   -0.01    0.08
   3  -9   5    0.29    0.08
   4  -9   5   11.48    0.46
   4  -9   5   11.40    0.47
   5  -9   5    4.47    0.21
  -7  -8   5    0.24    0.07
  -6  -8   5   29.26    1.12
  -6  -8   5   30.19    1.12
  -6  -8   5   30.55    1.14
  -5  -8   5    0.44    0.13
  -5  -8   5    0.25    0.09
  -5  -8   5    0.09    0.15
  -4  -8   5    0.28    0.08
  -4  -8   5    0.26    0.11
  -4  -8   5    0.17    0.09
  -3  -8   5    1.36    0.21
  -3  -8   5    1.28    0.16
  -3  -8   5    0.77    0.18
  -2  -8   5  178.38    6.29
  -2  -8   5  174.98    6.30
  -2  -8   5  175.18    6.30
  -1  -8   5    3.02    0.21
  -1  -8   5    2.36    0.29
  -1  -8   5    2.78    0.24
   0  -8   5  128.24    4.65
   0  -8   5  131.15    4.66
   1  -8   5   14.94    0.61
   1  -8   5   14.76    0.63
   2  -8   5    0.16    0.09
   2  -8   5    0.14    0.08
  -3   8  -5    0.75    0.18
   3  -8   5    1.01    0.16
   3  -8   5    0.86    0.15
  -4   8  -5    6.39    0.36
   4  -8   5    6.49    0.31
   4  -8   5    6.42    0.31
  -5   8  -5    0.07    0.10
   5  -8   5    0.03    0.06
   5  -8   5    0.24    0.08
   6  -8   5    0.15    0.06
  -8  -7   5    0.46    0.12
  -7  -7   5    2.09    0.17
  -7  -7   5    1.96    0.18
  -6  -7   5    4.11    0.26
  -6  -7   5    4.76    0.28
  -6  -7   5    4.36    0.25
  -5  -7   5    3.29    0.28
  -5  -7   5    2.43    0.24
  -5  -7   5    2.93    0.22
  -5  -7   5    2.97    0.23
  -4  -7   5    0.34    0.12
  -4  -7   5    0.18    0.10
  -4  -7   5    0.05    0.18
  -4  -7   5    0.23    0.08
  -3  -7   5    5.42    0.31
  -3  -7   5    5.43    0.30
  -3  -7   5    5.49    0.34
  -2  -7   5    1.88    0.21
  -2  -7   5    2.14    0.25
  -2  -7   5    1.46    0.18
  -1  -7   5   30.07    1.19
  -1  -7   5   30.40    1.16
  -1  -7   5   30.72    1.17
   0  -7   5   73.63    2.69
   0  -7   5   74.26    2.70
   1  -7   5    2.36    0.20
   1  -7   5    2.08    0.20
  -2   7  -5    9.50    0.48
   2  -7   5    9.57    0.45
   2  -7   5    9.75    0.44
  -3   7  -5   38.47    1.46
   3  -7   5   38.86    1.44
   3  -7   5   37.84    1.45
  -4   7  -5   26.51    1.11
   4  -7   5   29.53    1.10
   4  -7   5   28.89    1.08
  -5   7  -5    9.62    0.44
   5  -7   5    9.34    0.42
   5  -7   5    9.59    0.41
  -6   7  -5    6.02    0.31
   6  -7   5    5.76    0.28
   6  -7   5    6.11    0.28
   7  -7   5    3.02    0.16
  -8  -6   5    0.15    0.08
  -8  -6   5    0.03    0.07
  -7  -6   5    2.88    0.22
  -7  -6   5    2.46    0.20
  -6  -6   5    0.13    0.11
  -6  -6   5    0.11    0.11
  -6  -6   5    0.87    0.21
  -5  -6   5    2.37    0.24
  -5  -6   5    2.60    0.23
  -5  -6   5    2.24    0.23
  -5  -6   5    2.26    0.27
  -4  -6   5    5.36    0.29
  -4  -6   5    5.41    0.34
  -4  -6   5    5.52    0.37
  -4  -6   5    5.29    0.32
  -3  -6   5    4.12    0.30
  -3  -6   5    4.14    0.27
  -3  -6   5    4.28    0.27
  -2  -6   5    4.72    0.27
  -2  -6   5    4.51    0.33
  -2  -6   5    4.40    0.30
  -1  -6   5    0.53    0.19
  -1  -6   5    0.50    0.16
   0  -6   5    4.93    0.28
   0  -6   5    4.69    0.29
   1  -6   5   -0.10    0.10
   1  -6   5   -0.03    0.09
   2  -6   5   18.46    0.74
   2  -6   5   17.86    0.73
  -3   6  -5    2.52    0.23
   3  -6   5    2.59    0.22
   3  -6   5    2.76    0.22
  -4   6  -5    9.79    0.47
   4  -6   5    9.80    0.45
   4  -6   5   10.13    0.46
  -5   6  -5    2.93    0.23
   5  -6   5    3.00    0.22
   5  -6   5    2.83    0.21
  -6   6  -5    7.61    0.37
   6  -6   5    7.58    0.34
   6  -6   5    7.21    0.34
  -7   6  -5    4.37    0.24
   7  -6   5    3.97    0.20
   7  -6   5    4.07    0.24
   9   5  -5    0.24    0.07
  -9  -5   5    0.19    0.07
  -9  -5   5    0.23    0.08
  -8  -5   5    0.26    0.09
  -8  -5   5    0.19    0.09
  -7  -5   5    8.87    0.44
  -7  -5   5    8.95    0.43
  -6  -5   5   27.76    1.12
  -6  -5   5   28.18    1.12
  -6  -5   5   28.76    1.10
  -5  -5   5   17.65    0.72
  -5  -5   5   17.52    0.73
  -5  -5   5   16.44    0.73
  -5  -5   5   17.22    0.70
  -4  -5   5   10.10    0.48
  -4  -5   5    9.24    0.46
  -4  -5   5    9.69    0.49
  -4  -5   5   10.35    0.47
  -3  -5   5    3.28    0.26
  -3  -5   5    2.74    0.25
  -3  -5   5    2.88    0.28
  -3  -5   5    2.17    0.34
  -2  -5   5   13.20    0.57
  -2  -5   5   13.56    0.58
  -2  -5   5   13.42    0.62
  -1  -5   5   23.76    0.92
  -1  -5   5   23.24    0.91
   0  -5   5   20.68    0.82
   0  -5   5   20.79    0.81
   0  -5   5   19.83    0.81
   1  -5   5    0.33    0.11
   1  -5   5    0.25    0.10
   1  -5   5    0.64    0.16
   2  -5   5    1.11    0.20
   2  -5   5    1.39    0.18
   3  -5   5   -0.01    0.08
   3  -5   5    0.01    0.09
   4  -5   5   20.07    0.80
   4  -5   5   19.45    0.79
  -5   5  -5    0.11    0.09
   5  -5   5    0.17    0.10
   5  -5   5    0.15    0.08
  -6   5  -5    0.06    0.09
   6  -5   5    0.04    0.07
   6  -5   5    0.08    0.07
  -7   5  -5    0.19    0.09
   7  -5   5    0.13    0.07
   8  -5   5    5.52    0.24
   9   4  -5    1.81    0.15
  -9  -4   5    1.58    0.14
  -9  -4   5    1.87    0.16
  -8  -4   5    0.67    0.15
  -8  -4   5    0.41    0.11
  -7  -4   5    1.87    0.22
  -7  -4   5    1.42    0.21
  -6  -4   5   11.99    0.56
  -6  -4   5   12.45    0.56
  -6  -4   5   12.63    0.58
  -5  -4   5   52.61    1.93
  -5  -4   5   51.47    1.91
  -5  -4   5   51.04    1.94
  -4  -4   5    6.68    0.40
  -4  -4   5    7.58    0.40
  -4  -4   5    7.46    0.39
  -3  -4   5    4.10    0.30
  -3  -4   5    3.91    0.31
  -3  -4   5    3.25    0.34
   2   4  -5    4.49    0.49
   1   4  -5  207.09    7.35
  -1  -4   5  195.13    7.15
   0   4  -5  158.62    5.85
   0  -4   5  156.96    5.64
   1  -4   5   79.24    2.80
   1  -4   5   74.36    2.78
   2  -4   5   14.11    0.60
   2  -4   5   13.33    0.59
   2  -4   5   14.13    0.58
   3  -4   5    2.49    0.24
   3  -4   5    2.60    0.23
   4  -4   5  110.96    4.04
   4  -4   5  113.53    4.04
  -5   4  -5   29.53    1.18
   5  -4   5   29.67    1.15
   5  -4   5   30.77    1.15
  -6   4  -5    5.22    0.31
   6  -4   5    5.63    0.29
   6  -4   5    5.78    0.30
  -7   4  -5    3.08    0.22
   7  -4   5    2.89    0.18
   7  -4   5    2.92    0.18
   8  -4   5    0.02    0.06
   9   3  -5    0.86    0.16
  -9  -3   5    0.85    0.13
  -9  -3   5    1.05    0.14
  -8  -3   5    0.31    0.10
  -8  -3   5    0.16    0.09
  -7  -3   5    2.11    0.24
  -7  -3   5    2.44    0.25
  -6  -3   5   18.75    0.78
  -6  -3   5   18.13    0.77
  -6  -3   5   18.61    0.79
  -5  -3   5    2.78    0.29
  -5  -3   5    2.69    0.26
  -5  -3   5    2.46    0.27
  -4  -3   5    1.06    0.26
  -4  -3   5    0.93    0.23
  -4  -3   5    0.98    0.18
  -3  -3   5   12.89    0.51
  -3  -3   5    9.69    0.62
   2   3  -5   18.01    0.83
   2   3  -5   15.99    0.97
  -2  -3   5   16.90    0.68
   1   3  -5    4.70    0.42
  -1  -3   5    5.01    0.27
   0   3  -5   67.46    2.59
   0  -3   5   64.11    2.39
  -1   3  -5    1.68    0.43
   1  -3   5    2.04    0.17
   2  -3   5   22.14    0.86
   2  -3   5   22.03    0.88
   3  -3   5   34.25    1.32
   3  -3   5   33.84    1.31
   3  -3   5   36.55    1.34
   4  -3   5  326.62   12.01
   4  -3   5  350.79   12.01
   5  -3   5   -0.01    0.08
   5  -3   5   -0.02    0.10
  -6   3  -5   16.60    0.73
   6  -3   5   18.45    0.71
   6  -3   5   17.66    0.71
  -7   3  -5    2.77    0.22
   7  -3   5    2.55    0.19
   7  -3   5    2.68    0.17
   8  -3   5    0.22    0.08
   8  -3   5    0.24    0.07
   9   2  -5    3.34    0.25
  -9  -2   5    3.47    0.22
  -9  -2   5    3.53    0.22
   8   2  -5    4.86    0.29
  -8  -2   5    4.86    0.29
  -8  -2   5    4.90    0.30
  -7  -2   5    0.59    0.18
  -7  -2   5    0.61    0.20
  -6  -2   5    5.09    0.34
  -6  -2   5    4.94    0.33
  -5  -2   5   63.16    2.38
  -5  -2   5   64.44    2.40
  -5  -2   5   67.78    2.41
  -4  -2   5    0.39    0.11
  -4  -2   5    0.01    0.13
  -4  -2   5    0.32    0.14
  -3  -2   5    7.68    0.37
   2   2  -5    2.86    0.34
   2   2  -5    2.20    0.51
  -2  -2   5    2.70    0.20
  -1  -2   5    9.84    0.43
   0  -2   5  118.35    4.24
   1  -2   5    1.86    0.17
   2  -2   5    0.31    0.09
   2  -2   5    0.17    0.10
   3  -2   5    2.48    0.22
   3  -2   5    2.33    0.22
   4  -2   5    0.02    0.09
   4  -2   5    0.03    0.15
   5  -2   5   16.77    0.70
   5  -2   5   17.66    0.72
  -6   2  -5    7.26    0.38
   6  -2   5    7.66    0.36
   6  -2   5    7.10    0.35
  -7   2  -5    1.15    0.26
   7  -2   5    1.03    0.13
   7  -2   5    0.87    0.16
   8  -2   5   18.09    0.68
  -9  -1   5    3.14    0.21
  -9  -1   5    3.61    0.21
  -8  -1   5    0.31    0.10
  -8  -1   5    0.53    0.18
  -7  -1   5   21.02    0.89
  -7  -1   5   22.19    0.89
  -6  -1   5  351.32   12.40
  -6  -1   5  347.98   12.41
  -6  -1   5  348.52   12.41
  -5  -1   5    0.30    0.11
  -5  -1   5    0.16    0.13
  -5  -1   5    0.22    0.11
  -4  -1   5  162.47    6.00
  -4  -1   5  167.78    6.02
  -4  -1   5  174.07    6.02
  -3  -1   5   28.90    1.11
  -3  -1   5   28.33    1.09
   2   1  -5    1.63    0.50
  -2  -1   5    1.18    0.15
  -1  -1   5    7.98    0.37
   0  -1   5   56.83    2.30
   0  -1   5   57.25    2.09
   1  -1   5    8.03    0.38
   2  -1   5    1.56    0.23
   2  -1   5    1.44    0.17
   3  -1   5    0.00    0.09
   3  -1   5   -0.03    0.10
   4  -1   5    5.97    0.33
   4  -1   5    6.57    0.36
   5  -1   5    2.46    0.20
  -6   1  -5    0.21    0.14
   6  -1   5    0.35    0.09
   7  -1   5   -0.10    0.05
   8  -1   5    3.35    0.17
  -9   0   5    2.98    0.19
  -9   0   5    2.55    0.20
  -8   0   5    0.04    0.15
  -8   0   5   -0.07    0.09
  -8   0   5    0.09    0.08
  -7   0   5    0.19    0.12
  -7   0   5   -0.04    0.10
  -7   0   5    0.19    0.12
  -6   0   5   41.97    1.60
  -6   0   5   41.04    1.59
  -6   0   5   41.92    1.58
  -5   0   5   18.77    0.79
  -5   0   5   19.11    0.79
  -5   0   5   18.93    0.78
  -4   0   5   22.39    0.90
  -4   0   5   22.58    0.91
  -4   0   5   22.71    0.89
  -3   0   5   71.52    2.64
  -3   0   5   71.45    2.63
  -3   0   5   73.76    2.64
  -2   0   5   48.24    1.72
  -2   0   5   46.00    1.73
  -2   0   5   45.33    1.91
  -1   0   5   53.43    1.96
  -1   0   5   53.40    2.19
   0   0   5  176.18    6.29
   1   0   5    9.38    0.42
   1   0   5    8.44    0.45
   2   0   5   55.72    2.04
   2   0   5   55.59    2.06
  -3   0  -5    5.75    0.38
   3   0   5    5.66    0.34
   3   0   5    6.18    0.33
  -4   0  -5    1.11    0.29
   4   0   5    0.83    0.21
   4   0   5    0.66    0.12
   5   0   5    6.22    0.32
   6   0   5    0.39    0.12
   7   0   5    0.14    0.06
  -9   1   5    0.21    0.13
  -8   1   5    1.57    0.19
  -8   1   5    1.26    0.22
  -8   1   5    1.40    0.18
  -7   1   5    3.91    0.29
  -7   1   5    3.93    0.29
  -7   1   5    3.94    0.27
  -6   1   5   26.97    1.06
  -6   1   5   26.35    1.06
  -6   1   5   26.13    1.05
  -5   1   5    0.56    0.20
  -5   1   5    0.76    0.19
  -5   1   5    0.99    0.18
  -4   1   5    2.18    0.23
  -4   1   5    1.99    0.22
  -4   1   5    1.96    0.20
  -3   1   5    0.42    0.12
  -3   1   5    0.69    0.18
  -3   1   5    0.43    0.14
  -2   1   5    6.43    0.32
  -2   1   5    6.36    0.35
  -2   1   5    5.97    0.37
  -2   1   5    4.53    0.87
  -1   1   5    0.72    0.19
  -1   1   5    0.60    0.16
   0   1   5    3.15    0.26
   0   1   5    3.33    0.23
   1   1   5    3.87    0.33
   1   1   5    3.92    0.26
   2   1   5   26.65    1.04
   2   1   5   26.28    1.03
  -3  -1  -5    0.07    0.13
   3   1   5    0.01    0.10
   3   1   5   -0.15    0.13
  -4  -1  -5    0.64    0.22
   4   1   5    0.27    0.10
  -5  -1  -5   15.17    0.68
   5   1   5   16.95    0.66
   6   1   5   14.01    0.57
   7   1   5    4.64    0.22
  -8   2   5    2.44    0.23
  -8   2   5    2.34    0.21
  -7   2   5    1.02    0.22
  -7   2   5    0.60    0.18
  -6   2   5    2.09    0.23
  -6   2   5    2.16    0.23
  -6   2   5    1.79    0.20
  -5   2   5   12.92    0.59
  -5   2   5   13.74    0.59
  -5   2   5   12.64    0.58
  -4   2   5    2.67    0.26
  -4   2   5    2.72    0.23
  -4   2   5    2.74    0.24
  -3   2   5    4.60    0.28
  -3   2   5    4.24    0.31
  -3   2   5    4.45    0.29
  -2   2   5    2.62    0.23
  -2   2   5    2.50    0.22
  -1   2   5    7.81    0.38
  -1   2   5    7.14    0.38
   0  -2  -5   53.43    2.10
   0   2   5   58.20    2.12
   0   2   5   60.15    2.12
   1   2   5    2.98    0.25
   2   2   5    1.34    0.25
   2   2   5    1.50    0.23
   3   2   5    0.47    0.12
  -4  -2  -5   12.31    0.55
   4   2   5   12.16    0.53
  -5  -2  -5    3.43    0.24
   5   2   5    3.37    0.21
   6   2   5    0.07    0.06
  -8   3   5    6.06    0.33
  -7   3   5    2.62    0.24
  -7   3   5    2.38    0.22
  -6   3   5    4.55    0.29
  -6   3   5    3.98    0.27
  -5   3   5   45.50    1.65
  -5   3   5   41.95    1.66
  -4   3   5    8.06    0.41
  -4   3   5    7.88    0.41
  -3   3   5   30.67    1.21
  -3   3   5   31.99    1.23
  -2   3   5    0.18    0.10
  -2   3   5    0.22    0.10
   1  -3  -5   25.13    1.01
  -1   3   5   27.24    1.04
  -1   3   5   25.82    1.03
   0  -3  -5   42.71    1.68
   0   3   5   47.86    1.71
   1   3   5   10.27    0.52
  -2  -3  -5    1.98    0.21
   2   3   5    2.05    0.27
   3   3   5    0.91    0.20
  -4  -3  -5    0.52    0.13
   4   3   5    0.50    0.10
  -5  -3  -5    1.12    0.15
   5   3   5    1.18    0.14
   6   3   5   15.04    0.57
   8  -4  -5    0.05    0.06
  -7   4   5    1.72    0.19
  -6   4   5    8.99    0.41
  -6   4   5    7.94    0.41
  -5   4   5    1.33    0.21
  -5   4   5    1.38    0.19
  -4   4   5    0.23    0.11
  -4   4   5    0.00    0.10
   3  -4  -5    0.11    0.09
  -3   4   5    0.15    0.11
  -3   4   5    0.18    0.11
   2  -4  -5    7.35    0.36
  -2   4   5    6.87    0.39
   1  -4  -5   58.87    2.11
  -1   4   5   55.46    2.12
   0  -4  -5  292.89   10.40
  -1  -4  -5    0.32    0.15
  -1  -4  -5    0.18    0.09
  -2  -4  -5    3.94    0.26
  -3  -4  -5    0.46    0.13
   3   4   5    0.44    0.12
  -4  -4  -5    4.08    0.23
   4   4   5    3.94    0.22
  -5  -4  -5    0.35    0.12
   5   4   5    0.50    0.13
   7  -5  -5    0.01    0.05
   6  -5  -5    1.89    0.15
  -6   5   5    2.05    0.21
   5  -5  -5    0.63    0.12
  -5   5   5    0.49    0.18
   4  -5  -5    4.17    0.23
  -4   5   5    3.62    0.29
   3  -5  -5    0.47    0.13
  -3   5   5    0.62    0.23
   2  -5  -5    1.57    0.17
  -2   5   5    1.31    0.29
   1  -5  -5   17.55    0.71
   0  -5  -5    2.83    0.21
   0  -5  -5    2.92    0.23
  -1  -5  -5   -0.11    0.12
  -1  -5  -5    0.09    0.08
  -2  -5  -5    0.40    0.09
  -3  -5  -5    5.59    0.27
  -4  -5  -5   26.65    0.99
   6  -6  -5    1.07    0.10
   5  -6  -5    0.11    0.06
   4  -6  -5    6.76    0.30
   3  -6  -5   -0.02    0.05
   3  -6  -5   -0.03    0.09
   2  -6  -5    1.33    0.17
   2  -6  -5    1.70    0.15
   1  -6  -5    2.82    0.19
   1  -6  -5    2.84    0.19
   0  -6  -5    6.59    0.31
   0  -6  -5    6.87    0.32
  -1  -6  -5    3.63    0.20
  -2  -6  -5    2.04    0.14
   3  -7  -5    0.60    0.10
   2  -7  -5    1.75    0.14
   1  -7  -5   11.27    0.46
  -1 -11   6    1.14    0.11
  -1 -11   6    1.19    0.10
   0 -11   6    6.20    0.27
   1 -11   6    0.58    0.10
   1 -11   6    0.46    0.10
  -4 -10   6    6.22    0.28
  -4 -10   6    5.52    0.26
  -3 -10   6    1.33    0.20
  -3 -10   6    1.09    0.11
  -3 -10   6    1.46    0.13
  -2 -10   6    9.78    0.41
  -2 -10   6    9.62    0.39
  -1 -10   6    4.36    0.23
  -1 -10   6    4.18    0.21
   0 -10   6    1.43    0.14
   0 -10   6    1.34    0.12
   1 -10   6    0.52    0.10
   1 -10   6    0.40    0.09
   2 -10   6    0.11    0.05
   2 -10   6    0.14    0.06
   3 -10   6    0.34    0.07
   3 -10   6    0.57    0.10
   4 -10   6    0.17    0.06
  -6  -9   6    9.18    0.38
  -5  -9   6    0.04    0.07
  -5  -9   6   -0.03    0.07
  -4  -9   6    3.68    0.19
  -4  -9   6    3.31    0.22
  -4  -9   6    2.99    0.20
  -3  -9   6    0.09    0.10
  -3  -9   6    0.06    0.07
  -3  -9   6    0.04    0.06
  -2  -9   6    6.60    0.33
  -2  -9   6    6.88    0.36
  -2  -9   6    6.95    0.32
  -1  -9   6   -0.06    0.06
  -1  -9   6    0.09    0.07
   0  -9   6    2.73    0.20
   0  -9   6    2.68    0.18
   1  -9   6    0.18    0.08
   1  -9   6    0.18    0.07
   2  -9   6    4.59    0.23
   2  -9   6    4.53    0.25
   3  -9   6    0.88    0.11
   3  -9   6    0.67    0.12
   4  -9   6    3.22    0.18
   4  -9   6    3.02    0.18
   5  -9   6    0.20    0.06
  -7  -8   6   -0.04    0.06
  -6  -8   6    0.18    0.08
  -6  -8   6    0.15    0.07
  -5  -8   6   -0.01    0.07
  -5  -8   6    0.00    0.09
  -4  -8   6    1.16    0.19
  -4  -8   6    1.35    0.16
  -3  -8   6    8.22    0.38
  -3  -8   6    7.82    0.39
  -3  -8   6    8.34    0.42
  -2  -8   6  326.15   11.57
  -2  -8   6  321.76   11.56
  -2  -8   6  330.48   11.58
  -1  -8   6   10.99    0.48
  -1  -8   6   10.91    0.49
   0  -8   6    2.58    0.20
   0  -8   6    2.65    0.22
   1  -8   6    2.74    0.20
   1  -8   6    2.52    0.22
   2  -8   6   35.58    1.33
   2  -8   6   35.66    1.35
  -3   8  -6    1.87    0.26
   3  -8   6    1.40    0.15
   3  -8   6    1.57    0.14
  -4   8  -6   -0.03    0.13
   4  -8   6    0.09    0.06
   4  -8   6    0.16    0.06
  -5   8  -6   -0.12    0.11
   5  -8   6   -0.05    0.06
   5  -8   6   -0.01    0.05
   6  -8   6    4.82    0.21
  -7  -7   6    0.42    0.15
  -7  -7   6    0.35    0.11
  -6  -7   6    0.99    0.16
  -6  -7   6    0.94    0.18
  -6  -7   6    0.82    0.16
  -5  -7   6    7.78    0.38
  -5  -7   6    7.17    0.35
  -5  -7   6    8.40    0.40
  -5  -7   6    6.90    0.40
  -4  -7   6    4.71    0.29
  -4  -7   6    5.02    0.32
  -4  -7   6    4.40    0.26
  -3  -7   6    5.02    0.30
  -3  -7   6    5.64    0.32
  -3  -7   6    5.78    0.35
  -2  -7   6   26.07    1.08
  -2  -7   6   27.50    1.06
  -2  -7   6   28.20    1.05
  -1  -7   6    0.96    0.17
  -1  -7   6    0.93    0.20
   0  -7   6    7.43    0.36
   0  -7   6    7.73    0.38
  -1   7  -6    8.88    0.48
   1  -7   6    9.36    0.43
   1  -7   6    9.06    0.42
  -2   7  -6    0.07    0.13
   2  -7   6    0.07    0.08
   2  -7   6    0.21    0.10
  -3   7  -6   45.15    1.75
   3  -7   6   47.46    1.73
   3  -7   6   47.49    1.73
  -4   7  -6    0.01    0.10
   4  -7   6    0.01    0.07
   4  -7   6    0.13    0.08
  -5   7  -6    0.18    0.09
   5  -7   6    0.01    0.07
  -6   7  -6   -0.08    0.09
   6  -7   6    0.14    0.07
   6  -7   6    0.05    0.05
  -8  -6   6    2.24    0.16
  -8  -6   6    2.32    0.16
  -7  -6   6    0.00    0.07
  -7  -6   6    0.12    0.09
  -7  -6   6    0.05    0.08
  -6  -6   6    2.77    0.25
  -6  -6   6    2.99    0.24
  -6  -6   6    2.89    0.24
  -5  -6   6   13.21    0.57
  -5  -6   6   13.31    0.59
  -5  -6   6   12.81    0.60
  -4  -6   6   11.28    0.54
  -4  -6   6   11.70    0.52
  -4  -6   6   12.02    0.53
  -4  -6   6   11.69    0.57
  -3  -6   6    7.98    0.40
  -3  -6   6    7.88    0.43
  -3  -6   6    7.99    0.39
  -2  -6   6   44.40    1.70
  -2  -6   6   45.30    1.67
  -2  -6   6   45.20    1.66
  -1  -6   6    9.15    0.45
  -1  -6   6   10.64    0.44
   0  -6   6    6.05    0.32
   0  -6   6    6.17    0.34
   1  -6   6    2.23    0.21
   1  -6   6    2.63    0.23
   2  -6   6    2.04    0.22
   2  -6   6    1.73    0.20
   3  -6   6    1.69    0.18
   3  -6   6    1.50    0.19
  -4   6  -6    5.93    0.34
   4  -6   6    6.36    0.33
   4  -6   6    6.27    0.32
  -5   6  -6    3.73    0.24
   5  -6   6    3.80    0.22
   5  -6   6    3.78    0.23
  -6   6  -6    2.48    0.19
   6  -6   6    2.47    0.16
   6  -6   6    2.30    0.16
   7  -6   6    5.42    0.24
   7  -6   6    5.61    0.27
  -9  -5   6    1.11    0.13
  -9  -5   6    1.03    0.12
  -8  -5   6    0.75    0.13
  -8  -5   6    1.08    0.13
  -7  -5   6   33.97    1.31
  -7  -5   6   34.52    1.31
  -6  -5   6    1.01    0.22
  -6  -5   6    1.11    0.23
  -6  -5   6    1.29    0.21
  -5  -5   6    3.30    0.28
  -5  -5   6    3.57    0.29
  -5  -5   6    4.18    0.31
  -4  -5   6   16.02    0.68
  -4  -5   6   16.61    0.72
  -4  -5   6   16.61    0.70
  -3  -5   6    5.53    0.35
  -3  -5   6    5.63    0.42
  -3  -5   6    5.91    0.34
  -3  -5   6    5.78    0.37
  -2  -5   6    3.64    0.30
  -2  -5   6    3.49    0.27
  -2  -5   6    3.08    0.37
  -1  -5   6   14.02    0.61
  -1  -5   6   14.26    0.59
  -1  -5   6   13.85    0.61
   0  -5   6    6.20    0.36
   0  -5   6    5.60    0.32
   0  -5   6    6.32    0.35
   1  -5   6    6.03    0.34
   1  -5   6    6.29    0.32
   1  -5   6    6.12    0.34
   2  -5   6   39.17    1.49
   2  -5   6   40.71    1.49
   3  -5   6   20.53    0.83
   3  -5   6   21.49    0.84
   4  -5   6   36.95    1.39
   4  -5   6   36.87    1.39
  -5   5  -6    0.68    0.16
   5  -5   6    0.81    0.14
   5  -5   6    0.84    0.16
  -6   5  -6    3.07    0.22
   6  -5   6    2.66    0.18
   6  -5   6    2.58    0.17
   7  -5   6    1.11    0.11
   7  -5   6    1.17    0.13
  -9  -4   6   -0.11    0.06
  -9  -4   6    0.08    0.06
  -8  -4   6    2.40    0.19
  -8  -4   6    2.46    0.19
  -7  -4   6   12.42    0.56
  -7  -4   6   12.10    0.56
  -6  -4   6    2.61    0.27
  -6  -4   6    2.50    0.26
  -6  -4   6    2.58    0.25
  -5  -4   6   26.41    1.05
  -5  -4   6   27.33    1.07
  -5  -4   6   25.97    1.04
  -4  -4   6   11.31    0.54
  -4  -4   6   11.66    0.53
  -4  -4   6   11.65    0.55
  -3  -4   6   40.97    1.52
  -3  -4   6   39.93    1.51
  -3  -4   6   38.69    1.50
  -2  -4   6   74.71    2.77
  -2  -4   6   76.81    2.78
  -2  -4   6   78.29    2.79
  -1  -4   6  107.28    3.90
  -1  -4   6  108.86    3.89
  -1  -4   6  109.22    3.91
   1  -4   6    0.82    0.17
   1  -4   6    0.82    0.17
   1  -4   6    0.63    0.16
   2  -4   6   58.86    2.10
   2  -4   6   53.75    2.07
   2  -4   6   56.09    2.06
   3  -4   6   17.40    0.72
   3  -4   6   17.33    0.71
   4  -4   6   19.93    0.80
   4  -4   6   19.83    0.80
  -5   4  -6    5.73    0.34
   5  -4   6    6.18    0.31
   5  -4   6    6.22    0.32
  -6   4  -6    2.82    0.22
   6  -4   6    2.68    0.19
   6  -4   6    2.99    0.18
   7  -4   6    3.13    0.17
   7  -4   6    3.39    0.19
  -9  -3   6    0.10    0.07
  -9  -3   6    0.11    0.07
   8   3  -6    0.91    0.20
  -8  -3   6    0.94    0.15
  -8  -3   6    1.07    0.15
  -7  -3   6   11.15    0.51
  -7  -3   6   10.58    0.50
  -6  -3   6   23.81    0.97
  -6  -3   6   23.69    0.97
  -5  -3   6    0.64    0.21
  -5  -3   6    0.46    0.13
  -4  -3   6    1.97    0.25
  -4  -3   6    1.60    0.25
  -4  -3   6    1.93    0.26
  -3  -3   6    1.86    0.22
  -3  -3   6    2.29    0.31
  -3  -3   6    1.67    0.27
   2   3  -6   -0.03    0.24
  -2  -3   6    0.51    0.19
  -2  -3   6    0.36    0.10
  -1  -3   6    5.01    0.28
   0  -3   6   -0.08    0.07
   0  -3   6    0.14    0.12
   1  -3   6    4.51    0.30
   1  -3   6    4.03    0.26
   2  -3   6   52.65    1.92
   2  -3   6   51.62    1.95
   3  -3   6    4.01    0.35
   3  -3   6    4.40    0.29
   3  -3   6    3.83    0.26
   4  -3   6  249.50    8.86
   5  -3   6    0.24    0.11
   5  -3   6    0.31    0.09
  -6   3  -6    5.97    0.32
   6  -3   6    5.96    0.28
   6  -3   6    5.34    0.29
   7  -3   6    2.97    0.16
  -9  -2   6    0.02    0.07
  -9  -2   6    0.02    0.07
  -8  -2   6    2.81    0.21
  -8  -2   6    3.02    0.21
  -7  -2   6   13.51    0.59
  -7  -2   6   12.80    0.59
  -6  -2   6   41.81    1.60
  -6  -2   6   42.38    1.61
  -5  -2   6   38.40    1.47
  -5  -2   6   38.55    1.48
  -4  -2   6    1.47    0.22
  -4  -2   6    1.60    0.23
  -4  -2   6    2.28    0.27
  -3  -2   6   12.07    0.54
  -3  -2   6   11.24    0.51
  -3  -2   6   11.69    0.55
   2   2  -6   10.65    0.82
  -2  -2   6   11.04    0.52
  -2  -2   6   11.03    0.48
  -1  -2   6   51.85    1.86
  -1  -2   6   48.30    1.86
   0  -2   6    8.97    0.40
   0  -2   6    7.76    0.46
   1  -2   6    1.27    0.23
   1  -2   6    1.06    0.17
   2  -2   6    0.61    0.18
   2  -2   6    0.48    0.11
   3  -2   6    0.37    0.11
   3  -2   6    0.61    0.18
   4  -2   6    0.04    0.08
   5  -2   6    5.94    0.30
  -6   2  -6   15.73    0.66
   6  -2   6   15.99    0.63
   7  -2   6    1.76    0.12
  -9  -1   6    0.01    0.07
  -9  -1   6   -0.04    0.06
  -8  -1   6   22.06    0.88
  -8  -1   6   23.05    0.89
  -7  -1   6    1.08    0.18
  -7  -1   6    0.77    0.18
  -6  -1   6  248.91    8.85
  -6  -1   6  252.89    8.85
  -6  -1   6  242.28    8.84
  -5  -1   6    0.68    0.20
  -5  -1   6    0.55    0.13
  -5  -1   6    0.77    0.19
  -4  -1   6   11.06    0.50
  -4  -1   6   10.83    0.51
  -4  -1   6   10.94    0.51
  -3  -1   6    1.27    0.26
  -3  -1   6    0.68    0.17
  -3  -1   6    0.81    0.19
  -2  -1   6   80.53    3.13
  -2  -1   6   88.09    3.14
  -2  -1   6   90.57    3.14
  -1  -1   6    0.06    0.12
  -1  -1   6    0.01    0.07
   0  -1   6    0.54    0.14
   0  -1   6    0.68    0.24
   1  -1   6   39.81    1.49
   1  -1   6   38.46    1.47
   2  -1   6    3.81    0.28
   2  -1   6    3.55    0.26
   3  -1   6    3.19    0.25
   3  -1   6    3.48    0.28
   4  -1   6    4.00    0.26
   5  -1   6    2.65    0.20
   6  -1   6    5.23    0.25
   7  -1   6    0.30    0.08
  -9   0   6    1.40    0.15
  -9   0   6    1.40    0.13
  -8   0   6    0.11    0.08
  -8   0   6   -0.16    0.20
  -8   0   6    0.44    0.15
  -7   0   6    0.29    0.12
  -7   0   6    0.34    0.11
  -7   0   6    0.20    0.12
  -6   0   6    2.38    0.23
  -6   0   6    2.58    0.24
  -6   0   6    2.36    0.23
  -5   0   6   30.86    1.27
  -5   0   6   33.30    1.27
  -5   0   6   33.97    1.28
  -4   0   6    3.29    0.26
  -4   0   6    3.87    0.27
  -4   0   6    3.34    0.26
  -3   0   6   10.86    0.49
  -3   0   6   10.93    0.49
  -3   0   6   10.48    0.50
  -2   0   6   36.56    1.47
  -2   0   6   40.11    1.47
  -2   0   6   39.69    1.47
  -1   0   6  186.52    6.45
  -1   0   6  174.37    6.45
   0   0   6    0.74    0.16
   0   0   6    0.90    0.20
   1   0   6   20.02    0.81
   1   0   6   19.44    0.81
   2   0   6    3.07    0.27
   2   0   6    3.47    0.26
  -3   0  -6    1.05    0.26
   3   0   6    0.89    0.18
   3   0   6    0.65    0.22
   4   0   6   14.52    0.61
   5   0   6    3.10    0.21
   6   0   6    0.50    0.10
   7   0   6    0.00    0.04
  -8   1   6    0.82    0.13
  -8   1   6    0.92    0.23
  -8   1   6    0.72    0.16
  -7   1   6    0.61    0.19
  -7   1   6    0.35    0.11
  -6   1   6    1.09    0.19
  -6   1   6    1.09    0.20
  -5   1   6    4.59    0.29
  -5   1   6    4.69    0.30
  -5   1   6    4.58    0.30
  -4   1   6   16.92    0.73
  -4   1   6   17.65    0.73
  -4   1   6   17.32    0.74
  -3   1   6    0.05    0.11
  -3   1   6    0.17    0.10
  -3   1   6    0.28    0.11
  -2   1   6    1.64    0.20
  -2   1   6    1.93    0.21
  -1   1   6    2.28    0.21
  -1   1   6    2.41    0.22
   0   1   6    9.17    0.45
   0   1   6    9.88    0.46
   1   1   6   54.22    2.03
   2   1   6    1.50    0.23
   2   1   6    1.25    0.24
  -3  -1  -6   36.10    1.39
   3   1   6   34.00    1.40
   3   1   6   39.19    1.38
  -4  -1  -6    1.30    0.18
   4   1   6    1.75    0.17
   5   1   6    6.77    0.32
   6   1   6    1.59    0.12
  -8   2   6    2.25    0.19
  -8   2   6    2.75    0.24
  -7   2   6    1.96    0.22
  -7   2   6    2.34    0.19
  -6   2   6    7.10    0.36
  -6   2   6    6.15    0.36
  -5   2   6    0.06    0.09
  -5   2   6    0.12    0.10
  -4   2   6    0.09    0.09
  -4   2   6    0.15    0.09
  -3   2   6    1.84    0.20
  -3   2   6    1.78    0.22
  -2   2   6    0.72    0.18
  -2   2   6    1.22    0.19
   1  -2  -6   23.61    0.94
  -1   2   6   23.28    0.95
  -1   2   6   24.51    0.96
   0   2   6    6.55    0.37
   1   2   6   29.98    1.17
  -2  -2  -6    1.52    0.19
   2   2   6    1.01    0.29
  -3  -2  -6   -0.12    0.09
   3   2   6    0.14    0.09
  -4  -2  -6    9.60    0.44
   4   2   6    9.97    0.42
  -5  -2  -6    0.75    0.20
   5   2   6    0.93    0.13
   8  -3  -6    0.33    0.09
  -7   3   6   10.03    0.46
  -7   3   6   10.08    0.43
  -6   3   6    0.41    0.14
  -6   3   6    0.48    0.16
  -5   3   6   21.90    0.94
  -5   3   6   25.01    0.93
  -4   3   6    0.22    0.10
  -4   3   6    0.20    0.10
  -3   3   6    7.16    0.39
  -3   3   6    7.35    0.37
   2  -3  -6   49.28    1.79
  -2   3   6   45.83    1.81
  -2   3   6   49.96    1.81
   1  -3  -6   16.30    0.66
  -1   3   6   15.70    0.68
   0   3   6   22.55    0.91
  -2  -3  -6    0.51    0.15
  -4  -3  -6    0.03    0.07
   4   3   6    0.17    0.10
   7  -4  -6    0.01    0.05
   6  -4  -6    1.20    0.12
  -6   4   6    1.21    0.19
   5  -4  -6    1.46    0.14
  -5   4   6    1.46    0.20
   4  -4  -6    1.09    0.14
  -4   4   6    1.42    0.19
   3  -4  -6    4.09    0.23
  -3   4   6    3.59    0.26
   2  -4  -6   87.89    3.23
  -2   4   6   91.02    3.26
   1  -4  -6    0.14    0.10
  -1   4   6    0.23    0.15
   0  -4  -6   42.23    1.59
  -1  -4  -6    6.08    0.31
  -2  -4  -6   11.47    0.48
  -3  -4  -6    0.13    0.07
  -4  -4  -6   40.21    1.46
   6  -5  -6    0.64    0.09
   5  -5  -6    3.67    0.19
   4  -5  -6    0.87    0.11
  -4   5   6    0.96    0.25
   3  -5  -6    3.37    0.20
   2  -5  -6    1.05    0.14
   2  -5  -6    0.83    0.13
   1  -5  -6   -0.03    0.06
   1  -5  -6    0.23    0.09
   0  -5  -6    1.46    0.14
  -1  -5  -6    7.62    0.34
  -2  -5  -6    6.89    0.30
   4  -6  -6    2.25    0.14
   3  -6  -6    3.02    0.17
   2  -6  -6    4.38    0.22
   2  -6  -6    4.27    0.22
   1  -6  -6    0.75    0.12
   0  -6  -6    6.86    0.29
  -4 -10   7    3.21    0.17
  -3 -10   7    0.09    0.06
  -3 -10   7    0.06    0.05
  -2 -10   7    6.19    0.26
  -2 -10   7    5.87    0.27
  -1 -10   7    2.33    0.16
  -1 -10   7    2.32    0.15
   0 -10   7    1.72    0.13
   0 -10   7    1.80    0.13
   1 -10   7    2.26    0.15
   1 -10   7    2.43    0.14
   2 -10   7    6.01    0.26
   2 -10   7    5.88    0.26
   3 -10   7    0.01    0.05
   3 -10   7    0.17    0.06
  -5  -9   7    9.25    0.37
  -5  -9   7    7.76    0.35
  -4  -9   7   26.77    1.03
  -4  -9   7   27.25    1.01
  -4  -9   7   27.75    1.02
  -3  -9   7    7.52    0.33
  -3  -9   7    7.37    0.38
  -3  -9   7    7.61    0.34
  -2  -9   7   18.28    0.72
  -2  -9   7   18.81    0.73
  -1  -9   7    0.18    0.07
  -1  -9   7    0.21    0.08
   0  -9   7    3.73    0.22
   0  -9   7    3.94    0.21
   1  -9   7    0.10    0.06
   1  -9   7    0.11    0.07
   2  -9   7    3.29    0.20
   2  -9   7    3.28    0.18
   3  -9   7    5.39    0.25
   3  -9   7    5.19    0.24
   4  -9   7    0.95    0.10
   4  -9   7    1.00    0.10
  -6  -8   7   -0.02    0.08
  -6  -8   7   -0.08    0.07
  -5  -8   7    3.70    0.22
  -5  -8   7    3.93    0.24
  -4  -8   7  104.08    3.82
  -4  -8   7  108.91    3.85
  -4  -8   7  107.71    3.84
  -3  -8   7    1.04    0.14
  -3  -8   7    0.57    0.15
  -3  -8   7    0.75    0.16
  -2  -8   7   53.31    1.97
  -2  -8   7   54.46    1.99
  -1  -8   7    8.80    0.42
  -1  -8   7    9.24    0.41
   0  -8   7    2.60    0.19
   0  -8   7    2.81    0.22
   1  -8   7   19.21    0.76
   1  -8   7   18.30    0.74
   2  -8   7    2.30    0.19
   2  -8   7    2.04    0.16
  -3   8  -7    4.37    0.34
   3  -8   7    4.55    0.25
   3  -8   7    4.98    0.24
  -4   8  -7    0.09    0.14
   4  -8   7    0.18    0.07
   4  -8   7    0.14    0.06
   5  -8   7    0.85    0.11
   5  -8   7    1.27    0.11
  -7  -7   7    1.63    0.15
  -7  -7   7    1.89    0.18
  -6  -7   7    0.65    0.15
  -6  -7   7    0.70    0.15
  -6  -7   7    0.58    0.19
  -4  -7   7    0.41    0.13
  -4  -7   7    0.39    0.11
  -4  -7   7    0.78    0.17
  -3  -7   7   24.73    0.95
  -3  -7   7   24.02    0.93
  -3  -7   7   23.39    0.97
  -2  -7   7    9.13    0.43
  -2  -7   7    8.83    0.41
  -1  -7   7   13.29    0.57
  -1  -7   7   12.89    0.55
   0  -7   7    1.00    0.19
   0  -7   7    0.95    0.15
   1  -7   7   21.26    0.84
   1  -7   7   21.09    0.83
  -2   7  -7   21.64    0.92
   2  -7   7   22.39    0.89
   2  -7   7   24.49    0.90
  -3   7  -7    1.04    0.20
   3  -7   7    0.90    0.14
   3  -7   7    0.94    0.14
  -4   7  -7    0.13    0.10
   4  -7   7    0.05    0.06
  -5   7  -7    1.93    0.19
   5  -7   7    1.81    0.13
   5  -7   7    2.04    0.14
   6  -7   7    5.28    0.23
   6  -7   7    5.25    0.28
  -8  -6   7    0.78    0.11
  -8  -6   7    0.57    0.12
  -7  -6   7    8.98    0.40
  -7  -6   7    8.90    0.40
  -6  -6   7    1.66    0.19
  -6  -6   7    1.42    0.20
  -6  -6   7    1.83    0.20
  -5  -6   7    4.70    0.31
  -5  -6   7    4.13    0.28
  -5  -6   7    4.70    0.31
  -4  -6   7    0.77    0.14
  -4  -6   7    1.18    0.25
  -3  -6   7    1.67    0.23
  -3  -6   7    2.19    0.30
  -3  -6   7    1.47    0.22
  -2  -6   7    0.02    0.10
  -2  -6   7    0.10    0.12
  -1  -6   7    0.58    0.11
  -1  -6   7    0.71    0.23
   0  -6   7   29.64    1.14
   0  -6   7   29.44    1.13
   1  -6   7   18.68    0.76
   1  -6   7   19.35    0.77
   2  -6   7    3.80    0.27
   2  -6   7    3.85    0.25
   3  -6   7    2.69    0.23
   3  -6   7    2.72    0.20
  -4   6  -7    1.28    0.19
   4  -6   7    1.48    0.14
   4  -6   7    1.63    0.17
  -5   6  -7    7.09    0.34
   5  -6   7    6.78    0.30
   5  -6   7    6.61    0.31
   6  -6   7    0.62    0.09
   6  -6   7    0.58    0.12
  -8  -5   7   11.68    0.48
  -8  -5   7   11.60    0.48
  -7  -5   7    2.29    0.20
  -7  -5   7    2.37    0.20
  -6  -5   7    1.14    0.24
  -6  -5   7    1.65    0.21
  -6  -5   7    1.89    0.20
  -5  -5   7    8.53    0.43
  -5  -5   7    8.16    0.43
  -5  -5   7    8.14    0.43
  -4  -5   7    0.22    0.15
  -4  -5   7    0.30    0.14
  -4  -5   7    0.15    0.14
  -3  -5   7   84.27    3.03
  -3  -5   7   83.04    3.05
  -2  -5   7   -0.02    0.15
  -2  -5   7    0.03    0.13
  -1  -5   7    0.00    0.10
  -1  -5   7   -0.11    0.11
  -1  -5   7    0.11    0.17
   0  -5   7   10.47    0.49
   0  -5   7    9.30    0.45
   0  -5   7   10.71    0.51
   1  -5   7    4.02    0.28
   1  -5   7    3.72    0.29
   1  -5   7    3.51    0.25
   2  -5   7   30.66    1.15
   2  -5   7   29.05    1.15
   3  -5   7    0.99    0.24
   3  -5   7    1.03    0.16
   4  -5   7    0.94    0.14
   4  -5   7    1.19    0.19
  -5   5  -7    1.82    0.18
   5  -5   7    1.66    0.19
   5  -5   7    1.61    0.14
  -6   5  -7    0.98    0.17
   6  -5   7    1.12    0.10
  -9  -4   7    0.70    0.11
  -9  -4   7    0.82    0.11
  -8  -4   7    0.04    0.07
  -8  -4   7   -0.01    0.06
  -7  -4   7    1.22    0.17
  -7  -4   7    1.46    0.17
  -6  -4   7   11.72    0.54
  -6  -4   7   12.08    0.55
  -5  -4   7    9.99    0.50
  -5  -4   7   10.33    0.50
  -4  -4   7    0.11    0.13
  -4  -4   7    0.27    0.14
  -3  -4   7   44.89    1.67
  -3  -4   7   45.81    1.67
  -3  -4   7   41.98    1.66
  -2  -4   7   46.07    1.73
  -1  -4   7   22.25    0.88
  -1  -4   7   22.71    0.90
   0  -4   7    4.00    0.28
   0  -4   7    4.29    0.28
   1  -4   7   -0.03    0.09
   1  -4   7    0.08    0.10
   2  -4   7  231.57    8.12
   2  -4   7  222.26    8.07
   3  -4   7   28.90    1.11
   4  -4   7    3.35    0.22
  -5   4  -7    0.19    0.10
   5  -4   7    0.36    0.10
  -6   4  -7    3.20    0.23
   6  -4   7    2.95    0.17
  -9  -3   7    0.10    0.06
  -9  -3   7    0.26    0.10
  -8  -3   7    4.78    0.25
  -8  -3   7    4.66    0.26
  -7  -3   7    2.48    0.21
  -7  -3   7    2.69    0.22
  -6  -3   7    0.35    0.11
  -6  -3   7    0.32    0.12
  -5  -3   7    3.33    0.27
  -5  -3   7    3.22    0.28
  -4  -3   7    9.20    0.46
  -4  -3   7    9.14    0.46
  -4  -3   7    9.77    0.47
  -3  -3   7    5.45    0.37
  -3  -3   7    4.64    0.33
  -3  -3   7    5.29    0.32
  -2  -3   7    0.52    0.16
  -2  -3   7    0.62    0.17
  -1  -3   7    6.27    0.34
   0  -3   7    2.29    0.25
   0  -3   7    2.31    0.20
   1  -3   7   37.73    1.47
   1  -3   7   38.72    1.44
   2  -3   7  277.99    9.46
   2  -3   7  251.89    9.41
   3  -3   7    0.33    0.10
   3  -3   7    0.14    0.10
   4  -3   7    0.30    0.09
  -5   3  -7    0.59    0.17
   5  -3   7    0.30    0.08
  -6   3  -7    2.17    0.24
   6  -3   7    2.44    0.14
  -9  -2   7   -0.04    0.05
  -9  -2   7   -0.03    0.06
  -8  -2   7   46.09    1.71
  -8  -2   7   46.74    1.72
  -7  -2   7    5.85    0.31
  -7  -2   7    5.32    0.30
  -6  -2   7   -0.21    0.14
  -6  -2   7    0.32    0.11
  -6  -2   7    0.08    0.10
  -5  -2   7    0.53    0.13
  -5  -2   7    0.51    0.13
  -5  -2   7    0.81    0.20
  -4  -2   7    0.19    0.11
  -4  -2   7    0.27    0.12
  -4  -2   7    0.28    0.12
  -3  -2   7    6.27    0.39
  -3  -2   7    6.99    0.38
  -3  -2   7    7.30    0.37
  -2  -2   7    5.65    0.34
  -2  -2   7    5.58    0.32
  -1  -2   7    0.32    0.14
  -1  -2   7    0.46    0.15
   0  -2   7    0.28    0.16
   1  -2   7    0.10    0.13
   1  -2   7    0.18    0.09
   2  -2   7   10.88    0.52
   2  -2   7   12.37    0.55
   3  -2   7   11.04    0.48
   3  -2   7   10.57    0.51
   4  -2   7    1.10    0.17
  -5   2  -7    4.06    0.27
   5  -2   7    3.67    0.21
   6  -2   7    1.14    0.11
  -9  -1   7    4.61    0.22
  -9  -1   7    4.54    0.22
  -8  -1   7   62.76    2.26
  -8  -1   7   61.05    2.25
  -7  -1   7    3.69    0.24
  -7  -1   7    3.79    0.35
  -7  -1   7    3.84    0.25
  -6  -1   7   23.54    0.99
  -6  -1   7   24.92    0.98
  -6  -1   7   25.62    0.99
  -5  -1   7    2.78    0.24
  -5  -1   7    2.66    0.25
  -5  -1   7    3.09    0.25
  -4  -1   7    2.36    0.24
  -4  -1   7    2.84    0.24
  -4  -1   7    2.50    0.24
  -3  -1   7   27.51    1.11
  -3  -1   7   29.28    1.12
  -3  -1   7   28.80    1.12
  -2  -1   7   36.25    1.37
  -2  -1   7   35.06    1.36
  -1  -1   7   17.59    0.73
  -1  -1   7   16.75    0.72
   0  -1   7   31.99    1.22
   0  -1   7   30.51    1.20
   1  -1   7   10.76    0.53
   1  -1   7   11.11    0.52
   2  -1   7    3.08    0.25
   2  -1   7    2.95    0.24
   3  -1   7    3.04    0.23
   3  -1   7    2.60    0.24
   4  -1   7    4.02    0.23
   5  -1   7    2.49    0.16
   6  -1   7    4.70    0.21
  -9   0   7    0.16    0.08
  -8   0   7    0.26    0.08
  -8   0   7    0.06    0.06
  -7   0   7    1.84    0.18
  -7   0   7    1.88    0.24
  -7   0   7    1.86    0.18
  -6   0   7   20.89    0.84
  -6   0   7   21.22    0.83
  -6   0   7   19.72    0.85
  -5   0   7   12.51    0.54
  -5   0   7   11.24    0.52
  -5   0   7   11.26    0.54
  -4   0   7   16.53    0.70
  -4   0   7   16.61    0.70
  -4   0   7   16.33    0.71
  -3   0   7   35.66    1.33
  -3   0   7   33.61    1.31
  -3   0   7   33.00    1.30
  -2   0   7   21.38    0.89
  -2   0   7   22.80    0.90
  -1   0   7   15.27    0.67
  -1   0   7   16.76    0.69
   0   0   7    1.06    0.21
   0   0   7    0.86    0.18
   1   0   7    2.00    0.20
  -2   0  -7    0.07    0.12
   2   0   7    0.17    0.13
   2   0   7    0.12    0.10
  -3   0  -7   19.35    0.81
   3   0   7   20.05    0.83
   3   0   7   21.39    0.80
   4   0   7    0.95    0.14
   5   0   7    0.83    0.12
   6   0   7    2.25    0.13
  -8   1   7    0.07    0.07
  -7   1   7    2.46    0.24
  -7   1   7    2.35    0.18
  -6   1   7    0.08    0.09
  -6   1   7   -0.01    0.10
  -6   1   7    0.08    0.08
  -5   1   7    1.09    0.19
  -5   1   7    0.79    0.16
  -5   1   7    1.03    0.19
  -4   1   7    6.19    0.35
  -4   1   7    6.19    0.34
  -3   1   7    4.51    0.30
  -3   1   7    4.78    0.29
  -2   1   7   11.30    0.51
  -2   1   7   10.97    0.52
  -1   1   7    0.41    0.12
  -1   1   7    0.54    0.16
   0   1   7   31.41    1.22
   1   1   7   18.97    0.79
  -2  -1  -7    1.88    0.22
   2   1   7    1.89    0.24
  -3  -1  -7    3.14    0.22
   3   1   7    2.72    0.22
   4   1   7    4.37    0.23
   5   1   7    2.58    0.16
  -7   2   7   10.81    0.48
  -7   2   7   10.96    0.45
  -6   2   7    0.18    0.08
  -6   2   7    0.18    0.10
  -5   2   7    0.25    0.09
  -5   2   7    0.36    0.11
  -4   2   7    1.88    0.18
  -4   2   7    1.36    0.19
  -3   2   7   -0.06    0.08
  -3   2   7   -0.01    0.08
   2  -2  -7    3.47    0.25
  -2   2   7    2.99    0.23
  -2   2   7    2.68    0.24
  -1   2   7   25.91    1.03
   0   2   7    2.29    0.24
   1   2   7    7.91    0.42
  -2  -2  -7    2.53    0.20
  -3  -2  -7    1.98    0.18
  -4  -2  -7    0.79    0.22
   7  -3  -7   14.59    0.56
   6  -3  -7    9.59    0.39
  -6   3   7    9.36    0.43
  -6   3   7    9.36    0.40
   5  -3  -7    3.19    0.19
  -5   3   7    3.02    0.24
  -5   3   7    3.31    0.20
   4  -3  -7    3.02    0.19
  -4   3   7    3.12    0.20
  -4   3   7    2.69    0.22
   3  -3  -7   15.37    0.62
  -3   3   7   15.04    0.65
   2  -3  -7   91.46    3.28
  -2   3   7   90.95    3.32
  -1   3   7    4.85    0.32
   0   3   7    1.95    0.33
  -1  -3  -7   -0.01    0.07
  -2  -3  -7    0.25    0.07
  -3  -3  -7    9.80    0.40
   6  -4  -7    0.30    0.09
  -5   4   7    0.36    0.19
   4  -4  -7   11.16    0.44
  -4   4   7   10.34    0.48
   3  -4  -7    8.36    0.36
  -3   4   7    8.23    0.43
   2  -4  -7   47.13    1.72
   1  -4  -7    7.42    0.34
   0  -4  -7    0.62    0.11
  -1  -4  -7    1.42    0.12
  -2  -4  -7   17.56    0.67
   4  -5  -7    0.63    0.13
   3  -5  -7    3.68    0.20
   2  -5  -7    0.00    0.07
   1  -5  -7    0.09    0.05
   0  -5  -7    0.52    0.10
  -3 -10   8    9.26    0.37
  -2 -10   8    0.32    0.06
  -2 -10   8    0.37    0.10
  -1 -10   8   -0.06    0.06
  -1 -10   8    0.01    0.05
   0 -10   8    0.25    0.06
   0 -10   8    0.11    0.04
   1 -10   8    0.04    0.05
   1 -10   8   -0.08    0.04
   2 -10   8    3.39    0.16
   2 -10   8    3.23    0.17
  -5  -9   8    3.25    0.19
  -4  -9   8   51.16    1.85
  -3  -9   8   11.05    0.43
  -3  -9   8   10.82    0.45
  -2  -9   8    0.53    0.11
  -2  -9   8    0.42    0.12
  -1  -9   8   -0.06    0.06
  -1  -9   8   -0.01    0.05
   0  -9   8    2.97    0.17
   0  -9   8    2.98    0.19
   1  -9   8    0.82    0.11
   1  -9   8    1.01    0.12
   2  -9   8    3.36    0.19
   2  -9   8    3.52    0.18
   3  -9   8    0.44    0.11
   3  -9   8    0.42    0.08
  -6  -8   8    0.93    0.15
  -5  -8   8    3.89    0.22
  -5  -8   8    3.97    0.24
  -4  -8   8  121.52    4.32
  -4  -8   8  117.97    4.30
  -4  -8   8  123.71    4.33
  -3  -8   8    5.27    0.27
  -3  -8   8    4.98    0.26
  -2  -8   8   -0.08    0.08
  -2  -8   8    0.17    0.08
  -1  -8   8   15.76    0.63
  -1  -8   8   14.95    0.61
   0  -8   8   21.31    0.82
   0  -8   8   21.24    0.83
   1  -8   8    5.44    0.27
   1  -8   8    5.80    0.29
   2  -8   8    2.18    0.15
   2  -8   8    2.28    0.17
   3  -8   8    0.04    0.05
   3  -8   8    0.01    0.07
   4  -8   8   15.18    0.58
   4  -8   8   15.57    0.58
  -7  -7   8    0.64    0.12
  -6  -7   8    0.13    0.08
  -6  -7   8    0.07    0.09
  -5  -7   8    0.40    0.12
  -5  -7   8    0.22    0.11
  -4  -7   8    0.31    0.14
  -4  -7   8    0.71    0.18
  -3  -7   8   10.38    0.46
  -3  -7   8   11.67    0.48
  -2  -7   8    0.95    0.18
  -2  -7   8    1.30    0.20
  -1  -7   8    1.11    0.20
   0  -7   8    4.98    0.30
   0  -7   8    4.81    0.26
   1  -7   8   25.85    0.97
   1  -7   8   25.14    0.98
  -2   7  -8    0.21    0.12
   2  -7   8    0.03    0.06
   2  -7   8    0.05    0.09
  -3   7  -8   -0.05    0.11
   3  -7   8    0.04    0.06
   3  -7   8   -0.08    0.09
  -4   7  -8    0.29    0.11
   4  -7   8    0.63    0.14
   4  -7   8    0.36    0.09
   5  -7   8    5.73    0.24
  -7  -6   8    0.20    0.09
  -7  -6   8    0.54    0.12
  -6  -6   8    4.29    0.25
  -6  -6   8    4.42    0.26
  -3  -6   8   -0.12    0.14
  -2  -6   8    0.10    0.11
  -2  -6   8    0.07    0.14
   0  -6   8    0.19    0.15
   0  -6   8    1.07    0.17
   3  -6   8    3.23    0.19
  -4   6  -8    3.58    0.24
   4  -6   8    3.65    0.20
   5  -6   8    5.05    0.22
  -8  -5   8    1.22    0.12
  -8  -5   8    0.99    0.12
  -7  -5   8    1.95    0.17
  -7  -5   8    2.03    0.17
  -6  -5   8    0.10    0.09
  -6  -5   8    0.11    0.09
  -5  -5   8   11.14    0.51
  -5  -5   8   10.99    0.50
  -4  -5   8   17.67    0.73
  -4  -5   8   16.69    0.72
  -2  -5   8    0.11    0.14
  -1  -5   8   25.03    1.02
  -1  -5   8   25.89    0.98
   0  -5   8    3.47    0.23
   0  -5   8    2.65    0.26
   1  -5   8   35.44    1.28
   1  -5   8   32.27    1.31
   2  -5   8    6.44    0.32
   3  -5   8    0.04    0.07
  -4   5  -8    3.57    0.24
   4  -5   8    3.66    0.20
  -5   5  -8    0.18    0.10
   5  -5   8    0.14    0.05
  -8  -4   8    0.49    0.11
  -7  -4   8    1.81    0.16
  -7  -4   8    1.92    0.17
  -6  -4   8    0.04    0.10
  -6  -4   8   -0.04    0.09
  -5  -4   8    1.45    0.22
  -5  -4   8    2.11    0.23
  -4  -4   8   28.12    1.10
  -4  -4   8   27.95    1.10
  -3  -4   8   29.49    1.14
  -3  -4   8   28.49    1.13
  -2  -4   8    1.11    0.20
  -1  -4   8    6.17    0.34
   0  -4   8  110.27    3.88
   0  -4   8  105.98    3.93
   1  -4   8   31.23    1.29
   1  -4   8   34.93    1.25
   2  -4   8  112.27    3.86
   2  -4   8  102.55    3.90
   3  -4   8   16.51    0.66
   4  -4   8    0.00    0.06
  -5   4  -8    2.54    0.21
   5  -4   8    2.24    0.14
  -8  -3   8    6.62    0.29
  -8  -3   8    6.39    0.29
  -7  -3   8    1.07    0.14
  -7  -3   8    1.03    0.14
  -6  -3   8    0.17    0.10
  -6  -3   8    0.12    0.08
  -5  -3   8    1.96    0.22
  -5  -3   8    1.90    0.22
  -4  -3   8   13.24    0.59
  -4  -3   8   13.14    0.59
  -4  -3   8   13.16    0.59
  -3  -3   8    0.64    0.18
  -3  -3   8    0.92    0.21
  -2  -3   8    0.01    0.13
  -2  -3   8    0.12    0.10
  -1  -3   8   13.52    0.60
   1  -3   8   26.87    1.00
   1  -3   8   24.67    1.03
   2  -3   8   58.54    2.23
   2  -3   8   61.12    2.19
   3  -3   8    2.67    0.19
   4  -3   8    6.74    0.31
  -5   3  -8    7.35    0.37
   5  -3   8    7.20    0.30
  -8  -2   8   33.60    1.25
  -8  -2   8   34.05    1.25
  -7  -2   8   13.92    0.58
  -7  -2   8   14.54    0.59
  -6  -2   8    9.99    0.45
  -6  -2   8   10.17    0.45
  -6  -2   8    9.31    0.49
  -5  -2   8    0.59    0.18
  -5  -2   8    0.20    0.11
  -5  -2   8    0.36    0.11
  -4  -2   8    0.65    0.17
  -4  -2   8    0.72    0.18
  -4  -2   8    1.02    0.22
  -3  -2   8    4.72    0.30
  -3  -2   8    4.71    0.31
  -2  -2   8    1.51    0.18
  -2  -2   8    1.33    0.21
  -1  -2   8    3.21    0.27
  -1  -2   8    3.29    0.25
   0  -2   8    4.32    0.27
   2  -2   8    4.87    0.31
   2  -2   8    5.47    0.30
   3  -2   8   11.46    0.47
   3  -2   8   10.80    0.51
   4  -2   8    3.66    0.20
   5  -2   8   -0.04    0.05
  -8  -1   8   68.86    2.52
  -8  -1   8   71.13    2.51
  -7  -1   8    0.03    0.07
  -7  -1   8    0.09    0.07
  -6  -1   8    6.53    0.36
  -6  -1   8    6.15    0.32
  -6  -1   8    6.35    0.32
  -5  -1   8    5.13    0.32
  -5  -1   8    5.45    0.31
  -5  -1   8    5.66    0.31
  -4  -1   8   61.04    2.40
  -4  -1   8   66.40    2.37
  -4  -1   8   66.79    2.39
  -3  -1   8    8.93    0.42
  -3  -1   8    8.50    0.43
  -2  -1   8    4.99    0.32
  -2  -1   8    5.52    0.32
  -1  -1   8    0.62    0.18
  -1  -1   8    0.53    0.16
   0  -1   8    0.08    0.09
   1  -1   8   22.57    0.92
   2  -1   8    1.07    0.20
   3  -1   8    7.51    0.38
   3  -1   8    7.40    0.34
   4  -1   8    0.07    0.07
  -8   0   8    0.14    0.06
  -7   0   8    5.84    0.29
  -7   0   8    6.53    0.37
  -6   0   8    7.90    0.35
  -6   0   8    7.17    0.35
  -6   0   8    7.44    0.39
  -5   0   8    1.67    0.18
  -5   0   8    1.10    0.19
  -5   0   8    1.28    0.16
  -4   0   8    0.82    0.17
  -4   0   8    0.57    0.14
  -3   0   8   21.87    0.88
  -2   0   8    4.35    0.30
  -2   0   8    4.95    0.28
  -1   0   8    0.69    0.16
  -1   0   8    0.98    0.18
   0   0   8    0.07    0.09
   1   0   8   12.54    0.57
  -2   0  -8    8.45    0.40
   2   0   8    8.65    0.43
   3   0   8    3.96    0.24
   4   0   8    0.70    0.14
  -7   1   8    0.25    0.06
  -6   1   8    7.20    0.36
  -6   1   8    6.96    0.33
  -5   1   8    0.03    0.07
  -5   1   8    0.08    0.09
  -4   1   8    4.93    0.30
  -4   1   8    4.75    0.26
  -3   1   8    2.26    0.21
  -3   1   8    2.27    0.19
  -2   1   8    2.24    0.20
  -2   1   8    2.33    0.21
  -1   1   8    2.16    0.22
   0   1   8    7.21    0.37
  -1  -1  -8    1.60    0.16
   1   1   8    1.47    0.23
  -2  -1  -8    0.16    0.09
   2   1   8    0.06    0.17
   7  -2  -8    3.06    0.16
   6  -2  -8    2.32    0.14
  -6   2   8    2.06    0.15
  -6   2   8    1.93    0.20
   5  -2  -8   -0.03    0.06
  -5   2   8   -0.11    0.09
  -5   2   8   -0.01    0.06
   4  -2  -8    2.77    0.19
  -4   2   8    2.61    0.21
  -4   2   8    3.06    0.19
   3  -2  -8    6.71    0.33
  -3   2   8    6.87    0.36
  -2   2   8    7.58    0.38
  -1   2   8    1.41    0.21
   0  -2  -8    0.06    0.06
   0   2   8    0.02    0.13
  -1  -2  -8    0.02    0.07
  -2  -2  -8   12.09    0.49
   5  -3  -8    9.47    0.38
   4  -3  -8   44.26    1.56
  -4   3   8   41.56    1.59
   3  -3  -8   11.97    0.57
  -3   3   8   12.24    0.53
  -2   3   8   26.31    1.02
   1  -3  -8    6.48    0.30
   0  -3  -8    3.16    0.18
  -1  -3  -8    0.68    0.10
   3  -4  -8    0.03    0.06
   2  -4  -8   14.40    0.55
   1  -4  -8    0.90    0.10
  -3  -9   9    0.62    0.17
  -2  -9   9    1.47    0.13
  -2  -9   9    1.34    0.16
  -1  -9   9    0.00    0.08
  -1  -9   9   -0.08    0.05
   0  -9   9    1.00    0.11
   0  -9   9    1.09    0.15
   1  -9   9    1.07    0.16
   1  -9   9    1.47    0.11
   2  -9   9    0.66    0.08
  -3  -8   9    1.81    0.20
  -2  -8   9    1.35    0.15
  -2  -8   9    1.64    0.18
  -1  -8   9   12.41    0.50
  -1  -8   9   12.89    0.52
   0  -8   9    7.12    0.33
   0  -8   9    7.47    0.32
   1  -8   9   11.74    0.48
   1  -8   9   11.72    0.47
   2  -8   9   12.05    0.47
   3  -8   9    2.26    0.13
  -2  -7   9    0.35    0.10
  -1  -7   9    6.73    0.31
   0  -7   9    1.18    0.14
  -1   7  -9    0.20    0.17
  -2   7  -9    5.29    0.33
   2  -7   9    5.05    0.24
   3  -7   9    0.12    0.05
   4  -7   9    1.51    0.10
  -7  -6   9    0.19    0.10
  -6  -6   9    0.25    0.09
  -5  -6   9    1.10    0.20
  -1  -6   9    1.84    0.20
   0  -6   9   13.43    0.54
   1  -6   9    1.35    0.15
   2  -6   9    3.07    0.18
  -3   6  -9    5.73    0.30
   3  -6   9    5.57    0.26
   4  -6   9    2.42    0.14
  -7  -5   9    1.21    0.15
  -7  -5   9    1.33    0.14
  -6  -5   9    2.32    0.18
  -6  -5   9    1.91    0.17
  -5  -5   9   33.49    1.24
  -5  -5   9   32.83    1.24
  -2  -5   9    0.59    0.17
  -1  -5   9    2.92    0.29
   0  -5   9    2.25    0.22
   0  -5   9    2.16    0.20
   1  -5   9    0.91    0.18
   1  -5   9    0.70    0.15
   2  -5   9    2.73    0.18
   3  -5   9    0.40    0.11
  -4   5  -9    0.03    0.13
   4  -5   9    0.08    0.05
  -7  -4   9    0.01    0.07
  -7  -4   9    0.11    0.07
  -6  -4   9    0.67    0.15
  -6  -4   9    0.45    0.14
  -5  -4   9   14.66    0.61
  -5  -4   9   14.44    0.60
  -4  -4   9    4.54    0.28
  -3  -4   9    0.19    0.12
  -3  -4   9    0.10    0.12
  -2  -4   9    1.56    0.20
  -1  -4   9    3.78    0.27
   0  -4   9  214.32    7.66
   1  -4   9   -0.04    0.09
   1  -4   9   -0.08    0.09
   2  -4   9    0.59    0.15
   3  -4   9    1.32    0.13
   4  -4   9    2.05    0.14
  -7  -3   9    0.20    0.07
  -7  -3   9    0.36    0.10
  -6  -3   9    0.51    0.15
  -6  -3   9    0.37    0.13
  -5  -3   9   -0.02    0.10
  -5  -3   9   -0.03    0.08
  -4  -3   9    0.01    0.08
  -4  -3   9    0.21    0.12
  -3  -3   9    2.12    0.21
  -3  -3   9    1.53    0.22
  -2  -3   9    0.73    0.17
  -2  -3   9    0.12    0.13
  -1  -3   9    0.13    0.08
   0  -3   9   24.82    1.00
   1  -3   9    4.70    0.30
   2  -3   9   -0.01    0.09
   2  -3   9    0.15    0.10
   3  -3   9    1.31    0.14
   4  -3   9   12.00    0.46
  -7  -2   9    3.57    0.19
  -7  -2   9    3.66    0.20
  -6  -2   9    8.73    0.37
  -6  -2   9    8.34    0.38
  -5  -2   9    0.20    0.09
  -5  -2   9    0.12    0.08
  -5  -2   9   -0.11    0.12
  -4  -2   9    0.07    0.08
  -4  -2   9   -0.02    0.10
  -3  -2   9    0.22    0.10
  -3  -2   9    0.24    0.10
  -2  -2   9   -0.01    0.10
  -2  -2   9    0.08    0.09
  -1  -2   9    1.43    0.17
   0  -2   9   10.68    0.50
   1  -2   9    0.03    0.09
   2  -2   9    5.06    0.29
   3  -2   9    1.12    0.17
  -7  -1   9    1.98    0.13
  -6  -1   9    1.24    0.12
  -6  -1   9    1.60    0.26
  -5  -1   9   20.25    0.83
  -5  -1   9   22.31    0.86
  -4  -1   9    6.04    0.34
  -4  -1   9    6.30    0.31
  -3  -1   9    4.96    0.27
  -3  -1   9    4.30    0.28
  -2  -1   9    8.77    0.43
  -2  -1   9    8.69    0.40
  -1  -1   9    0.13    0.08
   0  -1   9    3.40    0.24
   1  -1   9    1.67    0.20
   2  -1   9    0.06    0.11
  -7   0   9    2.25    0.13
  -6   0   9    0.00    0.05
  -5   0   9    1.99    0.21
  -5   0   9    2.02    0.15
  -4   0   9    6.55    0.30
  -4   0   9    6.02    0.34
  -3   0   9    5.50    0.31
  -3   0   9    5.22    0.27
  -2   0   9    0.06    0.09
  -1   0   9    0.63    0.15
   0   0   9    0.25    0.10
  -1   0  -9   13.57    0.58
   1   0   9   15.38    0.62
   6  -1  -9    2.70    0.17
  -6   1   9    2.78    0.15
   5  -1  -9    0.83    0.15
  -5   1   9    0.81    0.18
  -5   1   9    0.91    0.10
  -4   1   9    6.87    0.31
  -4   1   9    7.27    0.35
  -3   1   9    0.64    0.16
  -2   1   9    1.63    0.19
  -1   1   9    1.02    0.18
   0  -1  -9    0.67    0.12
   0   1   9    0.83    0.23
  -1  -1  -9    7.53    0.33
   1  -2  -9    0.00    0.05
   0  -2  -9    0.17    0.07
   0  -8  10    0.07    0.08
   1  -8  10    2.45    0.15
   0  -7  10    3.24    0.20
   1  -7  10    0.45    0.08
   2  -7  10    0.55    0.11
   1  -6  10    0.82    0.16
   2  -6  10    1.71    0.14
  -2  -5  10   12.00    0.72
  -1  -5  10    8.85    0.44
   0  -5  10    0.09    0.11
  -6  -4  10    9.12    0.38
  -5  -4  10    1.08    0.16
  -4  -4  10    0.07    0.16
  -3  -4  10    6.22    0.37
  -2  -4  10   82.98    3.02
  -1  -4  10    6.59    0.36
   0  -4  10   63.96    2.35
   1  -4  10    0.03    0.10
  -6  -3  10    2.28    0.15
  -5  -3  10    1.14    0.14
  -4  -3  10    0.95    0.15
  -4  -3  10    0.98    0.23
  -3  -3  10    0.82    0.18
  -3  -3  10    0.92    0.17
  -2  -3  10    1.90    0.20
  -1  -3  10    0.97    0.18
   0  -3  10   12.68    0.55
   1  -3  10    1.16    0.17
  -6  -2  10    0.16    0.06
  -5  -2  10    0.46    0.10
  -4  -2  10    0.03    0.10
  -4  -2  10    0.08    0.07
  -3  -2  10    0.15    0.09
  -3  -2  10    0.16    0.09
  -2  -2  10    1.06    0.16
  -1  -2  10    1.97    0.19
   0  -2  10    0.11    0.11
   1  -2  10    0.75    0.18
  -6  -1  10   16.98    0.63
  -5  -1  10    5.23    0.24
  -4  -1  10    0.17    0.11
  -4  -1  10    0.10    0.07
  -3  -1  10   -0.12    0.08
  -2  -1  10    0.48    0.15
  -1  -1  10    4.45    0.27
   0  -1  10   -0.07    0.12
  -2   0  10    0.39    0.16
   1   0 -10   23.69    0.88
   0   0   0    0.00    0.00
;
_shelx_hkl_checksum              49465
_shelx_res_file
;
    JTM780_0m.res created by SHELXL-2014/7
TITL JTM780_0m_a.res in P-1
REM Old TITL JTM780_0m in P-1
REM SHELXT solution in P-1
REM R1 0.116,  Rweak 0.004,  Alpha 0.023,  Orientation as input
REM Formula found by SHELXT:  C14 N2 O2
CELL  1.54178   8.4015   9.0041   9.1465  114.214  101.275   90.978
ZERR    2.000   0.0006   0.0006   0.0007    0.003    0.004    0.003
LATT  1
SFAC C H N O
UNIT 28 28 4 4
TEMP -123
SIZE 0.048 0.166 0.188
L.S. 5
BOND $H
LIST 4
FMAP 2
PLAN 5
CONF
ACTA 136
EQIV $1 -x, -y, -z
HTAB C10 O1_$1
EQIV $2 -x+1, -y, -z+1
HTAB C13 O1_$2
MPLA C1 > C6
MPLA N1 N2 C1 C6 > C8
WGHT    0.058000    0.163900
FVAR       0.48239
O1    4    0.170213    0.097177    0.330410    11.00000    0.03433    0.01772 =
         0.03288    0.00775   -0.00222    0.00038
O2    4    0.386672    0.240745    0.611357    11.00000    0.02744    0.02145 =
         0.02608    0.01170   -0.00256    0.00075
N1    3    0.112921    0.342490    0.326096    11.00000    0.02135    0.02018 =
         0.02164    0.00849    0.00267    0.00081
N2    3    0.355578    0.496264    0.616682    11.00000    0.02511    0.02117 =
         0.02214    0.00999    0.00411    0.00036
C1    1    0.271449    0.587010    0.540193    11.00000    0.02551    0.02260 =
         0.02136    0.01126    0.00757    0.00213
C2    1    0.311229    0.756938    0.609997    11.00000    0.03226    0.02191 =
         0.02405    0.00854    0.00632   -0.00018
H2    2    0.397213    0.803898    0.709078    11.00000    0.03559
C3    1    0.228325    0.852532    0.542462    11.00000    0.03984    0.02022 =
         0.03159    0.01172    0.01193    0.00280
H3    2    0.259658    0.971184    0.591627    11.00000    0.03274
C4    1    0.104649    0.778866    0.400827    11.00000    0.03397    0.02664 =
         0.03214    0.01852    0.01119    0.00822
H4    2    0.046613    0.843903    0.354855    11.00000    0.04528
C5    1    0.065167    0.610930    0.326957    11.00000    0.02638    0.02715 =
         0.02724    0.01391    0.00611    0.00458
H5    2   -0.014545    0.561144    0.224623    11.00000    0.03648
C6    1    0.147866    0.512862    0.395955    11.00000    0.02237    0.02085 =
         0.02298    0.00973    0.00788    0.00210
C7    1    0.194946    0.246370    0.392476    11.00000    0.02316    0.02081 =
         0.02308    0.00926    0.00415    0.00221
C8    1    0.317664    0.340767    0.548397    11.00000    0.02282    0.02074 =
         0.02279    0.01033    0.00445    0.00263
C9    1   -0.012891    0.256596    0.174503    11.00000    0.02054    0.02434 =
         0.02396    0.00958    0.00101   -0.00117
H9A   2   -0.106223    0.323501    0.181187    11.00000    0.02803
H9B   2   -0.054121    0.150058    0.177249    11.00000    0.02825
C10   1    0.046566    0.220108    0.020691    11.00000    0.02918    0.03295 =
         0.02338    0.00844    0.00194    0.00072
H10   2   -0.036577    0.161511   -0.079262    11.00000    0.04612
C11   1    0.196299    0.255108    0.012117    11.00000    0.03441    0.05142 =
         0.02905    0.00966    0.01035   -0.00045
H11A  2    0.284391    0.312775    0.110623    11.00000    0.04342
H11B  2    0.227468    0.226948   -0.095761    11.00000    0.05486
C12   1    0.516033    0.315266    0.758228    11.00000    0.02509    0.02516 =
         0.02479    0.00981   -0.00078   -0.00071
H12A  2    0.470702    0.393396    0.847469    11.00000    0.02633
H12B  2    0.600612    0.376191    0.737365    11.00000    0.03216
C13   1    0.580811    0.178443    0.794964    11.00000    0.02161    0.02835 =
         0.02951    0.01318    0.00205    0.00222
H13   2    0.612895    0.091802    0.704144    11.00000    0.03629
C14   1    0.597397    0.175033    0.939626    11.00000    0.02600    0.04046 =
         0.03627    0.02208   -0.00003    0.00309
H14A  2    0.565566    0.264765    1.034487    11.00000    0.03811
H14B  2    0.641233    0.083157    0.957605    11.00000    0.03749
HKLF 4
REM  JTM780_0m_a.res in P-1
REM R1 =  0.0412 for    2090 Fo > 4sig(Fo)  and  0.0459 for all    2344 data
REM    219 parameters refined using      0 restraints
END
WGHT      0.0580      0.1639
REM Highest difference peak  0.197,  deepest hole -0.271,  1-sigma level  0.050
Q1    1   0.0314  0.0828  0.1935  11.00000  0.05    0.20
Q2    1   0.2551  0.2989  0.4789  11.00000  0.05    0.19
Q3    1   0.2876  1.0997  0.5599  11.00000  0.05    0.18
Q4    1   0.1972  0.5567  0.4847  11.00000  0.05    0.18
Q5    1   0.0665 -0.0427  0.2698  11.00000  0.05    0.17
;
_shelx_res_checksum              57427
loop_
_space_group_symop_operation_xyz
'x, y, z'
'-x, -y, -z'
loop_
_atom_site_type_symbol
_atom_site_label
_atom_site_fract_x
_atom_site_fract_y
_atom_site_fract_z
_atom_site_U_iso_or_equiv
_atom_site_adp_type
_atom_site_calc_flag
_atom_site_occupancy
O O1 0.17021(12) 0.09718(10) 0.33041(12) 0.0308(2) Uani d 1
O O2 0.38667(11) 0.24075(10) 0.61136(11) 0.0257(2) Uani d 1
N N1 0.11292(12) 0.34249(12) 0.32610(13) 0.0215(2) Uani d 1
N N2 0.35558(12) 0.49626(12) 0.61668(13) 0.0227(2) Uani d 1
C C1 0.27145(15) 0.58701(14) 0.54019(15) 0.0221(3) Uani d 1
C C2 0.31123(16) 0.75694(15) 0.61000(16) 0.0265(3) Uani d 1
H H2 0.397(2) 0.804(2) 0.709(2) 0.036(4) Uiso d 1
C C3 0.22833(18) 0.85253(16) 0.54246(17) 0.0297(3) Uani d 1
H H3 0.260(2) 0.971(2) 0.592(2) 0.033(4) Uiso d 1
C C4 0.10465(17) 0.77887(16) 0.40083(17) 0.0282(3) Uani d 1
H H4 0.047(2) 0.844(2) 0.355(2) 0.045(5) Uiso d 1
C C5 0.06517(16) 0.61093(16) 0.32696(16) 0.0261(3) Uani d 1
H H5 -0.015(2) 0.561(2) 0.225(2) 0.036(4) Uiso d 1
C C6 0.14787(14) 0.51286(14) 0.39596(15) 0.0215(3) Uani d 1
C C7 0.19495(15) 0.24637(15) 0.39248(15) 0.0225(3) Uani d 1
C C8 0.31766(14) 0.34077(15) 0.54840(15) 0.0218(3) Uani d 1
C C9 -0.01289(15) 0.25660(15) 0.17450(15) 0.0238(3) Uani d 1
H H9A -0.106(2) 0.3235(19) 0.1812(19) 0.028(4) Uiso d 1
H H9B -0.0541(19) 0.1501(19) 0.1772(19) 0.028(4) Uiso d 1
C C10 0.04657(16) 0.22011(17) 0.02069(16) 0.0303(3) Uani d 1
H H10 -0.037(2) 0.162(2) -0.079(2) 0.046(5) Uiso d 1
C C11 0.19630(19) 0.2551(2) 0.01212(19) 0.0403(4) Uani d 1
H H11A 0.284(2) 0.313(2) 0.111(2) 0.043(5) Uiso d 1
H H11B 0.227(3) 0.227(2) -0.096(3) 0.055(5) Uiso d 1
C C12 0.51603(15) 0.31527(15) 0.75823(16) 0.0263(3) Uani d 1
H H12A 0.4707(19) 0.3934(19) 0.8475(19) 0.026(4) Uiso d 1
H H12B 0.601(2) 0.376(2) 0.737(2) 0.032(4) Uiso d 1
C C13 0.58081(15) 0.17844(16) 0.79496(17) 0.0267(3) Uani d 1
H H13 0.613(2) 0.092(2) 0.704(2) 0.036(4) Uiso d 1
C C14 0.59740(16) 0.17503(19) 0.93963(19) 0.0333(3) Uani d 1
H H14A 0.566(2) 0.265(2) 1.034(2) 0.038(4) Uiso d 1
H H14B 0.641(2) 0.083(2) 0.958(2) 0.037(4) Uiso d 1
loop_
_atom_site_aniso_label
_atom_site_aniso_U_11
_atom_site_aniso_U_22
_atom_site_aniso_U_33
_atom_site_aniso_U_12
_atom_site_aniso_U_13
_atom_site_aniso_U_23
O1 0.0343(5) 0.0177(4) 0.0329(5) 0.0004(4) -0.0022(4) 0.0078(4)
O2 0.0274(5) 0.0214(4) 0.0261(5) 0.0008(3) -0.0026(4) 0.0117(4)
N1 0.0213(5) 0.0202(5) 0.0216(5) 0.0008(4) 0.0027(4) 0.0085(4)
N2 0.0251(5) 0.0212(5) 0.0221(5) 0.0004(4) 0.0041(4) 0.0100(4)
C1 0.0255(6) 0.0226(6) 0.0214(6) 0.0021(5) 0.0076(5) 0.0113(5)
C2 0.0323(7) 0.0219(6) 0.0241(6) -0.0002(5) 0.0063(5) 0.0085(5)
C3 0.0398(7) 0.0202(6) 0.0316(7) 0.0028(5) 0.0119(6) 0.0117(5)
C4 0.0340(7) 0.0266(7) 0.0321(7) 0.0082(5) 0.0112(5) 0.0185(5)
C5 0.0264(6) 0.0271(7) 0.0272(7) 0.0046(5) 0.0061(5) 0.0139(5)
C6 0.0224(6) 0.0208(6) 0.0230(6) 0.0021(4) 0.0079(5) 0.0097(5)
C7 0.0232(6) 0.0208(6) 0.0231(6) 0.0022(4) 0.0042(5) 0.0093(5)
C8 0.0228(6) 0.0207(6) 0.0228(6) 0.0026(4) 0.0045(5) 0.0103(5)
C9 0.0205(6) 0.0243(6) 0.0240(6) -0.0012(5) 0.0010(5) 0.0096(5)
C10 0.0292(7) 0.0329(7) 0.0234(7) 0.0007(5) 0.0019(5) 0.0084(5)
C11 0.0344(8) 0.0514(9) 0.0291(8) -0.0005(7) 0.0104(6) 0.0097(7)
C12 0.0251(6) 0.0252(6) 0.0248(7) -0.0007(5) -0.0008(5) 0.0098(5)
C13 0.0216(6) 0.0284(6) 0.0295(7) 0.0022(5) 0.0020(5) 0.0132(5)
C14 0.0260(6) 0.0405(8) 0.0363(8) 0.0031(6) 0.0000(5) 0.0221(7)
loop_
_atom_type_symbol
_atom_type_description
_atom_type_scat_dispersion_real
_atom_type_scat_dispersion_imag
_atom_type_scat_source
C C 0.0181 0.0091 'International Tables Vol C Tables 4.2.6.8 and 6.1.1.4'
H H 0.0000 0.0000 'International Tables Vol C Tables 4.2.6.8 and 6.1.1.4'
N N 0.0311 0.0180 'International Tables Vol C Tables 4.2.6.8 and 6.1.1.4'
O O 0.0492 0.0322 'International Tables Vol C Tables 4.2.6.8 and 6.1.1.4'
loop_
_geom_angle_atom_site_label_1
_geom_angle_atom_site_label_2
_geom_angle_atom_site_label_3
_geom_angle
C8 O2 C12 116.73(9)
C7 N1 C6 122.40(10)
C7 N1 C9 116.37(10)
C6 N1 C9 121.22(10)
C8 N2 C1 117.14(10)
N2 C1 C2 118.74(11)
N2 C1 C6 122.05(11)
C2 C1 C6 119.20(11)
C3 C2 C1 121.01(12)
C3 C2 H2 121.9(10)
C1 C2 H2 117.0(10)
C2 C3 C4 119.59(12)
C2 C3 H3 119.8(10)
C4 C3 H3 120.5(10)
C5 C4 C3 120.71(12)
C5 C4 H4 119.4(12)
C3 C4 H4 119.9(12)
C4 C5 C6 120.05(12)
C4 C5 H5 119.7(10)
C6 C5 H5 120.2(10)
N1 C6 C5 122.36(11)
N1 C6 C1 118.22(11)
C5 C6 C1 119.41(11)
O1 C7 N1 123.43(11)
O1 C7 C8 122.73(11)
N1 C7 C8 113.85(10)
N2 C8 O2 122.93(11)
N2 C8 C7 126.24(11)
O2 C8 C7 110.83(10)
N1 C9 C10 113.87(10)
N1 C9 H9A 107.6(9)
C10 C9 H9A 111.8(9)
N1 C9 H9B 106.4(9)
C10 C9 H9B 110.4(9)
H9A C9 H9B 106.4(13)
C11 C10 C9 126.25(13)
C11 C10 H10 120.2(11)
C9 C10 H10 113.5(11)
C10 C11 H11A 122.6(11)
C10 C11 H11B 121.9(12)
H11A C11 H11B 115.5(16)
O2 C12 C13 106.27(10)
O2 C12 H12A 108.9(9)
C13 C12 H12A 112.5(9)
O2 C12 H12B 109.2(10)
C13 C12 H12B 111.7(10)
H12A C12 H12B 108.2(14)
C14 C13 C12 123.59(13)
C14 C13 H13 121.8(10)
C12 C13 H13 114.6(10)
C13 C14 H14A 122.2(10)
C13 C14 H14B 120.4(10)
H14A C14 H14B 117.4(14)
loop_
_geom_bond_atom_site_label_1
_geom_bond_atom_site_label_2
_geom_bond_distance
O1 C7 1.2202(15)
O2 C8 1.3385(15)
O2 C12 1.4494(15)
N1 C7 1.3713(16)
N1 C6 1.3982(15)
N1 C9 1.4688(15)
N2 C8 1.2812(16)
N2 C1 1.3971(16)
C1 C2 1.3993(17)
C1 C6 1.4080(17)
C2 C3 1.3769(19)
C2 H2 0.970(18)
C3 C4 1.394(2)
C3 H3 0.981(17)
C4 C5 1.3821(18)
C4 H4 0.943(19)
C5 C6 1.4026(17)
C5 H5 0.962(18)
C7 C8 1.4900(17)
C9 C10 1.4960(19)
C9 H9A 0.993(16)
C9 H9B 1.026(16)
C10 C11 1.317(2)
C10 H10 0.97(2)
C11 H11A 0.986(19)
C11 H11B 1.00(2)
C12 C13 1.4892(17)
C12 H12A 0.983(16)
C12 H12B 0.984(17)
C13 C14 1.316(2)
C13 H13 0.967(18)
C14 H14A 1.000(18)
C14 H14B 0.972(18)
loop_
_geom_hbond_atom_site_label_D
_geom_hbond_atom_site_label_H
_geom_hbond_atom_site_label_A
_geom_hbond_site_symmetry_A
_geom_hbond_distance_DH
_geom_hbond_distance_HA
_geom_hbond_distance_DA
_geom_hbond_angle_DHA
C10 H10 O1 2 0.97(2) 2.54(2) 3.4353(16) 152.4(15)
C12 H12B Cg2 2_666 0.984(17) 2.74(2) 3.5440(10) 139.0(10)
C13 H13 O1 2_656 0.967(18) 2.491(18) 3.2604(16) 136.4(14)
loop_
_geom_torsion_atom_site_label_1
_geom_torsion_atom_site_label_2
_geom_torsion_atom_site_label_3
_geom_torsion_atom_site_label_4
_geom_torsion
C8 N2 C1 C2 -179.10(11)
C8 N2 C1 C6 1.18(18)
N2 C1 C2 C3 -177.86(11)
C6 C1 C2 C3 1.87(19)
C1 C2 C3 C4 -1.1(2)
C2 C3 C4 C5 -0.4(2)
C3 C4 C5 C6 1.1(2)
C7 N1 C6 C5 179.27(11)
C9 N1 C6 C5 0.43(18)
C7 N1 C6 C1 -0.35(18)
C9 N1 C6 C1 -179.18(10)
C4 C5 C6 N1 -179.89(11)
C4 C5 C6 C1 -0.28(19)
N2 C1 C6 N1 -1.83(18)
C2 C1 C6 N1 178.45(11)
N2 C1 C6 C5 178.54(11)
C2 C1 C6 C5 -1.18(18)
C6 N1 C7 O1 -177.41(11)
C9 N1 C7 O1 1.48(18)
C6 N1 C7 C8 2.70(17)
C9 N1 C7 C8 -178.41(10)
C1 N2 C8 O2 -178.49(10)
C1 N2 C8 C7 1.61(19)
C12 O2 C8 N2 -3.60(18)
C12 O2 C8 C7 176.30(10)
O1 C7 C8 N2 176.57(12)
N1 C7 C8 N2 -3.54(19)
O1 C7 C8 O2 -3.33(18)
N1 C7 C8 O2 176.56(10)
C7 N1 C9 C10 -94.54(13)
C6 N1 C9 C10 84.37(14)
N1 C9 C10 C11 1.2(2)
C8 O2 C12 C13 -175.46(10)
O2 C12 C13 C14 -128.35(13)

_cod_database_fobs_code 1546699
