#------------------------------------------------------------------------------
#$Date: 2017-06-05 02:56:27 +0300 (Mon, 05 Jun 2017) $
#$Revision: 197356 $
#$URL: file:///home/coder/svn-repositories/cod/cif/1/54/62/1546211.cif $
#------------------------------------------------------------------------------
#
# This file is available in the Crystallography Open Database (COD),
# http://www.crystallography.net/
#
# All data on this site have been placed in the public domain by the
# contributors.
#
data_1546211
loop_
_publ_author_name
'Kumar, Gangam Srikanth'
'Kumar, Pravin'
'Kapur, Manmohan'
_publ_section_title
;
 Traceless Directing-Group Strategy in the Ru-Catalyzed, Formal [3 + 3]
 Annulation of Anilines with Allyl Alcohols: A One-Pot, Domino Approach
 for the Synthesis of Quinolines.
;
_journal_issue                   10
_journal_name_full               'Organic letters'
_journal_page_first              2494
_journal_page_last               2497
_journal_paper_doi               10.1021/acs.orglett.7b00715
_journal_volume                  19
_journal_year                    2017
_chemical_formula_moiety         'C16 H12 Br N'
_chemical_formula_sum            'C16 H12 Br N'
_chemical_formula_weight         298.17
_space_group_crystal_system      triclinic
_space_group_IT_number           2
_space_group_name_Hall           '-P 1'
_space_group_name_H-M_alt        'P -1'
_symmetry_space_group_name_Hall  '-P 1'
_symmetry_space_group_name_H-M   'P -1'
_atom_sites_solution_hydrogens   geom
_audit_creation_method           SHELXL-2014/6
_cell_angle_alpha                67.332(2)
_cell_angle_beta                 89.169(2)
_cell_angle_gamma                81.812(2)
_cell_formula_units_Z            2
_cell_length_a                   4.4612(2)
_cell_length_b                   11.7056(5)
_cell_length_c                   13.0331(5)
_cell_measurement_reflns_used    6614
_cell_measurement_temperature    296(2)
_cell_measurement_theta_max      25.05
_cell_measurement_theta_min      3.00
_cell_volume                     621.02(5)
_computing_cell_refinement       'Bruker SAINT'
_computing_data_collection       'Bruker APEX2'
_computing_data_reduction        'Bruker SAINT'
_computing_molecular_graphics    'Bruker SHELXTL'
_computing_publication_material  'Bruker SHELXTL'
_computing_structure_refinement  'SHELXL-2014 (Sheldrick 2014)'
_computing_structure_solution    'SHELXS-97 (Sheldrick 2008)'
_diffrn_ambient_temperature      296(2)
_diffrn_measured_fraction_theta_full 0.998
_diffrn_measured_fraction_theta_max 0.998
_diffrn_measurement_device_type  'Bruker APEX-II CCD'
_diffrn_measurement_method       '\f and \w scans'
_diffrn_radiation_type           MoK\a
_diffrn_radiation_wavelength     0.71073
_diffrn_reflns_av_R_equivalents  0.0184
_diffrn_reflns_av_unetI/netI     0.0152
_diffrn_reflns_Laue_measured_fraction_full 0.998
_diffrn_reflns_Laue_measured_fraction_max 0.998
_diffrn_reflns_limit_h_max       5
_diffrn_reflns_limit_h_min       -5
_diffrn_reflns_limit_k_max       13
_diffrn_reflns_limit_k_min       -13
_diffrn_reflns_limit_l_max       15
_diffrn_reflns_limit_l_min       -15
_diffrn_reflns_number            9852
_diffrn_reflns_point_group_measured_fraction_full 0.998
_diffrn_reflns_point_group_measured_fraction_max 0.998
_diffrn_reflns_theta_full        25.242
_diffrn_reflns_theta_max         25.066
_diffrn_reflns_theta_min         1.695
_exptl_absorpt_coefficient_mu    3.288
_exptl_absorpt_correction_T_max  0.454
_exptl_absorpt_correction_T_min  0.261
_exptl_absorpt_correction_type   multi-scan
_exptl_absorpt_process_details   MULTI-SCAN
_exptl_crystal_colour            YELLOW
_exptl_crystal_density_diffrn    1.594
_exptl_crystal_description       BLOCK
_exptl_crystal_F_000             300
_exptl_crystal_size_max          0.46
_exptl_crystal_size_mid          0.35
_exptl_crystal_size_min          0.24
_refine_diff_density_max         0.258
_refine_diff_density_min         -0.229
_refine_diff_density_rms         0.048
_refine_ls_extinction_method     none
_refine_ls_goodness_of_fit_ref   1.020
_refine_ls_hydrogen_treatment    constr
_refine_ls_matrix_type           full
_refine_ls_number_parameters     163
_refine_ls_number_reflns         2214
_refine_ls_number_restraints     0
_refine_ls_restrained_S_all      1.020
_refine_ls_R_factor_all          0.0187
_refine_ls_R_factor_gt           0.0176
_refine_ls_shift/su_max          0.000
_refine_ls_shift/su_mean         0.000
_refine_ls_structure_factor_coef Fsqd
_refine_ls_weighting_details
'w=1/[\s^2^(Fo^2^)+(0.0266P)^2^+0.3195P] where P=(Fo^2^+2Fc^2^)/3'
_refine_ls_weighting_scheme      calc
_refine_ls_wR_factor_gt          0.0471
_refine_ls_wR_factor_ref         0.0476
_reflns_Friedel_coverage         0.000
_reflns_number_gt                2114
_reflns_number_total             2214
_reflns_threshold_expression     'I > 2\s(I)'
_cod_data_source_file            ol7b00715_si_002.cif
_cod_data_source_block           SP-1
_cod_depositor_comments
;
The following automatic conversions were performed:

'_exptl_absorpt_correction_type' value 'MULTI-SCAN' changed to
'multi-scan' according to
/home/data/users/saulius/crontab/automatic-downloads/current/ACS/lib/dictionaries/cif_core.dic
dictionary named 'cif_core.dic' version 2.4.2 from 2011-04-26.

Automatic conversion script
Id: cif_fix_values 4973 2017-02-22 13:04:09Z antanas 
;
_cod_database_code               1546211
_shelx_space_group_comment
;
The symmetry employed for this shelxl refinement is uniquely defined
by the following loop, which should always be used as a source of
symmetry information in preference to the above space-group names.
They are only intended as comments.
;
_shelxl_version_number           2014/6
_shelx_res_file
;
TITL SP-1 in P-1
CELL 0.71073   4.46120  11.70560  13.03310  67.3315  89.1692  81.8122
ZERR    8.00   0.00020   0.00050   0.00050   0.0021   0.0022   0.0022
LATT 1
SFAC C  H  N  Br
UNIT 8  8  8  8
L.S. 30
ACTA
BOND
FMAP 2
PLAN 2
TEMP 23.000
WGHT    0.026600    0.319500
FVAR       0.22836
MOLE 1
BR1   4    1.460099    0.737969   -0.216979    11.00000    0.02367    0.02821 =
         0.02570   -0.01290    0.00389   -0.00176
C1    1    1.202418    0.755796   -0.104924    11.00000    0.01582    0.02351 =
         0.02112   -0.01149   -0.00191   -0.00132
C3    1    0.946867    0.667224    0.063958    11.00000    0.01712    0.01874 =
         0.01971   -0.00921   -0.00553    0.00036
C2    1    1.152271    0.653012   -0.015260    11.00000    0.01877    0.01860 =
         0.02341   -0.01099   -0.00555    0.00248
AFIX  43
H2    2    1.252195    0.574156   -0.006183    11.00000   -1.20000
AFIX   0
C4    1    1.059208    0.877536   -0.120829    11.00000    0.02281    0.01867 =
         0.02288   -0.00671   -0.00169   -0.00301
AFIX  43
H4    2    1.100054    0.946404   -0.182314    11.00000   -1.20000
AFIX   0
C7    1    0.874019    0.565297    0.157649    11.00000    0.02507    0.01711 =
         0.02266   -0.00780   -0.00548    0.00106
AFIX  43
H7    2    0.965313    0.484155    0.170573    11.00000   -1.20000
AFIX   0
C6    1    0.798709    0.788744    0.048995    11.00000    0.01623    0.02048 =
         0.02219   -0.01155   -0.00391   -0.00066
C9    1    0.537088    0.711575    0.209217    11.00000    0.01632    0.02585 =
         0.02307   -0.01275   -0.00332   -0.00354
C8    1    0.669027    0.586994    0.228782    11.00000    0.02411    0.02259 =
         0.02124   -0.00668   -0.00231   -0.00431
AFIX  43
H8    2    0.615758    0.520548    0.289851    11.00000   -1.20000
AFIX   0
C5    1    0.860193    0.892920   -0.044913    11.00000    0.02076    0.01615 =
         0.02593   -0.00867   -0.00293    0.00041
AFIX  43
H5    2    0.764306    0.972708   -0.055147    11.00000   -1.20000
AFIX   0
C10   1    0.328468    0.737638    0.292462    11.00000    0.01761    0.03033 =
         0.02947   -0.01347    0.00374   -0.00529
AFIX  23
H10A  2    0.225356    0.666082    0.330240    11.00000   -1.20000
H10B  2    0.176331    0.809427    0.253984    11.00000   -1.20000
AFIX   0
N1    3    0.597119    0.809077    0.122713    11.00000    0.01636    0.02195 =
         0.02380   -0.01141   -0.00183   -0.00080
C11   1    0.507601    0.763421    0.377020    11.00000    0.01498    0.02600 =
         0.02123   -0.01009    0.00832   -0.00402
C16   1    0.539353    0.884941    0.361823    11.00000    0.02439    0.02375 =
         0.02470   -0.00829    0.00358   -0.00101
AFIX  43
H16   2    0.443692    0.951444    0.300325    11.00000   -1.20000
AFIX   0
C12   1    0.655396    0.666362    0.469133    11.00000    0.03072    0.02445 =
         0.02680   -0.00517    0.00676   -0.00534
AFIX  43
H12   2    0.639770    0.584056    0.480316    11.00000   -1.20000
AFIX   0
C15   1    0.711165    0.908636    0.436779    11.00000    0.03383    0.03523 =
         0.03721   -0.02157    0.00739   -0.01059
AFIX  43
H15   2    0.730129    0.990740    0.425253    11.00000   -1.20000
AFIX   0
C14   1    0.854439    0.811529    0.528395    11.00000    0.02847    0.05724 =
         0.02674   -0.02287    0.00444   -0.01339
AFIX  43
H14   2    0.969527    0.827637    0.578870    11.00000   -1.20000
AFIX   0
C13   1    0.825480    0.690071    0.544533    11.00000    0.02941    0.04578 =
         0.02029   -0.00312    0.00011    0.00081
AFIX  43
H13   2    0.920741    0.623915    0.606366    11.00000   -1.20000
AFIX   0
HKLF 4

REM  SP-1 in P-1
REM R1 =  0.0176 for    2114 Fo > 4sig(Fo)  and  0.0187 for all    2211 data
REM    163 parameters refined using      0 restraints

END

WGHT      0.0198      0.3451

REM Highest difference peak  0.258,  deepest hole -0.229,  1-sigma level  0.048
Q1    1   0.8732  0.7230  0.0560  11.00000  0.05    0.26
Q2    1   0.5622  0.8193  0.3639  11.00000  0.05    0.24
;
_shelx_res_checksum              52806
_shelx_hkl_file
;
  -1   0   0  186.10    2.63
  -1   0   0  183.98    2.63
   1   0   0  188.16    2.65
   1   0   0  189.68    2.86
  -2   0   0   75.71    1.35
  -2   0   0   78.30    1.32
   2   0   0   77.26    1.25
   2   0   0   77.48    1.33
   2   0   0   75.80    1.22
   2   0   0   78.57    1.45
  -3   0   0   84.82    1.62
   3   0   0   84.19    1.60
   3   0   0   83.23    1.58
   3   0   0   86.31    1.40
   3   0   0   84.95    1.42
  -4   0   0    3.83    0.39
   4   0   0    3.96    0.38
   4   0   0    3.60    0.37
   4   0   0    3.50    0.16
  -5   0   0    3.16    0.42
   5   0   0    3.72    0.44
   5   0   0    3.77    0.45
   5  -1   0   10.26    0.61
   5  -1   0    9.87    0.62
  -5   1   0   10.52    0.66
   4  -1   0   17.64    0.48
   4  -1   0   17.68    0.69
   4  -1   0   17.98    0.68
  -4   1   0   17.74    0.72
   3  -1   0   11.07    0.38
   3  -1   0   12.14    0.48
   3  -1   0   10.84    0.44
   3  -1   0   10.62    0.39
  -3   1   0   10.30    0.47
   2  -1   0   18.04    0.48
   2  -1   0   18.69    0.50
   2  -1   0   16.60    0.44
   2  -1   0   17.21    0.44
  -2   1   0   17.10    0.51
  -2   1   0   17.80    0.48
   1  -1   0   11.65    0.28
   1  -1   0   11.62    0.29
   1  -1   0   11.23    0.28
  -1  -1   0   17.24    0.35
  -1  -1   0   16.99    0.34
   1   1   0   17.53    0.32
   1   1   0   16.71    0.34
   1   1   0   17.62    0.37
  -2  -1   0   16.07    0.43
  -2  -1   0   17.21    0.45
   2   1   0   16.81    0.53
   2   1   0   16.57    0.36
   2   1   0   15.69    0.45
  -3  -1   0    5.51    0.32
   3   1   0    4.50    0.30
   3   1   0    5.39    0.31
   3   1   0    5.39    0.20
  -4  -1   0    8.74    0.48
   4   1   0    8.68    0.47
   4   1   0    9.73    0.52
  -5  -1   0   15.52    0.73
   5   1   0   15.47    0.73
   5   1   0   15.40    0.75
   5  -2   0    0.28    0.24
   5  -2   0    0.19    0.23
  -5   2   0    0.38    0.25
   4  -2   0   44.66    1.19
   4  -2   0   44.15    1.15
  -4   2   0   45.78    1.25
   3  -2   0   58.95    1.14
   3  -2   0   56.98    1.16
   3  -2   0   58.63    1.22
   3  -2   0   58.43    1.25
  -3   2   0   58.47    1.30
   2  -2   0   88.69    1.52
   2  -2   0   90.63    1.56
   2  -2   0   90.99    1.52
   2  -2   0   91.83    1.52
  -2   2   0   91.23    1.61
   1  -2   0  281.69    3.93
   1  -2   0  288.90    3.99
   1  -2   0  277.63    3.99
  -1   2   0  282.19    3.99
   0  -2   0  682.11   10.02
  -1  -2   0  177.13    2.53
   1   2   0  181.96    2.55
   2   2   0   78.19    1.36
   2   2   0   78.06    1.28
   2   2   0   78.17    1.38
   2   2   0   81.73    1.17
  -3  -2   0   79.32    1.46
   3   2   0   76.72    1.51
   3   2   0   78.52    1.50
  -4  -2   0    0.12    0.15
   4   2   0    0.25    0.18
   4   2   0    0.36    0.17
  -5  -2   0    0.29    0.20
   5   2   0    0.01    0.20
   5   2   0    0.30    0.21
   4  -3   0    5.74    0.48
   4  -3   0    6.56    0.44
  -4   3   0    6.13    0.49
   3  -3   0   13.60    0.51
   3  -3   0   14.28    0.52
   3  -3   0   13.86    0.49
   3  -3   0   13.51    0.53
  -3   3   0   13.85    0.58
   2  -3   0   21.32    0.55
   2  -3   0   21.04    0.58
   2  -3   0   22.28    0.60
   2  -3   0   22.23    0.58
  -2   3   0   20.85    0.62
   1  -3   0   29.76    0.63
   1  -3   0   29.88    0.56
   0  -3   0    6.45    0.22
  -1  -3   0  111.49    1.68
   1   3   0  110.66    1.65
   2   3   0   50.52    1.01
   2   3   0   52.44    0.98
   2   3   0   50.73    0.91
  -3  -3   0   18.52    0.54
   3   3   0   18.12    0.58
   3   3   0   18.00    0.60
  -4  -3   0   17.40    0.63
   4   3   0   18.15    0.69
   4   3   0   17.40    0.68
   5   3   0   11.15    0.64
   5   3   0   10.63    0.64
   4  -4   0   34.51    1.00
   4  -4   0   34.25    1.00
   4  -4   0   32.41    1.03
  -4   4   0   35.18    1.12
   3  -4   0   61.14    1.29
   3  -4   0   62.88    1.36
   3  -4   0   63.14    1.29
   3  -4   0   63.03    1.35
  -3   4   0   60.67    1.42
   2  -4   0   52.92    1.02
   2  -4   0   54.26    1.13
   2  -4   0   54.01    1.11
   2  -4   0   53.56    1.10
  -2   4   0   52.90    1.15
   1  -4   0  254.30    3.74
   1  -4   0  250.01    3.73
   1  -4   0  256.11    3.78
   1  -4   0  253.59    3.58
  -1   4   0  261.93    3.74
  -1  -4   0  128.91    1.88
   1   4   0  127.49    1.89
  -2  -4   0   38.66    0.86
   2   4   0   40.40    0.88
   2   4   0   38.19    0.81
   2   4   0   38.35    0.82
  -3  -4   0   16.66    0.49
  -3  -4   0   16.70    0.60
   3   4   0   17.17    0.57
   3   4   0   16.79    0.60
   3   4   0   16.80    0.51
   4   4   0    4.53    0.41
   4   4   0    3.91    0.39
   5   4   0    0.96    0.28
   5   4   0    0.60    0.25
   4  -5   0    3.55    0.43
   4  -5   0    3.29    0.39
   4  -5   0    2.80    0.35
  -4   5   0    3.48    0.45
   3  -5   0    3.43    0.33
   3  -5   0    4.92    0.34
   3  -5   0    4.61    0.40
   3  -5   0    4.63    0.32
  -3   5   0    4.12    0.41
   2  -5   0    1.27    0.20
   2  -5   0    0.99    0.17
   2  -5   0    0.98    0.16
   2  -5   0    1.16    0.15
  -2   5   0    1.16    0.19
   1  -5   0    0.24    0.09
   1  -5   0    0.29    0.10
   1  -5   0    0.14    0.09
   1  -5   0    0.15    0.06
  -1   5   0    0.22    0.07
  -1   5   0    0.17    0.08
   0  -5   0   34.73    0.75
   0  -5   0   34.65    0.75
   0   5   0   34.37    0.58
   0   5   0   34.10    0.75
  -1  -5   0   44.56    0.91
  -1  -5   0   43.81    0.81
   1   5   0   44.27    0.93
   1   5   0   45.12    0.78
   1   5   0   44.35    0.91
  -2  -5   0  109.16    1.90
   2   5   0  109.30    1.80
   2   5   0  112.17    1.89
   2   5   0  110.08    1.91
  -3  -5   0   37.49    0.98
   3   5   0   39.48    0.93
   3   5   0   37.21    0.98
   3   5   0   37.22    0.89
  -4  -5   0   33.72    1.02
   4   5   0   32.31    1.00
   4   5   0   31.96    0.95
  -5  -5   0   22.36    0.92
   5   5   0   24.45    0.96
   5   5   0   22.87    0.90
   4  -6   0   11.30    0.64
   4  -6   0   11.11    0.63
  -4   6   0   11.04    0.69
   3  -6   0   30.24    0.93
   3  -6   0   29.97    0.95
   3  -6   0   31.51    0.83
  -3   6   0   31.19    0.99
   2  -6   0   51.00    1.19
   2  -6   0   50.07    0.99
   2  -6   0   51.97    1.17
   2  -6   0   50.57    1.15
  -2   6   0   49.38    1.17
   1  -6   0  104.00    1.88
   1  -6   0  107.44    1.87
   1  -6   0  106.84    1.62
   1  -6   0  104.32    1.85
  -1   6   0  105.49    1.62
  -1   6   0  106.01    1.77
  -1   6   0  104.18    1.79
   0  -6   0  100.09    1.72
   0  -6   0   98.91    1.72
   0   6   0  100.43    1.73
   0   6   0   97.46    1.46
  -1  -6   0   87.59    1.47
  -1  -6   0   87.18    1.57
   1   6   0   87.89    1.57
   1   6   0   86.88    1.37
   1   6   0   88.05    1.60
  -2  -6   0    6.37    0.35
   2   6   0    6.45    0.34
   2   6   0    6.33    0.29
   2   6   0    6.04    0.34
  -3  -6   0    8.81    0.47
   3   6   0    8.88    0.43
   3   6   0    8.23    0.44
   3   6   0    8.56    0.41
  -4  -6   0    7.08    0.49
   4   6   0    7.15    0.49
   4   6   0    8.97    0.51
  -5  -6   0    0.49    0.28
   5   6   0    0.21    0.25
   5   6   0    0.45    0.27
   3  -7   0    3.78    0.39
   3  -7   0    4.73    0.46
  -3   7   0    4.85    0.46
   2  -7   0    1.15    0.21
   2  -7   0    1.72    0.27
   2  -7   0    1.73    0.26
  -2   7   0    1.36    0.23
   1  -7   0    0.72    0.16
   1  -7   0    0.81    0.17
   1  -7   0    0.82    0.18
  -1   7   0    0.74    0.15
  -1   7   0    0.68    0.15
   0  -7   0   13.61    0.50
   0  -7   0   13.52    0.49
   0   7   0   12.70    0.49
  -1  -7   0   67.67    1.25
  -1  -7   0   69.04    1.35
   1   7   0   65.82    1.11
   1   7   0   67.26    1.38
  -2  -7   0   47.82    1.12
   2   7   0   49.14    1.14
   2   7   0   48.22    0.97
   2   7   0   48.33    1.12
  -3  -7   0   37.05    1.01
   3   7   0   33.38    0.93
   3   7   0   34.09    0.97
   3   7   0   33.04    0.87
  -4  -7   0   17.34    0.76
   4   7   0   17.32    0.76
   4   7   0   17.14    0.69
   3  -8   0   21.46    0.84
   3  -8   0   20.90    0.87
  -3   8   0   22.62    0.89
   2  -8   0   42.37    1.14
   2  -8   0   43.87    1.15
   2  -8   0   42.48    1.19
  -2   8   0   46.18    1.15
   1  -8   0   58.07    1.32
   1  -8   0   58.63    1.35
   1  -8   0   56.44    1.29
  -1   8   0   57.81    1.24
  -1   8   0   58.15    1.20
   0  -8   0   28.66    0.80
   0  -8   0   27.11    0.79
   0   8   0   26.45    0.78
  -1  -8   0   14.28    0.50
  -1  -8   0   15.00    0.56
   1   8   0   14.65    0.57
  -2  -8   0   10.98    0.51
   2   8   0   10.97    0.52
   2   8   0   10.57    0.50
  -3  -8   0    1.43    0.28
   3   8   0    2.18    0.27
   3   8   0    1.67    0.28
   3   8   0    1.80    0.28
  -4  -8   0    3.27    0.40
   4   8   0    3.54    0.38
   4   8   0    3.64    0.41
   3  -9   0    4.33    0.48
   3  -9   0    3.43    0.47
  -3   9   0    4.33    0.47
   2  -9   0    1.12    0.26
   2  -9   0    1.71    0.30
  -2   9   0    1.70    0.28
   1  -9   0    0.19    0.16
   1  -9   0    0.15    0.15
   1  -9   0   -0.02    0.13
  -1   9   0    0.20    0.13
   0  -9   0    0.14    0.14
   0  -9   0    0.36    0.17
   0   9   0    0.41    0.15
  -1  -9   0  119.49    2.09
  -1  -9   0  118.01    2.20
   1   9   0  118.25    2.24
  -2  -9   0   20.79    0.74
   2   9   0   20.66    0.74
   2   9   0   22.74    0.79
  -3  -9   0   14.96    0.69
   3   9   0   15.51    0.67
   3   9   0   16.17    0.70
  -4  -9   0   17.24    0.81
   4   9   0   17.81    0.75
   4   9   0   19.22    0.84
   2 -10   0   15.30    0.71
   2 -10   0   15.50    0.77
   1 -10   0   21.70    0.83
   1 -10   0   21.54    0.80
  -1  10   0   23.02    0.78
   0 -10   0    8.70    0.49
   0 -10   0    8.58    0.50
   0  10   0    8.55    0.49
  -1 -10   0    0.50    0.18
  -1 -10   0    0.60    0.19
   1  10   0    0.62    0.20
  -2 -10   0    1.79    0.29
   2  10   0    1.43    0.28
  -3 -10   0   -0.07    0.17
   3  10   0   -0.07    0.15
   3  10   0    0.08    0.19
   2 -11   0    1.45    0.33
   2 -11   0    0.53    0.28
   1 -11   0    2.26    0.35
   1 -11   0    1.62    0.32
  -1  11   0    1.73    0.30
   0 -11   0   10.70    0.59
   0 -11   0   10.48    0.60
   0  11   0   10.34    0.58
  -1 -11   0   31.10    0.95
  -1 -11   0   33.35    1.05
   1  11   0   33.57    1.07
  -2 -11   0   12.76    0.66
   2  11   0   11.81    0.65
  -3 -11   0   11.32    0.66
   3  11   0   11.22    0.66
   3  11   0   10.77    0.64
   1 -12   0    5.00    0.50
   1 -12   0    5.02    0.52
  -1  12   0    4.38    0.46
   0 -12   0   10.31    0.63
   0 -12   0   11.05    0.64
   0  12   0   10.36    0.62
  -1 -12   0    4.20    0.48
   1  12   0    4.23    0.47
  -2 -12   0    0.57    0.25
   2  12   0    0.43    0.23
   2  12  -1   12.64    0.72
  -2 -12   1   14.49    0.75
   1  12  -1   10.62    0.66
  -1 -12   1    9.67    0.62
   0  12  -1    3.13    0.42
   0 -12   1    3.96    0.46
   0 -12   1    2.94    0.39
   3  11  -1    0.06    0.19
  -3 -11   1   -0.03    0.21
   2  11  -1    0.07    0.18
  -2 -11   1    0.14    0.19
   1  11  -1    0.50    0.22
  -1 -11   1    0.59    0.22
   0  11  -1    2.59    0.35
   0 -11   1    3.48    0.41
   0 -11   1    2.65    0.36
  -1  11  -1   14.08    0.67
   1 -11   1   13.85    0.73
   1 -11   1   14.06    0.70
   3  10  -1   20.92    0.85
   3  10  -1   21.81    0.88
  -3 -10   1   23.02    0.90
   2  10  -1   12.33    0.63
  -2 -10   1   12.31    0.63
   1  10  -1    9.88    0.55
  -1 -10   1   10.41    0.51
  -1 -10   1    9.75    0.54
   0  10  -1   21.56    0.80
   0 -10   1   20.43    0.77
   0 -10   1   20.69    0.78
  -1  10  -1    5.71    0.42
   1 -10   1    6.21    0.47
   1 -10   1    4.26    0.43
   1 -10   1    5.28    0.48
   2 -10   1    3.74    0.42
   2 -10   1    3.84    0.48
   4   9  -1   10.27    0.62
   4   9  -1    9.50    0.59
  -4  -9   1   12.09    0.69
   3   9  -1   -0.05    0.16
   3   9  -1   -0.03    0.16
  -3  -9   1    0.14    0.18
   2   9  -1    0.01    0.13
  -2  -9   1    0.09    0.16
   1   9  -1    0.33    0.17
  -1  -9   1    0.28    0.16
  -1  -9   1    0.26    0.14
   0   9  -1   44.06    1.15
   0  -9   1   44.08    1.14
   0  -9   1   45.57    1.15
  -1   9  -1    2.35    0.29
   1  -9   1    1.81    0.29
   1  -9   1    1.72    0.28
   1  -9   1    1.41    0.27
  -2   9  -1   14.08    0.64
   2  -9   1   14.32    0.69
   2  -9   1   14.23    0.72
  -3   9  -1   20.72    0.90
   3  -9   1   19.59    0.88
   3  -9   1   20.21    0.92
   4   8  -1   15.42    0.69
   4   8  -1   15.88    0.75
   4   8  -1   16.42    0.69
  -4  -8   1   16.72    0.78
   3   8  -1   27.03    0.90
   3   8  -1   26.35    0.88
   3   8  -1   26.52    0.78
  -3  -8   1   26.08    0.89
   2   8  -1   25.80    0.84
   2   8  -1   26.47    0.82
  -2  -8   1   25.90    0.81
   1   8  -1   12.60    0.55
  -1  -8   1   11.63    0.51
  -1  -8   1   12.20    0.47
   0   8  -1   21.19    0.70
   0  -8   1   19.95    0.69
   0  -8   1   22.20    0.71
  -1   8  -1    2.19    0.27
   1  -8   1    2.19    0.28
   1  -8   1    2.58    0.31
   1  -8   1    1.98    0.30
  -2   8  -1    0.05    0.14
   2  -8   1    0.13    0.16
   2  -8   1    0.09    0.17
   2  -8   1    0.27    0.20
  -3   8  -1    2.48    0.39
   3  -8   1    1.74    0.35
   3  -8   1    2.02    0.36
   4   7  -1    1.35    0.28
   4   7  -1    1.26    0.28
  -4  -7   1    0.81    0.26
   3   7  -1    0.15    0.16
   3   7  -1    0.11    0.14
   3   7  -1    0.30    0.17
  -3  -7   1    0.20    0.16
   2   7  -1    1.40    0.18
   2   7  -1    1.53    0.24
   2   7  -1    1.22    0.21
  -2  -7   1    1.11    0.20
   1   7  -1    4.35    0.30
   1   7  -1    3.98    0.21
  -1  -7   1    3.86    0.29
  -1  -7   1    4.23    0.27
   0   7  -1   39.70    0.79
   0   7  -1   39.14    0.95
   0  -7   1   39.41    0.95
   0  -7   1   36.93    0.93
  -1   7  -1   15.70    0.53
  -1   7  -1   15.13    0.52
   1  -7   1   15.81    0.58
   1  -7   1   15.22    0.58
   1  -7   1   15.10    0.59
  -2   7  -1   35.10    0.97
   2  -7   1   33.80    0.95
   2  -7   1   35.51    1.03
   2  -7   1   34.67    0.98
  -3   7  -1   45.60    1.28
   3  -7   1   45.07    1.27
   3  -7   1   44.17    1.24
   4   6  -1   15.57    0.65
   4   6  -1   15.03    0.68
  -4  -6   1   14.85    0.68
   3   6  -1   35.37    0.93
   3   6  -1   35.87    0.91
   3   6  -1   34.62    0.96
  -3  -6   1   36.17    0.98
   2   6  -1    6.21    0.30
   2   6  -1    5.83    0.33
   2   6  -1    6.58    0.36
  -2  -6   1    6.59    0.36
   1   6  -1   22.86    0.67
   1   6  -1   23.75    0.53
  -1  -6   1   23.57    0.65
  -1  -6   1   24.77    0.60
   0   6  -1   25.27    0.68
   0   6  -1   25.20    0.52
   0  -6   1   25.83    0.68
  -1   6  -1    0.73    0.11
  -1   6  -1    0.63    0.14
  -1   6  -1    0.64    0.13
   1  -6   1    0.47    0.15
   1  -6   1    0.73    0.16
   1  -6   1    0.75    0.11
   1  -6   1    0.62    0.15
  -2   6  -1    0.87    0.16
  -2   6  -1    0.93    0.21
   2  -6   1    0.74    0.15
   2  -6   1    1.09    0.22
   2  -6   1    0.89    0.20
   2  -6   1    1.18    0.20
  -3   6  -1   -0.10    0.15
   3  -6   1    0.31    0.15
   3  -6   1    0.12    0.15
   3  -6   1   -0.04    0.18
  -4   6  -1    6.62    0.62
   4  -6   1    7.03    0.60
   4  -6   1    6.26    0.55
   5   5  -1   29.10    1.02
   5   5  -1   28.16    1.04
  -5  -5   1   30.84    1.08
   4   5  -1    0.42    0.19
   4   5  -1    0.51    0.21
  -4  -5   1    0.82    0.24
   3   5  -1    1.48    0.23
   3   5  -1    1.34    0.20
  -3  -5   1    0.92    0.20
   2   5  -1    1.30    0.19
   2   5  -1    0.73    0.14
   2   5  -1    0.99    0.14
  -2  -5   1    1.27    0.18
   1   5  -1  150.72    2.42
   1   5  -1  150.93    2.24
   1   5  -1  151.50    2.39
  -1  -5   1  150.55    2.39
  -1  -5   1  150.42    2.28
   0   5  -1   58.18    0.95
   0   5  -1   57.20    1.11
   0  -5   1   58.55    1.11
   0  -5   1   57.41    1.11
  -1   5  -1   62.16    1.23
  -1   5  -1   61.01    1.05
   1  -5   1   61.27    1.24
   1  -5   1   58.88    1.19
   1  -5   1   61.21    1.20
   1  -5   1   60.48    1.24
   1  -5   1   61.89    1.05
  -2   5  -1   26.27    0.78
   2  -5   1   27.68    0.75
   2  -5   1   27.28    0.66
   2  -5   1   27.03    0.77
   2  -5   1   26.45    0.78
  -3   5  -1   29.70    0.96
   3  -5   1   30.99    0.94
   3  -5   1   31.25    0.93
   3  -5   1   30.28    0.84
   3  -5   1   31.10    0.84
  -4   5  -1   18.61    0.85
   4  -5   1   19.89    0.82
   4  -5   1   19.00    0.79
   4  -5   1   19.71    0.75
   5   4  -1   12.38    0.67
   5   4  -1   14.45    0.73
  -5  -4   1   12.58    0.70
   4   4  -1   37.37    1.04
   4   4  -1   37.01    1.06
  -4  -4   1   36.51    1.04
   3   4  -1   43.06    1.03
   3   4  -1   42.61    0.93
   3   4  -1   40.68    0.98
  -3  -4   1   42.05    1.02
   2   4  -1    2.81    0.21
   2   4  -1    3.30    0.21
   2   4  -1    3.32    0.23
  -2  -4   1    3.19    0.23
   1   4  -1   22.11    0.48
   1   4  -1   22.50    0.56
   1   4  -1   22.88    0.58
  -1  -4   1   21.96    0.47
   0   4  -1   45.46    0.75
   0  -4   1   44.13    0.86
   0  -4   1   44.86    0.90
  -1   4  -1   78.34    1.30
  -1   4  -1   81.71    1.42
   1  -4   1   81.18    1.46
   1  -4   1   82.44    1.44
   1  -4   1   81.72    1.41
   1  -4   1   82.60    1.46
   1  -4   1   80.47    1.41
   1  -4   1   80.99    1.30
  -2   4  -1    0.20    0.11
   2  -4   1    0.29    0.10
   2  -4   1    0.22    0.13
   2  -4   1    0.17    0.10
   2  -4   1    0.22    0.09
  -3   4  -1    2.22    0.29
   3  -4   1    1.95    0.24
   3  -4   1    2.19    0.27
   3  -4   1    2.30    0.25
   3  -4   1    1.99    0.27
  -4   4  -1   10.88    0.62
   4  -4   1   11.39    0.61
   4  -4   1   11.03    0.57
   4  -4   1   11.02    0.58
   5   3  -1   -0.21    0.21
   5   3  -1    0.32    0.23
   4   3  -1    0.84    0.23
   4   3  -1    0.50    0.20
  -4  -3   1    0.65    0.18
   3   3  -1    5.16    0.31
   3   3  -1    5.48    0.22
   3   3  -1    5.44    0.27
   3   3  -1    5.85    0.34
  -3  -3   1    5.53    0.29
   2   3  -1   28.31    0.63
   2   3  -1   28.01    0.59
   2   3  -1   28.01    0.65
   2   3  -1   28.19    0.68
  -2  -3   1   28.23    0.68
   1   3  -1  142.73    2.13
   1   3  -1  147.08    2.18
  -1  -3   1  145.64    2.21
   0   3  -1  167.69    2.36
   0  -3   1  163.67    2.46
   0  -3   1  169.41    2.50
  -1   3  -1   94.90    1.64
  -1   3  -1   99.00    1.52
   1  -3   1   98.59    1.57
   1  -3   1   96.32    1.62
   1  -3   1   94.81    1.49
   1  -3   1   96.67    1.68
  -2   3  -1    4.25    0.28
   2  -3   1    4.10    0.26
   2  -3   1    4.08    0.24
   2  -3   1    5.07    0.29
   2  -3   1    4.29    0.24
  -3   3  -1   30.83    0.91
   3  -3   1   30.39    0.86
   3  -3   1   31.43    0.76
   3  -3   1   29.77    0.83
   3  -3   1   31.17    0.82
  -4   3  -1   14.10    0.68
   4  -3   1   12.44    0.63
   4  -3   1   12.96    0.59
   4  -3   1   13.93    0.65
   5   2  -1   29.70    1.03
   5   2  -1   27.29    0.99
  -5  -2   1   26.85    0.95
   4   2  -1   53.11    1.27
   4   2  -1   52.02    1.26
  -4  -2   1   51.19    1.22
   3   2  -1   78.62    1.31
   3   2  -1   78.97    1.52
   3   2  -1   80.77    1.53
  -3  -2   1   80.52    1.47
   2   2  -1   51.40    0.97
   2   2  -1   52.26    1.00
   2   2  -1   53.60    0.93
   2   2  -1   53.20    1.01
  -2  -2   1   51.89    0.87
   1   2  -1   58.13    0.97
   1   2  -1   58.21    0.96
  -1  -2   1   58.02    0.99
   0   2  -1    3.46    0.16
   0  -2   1    3.89    0.17
  -1   2  -1   74.92    1.23
   1  -2   1   73.43    1.25
   1  -2   1   74.99    1.21
   1  -2   1   73.73    1.18
  -2   2  -1    5.06    0.29
   2  -2   1    5.41    0.24
   2  -2   1    5.10    0.27
   2  -2   1    6.14    0.30
   2  -2   1    5.81    0.26
  -3   2  -1    9.78    0.48
   3  -2   1    9.95    0.44
   3  -2   1   10.05    0.36
   3  -2   1   10.19    0.46
   3  -2   1   10.34    0.43
  -4   2  -1    4.51    0.46
   4  -2   1    4.57    0.41
   4  -2   1    3.65    0.22
   4  -2   1    3.23    0.36
  -5   2  -1   58.65    1.64
   5  -2   1   60.94    1.57
   5  -2   1   60.68    1.61
   5   1  -1   -0.31    0.19
   5   1  -1   -0.14    0.19
  -5  -1   1    0.16    0.19
   4   1  -1    0.77    0.11
   4   1  -1    0.79    0.21
   4   1  -1    0.60    0.19
  -4  -1   1    0.54    0.18
   3   1  -1   23.33    0.67
   3   1  -1   23.41    0.57
   3   1  -1   23.11    0.67
  -3  -1   1   23.53    0.67
   2   1  -1   56.98    1.07
   2   1  -1   57.90    1.02
   2   1  -1   57.23    1.04
  -2  -1   1   58.21    1.05
   1   1  -1    9.57    0.26
   1   1  -1    9.58    0.27
  -1  -1   1    9.76    0.24
  -1  -1   1    9.69    0.27
   0   1  -1    7.87    0.21
   0  -1   1    8.06    0.20
  -1   1  -1  105.95    1.59
   1  -1   1  104.22    1.61
   1  -1   1  106.11    1.56
   1  -1   1  106.31    1.59
   1  -1   1  105.18    1.58
  -2   1  -1   35.89    0.81
   2  -1   1   35.44    0.78
   2  -1   1   35.51    0.68
   2  -1   1   35.39    0.68
   2  -1   1   34.41    0.75
   2  -1   1   34.74    0.74
   2  -1   1   36.20    0.81
  -3   1  -1   43.27    1.06
   3  -1   1   43.97    0.83
   3  -1   1   44.39    1.01
   3  -1   1   44.25    0.95
   3  -1   1   44.95    1.05
  -4   1  -1   13.13    0.62
   4  -1   1   13.65    0.61
   4  -1   1   13.17    0.61
  -5   1  -1    0.20    0.24
   5  -1   1    0.56    0.27
   5  -1   1    0.46    0.25
   5   0  -1   16.49    0.75
   5   0  -1   15.75    0.76
  -5   0   1   17.27    0.79
   4   0  -1   29.99    0.90
   4   0  -1   28.87    0.89
   4   0  -1   29.62    0.69
  -4   0   1   29.28    0.91
   3   0  -1  112.55    1.96
   3   0  -1  112.11    1.75
   3   0  -1  113.22    1.84
   3   0  -1  109.30    1.95
  -3   0   1  111.99    1.99
   2   0  -1   72.23    1.27
   2   0  -1   73.19    1.25
   2   0  -1   71.91    1.26
   2   0  -1   73.13    1.14
  -2   0   1   74.89    1.29
  -2   0   1   74.49    1.30
   1   0  -1   12.80    0.31
   1   0  -1   12.76    0.31
   1   0  -1   13.21    0.32
   1   0  -1   13.02    0.25
  -1   0   1   12.32    0.31
  -1   0   1   13.16    0.32
   0   0  -1   46.11    0.63
   0   0  -1   46.29    0.67
   0   0   1   36.85    0.61
  -1   0  -1  225.70    3.28
   1   0   1  216.52    3.18
   1   0   1  223.02    3.24
   1   0   1  221.97    3.19
   1   0   1  223.57    3.11
   1   0   1  220.42    3.12
  -2   0  -1   14.42    0.44
   2   0   1   13.95    0.30
   2   0   1   14.21    0.44
   2   0   1   14.09    0.38
   2   0   1   13.53    0.41
   2   0   1   13.92    0.31
   2   0   1   14.21    0.31
  -3   0  -1   28.58    0.80
   3   0   1   27.68    0.78
   3   0   1   28.39    0.66
   3   0   1   29.77    0.52
   3   0   1   29.39    0.77
   3   0   1   28.29    0.51
  -4   0  -1   33.35    0.99
   4   0   1   31.91    0.94
   4   0   1   32.09    0.96
  -5   0  -1   38.08    1.21
   5   0   1   38.75    1.19
   5   0   1   37.01    1.20
   5  -1  -1    0.51    0.24
   5  -1  -1    0.30    0.24
  -5   1   1    0.29    0.23
   4  -1  -1    4.19    0.27
   4  -1  -1    3.77    0.36
   4  -1  -1    4.30    0.39
  -4   1   1    4.13    0.39
   3  -1  -1   47.14    0.92
   3  -1  -1   46.63    1.04
   3  -1  -1   46.64    0.97
   3  -1  -1   47.45    1.05
  -3   1   1   44.65    1.07
   2  -1  -1   67.24    1.20
   2  -1  -1   66.60    1.18
   2  -1  -1   67.63    1.12
  -2   1   1   67.65    1.22
  -2   1   1   66.95    1.24
   1  -1  -1    3.55    0.15
   1  -1  -1    3.58    0.14
   1  -1  -1    3.44    0.16
  -1   1   1    3.40    0.16
  -1   1   1    3.38    0.16
   0  -1  -1   39.35    0.57
   0   1   1   39.67    0.57
  -1  -1  -1   58.75    0.87
  -1  -1  -1   57.48    0.87
  -1  -1  -1   58.98    0.81
   1   1   1   58.70    0.94
  -2  -1  -1   49.65    0.89
  -2  -1  -1   48.37    0.94
   2   1   1   48.51    0.94
   2   1   1   49.21    0.95
   2   1   1   49.77    0.97
   2   1   1   48.46    0.83
  -3  -1  -1   42.64    0.98
   3   1   1   41.46    0.96
   3   1   1   41.22    0.98
   3   1   1   40.92    0.80
  -4  -1  -1   25.44    0.83
   4   1   1   25.11    0.81
   4   1   1   24.53    0.83
  -5  -1  -1    2.26    0.36
   5   1   1    3.62    0.45
   5   1   1    3.86    0.46
   5  -2  -1    7.47    0.56
   5  -2  -1    7.31    0.53
  -5   2   1    6.09    0.58
   4  -2  -1   69.10    1.52
   4  -2  -1   69.18    1.54
  -4   2   1   70.42    1.62
   3  -2  -1   19.07    0.57
   3  -2  -1   19.17    0.61
   3  -2  -1   19.13    0.56
   3  -2  -1   18.74    0.60
  -3   2   1   19.62    0.66
   2  -2  -1   22.44    0.55
   2  -2  -1   23.14    0.58
   2  -2  -1   23.99    0.59
   2  -2  -1   22.92    0.56
  -2   2   1   24.07    0.61
   1  -2  -1    2.61    0.15
   1  -2  -1    2.48    0.12
   1  -2  -1    2.43    0.14
  -1   2   1    2.46    0.14
   1   2   1   52.30    0.78
   1   2   1   53.37    0.86
  -2  -2  -1   36.70    0.60
  -2  -2  -1   36.36    0.71
   2   2   1   36.84    0.77
   2   2   1   37.88    0.80
  -3  -2  -1   43.31    0.97
   3   2   1   43.27    1.02
   3   2   1   43.61    0.99
  -4  -2  -1   71.97    1.53
   4   2   1   71.49    1.54
   4   2   1   70.66    1.58
  -5  -2  -1   15.40    0.72
   5   2   1   15.62    0.75
   5   2   1   15.45    0.75
   4  -3  -1    5.74    0.47
   4  -3  -1    5.49    0.41
  -4   3   1    5.01    0.48
   3  -3  -1   34.51    0.89
   3  -3  -1   35.32    0.87
   3  -3  -1   34.95    0.86
   3  -3  -1   35.43    0.86
  -3   3   1   34.22    0.95
   2  -3  -1  112.24    1.83
   2  -3  -1  114.81    1.89
   2  -3  -1  112.67    1.88
   2  -3  -1  113.90    1.88
  -2   3   1  113.50    1.95
  -2   3   1  115.34    1.93
   1  -3  -1   59.22    0.95
   1  -3  -1   59.80    1.06
   1  -3  -1   60.46    1.05
  -1   3   1   60.49    1.06
   0  -3  -1  123.35    1.83
   1   3   1  106.06    1.57
   2   3   1   34.26    0.73
   2   3   1   35.48    0.63
   2   3   1   34.44    0.78
  -3  -3  -1   50.83    1.04
   3   3   1   48.85    1.11
   3   3   1   50.61    1.09
  -4  -3  -1   17.42    0.64
   4   3   1   17.77    0.70
   4   3   1   17.25    0.67
  -5  -3  -1    0.75    0.23
   5   3   1    0.43    0.23
   5   3   1    0.58    0.26
   4  -4  -1   71.67    1.62
   4  -4  -1   72.91    1.57
  -4   4   1   70.59    1.71
   3  -4  -1    7.42    0.40
   3  -4  -1    6.77    0.37
   3  -4  -1    7.21    0.39
   3  -4  -1    6.82    0.38
  -3   4   1    6.79    0.42
   2  -4  -1    5.81    0.31
   2  -4  -1    6.07    0.27
   2  -4  -1    5.62    0.30
   2  -4  -1    5.81    0.31
  -2   4   1    5.44    0.32
   1  -4  -1   61.49    1.13
   1  -4  -1   61.02    1.11
   1  -4  -1   60.80    0.97
  -1   4   1   60.34    1.10
   0  -4  -1   16.31    0.41
  -1  -4  -1    8.11    0.23
   1   4   1    8.08    0.23
  -2  -4  -1   43.58    0.92
   2   4   1   42.36    0.85
   2   4   1   41.54    0.75
   2   4   1   42.15    0.91
  -3  -4  -1   26.96    0.66
   3   4   1   26.97    0.64
   3   4   1   27.18    0.73
   3   4   1   26.26    0.77
   4   4   1   27.83    0.88
   4   4   1   30.77    0.95
   5   4   1   16.22    0.79
   5   4   1   16.35    0.77
   4  -5  -1   12.85    0.60
   4  -5  -1   12.71    0.63
   4  -5  -1   13.43    0.63
  -4   5   1   12.39    0.69
   3  -5  -1   44.55    1.11
   3  -5  -1   46.88    1.13
   3  -5  -1   46.14    1.04
   3  -5  -1   45.39    1.10
  -3   5   1   43.29    1.17
   2  -5  -1   78.50    1.49
   2  -5  -1   76.99    1.36
   2  -5  -1   79.64    1.51
   2  -5  -1   79.36    1.53
  -2   5   1   77.47    1.53
   1  -5  -1   34.23    0.78
   1  -5  -1   35.43    0.62
   1  -5  -1   35.51    0.77
   1  -5  -1   34.97    0.80
  -1   5   1   34.83    0.76
   0  -5  -1   31.18    0.68
  -1  -5  -1   23.63    0.58
  -1  -5  -1   23.60    0.51
   1   5   1   23.04    0.59
   1   5   1   24.01    0.46
   1   5   1   23.52    0.58
  -2  -5  -1  113.35    1.93
  -2  -5  -1  113.98    1.64
   2   5   1  112.22    1.82
   2   5   1  111.64    1.88
   2   5   1  110.80    1.72
   2   5   1  113.17    1.93
  -3  -5  -1   13.48    0.54
   3   5   1   14.07    0.56
   3   5   1   14.06    0.47
   3   5   1   13.68    0.51
  -4  -5  -1    3.33    0.39
   4   5   1    3.36    0.35
   4   5   1    3.25    0.37
  -5  -5  -1    0.07    0.22
   5   5   1    0.09    0.20
   5   5   1   -0.18    0.17
   4  -6  -1    9.94    0.59
   4  -6  -1    8.72    0.56
  -4   6   1    9.97    0.64
   3  -6  -1   11.92    0.55
   3  -6  -1   11.58    0.55
   3  -6  -1   12.13    0.49
   3  -6  -1   11.35    0.56
  -3   6   1   12.37    0.61
   2  -6  -1    0.90    0.20
   2  -6  -1    0.44    0.14
   2  -6  -1    0.60    0.12
   2  -6  -1    0.50    0.15
  -2   6   1    0.51    0.15
   1  -6  -1    4.13    0.28
   1  -6  -1    4.41    0.28
   1  -6  -1    4.41    0.18
   1  -6  -1    4.34    0.27
  -1   6   1    4.36    0.18
  -1   6   1    4.24    0.24
   0  -6  -1    3.56    0.22
   0  -6  -1    3.21    0.23
   0   6   1    3.23    0.22
  -1  -6  -1   44.37    0.95
  -1  -6  -1   45.87    0.88
   1   6   1   45.14    0.77
   1   6   1   46.93    0.97
   1   6   1   45.93    0.98
  -2  -6  -1   64.49    1.06
  -2  -6  -1   63.48    1.30
   2   6   1   63.76    1.17
   2   6   1   66.27    1.29
   2   6   1   64.22    1.30
  -3  -6  -1    9.32    0.47
   3   6   1    9.44    0.47
   3   6   1    8.56    0.41
  -4  -6  -1   37.33    1.12
   4   6   1   39.88    1.08
   4   6   1   39.87    1.15
  -5  -6  -1   19.49    0.88
   5   6   1   22.40    0.89
   5   6   1   22.12    0.93
   4  -7  -1    9.65    0.60
   4  -7  -1    9.04    0.58
  -4   7   1    8.65    0.63
   3  -7  -1   22.48    0.83
   3  -7  -1   22.69    0.81
  -3   7   1   19.60    0.81
   2  -7  -1   36.86    0.99
   2  -7  -1   36.75    0.97
   2  -7  -1   38.22    1.03
  -2   7   1   36.92    0.98
   1  -7  -1   53.83    1.15
   1  -7  -1   52.80    1.16
   1  -7  -1   53.85    1.20
  -1   7   1   54.27    1.10
  -1   7   1   52.72    1.09
   0  -7  -1   53.85    1.12
   0  -7  -1   54.06    1.12
   0   7   1   53.78    1.12
  -1  -7  -1   29.15    0.75
  -1  -7  -1   28.50    0.67
   1   7   1   26.92    0.75
   1   7   1   28.41    0.55
   1   7   1   28.77    0.74
  -2  -7  -1   54.71    1.21
   2   7   1   56.74    1.22
   2   7   1   54.38    1.20
   2   7   1   56.77    1.06
  -3  -7  -1    2.88    0.33
   3   7   1    2.30    0.25
   3   7   1    2.68    0.30
   3   7   1    3.03    0.30
  -4  -7  -1    0.47    0.22
   4   7   1    0.53    0.21
   4   7   1    0.28    0.19
   3  -8  -1    1.71    0.31
   3  -8  -1    1.87    0.34
  -3   8   1    2.06    0.33
   2  -8  -1    8.49    0.49
   2  -8  -1    8.32    0.47
   2  -8  -1    7.74    0.48
  -2   8   1    8.55    0.47
   1  -8  -1   17.95    0.63
   1  -8  -1   16.58    0.62
   1  -8  -1   15.90    0.62
  -1   8   1   17.30    0.57
  -1   8   1   17.13    0.55
   0  -8  -1    3.45    0.30
   0  -8  -1    3.95    0.30
   0   8   1    3.18    0.29
  -1  -8  -1   21.34    0.66
  -1  -8  -1   19.85    0.58
   1   8   1   20.60    0.67
  -2  -8  -1   19.46    0.67
   2   8   1   20.63    0.69
   2   8   1   20.12    0.68
  -3  -8  -1   21.03    0.78
   3   8   1   21.58    0.66
   3   8   1   21.44    0.74
   3   8   1   20.74    0.77
  -4  -8  -1   37.98    1.16
   4   8   1   34.65    1.13
   4   8   1   37.48    1.05
   3  -9  -1    4.91    0.52
   3  -9  -1    4.62    0.49
  -3   9   1    4.36    0.48
   2  -9  -1   36.89    1.09
   2  -9  -1   36.92    1.06
   2  -9  -1   36.29    1.12
  -2   9   1   37.55    1.05
   1  -9  -1   51.02    1.23
   1  -9  -1   48.74    1.24
   1  -9  -1   48.76    1.23
  -1   9   1   52.66    1.18
   0  -9  -1   35.39    0.96
   0  -9  -1   37.00    0.97
   0   9   1   36.54    0.97
  -1  -9  -1   92.84    1.82
  -1  -9  -1   96.18    1.74
   1   9   1   92.29    1.85
  -2  -9  -1    6.42    0.41
   2   9   1    5.72    0.39
   2   9   1    6.03    0.41
  -3  -9  -1    3.08    0.39
   3   9   1    2.85    0.35
   3   9   1    2.93    0.36
  -4  -9  -1    0.99    0.27
   4   9   1    0.83    0.25
   4   9   1    1.04    0.26
   2 -10  -1   12.03    0.63
   2 -10  -1   11.48    0.65
   1 -10  -1    7.84    0.48
   1 -10  -1    9.05    0.56
  -1  10   1    9.46    0.49
   0 -10  -1    8.13    0.46
   0 -10  -1    7.55    0.45
   0  10   1    7.18    0.44
  -1 -10  -1   20.78    0.75
  -1 -10  -1   22.78    0.72
   1  10   1   21.74    0.78
  -2 -10  -1    3.76    0.39
   2  10   1    3.86    0.39
   2  10   1    3.72    0.38
  -3 -10  -1   12.08    0.64
   3  10   1   11.50    0.61
   3  10   1    9.66    0.57
  -4 -10  -1   11.92    0.71
   4  10   1   10.83    0.63
   4  10   1   11.85    0.69
   2 -11  -1   19.08    0.87
   2 -11  -1   17.08    0.79
   1 -11  -1   18.94    0.81
   1 -11  -1   18.58    0.76
  -1  11   1   18.65    0.74
   0 -11  -1   14.42    0.66
   0 -11  -1   13.30    0.64
   0  11   1   11.76    0.61
  -1 -11  -1   49.04    1.28
  -1 -11  -1   49.52    1.22
   1  11   1   48.88    1.31
  -2 -11  -1    6.81    0.49
   2  11   1    6.53    0.50
  -3 -11  -1    2.02    0.36
   3  11   1    1.42    0.33
   3  11   1    1.89    0.34
   1 -12  -1    4.47    0.46
   1 -12  -1    3.49    0.45
  -1  12   1    4.39    0.45
   0 -12  -1    4.41    0.47
   0 -12  -1    5.82    0.51
   0  12   1    4.44    0.46
  -1 -12  -1   13.13    0.70
  -1 -12  -1   13.80    0.69
   1  12   1   14.37    0.71
  -2 -12  -1   10.09    0.62
   2  12   1   10.36    0.63
   0 -13  -1   15.45    0.76
   0 -13  -1   16.04    0.79
   0  13   1   15.30    0.76
  -1 -13  -1    1.58    0.34
   1  13   1    1.47    0.34
   1  12  -2    0.16    0.21
  -1 -12   2    0.20    0.23
   2  11  -2   14.47    0.75
  -2 -11   2   14.25    0.72
   1  11  -2   23.41    0.93
  -1 -11   2   21.41    0.86
   0  11  -2   13.59    0.68
   0 -11   2   14.09    0.69
   0 -11   2   14.52    0.72
  -1  11  -2   22.38    0.86
   1 -11   2   23.10    0.94
   1 -11   2   21.35    0.92
   3  10  -2    0.00    0.20
   3  10  -2   -0.22    0.18
  -3 -10   2    0.03    0.21
   2  10  -2    0.26    0.21
  -2 -10   2    0.09    0.19
   1  10  -2    0.23    0.20
  -1 -10   2    0.47    0.18
  -1 -10   2    0.37    0.21
   0  10  -2    7.05    0.48
   0 -10   2    7.66    0.49
   0 -10   2    7.16    0.48
  -1  10  -2   12.58    0.61
   1 -10   2   12.59    0.67
   1 -10   2   12.44    0.66
   2 -10   2    7.17    0.62
   2 -10   2    6.99    0.63
   3   9  -2   25.32    0.94
   3   9  -2   27.44    0.95
  -3  -9   2   26.78    0.94
   2   9  -2   23.88    0.87
  -2  -9   2   24.59    0.84
   1   9  -2   24.78    0.87
  -1  -9   2   26.47    0.86
  -1  -9   2   24.65    0.77
   0   9  -2  115.40    2.24
   0  -9   2  120.02    2.24
   0  -9   2  113.41    2.23
  -1   9  -2   19.57    0.71
   1  -9   2   19.18    0.76
   1  -9   2   18.91    0.75
   1  -9   2   18.37    0.77
   2  -9   2    5.89    0.54
   2  -9   2    5.62    0.52
   4   8  -2    0.16    0.19
   4   8  -2    0.24    0.21
   4   8  -2    0.55    0.23
  -4  -8   2    0.44    0.24
   3   8  -2    0.42    0.18
   3   8  -2    0.28    0.18
   3   8  -2    0.55    0.21
  -3  -8   2    0.22    0.18
   2   8  -2    0.76    0.21
   2   8  -2    1.11    0.27
  -2  -8   2    0.61    0.19
   1   8  -2   27.10    0.85
  -1  -8   2   27.66    0.76
  -1  -8   2   25.19    0.80
   0   8  -2   31.43    0.90
   0  -8   2   29.54    0.88
   0  -8   2   31.15    0.89
  -1   8  -2   10.49    0.49
   1  -8   2    9.95    0.51
   1  -8   2   11.29    0.57
   1  -8   2   10.59    0.53
  -2   8  -2   13.11    0.61
   2  -8   2   11.97    0.63
   2  -8   2   13.85    0.66
  -3   8  -2    7.78    0.56
   3  -8   2    8.36    0.62
   3  -8   2    8.50    0.59
   4   7  -2   21.70    0.80
   4   7  -2   21.12    0.85
   4   7  -2   22.43    0.81
  -4  -7   2   21.67    0.86
   3   7  -2   39.78    1.00
   3   7  -2   37.15    1.05
   3   7  -2   39.42    1.07
  -3  -7   2   36.76    1.05
   2   7  -2   48.38    1.16
   2   7  -2   48.60    1.19
   2   7  -2   49.68    1.03
  -2  -7   2   48.39    1.16
   1   7  -2   39.19    0.81
   1   7  -2   39.16    1.00
  -1  -7   2   40.50    0.91
  -1  -7   2   39.01    0.98
   0   7  -2  205.93    3.31
   0   7  -2  205.53    3.03
   0  -7   2  209.99    3.31
   0  -7   2  199.92    3.29
  -1   7  -2   29.60    0.80
  -1   7  -2   29.08    0.79
   1  -7   2   29.93    0.86
   1  -7   2   31.13    0.87
   1  -7   2   31.05    0.90
  -2   7  -2    7.11    0.44
   2  -7   2    7.36    0.44
   2  -7   2    6.97    0.46
   2  -7   2    7.60    0.48
  -3   7  -2    6.65    0.52
   3  -7   2    7.30    0.50
   3  -7   2    7.01    0.52
   4   6  -2    1.73    0.31
   4   6  -2    2.26    0.33
  -4  -6   2    1.79    0.33
   3   6  -2    0.99    0.19
   3   6  -2    0.90    0.20
   3   6  -2    1.02    0.22
  -3  -6   2    0.70    0.19
   2   6  -2    1.28    0.18
   2   6  -2    1.20    0.19
   2   6  -2    0.93    0.18
  -2  -6   2    1.41    0.21
   1   6  -2    9.00    0.41
   1   6  -2    9.12    0.32
  -1  -6   2    8.93    0.40
  -1  -6   2    9.79    0.37
   0   6  -2   44.94    0.84
   0   6  -2   45.62    1.01
   0  -6   2   45.16    1.01
   0  -6   2   43.58    0.99
  -1   6  -2   41.09    0.94
  -1   6  -2   42.05    0.94
  -1   6  -2   40.12    0.83
   1  -6   2   41.32    0.84
   1  -6   2   42.45    1.00
   1  -6   2   42.78    1.04
   1  -6   2   41.10    0.98
   1  -6   2   40.42    0.93
  -2   6  -2   25.23    0.79
  -2   6  -2   24.76    0.67
   2  -6   2   24.41    0.66
   2  -6   2   24.65    0.75
   2  -6   2   25.09    0.79
   2  -6   2   24.91    0.83
  -3   6  -2   15.83    0.71
  -3   6  -2   16.99    0.65
   3  -6   2   17.34    0.73
   3  -6   2   15.86    0.70
   3  -6   2   16.34    0.61
  -4   6  -2    6.60    0.63
   4  -6   2    5.90    0.56
   4  -6   2    5.83    0.54
   5   5  -2    3.03    0.42
   5   5  -2    3.18    0.43
  -5  -5   2    3.11    0.43
   4   5  -2   61.98    1.48
   4   5  -2   64.40    1.47
  -4  -5   2   61.43    1.48
   3   5  -2   55.89    1.22
   3   5  -2   56.43    1.22
   3   5  -2   55.51    1.26
  -3  -5   2   56.69    1.27
   2   5  -2   99.02    1.70
   2   5  -2   99.27    1.81
   2   5  -2   99.15    1.77
  -2  -5   2   99.04    1.78
   1   5  -2  149.41    2.43
   1   5  -2  144.08    2.24
  -1  -5   2  147.49    2.37
  -1  -5   2  147.91    2.27
   0   5  -2   45.28    0.82
   0   5  -2   45.95    0.97
   0  -5   2   43.52    0.94
   0  -5   2   43.60    0.94
  -1   5  -2   21.49    0.57
  -1   5  -2   21.29    0.52
   1  -5   2   20.59    0.61
   1  -5   2   21.19    0.59
   1  -5   2   21.03    0.52
   1  -5   2   21.83    0.63
   1  -5   2   21.09    0.65
   1  -5   2   21.56    0.65
  -2   5  -2    3.40    0.28
  -2   5  -2    3.32    0.32
   2  -5   2    3.50    0.27
   2  -5   2    3.62    0.33
   2  -5   2    2.79    0.30
   2  -5   2    3.31    0.24
  -3   5  -2    2.58    0.36
   3  -5   2    2.34    0.33
   3  -5   2    1.52    0.26
   3  -5   2    2.69    0.29
  -4   5  -2    0.22    0.21
   4  -5   2    0.37    0.24
   4  -5   2    0.48    0.22
   4  -5   2    0.03    0.18
   5   4  -2    0.24    0.20
   5   4  -2    0.13    0.24
  -5  -4   2    0.17    0.22
   4   4  -2    0.12    0.18
   4   4  -2    0.22    0.18
  -4  -4   2    0.13    0.15
   3   4  -2    3.04    0.29
   3   4  -2    3.29    0.31
   3   4  -2    3.45    0.22
  -3  -4   2    3.15    0.31
   2   4  -2    4.93    0.26
   2   4  -2    5.49    0.30
   2   4  -2    4.97    0.27
   2   4  -2    5.24    0.29
  -2  -4   2    5.16    0.28
   1   4  -2    0.42    0.10
   1   4  -2    0.76    0.11
   1   4  -2    0.30    0.09
   1   4  -2    0.52    0.11
  -1  -4   2    0.34    0.08
  -1  -4   2    0.21    0.08
   0   4  -2   57.45    1.09
   0   4  -2   56.03    0.96
   0  -4   2   57.99    1.07
   0  -4   2   55.69    1.07
   0  -4   2   56.92    1.11
  -1   4  -2  140.17    2.13
  -1   4  -2  138.82    2.24
   1  -4   2  141.47    2.24
   1  -4   2  137.63    2.13
   1  -4   2  133.72    2.21
   1  -4   2  140.87    2.26
   1  -4   2  139.72    2.30
   1  -4   2  142.67    2.28
  -2   4  -2  131.09    2.17
  -2   4  -2  130.61    2.29
   2  -4   2  128.73    2.26
   2  -4   2  130.51    2.13
   2  -4   2  132.09    2.29
   2  -4   2  133.78    2.30
   2  -4   2  131.53    2.17
  -3   4  -2   31.60    0.97
   3  -4   2   31.41    0.92
   3  -4   2   30.17    0.91
   3  -4   2   30.56    0.84
   3  -4   2   30.48    0.78
  -4   4  -2   22.93    0.91
   4  -4   2   22.77    0.89
   4  -4   2   21.87    0.80
   4  -4   2   22.89    0.85
   5   3  -2    9.33    0.57
   5   3  -2    9.06    0.58
  -5  -3   2    8.42    0.58
   4   3  -2   32.74    0.68
   4   3  -2   33.31    0.97
   4   3  -2   33.08    0.96
  -4  -3   2   32.85    0.97
  -4  -3   2   34.69    1.00
   3   3  -2   78.13    1.38
   3   3  -2   78.51    1.43
   3   3  -2   78.08    1.53
   3   3  -2   78.64    1.52
  -3  -3   2   80.95    1.43
  -3  -3   2   76.06    1.51
   2   3  -2   83.52    1.47
   2   3  -2   84.03    1.48
   2   3  -2   84.33    1.44
   2   3  -2   81.62    1.45
  -2  -3   2   84.23    1.48
   1   3  -2  185.59    2.72
   1   3  -2  188.41    2.80
  -1  -3   2  184.26    2.66
   0   3  -2   12.83    0.39
   0   3  -2   12.85    0.32
   0  -3   2   12.61    0.37
   0  -3   2   12.97    0.39
  -1   3  -2    4.48    0.20
  -1   3  -2    4.52    0.23
   1  -3   2    4.31    0.20
   1  -3   2    4.57    0.25
   1  -3   2    4.43    0.22
   1  -3   2    4.20    0.23
   1  -3   2    4.84    0.25
   1  -3   2    4.55    0.24
  -2   3  -2    0.32    0.11
   2  -3   2    0.16    0.09
   2  -3   2    0.19    0.12
   2  -3   2    0.35    0.11
   2  -3   2    0.12    0.10
   2  -3   2    0.17    0.09
   2  -3   2    0.39    0.10
  -3   3  -2    0.07    0.12
   3  -3   2    0.02    0.15
   3  -3   2    0.04    0.08
   3  -3   2    0.14    0.14
   3  -3   2    0.05    0.11
  -4   3  -2    0.43    0.23
   4  -3   2    0.64    0.23
   4  -3   2    0.16    0.18
   4  -3   2    0.56    0.22
   5   2  -2    0.03    0.20
   5   2  -2    0.14    0.21
  -5  -2   2    0.05    0.17
   4   2  -2    1.43    0.26
   4   2  -2    1.57    0.17
   4   2  -2    1.48    0.26
  -4  -2   2    1.31    0.23
   3   2  -2    2.45    0.26
   3   2  -2    2.64    0.26
   3   2  -2    3.16    0.23
   3   2  -2    2.85    0.21
  -3  -2   2    3.38    0.24
   2   2  -2   31.29    0.70
   2   2  -2   29.78    0.69
   2   2  -2   29.54    0.69
   2   2  -2   31.05    0.69
  -2  -2   2   31.41    0.70
  -2  -2   2   30.29    0.64
   1   2  -2   74.75    1.25
   1   2  -2   74.18    1.20
  -1  -2   2   72.64    1.26
   0   2  -2  194.50    2.84
   0   2  -2  194.27    2.75
   0  -2   2  190.11    2.83
   0  -2   2  199.40    2.82
  -1   2  -2  174.82    2.52
   1  -2   2  167.41    2.50
   1  -2   2  168.76    2.53
   1  -2   2  170.49    2.50
   1  -2   2  171.09    2.59
  -2   2  -2  209.63    3.30
   2  -2   2  214.91    3.27
   2  -2   2  211.99    3.11
   2  -2   2  213.87    3.13
   2  -2   2  211.74    3.20
   2  -2   2  214.17    3.30
   2  -2   2  210.10    3.25
  -3   2  -2   42.65    1.09
   3  -2   2   43.55    1.06
   3  -2   2   43.02    0.83
   3  -2   2   42.19    1.00
   3  -2   2   43.77    1.03
  -4   2  -2   39.35    1.18
   4  -2   2   41.82    1.11
   4  -2   2   39.94    1.16
   5   1  -2   26.50    0.98
   5   1  -2   27.25    0.96
  -5  -1   2   25.50    0.93
   4   1  -2   39.45    1.04
   4   1  -2   35.82    0.83
   4   1  -2   38.60    1.04
  -4  -1   2   38.99    1.04
   3   1  -2   58.98    1.15
   3   1  -2   59.46    1.23
   3   1  -2   58.50    1.21
  -3  -1   2   58.52    1.21
   2   1  -2   50.21    0.96
   2   1  -2   49.77    0.96
   2   1  -2   47.22    0.95
  -2  -1   2   48.86    0.82
  -2  -1   2   50.00    0.94
   1   1  -2  204.31    2.95
   1   1  -2  201.99    2.90
  -1  -1   2  200.92    2.93
  -1  -1   2  204.67    2.96
   0   1  -2  142.80    2.04
   0   1  -2  138.83    2.08
   0  -1   2  144.89    2.05
   0  -1   2  144.83    2.08
   0  -1   2  145.52    2.17
   0  -1   2  141.05    2.08
  -1   1  -2    5.39    0.20
  -1   1  -2    5.75    0.20
   1  -1   2    5.14    0.22
   1  -1   2    5.67    0.19
   1  -1   2    5.10    0.23
   1  -1   2    5.53    0.18
   1  -1   2    5.70    0.21
  -2   1  -2    2.56    0.24
   2  -1   2    2.16    0.13
   2  -1   2    1.96    0.19
   2  -1   2    2.17    0.21
   2  -1   2    2.19    0.22
   2  -1   2    2.09    0.16
   2  -1   2    1.99    0.13
   2  -1   2    3.05    0.25
  -3   1  -2    2.47    0.29
   3  -1   2    1.91    0.25
   3  -1   2    2.13    0.24
   3  -1   2    2.22    0.23
   3  -1   2    2.03    0.12
   3  -1   2    2.25    0.12
  -4   1  -2    0.34    0.19
   4  -1   2    0.89    0.24
   4  -1   2    0.84    0.24
  -5   1  -2    0.81    0.29
   5  -1   2    0.81    0.29
   5  -1   2    0.83    0.30
   5   0  -2    0.11    0.21
   5   0  -2    0.03    0.20
  -5   0   2    0.48    0.24
   4   0  -2    2.42    0.24
   4   0  -2    1.92    0.28
   4   0  -2    2.20    0.29
  -4   0   2    2.92    0.35
   3   0  -2    2.43    0.24
   3   0  -2    2.11    0.24
   3   0  -2    2.31    0.25
  -3   0   2    2.54    0.27
   2   0  -2  191.68    2.71
   2   0  -2  194.10    2.91
   2   0  -2  194.23    2.91
   2   0  -2  192.32    2.73
   2   0  -2  191.22    2.92
  -2   0   2  196.57    2.93
   1   0  -2  129.13    1.96
   1   0  -2  132.52    1.93
   1   0  -2  127.94    1.91
   1   0  -2  130.75    1.95
  -1   0   2  130.52    1.91
  -1   0   2  134.68    1.97
   0   0  -2   19.15    0.35
   0   0  -2   17.51    0.40
   0   0   2   19.92    0.42
   0   0   2   18.85    0.34
  -1   0  -2  719.60   11.06
  -1   0  -2  772.09   10.44
  -1   0  -2  726.55   10.46
   1   0   2  772.06   10.68
   1   0   2  701.56   10.50
   1   0   2  744.59   11.01
  -2   0  -2   98.68    1.70
   2   0   2  100.19    1.61
   2   0   2   97.64    1.69
   2   0   2   98.43    1.54
   2   0   2  100.02    1.68
   2   0   2   97.15    1.64
  -3   0  -2   45.92    1.10
   3   0   2   48.13    1.07
   3   0   2   47.81    0.98
   3   0   2   46.96    1.09
  -4   0  -2   35.32    1.05
   4   0   2   33.67    1.02
   4   0   2   35.14    1.00
  -5   0  -2   13.65    0.72
   5   0   2   13.50    0.73
   5   0   2   13.53    0.69
   5  -1  -2   14.01    0.71
   5  -1  -2   14.48    0.71
  -5   1   2   14.43    0.76
   4  -1  -2   45.00    1.15
   4  -1  -2   45.63    1.15
  -4   1   2   45.98    1.21
   3  -1  -2   55.71    1.17
   3  -1  -2   55.60    1.02
   3  -1  -2   54.51    1.13
   3  -1  -2   53.71    1.14
  -3   1   2   53.75    1.20
   2  -1  -2   41.38    0.76
   2  -1  -2   41.17    0.84
   2  -1  -2   42.17    0.86
   2  -1  -2   40.70    0.86
   2  -1  -2   41.80    0.71
  -2   1   2   40.60    0.87
  -2   1   2   41.91    0.88
   1  -1  -2  362.09    4.99
   1  -1  -2  357.40    4.95
   1  -1  -2  353.25    5.20
   1  -1  -2  356.38    5.15
   1  -1  -2  353.84    5.06
  -1   1   2  361.49    5.18
  -1   1   2  364.03    5.27
   0  -1  -2   14.77    0.24
   0  -1  -2   14.95    0.34
   0   1   2   15.26    0.34
  -1  -1  -2   43.17    0.75
   1   1   2   44.09    0.76
   1   1   2   42.94    0.74
   1   1   2   43.96    0.75
  -2  -1  -2    3.81    0.17
  -2  -1  -2    3.97    0.23
   2   1   2    3.94    0.19
   2   1   2    3.94    0.23
   2   1   2    3.84    0.23
   2   1   2    4.03    0.22
  -3  -1  -2    4.92    0.32
   3   1   2    5.17    0.26
   3   1   2    5.18    0.32
   3   1   2    4.77    0.31
  -4  -1  -2    1.68    0.28
   4   1   2    2.42    0.30
   4   1   2    2.66    0.32
  -5  -1  -2    3.62    0.45
   5   1   2    3.02    0.42
   5   1   2    2.66    0.39
   5  -2  -2    0.34    0.23
   5  -2  -2    0.27    0.24
  -5   2   2    0.48    0.26
   4  -2  -2    0.05    0.17
   4  -2  -2    0.09    0.15
  -4   2   2    0.06    0.16
   3  -2  -2    5.83    0.29
   3  -2  -2    5.91    0.33
   3  -2  -2    5.28    0.32
   3  -2  -2    4.58    0.31
  -3   2   2    5.22    0.34
   2  -2  -2   68.62    1.25
   2  -2  -2   66.94    1.20
   2  -2  -2   67.51    1.18
  -2   2   2   65.58    1.26
  -2   2   2   69.79    1.29
   1  -2  -2   61.97    1.00
   1  -2  -2   63.08    1.06
   1  -2  -2   61.65    1.03
   1  -2  -2   62.99    1.07
  -1   2   2   62.60    1.06
  -1   2   2   63.52    1.07
   0  -2  -2    2.15    0.11
   0  -2  -2    2.23    0.09
   0   2   2    2.33    0.11
   0   2   2    2.10    0.08
   1   2   2  963.60   13.87
   1   2   2 1000.00   13.82
  -2  -2  -2   52.54    0.99
  -2  -2  -2   52.43    0.89
  -2  -2  -2   51.37    0.87
   2   2   2   51.19    0.88
   2   2   2   52.71    0.99
   2   2   2   51.00    0.99
   2   2   2   53.75    1.03
  -3  -2  -2   19.12    0.60
   3   2   2   19.03    0.60
   3   2   2   18.58    0.62
   3   2   2   20.12    0.67
  -4  -2  -2   44.41    1.14
   4   2   2   43.70    1.13
   4   2   2   44.06    1.18
  -5  -2  -2    1.45    0.30
   5   2   2    1.21    0.29
   5   2   2    1.36    0.32
   4  -3  -2   18.80    0.69
   4  -3  -2   17.84    0.69
  -4   3   2   17.57    0.75
   3  -3  -2   27.58    0.72
   3  -3  -2   26.36    0.73
   3  -3  -2   27.00    0.76
   3  -3  -2   27.14    0.75
  -3   3   2   27.97    0.82
   2  -3  -2   21.09    0.53
   2  -3  -2   20.17    0.57
   2  -3  -2   19.94    0.54
   2  -3  -2   21.33    0.54
  -2   3   2   20.33    0.59
  -2   3   2   20.52    0.60
   1  -3  -2   27.82    0.60
   1  -3  -2   27.78    0.60
   1  -3  -2   28.17    0.52
  -1   3   2   28.79    0.60
  -1   3   2   27.41    0.61
   0  -3  -2    4.45    0.17
   0   3   2    4.36    0.17
   0   3   2    4.73    0.16
  -1  -3  -2   17.72    0.37
   1   3   2   17.09    0.36
   1   3   2   17.59    0.37
  -2  -3  -2   13.34    0.34
   2   3   2   13.27    0.43
   2   3   2   13.65    0.41
   2   3   2   13.69    0.31
  -3  -3  -2   17.13    0.54
   3   3   2   16.05    0.58
   3   3   2   17.17    0.57
  -4  -3  -2   16.81    0.64
   4   3   2   17.08    0.69
   4   3   2   16.92    0.66
  -5  -3  -2    6.87    0.50
   5   3   2    7.10    0.60
   5   3   2    7.35    0.53
   4  -4  -2   10.89    0.54
   4  -4  -2   10.15    0.55
  -4   4   2    9.61    0.59
   3  -4  -2   26.28    0.78
   3  -4  -2   26.35    0.75
   3  -4  -2   26.56    0.73
   3  -4  -2   26.70    0.76
  -3   4   2   25.91    0.82
   2  -4  -2   47.94    1.01
   2  -4  -2   47.21    1.02
   2  -4  -2   46.34    0.92
   2  -4  -2   47.72    0.97
  -2   4   2   48.63    1.05
  -2   4   2   46.87    1.04
   1  -4  -2  112.01    1.82
   1  -4  -2  114.10    1.82
   1  -4  -2  111.68    1.66
  -1   4   2  113.99    1.82
   0  -4  -2  514.05    7.09
  -1  -4  -2  152.06    2.20
   1   4   2  151.28    2.20
   1   4   2  149.85    2.17
  -2  -4  -2   50.74    0.83
   2   4   2   51.65    0.84
   2   4   2   51.28    0.98
   2   4   2   53.13    1.06
  -3  -4  -2   20.59    0.58
   3   4   2   20.50    0.63
   3   4   2   21.10    0.67
  -4  -4  -2   22.91    0.73
   4   4   2   23.17    0.82
   4   4   2   21.49    0.76
   5   4   2    5.27    0.50
   5   4   2    4.76    0.49
   4  -5  -2   12.80    0.61
   4  -5  -2   11.81    0.58
   4  -5  -2   12.26    0.60
  -4   5   2   12.55    0.68
   3  -5  -2    7.54    0.42
   3  -5  -2    7.77    0.39
   3  -5  -2    7.45    0.41
   3  -5  -2    7.81    0.43
  -3   5   2    7.95    0.46
   2  -5  -2    4.30    0.29
   2  -5  -2    4.76    0.28
   2  -5  -2    4.66    0.30
   2  -5  -2    4.52    0.24
  -2   5   2    4.44    0.30
  -2   5   2    4.16    0.30
   1  -5  -2    0.81    0.13
   1  -5  -2    0.62    0.08
   1  -5  -2    0.74    0.13
   1  -5  -2    0.62    0.12
  -1   5   2    0.64    0.12
   0  -5  -2   12.33    0.38
  -1  -5  -2    2.06    0.19
  -1  -5  -2    2.08    0.14
   1   5   2    2.19    0.20
   1   5   2    1.72    0.17
   1   5   2    2.14    0.12
  -2  -5  -2   17.85    0.39
  -2  -5  -2   17.71    0.55
   2   5   2   17.19    0.34
   2   5   2   17.17    0.54
   2   5   2   17.36    0.50
   2   5   2   17.59    0.48
  -3  -5  -2   26.98    0.81
   3   5   2   27.44    0.68
   3   5   2   26.08    0.79
   3   5   2   28.53    0.76
   4   5   2   10.89    0.57
   4   5   2   11.68    0.55
   5   5   2   12.79    0.69
   5   5   2   13.57    0.70
   4  -6  -2    0.07    0.20
   4  -6  -2    0.91    0.26
  -4   6   2    0.47    0.23
   3  -6  -2   14.90    0.62
   3  -6  -2   15.73    0.65
   3  -6  -2   14.54    0.59
   3  -6  -2   15.46    0.55
  -3   6   2   14.90    0.67
   2  -6  -2   49.30    1.13
   2  -6  -2   49.05    0.95
   2  -6  -2   50.16    1.09
   2  -6  -2   51.35    1.15
  -2   6   2   48.26    1.13
   1  -6  -2   68.07    1.04
   1  -6  -2   68.21    1.29
   1  -6  -2   68.28    1.26
   1  -6  -2   67.23    1.32
  -1   6   2   68.70    1.23
  -1   6   2   61.94    1.23
   0  -6  -2  299.36    4.42
   0  -6  -2  302.95    4.39
   0   6   2  307.32    4.43
  -1  -6  -2   81.81    1.43
  -1  -6  -2   80.94    1.36
   1   6   2   78.65    1.45
   1   6   2   82.19    1.23
   1   6   2   80.11    1.43
  -2  -6  -2   54.54    0.94
  -2  -6  -2   54.29    1.16
   2   6   2   55.80    1.03
   2   6   2   55.42    0.91
   2   6   2   54.10    1.15
   2   6   2   55.67    1.12
  -3  -6  -2    5.45    0.38
   3   6   2    5.49    0.31
   3   6   2    5.03    0.32
   3   6   2    4.61    0.34
  -4  -6  -2    2.17    0.31
   4   6   2    2.28    0.30
   4   6   2    2.34    0.32
  -5  -6  -2    0.80    0.29
   5   6   2    1.13    0.32
   5   6   2    1.25    0.30
   4  -7  -2    8.51    0.58
   4  -7  -2    9.83    0.59
  -4   7   2    9.01    0.65
   3  -7  -2   17.00    0.72
   3  -7  -2   16.81    0.67
  -3   7   2   17.51    0.73
   2  -7  -2   16.59    0.59
   2  -7  -2   16.24    0.63
   2  -7  -2   15.92    0.62
  -2   7   2   16.98    0.63
   1  -7  -2    0.62    0.16
   1  -7  -2    0.48    0.14
   1  -7  -2    0.49    0.13
  -1   7   2    0.40    0.12
  -1   7   2    0.58    0.13
   0  -7  -2    0.71    0.15
   0  -7  -2    0.94    0.16
   0   7   2    1.18    0.17
  -1  -7  -2    6.46    0.33
  -1  -7  -2    6.33    0.30
   1   7   2    6.84    0.20
   1   7   2    6.62    0.34
   1   7   2    6.23    0.32
  -2  -7  -2    6.13    0.36
  -2  -7  -2    6.00    0.26
   2   7   2    6.94    0.36
   2   7   2    6.83    0.37
   2   7   2    6.30    0.28
  -3  -7  -2   14.16    0.61
   3   7   2   14.76    0.56
   3   7   2   15.41    0.55
   3   7   2   14.30    0.60
  -4  -7  -2    6.50    0.55
   4   7   2    6.34    0.44
   4   7   2    5.81    0.50
   3  -8  -2   16.93    0.70
   3  -8  -2   15.93    0.74
  -3   8   2   16.50    0.75
   2  -8  -2   23.83    0.82
   2  -8  -2   21.80    0.74
   2  -8  -2   24.01    0.81
  -2   8   2   23.33    0.77
   1  -8  -2   30.34    0.82
   1  -8  -2   29.77    0.86
   1  -8  -2   30.35    0.85
  -1   8   2   29.96    0.79
  -1   8   2   31.15    0.78
   0  -8  -2   46.22    1.03
   0  -8  -2   47.71    1.06
   0   8   2   44.54    1.04
  -1  -8  -2   40.42    0.96
  -1  -8  -2   40.02    0.90
   1   8   2   40.22    0.99
  -2  -8  -2   23.94    0.74
   2   8   2   24.28    0.75
   2   8   2   23.47    0.74
  -3  -8  -2    0.43    0.20
   3   8   2    0.39    0.17
   3   8   2    0.38    0.15
   3   8   2    0.42    0.18
  -4  -8  -2    0.20    0.21
   4   8   2    0.11    0.17
   4   8   2    0.32    0.20
   3  -9  -2    8.93    0.55
   3  -9  -2    8.60    0.57
  -3   9   2    8.17    0.57
   2  -9  -2   30.30    0.99
   2  -9  -2   30.47    0.93
   2  -9  -2   30.39    0.97
  -2   9   2   30.89    0.94
   1  -9  -2    0.09    0.16
   1  -9  -2    0.55    0.17
  -1   9   2    0.28    0.14
   0  -9  -2    2.03    0.25
   0  -9  -2    2.64    0.29
   0   9   2    3.17    0.33
  -1  -9  -2    2.86    0.30
  -1  -9  -2    2.69    0.27
   1   9   2    3.41    0.34
  -2  -9  -2   52.56    1.24
   2   9   2   51.67    1.25
   2   9   2   51.45    1.24
  -3  -9  -2   12.68    0.63
   3   9   2   12.11    0.60
   3   9   2   12.52    0.59
  -4  -9  -2    9.49    0.62
   4   9   2    9.73    0.62
   2 -10  -2   13.79    0.71
   2 -10  -2   16.62    0.70
  -2  10   2   16.71    0.68
   1 -10  -2   10.05    0.53
   1 -10  -2    9.79    0.54
  -1  10   2   10.55    0.51
   0 -10  -2   21.62    0.74
   0 -10  -2   21.87    0.75
   0  10   2   23.11    0.77
  -1 -10  -2   12.04    0.51
  -1 -10  -2   11.81    0.55
   1  10   2   11.93    0.57
  -2 -10  -2    0.28    0.17
   2  10   2    0.24    0.16
   2  10   2    0.44    0.20
  -3 -10  -2    2.52    0.34
   3  10   2    3.46    0.40
   3  10   2    2.45    0.34
  -4 -10  -2    0.28    0.25
   4  10   2    0.42    0.21
   4  10   2    0.22    0.23
   2 -11  -2    2.56    0.42
   2 -11  -2    2.13    0.35
   1 -11  -2    1.11    0.28
   1 -11  -2    0.85    0.24
  -1  11   2    1.05    0.25
   0 -11  -2    4.16    0.41
   0 -11  -2    3.52    0.38
   0  11   2    4.37    0.43
  -1 -11  -2    0.58    0.18
  -1 -11  -2    0.30    0.17
   1  11   2    0.37    0.19
  -2 -11  -2   62.00    1.50
   2  11   2   62.96    1.55
  -3 -11  -2   18.89    0.83
   3  11   2   18.47    0.80
   3  11   2   16.67    0.78
   1 -12  -2   11.45    0.69
   1 -12  -2   12.84    0.67
  -1  12   2   12.48    0.63
   0 -12  -2    7.33    0.52
   0 -12  -2    8.50    0.53
   0  12   2    8.12    0.54
  -1 -12  -2    5.55    0.46
  -1 -12  -2    5.33    0.49
   1  12   2    5.52    0.51
  -2 -12  -2   -0.01    0.17
   2  12   2    0.03    0.18
  -3 -12  -2    0.44    0.26
   3  12   2    0.19    0.24
   3  12   2   -0.04    0.20
   0 -13  -2    0.12    0.23
   0 -13  -2    0.18    0.22
   0  13   2    0.43    0.24
  -1 -13  -2   14.62    0.73
   1  13   2   13.50    0.71
  -2 -13  -2   11.50    0.67
   2  13   2   10.87    0.69
   2  11  -3    0.18    0.23
  -2 -11   3   -0.19    0.21
   1  11  -3    0.10    0.20
  -1 -11   3   -0.09    0.17
   0  11  -3    0.81    0.27
   0 -11   3    0.19    0.22
   0 -11   3    0.34    0.22
   3  10  -3    8.51    0.60
  -3 -10   3    7.60    0.54
   2  10  -3   10.99    0.66
  -2 -10   3   11.16    0.63
   1  10  -3    7.44    0.52
  -1 -10   3    7.41    0.52
   0  10  -3   11.63    0.62
   0 -10   3   10.65    0.61
   0 -10   3   12.00    0.62
  -1  10  -3   12.54    0.63
   1 -10   3   10.56    0.66
   1 -10   3   10.92    0.64
   3   9  -3   15.79    0.73
   3   9  -3   14.91    0.74
  -3  -9   3   15.80    0.72
   2   9  -3    0.97    0.25
  -2  -9   3    1.03    0.25
   1   9  -3    2.68    0.35
  -1  -9   3    3.46    0.35
  -1  -9   3    3.21    0.37
   0   9  -3    0.08    0.15
   0  -9   3    0.06    0.16
   0  -9   3    0.09    0.16
  -1   9  -3   14.13    0.63
   1  -9   3   13.32    0.67
   1  -9   3   13.74    0.67
   2  -9   3    8.02    0.57
   2  -9   3    7.42    0.56
   4   8  -3   10.51    0.59
   4   8  -3    9.29    0.59
   4   8  -3   10.16    0.62
  -4  -8   3   10.73    0.64
   3   8  -3   22.00    0.73
   3   8  -3   20.56    0.82
   3   8  -3   21.04    0.80
  -3  -8   3   20.69    0.81
   2   8  -3   28.82    0.85
   2   8  -3   26.73    0.91
  -2  -8   3   27.12    0.87
   1   8  -3    9.29    0.50
  -1  -8   3    9.74    0.49
  -1  -8   3    9.62    0.46
   0   8  -3    0.73    0.20
   0  -8   3    0.29    0.15
   0  -8   3    0.34    0.16
  -1   8  -3    6.46    0.41
   1  -8   3    6.48    0.47
   1  -8   3    5.86    0.43
   1  -8   3    6.52    0.44
  -2   8  -3    6.79    0.49
   2  -8   3    4.79    0.47
   2  -8   3    6.37    0.57
  -3   8  -3    0.85    0.28
   3  -8   3    0.74    0.28
   3  -8   3    0.87    0.29
   4   7  -3    9.02    0.57
   4   7  -3    9.25    0.55
   4   7  -3   10.32    0.57
  -4  -7   3    9.34    0.59
   3   7  -3    8.44    0.50
   3   7  -3    8.01    0.45
   3   7  -3    7.73    0.47
  -3  -7   3    7.25    0.45
   2   7  -3    0.09    0.14
   2   7  -3   -0.15    0.12
   2   7  -3   -0.01    0.11
  -2  -7   3   -0.06    0.11
   1   7  -3    0.19    0.10
   1   7  -3    0.06    0.11
  -1  -7   3    0.17    0.12
  -1  -7   3   -0.05    0.10
   0   7  -3    1.16    0.21
   0   7  -3    1.02    0.15
   0  -7   3    1.29    0.23
   0  -7   3    1.30    0.22
  -1   7  -3   83.72    1.64
  -1   7  -3   84.34    1.63
   1  -7   3   86.70    1.71
   1  -7   3   85.60    1.73
   1  -7   3   83.13    1.76
   1  -7   3   82.29    1.61
  -2   7  -3   12.85    0.60
   2  -7   3   13.65    0.63
   2  -7   3   12.57    0.63
  -3   7  -3   18.87    0.84
   3  -7   3   18.33    0.85
   3  -7   3   20.61    0.85
   4   6  -3   10.74    0.59
   4   6  -3   10.92    0.58
   4   6  -3    7.47    0.79
  -4  -6   3   10.47    0.59
   3   6  -3   30.07    0.85
   3   6  -3   28.58    0.88
   3   6  -3   28.46    0.87
  -3  -6   3   29.76    0.89
   2   6  -3   36.68    0.99
   2   6  -3   38.90    0.90
   2   6  -3   37.60    0.96
  -2  -6   3   37.78    0.96
   1   6  -3   25.42    0.77
   1   6  -3   25.79    0.63
  -1  -6   3   25.63    0.73
  -1  -6   3   26.54    0.69
   0   6  -3   13.90    0.47
   0   6  -3   13.56    0.52
   0   6  -3   13.48    0.41
   0  -6   3   13.64    0.52
   0  -6   3   13.31    0.50
   0  -6   3   13.61    0.50
  -1   6  -3   13.04    0.43
  -1   6  -3   12.93    0.49
  -1   6  -3   13.26    0.50
   1  -6   3   12.88    0.51
   1  -6   3   13.50    0.44
   1  -6   3   12.10    0.52
   1  -6   3   13.23    0.50
   1  -6   3   13.08    0.55
  -2   6  -3    4.51    0.30
  -2   6  -3    4.62    0.37
   2  -6   3    4.70    0.41
   2  -6   3    4.14    0.29
   2  -6   3    4.38    0.41
   2  -6   3    4.59    0.33
  -3   6  -3    0.91    0.26
  -3   6  -3    0.95    0.22
   3  -6   3    0.95    0.26
   3  -6   3    0.95    0.27
   3  -6   3    1.24    0.25
   4   5  -3   43.42    1.18
   4   5  -3   43.32    1.19
  -4  -5   3   44.45    1.20
   3   5  -3    0.77    0.19
   3   5  -3    1.27    0.22
   3   5  -3    1.18    0.21
   3   5  -3    1.00    0.17
  -3  -5   3    1.13    0.22
   2   5  -3    7.10    0.39
   2   5  -3    7.56    0.36
   2   5  -3    6.85    0.34
   2   5  -3    6.64    0.35
  -2  -5   3    6.96    0.36
   1   5  -3    1.25    0.15
   1   5  -3    1.62    0.21
   1   5  -3    1.28    0.19
  -1  -5   3    1.77    0.19
  -1  -5   3    1.28    0.18
   0   5  -3   19.61    0.50
   0   5  -3   19.99    0.60
   0  -5   3   21.54    0.60
   0  -5   3   19.77    0.60
  -1   5  -3   31.21    0.80
  -1   5  -3   34.60    0.79
  -1   5  -3   32.61    0.74
   1  -5   3   33.88    0.74
   1  -5   3   32.21    0.84
   1  -5   3   32.26    0.87
   1  -5   3   34.53    0.83
   1  -5   3   33.79    0.83
  -2   5  -3   27.92    0.84
  -2   5  -3   28.02    0.74
   2  -5   3   30.10    0.89
   2  -5   3   27.76    0.84
   2  -5   3   28.95    0.74
   2  -5   3   29.33    0.77
   2  -5   3   29.15    0.86
  -3   5  -3   32.44    1.03
  -3   5  -3   31.68    0.92
   3  -5   3   31.45    0.88
   3  -5   3   30.03    0.99
   3  -5   3   32.74    1.01
  -4   5  -3   34.47    1.20
  -4   5  -3   31.36    1.05
   4  -5   3   34.84    1.16
   4  -5   3   35.85    1.14
   4  -5   3   34.59    1.05
   5   4  -3   20.49    0.86
   5   4  -3   18.92    0.86
  -5  -4   3   20.19    0.86
   4   4  -3   17.99    0.71
   4   4  -3   18.51    0.71
  -4  -4   3   18.27    0.71
   3   4  -3   35.96    0.92
   3   4  -3   37.83    0.88
   3   4  -3   38.68    0.96
   3   4  -3   38.12    0.96
  -3  -4   3   39.02    0.97
   2   4  -3   88.65    1.59
   2   4  -3   86.69    1.63
   2   4  -3   85.95    1.55
   2   4  -3   88.42    1.58
  -2  -4   3   86.83    1.58
   1   4  -3   27.55    0.71
   1   4  -3   28.04    0.72
   1   4  -3   26.96    0.62
  -1  -4   3   28.25    0.67
  -1  -4   3   27.08    0.62
   0   4  -3   53.70    1.11
   0   4  -3   52.61    1.07
   0   4  -3   54.21    0.97
   0  -4   3   52.86    1.04
   0  -4   3   54.08    1.07
   0  -4   3   52.55    1.09
  -1   4  -3   21.67    0.56
  -1   4  -3   22.05    0.61
  -1   4  -3   21.53    0.54
   1  -4   3   21.86    0.61
   1  -4   3   21.62    0.62
   1  -4   3   20.71    0.58
   1  -4   3   21.79    0.65
   1  -4   3   21.56    0.54
   1  -4   3   21.73    0.62
  -2   4  -3    5.34    0.31
  -2   4  -3    4.92    0.34
   2  -4   3    6.10    0.37
   2  -4   3    5.75    0.31
   2  -4   3    5.36    0.29
   2  -4   3    5.37    0.35
   2  -4   3    5.80    0.37
  -3   4  -3    1.34    0.27
  -3   4  -3    0.41    0.18
   3  -4   3    1.00    0.21
   3  -4   3    0.88    0.20
   3  -4   3    1.44    0.27
   3  -4   3    0.70    0.15
  -4   4  -3   -0.08    0.18
   4  -4   3    0.21    0.20
   4  -4   3   -0.23    0.17
   4  -4   3   -0.04    0.16
   5   3  -3    5.04    0.52
   5   3  -3    5.42    0.54
  -5  -3   3    6.71    0.59
   4   3  -3   18.93    0.72
   4   3  -3   19.54    0.73
  -4  -3   3   19.03    0.71
   3   3  -3    1.26    0.20
   3   3  -3    0.97    0.19
   3   3  -3    1.46    0.19
   3   3  -3    1.59    0.21
  -3  -3   3    1.37    0.21
  -3  -3   3    1.53    0.18
   2   3  -3   15.68    0.48
   2   3  -3   15.81    0.50
   2   3  -3   14.61    0.48
   2   3  -3   15.50    0.50
  -2  -3   3   15.91    0.49
   1   3  -3    0.73    0.13
   1   3  -3    0.17    0.08
   1   3  -3    0.26    0.10
  -1  -3   3    0.40    0.17
  -1  -3   3    0.24    0.08
   0   3  -3   69.88    1.17
   0   3  -3   70.00    1.28
   0  -3   3   70.73    1.27
   0  -3   3   68.45    1.24
  -1   3  -3   32.74    0.70
  -1   3  -3   34.55    0.78
   1  -3   3   34.68    0.71
   1  -3   3   33.94    0.75
   1  -3   3   33.70    0.72
   1  -3   3   34.86    0.78
   1  -3   3   33.01    0.80
   1  -3   3   33.72    0.77
  -2   3  -3   78.06    1.54
  -2   3  -3   80.93    1.47
   2  -3   3   76.05    1.50
   2  -3   3   77.94    1.54
   2  -3   3   77.60    1.36
   2  -3   3   78.49    1.54
   2  -3   3   77.22    1.42
  -3   3  -3   21.74    0.77
   3  -3   3   19.57    0.71
   3  -3   3   20.58    0.71
   3  -3   3   19.79    0.52
   3  -3   3   19.55    0.66
  -4   3  -3   19.33    0.84
   4  -3   3   19.91    0.78
   4  -3   3   20.34    0.76
   4  -3   3   19.57    0.81
   5   2  -3    7.03    0.52
   5   2  -3    7.45    0.62
   4   2  -3   28.25    0.89
   4   2  -3   27.74    0.86
  -4  -2   3   28.53    0.85
   3   2  -3   78.31    1.49
   3   2  -3   80.45    1.45
   3   2  -3   79.04    1.55
   3   2  -3   80.57    1.53
  -3  -2   3   82.30    1.49
  -3  -2   3   77.63    1.51
   2   2  -3   72.48    1.33
   2   2  -3   75.72    1.31
   2   2  -3   73.93    1.33
   2   2  -3   73.69    1.36
  -2  -2   3   71.85    1.31
  -2  -2   3   73.99    1.26
  -2  -2   3   73.41    1.30
   1   2  -3   46.77    0.87
   1   2  -3   47.40    0.93
  -1  -2   3   46.77    0.81
  -1  -2   3   47.60    0.98
  -1  -2   3   45.78    0.93
   0   2  -3   40.81    0.82
   0   2  -3   44.34    0.77
   0  -2   3   41.55    0.82
   0  -2   3   40.26    0.80
  -1   2  -3    0.35    0.09
  -1   2  -3    0.36    0.10
  -1   2  -3    0.39    0.09
   1  -2   3    0.26    0.07
   1  -2   3    0.33    0.08
   1  -2   3    0.41    0.08
   1  -2   3    0.39    0.09
   1  -2   3    0.36    0.10
   1  -2   3    0.23    0.09
  -2   2  -3   38.26    0.93
   2  -2   3   39.34    0.77
   2  -2   3   40.55    0.76
   2  -2   3   38.51    0.94
   2  -2   3   39.93    0.92
   2  -2   3   39.91    0.86
   2  -2   3   39.87    0.93
  -3   2  -3    0.86    0.20
   3  -2   3    1.02    0.21
   3  -2   3    0.86    0.18
   3  -2   3    0.80    0.10
   3  -2   3    0.36    0.15
   3  -2   3    0.60    0.17
  -4   2  -3    5.20    0.49
   4  -2   3    5.62    0.41
   4  -2   3    5.36    0.45
   4  -2   3    5.89    0.52
   5   1  -3   16.15    0.74
   5   1  -3   15.12    0.73
  -5  -1   3   14.54    0.71
   4   1  -3    0.26    0.16
   4   1  -3    0.43    0.20
  -4  -1   3    0.07    0.15
   3   1  -3    0.00    0.09
   3   1  -3    0.17    0.09
   3   1  -3    0.19    0.13
   3   1  -3    0.08    0.09
  -3  -1   3    0.01    0.09
   2   1  -3   24.86    0.63
   2   1  -3   23.37    0.47
   2   1  -3   23.42    0.60
   2   1  -3   23.09    0.62
  -2  -1   3   24.42    0.47
  -2  -1   3   24.43    0.58
  -2  -1   3   23.69    0.54
   1   1  -3  131.37    2.04
   1   1  -3  130.99    1.98
  -1  -1   3  127.10    2.03
  -1  -1   3  130.15    1.89
  -1  -1   3  132.47    2.06
   0   1  -3   32.44    0.61
   0   1  -3   33.74    0.65
   0  -1   3   32.84    0.63
   0  -1   3   33.07    0.73
   0  -1   3   32.97    0.62
   0  -1   3   33.20    0.65
  -1   1  -3   92.50    1.48
  -1   1  -3   87.26    1.46
  -1   1  -3   92.98    1.54
   1  -1   3   93.35    1.55
   1  -1   3   93.98    1.40
   1  -1   3   92.87    1.60
   1  -1   3   92.77    1.53
   1  -1   3   92.70    1.38
   1  -1   3   94.41    1.48
  -2   1  -3  128.47    2.19
   2  -1   3  128.01    1.85
   2  -1   3  132.26    2.14
   2  -1   3  132.65    2.12
   2  -1   3  128.26    2.15
   2  -1   3  130.19    2.15
   2  -1   3  134.30    1.86
   2  -1   3  129.24    2.20
  -3   1  -3   18.09    0.66
   3  -1   3   19.14    0.62
   3  -1   3   17.99    0.65
   3  -1   3   18.64    0.65
   3  -1   3   18.07    0.61
  -4   1  -3   33.16    1.05
   4  -1   3   33.82    0.98
   4  -1   3   32.36    1.02
   5   0  -3    7.25    0.52
   5   0  -3    5.30    0.50
  -5   0   3    7.72    0.56
   4   0  -3   27.97    0.84
   4   0  -3   25.24    0.83
  -4   0   3   26.99    0.87
   3   0  -3   39.20    0.95
   3   0  -3   40.17    0.92
   3   0  -3   40.62    0.94
  -3   0   3   38.64    0.95
   2   0  -3   59.72    1.15
   2   0  -3   60.12    0.97
   2   0  -3   60.47    1.03
   2   0  -3   58.75    1.12
  -2   0   3   60.09    1.12
   1   0  -3   12.84    0.29
   1   0  -3   12.60    0.36
   1   0  -3   12.74    0.34
   1   0  -3   12.78    0.36
  -1   0   3   12.36    0.35
  -1   0   3   12.09    0.35
  -1   0   3   12.53    0.29
   0   0  -3  131.90    1.91
   0   0  -3  131.86    2.04
   0   0  -3  133.46    1.92
   0   0   3  129.08    2.03
   0   0   3  131.18    1.92
   0   0   3  131.75    1.95
   0   0   3  130.99    1.88
  -1   0  -3   63.19    1.15
  -1   0  -3   63.20    1.00
  -1   0  -3   68.86    1.11
  -1   0  -3   66.00    0.99
   1   0   3   65.39    1.09
   1   0   3   62.61    1.15
  -2   0  -3    3.43    0.23
   2   0   3    3.49    0.22
   2   0   3    3.27    0.23
   2   0   3    3.06    0.19
   2   0   3    3.32    0.22
   2   0   3    3.60    0.24
  -3   0  -3    3.55    0.34
   3   0   3    3.10    0.28
   3   0   3    3.49    0.34
   3   0   3    3.32    0.28
   3   0   3    3.48    0.32
  -4   0  -3   14.19    0.65
   4   0   3   14.89    0.63
   4   0   3   14.39    0.65
  -5   0  -3    2.06    0.40
   5   0   3    1.19    0.30
   5   0   3    1.76    0.33
   5  -1  -3    2.35    0.37
   5  -1  -3    2.52    0.37
  -5   1   3    2.17    0.39
   4  -1  -3    0.00    0.15
   4  -1  -3    0.60    0.20
  -4   1   3    0.32    0.16
   3  -1  -3    6.25    0.34
   3  -1  -3    5.95    0.27
   3  -1  -3    5.96    0.32
   3  -1  -3    6.07    0.34
  -3   1   3    5.96    0.36
   2  -1  -3  148.10    2.34
   2  -1  -3  151.12    2.23
   2  -1  -3  148.54    2.24
   2  -1  -3  150.85    2.39
  -2   1   3  151.79    2.39
   1  -1  -3  479.26    6.51
   1  -1  -3  474.20    7.06
   1  -1  -3  450.23    6.55
   1  -1  -3  470.75    6.56
   1  -1  -3  490.55    6.77
  -1   1   3  480.33    6.82
   0  -1  -3  152.42    2.26
   0  -1  -3  149.30    2.19
   0   1   3  148.74    2.19
   0   1   3  152.13    2.16
   0   1   3  152.86    2.10
  -1  -1  -3   97.78    1.57
   1   1   3   94.82    1.53
   1   1   3   99.69    1.56
   1   1   3  100.40    1.52
  -2  -1  -3   67.11    1.16
  -2  -1  -3   66.10    1.25
   2   1   3   66.56    1.18
   2   1   3   66.85    1.14
   2   1   3   65.60    1.24
   2   1   3   67.08    1.24
   2   1   3   65.34    1.21
  -3  -1  -3   43.90    1.04
   3   1   3   42.38    1.01
   3   1   3   45.10    1.06
   3   1   3   44.23    1.05
   3   1   3   44.34    0.93
  -4  -1  -3   30.01    0.95
   4   1   3   29.85    0.95
   4   1   3   31.12    0.93
  -5  -1  -3   18.48    0.84
   5   1   3   18.19    0.82
   5   1   3   18.18    0.85
   5  -2  -3   14.92    0.74
   5  -2  -3   15.06    0.73
  -5   2   3   14.87    0.79
   4  -2  -3   30.65    0.93
   4  -2  -3   31.48    0.91
  -4   2   3   29.66    0.98
   3  -2  -3   49.39    1.07
   3  -2  -3   51.13    1.14
   3  -2  -3   49.96    1.00
   3  -2  -3   51.47    1.11
  -3   2   3   51.37    1.19
   2  -2  -3   62.71    1.16
   2  -2  -3   63.50    1.21
   2  -2  -3   63.15    1.11
   2  -2  -3   62.81    1.22
  -2   2   3   64.54    1.23
  -2   2   3   64.22    1.23
   1  -2  -3   48.17    0.88
   1  -2  -3   47.58    0.87
   1  -2  -3   46.26    0.81
   1  -2  -3   46.97    0.83
  -1   2   3   47.89    0.86
  -1   2   3   47.18    0.87
  -1   2   3   46.84    0.83
   0  -2  -3   68.97    1.09
   0  -2  -3   68.32    1.02
   0   2   3   65.85    1.08
  -1  -2  -3  421.36    6.04
   1   2   3  440.94    6.19
   1   2   3  442.58    6.18
  -2  -2  -3   10.14    0.32
  -2  -2  -3   10.23    0.37
   2   2   3   10.04    0.35
   2   2   3   10.72    0.38
   2   2   3    9.88    0.37
   2   2   3   10.46    0.32
  -3  -2  -3    0.36    0.12
   3   2   3    0.20    0.12
   3   2   3    0.27    0.10
   3   2   3    0.36    0.13
   3   2   3    0.28    0.12
  -4  -2  -3    5.41    0.40
   4   2   3    3.91    0.37
   4   2   3    5.20    0.47
  -5  -2  -3   21.16    0.87
   5   2   3   21.78    0.91
   5   2   3   20.04    0.84
   4  -3  -3    8.21    0.47
   4  -3  -3    7.55    0.47
  -4   3   3    8.39    0.55
   3  -3  -3   21.25    0.64
   3  -3  -3   21.56    0.68
   3  -3  -3   21.86    0.66
   3  -3  -3   20.91    0.61
  -3   3   3   22.02    0.73
   2  -3  -3   88.35    1.56
   2  -3  -3   84.64    1.46
   2  -3  -3   86.46    1.48
  -2   3   3   87.84    1.57
  -2   3   3   83.68    1.57
   1  -3  -3  162.68    2.58
   1  -3  -3  173.81    2.56
   1  -3  -3  174.98    2.58
   1  -3  -3  173.34    2.47
  -1   3   3  177.36    2.60
  -1   3   3  170.85    2.55
  -1   3   3  170.94    2.58
   0  -3  -3  106.65    1.63
   0  -3  -3  106.11    1.56
   0   3   3  107.74    1.64
   0   3   3  105.14    1.54
  -1  -3  -3  223.32    3.18
   1   3   3  225.88    3.19
   1   3   3  223.29    3.17
  -2  -3  -3   92.14    1.38
  -2  -3  -3   92.29    1.53
  -2  -3  -3   91.99    1.49
   2   3   3   90.84    1.44
   2   3   3   89.71    1.59
   2   3   3   89.53    1.53
  -3  -3  -3   30.44    0.78
   3   3   3   30.86    0.79
   3   3   3   30.50    0.80
   3   3   3   30.70    0.84
  -4  -3  -3   12.63    0.56
   4   3   3   12.97    0.60
   4   3   3   12.23    0.57
  -5  -3  -3    3.00    0.39
   5   3   3    3.34    0.42
   5   3   3    3.68    0.44
   4  -4  -3   12.62    0.57
   4  -4  -3   12.23    0.59
  -4   4   3   11.71    0.64
   3  -4  -3  177.49    2.87
   3  -4  -3  181.57    2.98
   3  -4  -3  175.51    2.88
   3  -4  -3  174.74    2.88
  -3   4   3  183.35    3.08
   2  -4  -3   52.77    1.07
   2  -4  -3   52.98    1.11
   2  -4  -3   53.62    1.02
   2  -4  -3   53.18    1.01
  -2   4   3   51.90    1.12
  -2   4   3   52.36    1.13
   1  -4  -3   20.35    0.52
   1  -4  -3   20.21    0.52
   1  -4  -3   20.62    0.42
  -1   4   3   20.42    0.52
  -1   4   3   20.26    0.52
   0  -4  -3   21.35    0.50
   0   4   3   22.51    0.45
   0   4   3   22.47    0.51
  -1  -4  -3   13.06    0.35
   1   4   3   13.29    0.32
   1   4   3   13.91    0.36
  -2  -4  -3    0.14    0.06
   2   4   3    0.10    0.09
   2   4   3    0.19    0.07
   2   4   3    0.25    0.09
  -3  -4  -3    1.54    0.19
   3   4   3    1.73    0.21
   3   4   3    1.23    0.19
   3   4   3    1.62    0.23
  -4  -4  -3    6.46    0.41
   4   4   3    7.03    0.46
   4   4   3    7.35    0.46
   5   4   3   31.76    1.07
   5   4   3   29.44    1.08
   4  -5  -3   17.99    0.70
   4  -5  -3   18.39    0.72
  -4   5   3   17.89    0.80
   3  -5  -3   34.09    0.91
   3  -5  -3   33.43    0.94
   3  -5  -3   33.24    0.87
   3  -5  -3   33.00    0.85
  -3   5   3   33.14    0.99
   2  -5  -3   35.07    0.75
   2  -5  -3   35.91    0.89
   2  -5  -3   35.95    0.87
   2  -5  -3   35.47    0.81
  -2   5   3   34.64    0.88
  -2   5   3   34.61    0.89
   1  -5  -3   45.69    0.95
   1  -5  -3   46.13    0.77
   1  -5  -3   45.74    0.94
  -1   5   3   46.47    0.94
  -1   5   3   46.23    0.94
   0  -5  -3   55.90    1.04
   0   5   3   56.72    0.97
  -1  -5  -3   91.17    1.48
   1   5   3   92.74    1.29
   1   5   3   92.78    1.38
   1   5   3   91.07    1.48
   1   5   3   91.43    1.54
  -2  -5  -3   95.86    1.51
  -2  -5  -3   96.71    1.71
   2   5   3   96.26    1.60
   2   5   3   95.14    1.51
   2   5   3   97.10    1.71
   2   5   3   98.09    1.64
  -3  -5  -3   43.40    0.93
   3   5   3   42.75    0.91
   3   5   3   44.81    0.94
   3   5   3   44.03    1.00
   3   5   3   41.56    1.06
   4   5   3   17.66    0.69
   4   5   3   17.01    0.72
   5   5   3    3.29    0.43
   5   5   3    3.66    0.44
   4  -6  -3   10.59    0.57
   4  -6  -3   10.82    0.58
  -4   6   3   10.91    0.66
   3  -6  -3   69.43    1.40
   3  -6  -3   72.43    1.58
   3  -6  -3   71.94    1.55
   3  -6  -3   72.66    1.49
  -3   6   3   72.05    1.64
   2  -6  -3   30.40    0.83
   2  -6  -3   29.73    0.82
   2  -6  -3   30.29    0.76
   2  -6  -3   29.08    0.66
  -2   6   3   28.60    0.82
  -2   6   3   28.55    0.67
  -2   6   3   29.80    0.84
   1  -6  -3    0.77    0.14
   1  -6  -3    0.83    0.16
   1  -6  -3    0.81    0.13
   1  -6  -3    0.77    0.08
  -1   6   3    0.89    0.17
  -1   6   3    0.73    0.13
  -1   6   3    0.73    0.14
   0  -6  -3   18.92    0.49
   0  -6  -3   17.13    0.50
   0   6   3   17.66    0.51
  -1  -6  -3    6.55    0.27
  -1  -6  -3    6.31    0.29
   1   6   3    6.78    0.29
   1   6   3    6.59    0.31
   1   6   3    6.35    0.19
  -2  -6  -3   10.36    0.32
  -2  -6  -3   10.52    0.43
   2   6   3   10.97    0.41
   2   6   3   10.59    0.36
   2   6   3   11.11    0.44
  -3  -6  -3   36.33    0.97
   3   6   3   35.98    0.89
   3   6   3   35.49    0.85
   3   6   3   35.55    0.97
  -4  -6  -3    7.37    0.51
   4   6   3    7.62    0.47
   4   6   3    7.47    0.51
  -5  -6  -3   11.67    0.72
   5   6   3   10.36    0.64
   5   6   3   10.10    0.65
   4  -7  -3    4.91    0.50
   4  -7  -3    4.05    0.42
  -4   7   3    4.35    0.51
   3  -7  -3   28.13    0.91
   3  -7  -3   28.14    0.96
   3  -7  -3   28.07    0.85
  -3   7   3   27.93    0.96
   2  -7  -3   66.49    1.35
   2  -7  -3   66.53    1.44
   2  -7  -3   66.57    1.44
  -2   7   3   67.05    1.44
  -2   7   3   67.41    1.46
   1  -7  -3   61.33    1.29
   1  -7  -3   63.51    1.27
   1  -7  -3   62.03    1.22
  -1   7   3   62.06    1.21
   0  -7  -3   81.06    1.44
   0  -7  -3   80.48    1.48
   0   7   3   80.26    1.49
  -1  -7  -3   75.14    1.39
  -1  -7  -3   75.93    1.35
   1   7   3   74.92    1.14
   1   7   3   76.77    1.41
   1   7   3   73.25    1.42
  -2  -7  -3   34.45    0.71
  -2  -7  -3   32.91    0.86
   2   7   3   32.95    0.83
   2   7   3   33.48    0.53
   2   7   3   32.79    0.72
   2   7   3   33.77    0.86
  -3  -7  -3  102.59    1.99
   3   7   3  101.60    1.99
   3   7   3  105.41    1.86
  -4  -7  -3   23.54    0.87
   4   7   3   23.72    0.88
   4   7   3   24.49    0.82
   3  -8  -3    2.38    0.31
   3  -8  -3    3.32    0.41
  -3   8   3    3.52    0.43
   2  -8  -3   11.92    0.56
   2  -8  -3   11.03    0.50
   2  -8  -3   11.60    0.56
  -2   8   3   11.53    0.56
  -2   8   3   11.34    0.53
   1  -8  -3    0.79    0.16
   1  -8  -3    1.20    0.21
   1  -8  -3    0.90    0.18
  -1   8   3    0.72    0.15
  -1   8   3    1.25    0.19
   0  -8  -3   -0.07    0.08
   0  -8  -3    0.04    0.10
   0   8   3   -0.12    0.08
  -1  -8  -3    0.09    0.10
  -1  -8  -3    0.11    0.10
   1   8   3    0.21    0.13
   1   8   3    0.17    0.10
  -2  -8  -3   16.54    0.60
  -2  -8  -3   16.38    0.65
   2   8   3   15.10    0.57
   2   8   3   15.33    0.58
  -3  -8  -3   37.26    1.06
   3   8   3   37.94    0.99
   3   8   3   39.57    1.08
   3   8   3   38.76    0.93
  -4  -8  -3    1.59    0.30
   4   8   3    1.25    0.27
   4   8   3    1.68    0.28
   3  -9  -3   28.37    0.94
   3  -9  -3   27.64    1.02
  -3   9   3   28.29    1.01
   2  -9  -3   40.11    1.06
   2  -9  -3   39.79    1.13
   2  -9  -3   40.17    1.13
  -2   9   3   39.21    1.13
  -2   9   3   40.88    1.10
   1  -9  -3   52.78    1.28
   1  -9  -3   54.57    1.22
  -1   9   3   54.64    1.16
  -1   9   3   53.69    1.21
   0  -9  -3   48.53    1.14
   0  -9  -3   49.66    1.12
   0   9   3   48.78    1.15
  -1  -9  -3   51.28    1.11
  -1  -9  -3   49.94    1.14
   1   9   3   51.51    1.20
  -2  -9  -3   56.48    1.28
   2   9   3   53.64    1.26
   2   9   3   55.94    1.30
  -3  -9  -3   38.94    1.11
   3   9   3   38.64    1.11
   3   9   3   39.95    1.07
  -4  -9  -3    9.18    0.62
   4   9   3    8.74    0.59
   3 -10  -3    4.46    0.49
   3 -10  -3    4.75    0.48
  -3  10   3    5.64    0.54
   2 -10  -3    7.31    0.47
   2 -10  -3    9.05    0.56
  -2  10   3    7.75    0.49
   1 -10  -3    0.24    0.19
   1 -10  -3    0.26    0.15
  -1  10   3    0.43    0.18
   0 -10  -3    2.20    0.28
   0 -10  -3    2.19    0.30
   0  10   3    1.85    0.27
  -1 -10  -3    0.89    0.20
  -1 -10  -3    1.13    0.21
   1  10   3    1.22    0.23
  -2 -10  -3   12.07    0.58
   2  10   3   12.04    0.57
   2  10   3   11.63    0.57
  -3 -10  -3    4.10    0.44
   3  10   3    3.85    0.42
   3  10   3    3.63    0.40
  -4 -10  -3    5.31    0.55
   4  10   3    5.72    0.57
   2 -11  -3   14.70    0.75
   2 -11  -3   15.72    0.71
   1 -11  -3   33.80    1.07
   1 -11  -3   33.03    1.00
  -1  11   3   32.91    0.99
   0 -11  -3   30.27    0.94
   0 -11  -3   29.49    0.91
   0  11   3   31.83    0.97
  -1 -11  -3   12.44    0.55
  -1 -11  -3   12.60    0.58
   1  11   3   10.36    0.57
  -2 -11  -3   61.64    1.49
   2  11   3   64.15    1.53
   2  11   3   61.56    1.47
  -3 -11  -3    3.77    0.44
   3  11   3    4.49    0.47
   3  11   3    4.77    0.49
   1 -12  -3    2.34    0.38
   1 -12  -3    1.84    0.32
  -1  12   3    2.49    0.35
   0 -12  -3    1.36    0.29
   0 -12  -3    0.98    0.25
   0  12   3    1.35    0.29
  -1 -12  -3    0.85    0.23
  -1 -12  -3    1.57    0.29
   1  12   3    1.09    0.27
  -2 -12  -3   15.37    0.70
   2  12   3   15.61    0.73
  -3 -12  -3    5.26    0.52
   3  12   3    4.94    0.53
   3  12   3    4.64    0.50
   0 -13  -3   11.25    0.66
   0 -13  -3   11.35    0.65
   0  13   3   12.14    0.67
  -1 -13  -3   12.59    0.64
  -1 -13  -3   12.12    0.64
   1  13   3   11.22    0.65
  -2 -13  -3   12.09    0.66
   2  13   3   11.98    0.69
   1  11  -4    4.04    0.49
  -1 -11   4    4.29    0.48
   2  10  -4    2.66    0.41
  -2 -10   4    1.91    0.33
   1  10  -4    1.93    0.34
  -1 -10   4    2.57    0.38
   0  10  -4    0.04    0.17
   0 -10   4    0.02    0.19
   0 -10   4    0.06    0.20
  -1  10  -4    3.34    0.41
   1 -10   4    3.19    0.42
   1 -10   4    3.11    0.43
   3   9  -4    2.96    0.42
  -3  -9   4    3.48    0.42
   2   9  -4   26.31    0.96
  -2  -9   4   26.07    0.92
   1   9  -4   36.10    1.12
  -1  -9   4   33.12    1.04
  -1  -9   4   36.07    1.03
   0   9  -4   32.74    1.04
   0  -9   4   31.53    1.02
   0  -9   4   33.37    1.03
  -1   9  -4   25.81    0.89
   1  -9   4   26.07    0.95
   1  -9   4   26.17    0.99
   2  -9   4   19.74    0.88
   2  -9   4   20.06    0.93
   3   8  -4    5.19    0.49
   3   8  -4    6.13    0.46
   3   8  -4    5.18    0.44
  -3  -8   4    5.64    0.44
   2   8  -4    0.42    0.16
   2   8  -4    0.54    0.20
  -2  -8   4    0.33    0.19
   1   8  -4    1.00    0.25
  -1  -8   4    1.09    0.24
  -1  -8   4    0.53    0.18
   0   8  -4    0.61    0.21
   0  -8   4    0.61    0.20
   0  -8   4    0.65    0.22
  -1   8  -4    4.55    0.41
   1  -8   4    3.95    0.40
   1  -8   4    4.52    0.46
  -2   8  -4    5.67    0.50
   2  -8   4    5.73    0.57
   2  -8   4    4.57    0.46
   4   7  -4    7.61    0.53
   4   7  -4    7.19    0.52
   4   7  -4    8.17    0.55
  -4  -7   4    9.05    0.58
   3   7  -4    3.61    0.38
   3   7  -4    3.50    0.35
   3   7  -4    4.10    0.43
  -3  -7   4    4.05    0.42
   2   7  -4   50.66    1.31
   2   7  -4   52.52    1.15
  -2  -7   4   51.98    1.25
   1   7  -4   61.23    1.44
   1   7  -4   64.43    1.25
  -1  -7   4   63.17    1.39
  -1  -7   4   61.36    1.31
   0   7  -4   17.08    0.53
   0   7  -4   18.03    0.67
   0  -7   4   16.47    0.64
   0  -7   4   17.39    0.65
  -1   7  -4  105.13    1.95
  -1   7  -4  108.83    1.99
  -1   7  -4  104.73    2.01
   1  -7   4  105.68    2.12
   1  -7   4  102.22    2.04
   1  -7   4  102.03    1.93
   1  -7   4  101.16    1.99
  -2   7  -4    6.80    0.48
   2  -7   4    7.82    0.51
   2  -7   4    7.51    0.54
  -3   7  -4    2.34    0.39
   3  -7   4    2.81    0.39
   3  -7   4    3.12    0.44
   4   6  -4    6.83    0.47
   4   6  -4    6.42    0.48
   4   6  -4    6.63    0.49
  -4  -6   4    6.60    0.49
   3   6  -4   11.50    0.54
   3   6  -4   10.48    0.55
   3   6  -4    9.86    0.49
  -3  -6   4   10.46    0.51
   2   6  -4    0.29    0.15
   2   6  -4    0.25    0.13
   2   6  -4    0.42    0.17
   2   6  -4    0.53    0.15
  -2  -6   4    0.25    0.14
   1   6  -4    1.90    0.21
   1   6  -4    1.79    0.24
  -1  -6   4    1.41    0.20
  -1  -6   4    1.99    0.24
   0   6  -4    3.62    0.24
   0   6  -4    3.41    0.33
   0  -6   4    3.84    0.35
   0  -6   4    3.01    0.30
  -1   6  -4   26.38    0.76
  -1   6  -4   27.73    0.78
  -1   6  -4   26.57    0.70
   1  -6   4   26.67    0.85
   1  -6   4   26.50    0.77
   1  -6   4   26.87    0.79
   1  -6   4   27.94    0.83
   1  -6   4   28.12    0.71
  -2   6  -4    9.16    0.44
  -2   6  -4   10.41    0.54
   2  -6   4    9.46    0.44
   2  -6   4   10.33    0.54
   2  -6   4    9.26    0.51
   2  -6   4    9.29    0.54
  -3   6  -4    6.44    0.44
  -3   6  -4    7.61    0.55
   3  -6   4    7.33    0.56
   3  -6   4    6.94    0.51
   3  -6   4    7.86    0.47
   4   5  -4    1.14    0.27
   4   5  -4    1.19    0.27
  -4  -5   4    0.98    0.25
   3   5  -4   36.59    0.99
   3   5  -4   34.24    0.91
   3   5  -4   34.35    0.94
   3   5  -4   35.67    0.95
  -3  -5   4   35.38    0.96
   2   5  -4   42.65    1.03
   2   5  -4   41.69    0.99
   2   5  -4   43.39    1.07
   2   5  -4   41.31    0.96
  -2  -5   4   41.73    0.99
   1   5  -4   66.78    1.42
   1   5  -4   69.55    1.42
   1   5  -4   69.08    1.28
  -1  -5   4   69.29    1.30
  -1  -5   4   68.51    1.34
   0   5  -4   51.76    1.14
   0   5  -4   49.99    1.01
   0   5  -4   51.35    1.02
   0  -5   4   52.86    1.12
   0  -5   4   51.15    1.13
   0  -5   4   55.13    1.28
   0  -5   4   50.62    1.02
  -1   5  -4   88.94    1.68
  -1   5  -4   91.28    1.60
  -1   5  -4   92.74    1.67
   1  -5   4   90.44    1.67
   1  -5   4   90.79    1.60
   1  -5   4   90.98    1.79
   1  -5   4   89.91    1.69
   1  -5   4   88.79    1.72
  -2   5  -4   11.88    0.55
  -2   5  -4   12.20    0.48
   2  -5   4   11.52    0.55
   2  -5   4   11.48    0.47
   2  -5   4   11.79    0.58
   2  -5   4   11.29    0.54
   2  -5   4   12.04    0.48
  -3   5  -4    1.18    0.22
  -3   5  -4    1.63    0.30
   3  -5   4    1.48    0.27
   3  -5   4    2.24    0.28
   3  -5   4    1.73    0.31
   4   4  -4    1.58    0.29
   4   4  -4    1.85    0.29
  -4  -4   4    1.89    0.29
   3   4  -4    5.82    0.36
   3   4  -4    6.74    0.39
   3   4  -4    6.37    0.38
   3   4  -4    5.55    0.36
  -3  -4   4    5.09    0.35
   2   4  -4    0.48    0.14
   2   4  -4    0.41    0.13
   2   4  -4    0.29    0.12
   2   4  -4    0.40    0.15
  -2  -4   4    0.32    0.11
   1   4  -4   20.42    0.63
   1   4  -4   19.68    0.54
   1   4  -4   19.53    0.62
  -1  -4   4   20.21    0.57
  -1  -4   4   21.14    0.55
   0   4  -4   11.82    0.39
   0   4  -4   12.70    0.48
   0   4  -4   12.60    0.46
   0   4  -4   13.37    0.41
   0  -4   4   12.35    0.45
   0  -4   4   12.31    0.43
   0  -4   4   13.07    0.41
  -1   4  -4   23.62    0.63
  -1   4  -4   23.85    0.67
  -1   4  -4   22.91    0.61
   1  -4   4   23.33    0.71
   1  -4   4   23.82    0.61
   1  -4   4   22.87    0.66
   1  -4   4   24.56    0.64
   1  -4   4   22.53    0.67
  -2   4  -4   38.73    1.02
  -2   4  -4   38.16    0.91
   2  -4   4   38.66    0.87
   2  -4   4   37.95    0.99
   2  -4   4   40.15    0.92
   2  -4   4   38.05    1.03
   2  -4   4   38.58    1.02
  -3   4  -4   20.48    0.80
  -3   4  -4   21.18    0.74
   3  -4   4   22.77    0.81
   3  -4   4   20.75    0.72
   3  -4   4   21.90    0.81
   3  -4   4   21.50    0.81
   3  -4   4   20.54    0.58
  -4   4  -4   13.48    0.74
  -4   4  -4   14.02    0.70
   4  -4   4   12.80    0.71
   4  -4   4   13.66    0.66
   4  -4   4   14.14    0.71
   5   3  -4    9.20    0.60
  -5  -3   4    9.46    0.61
   4   3  -4    1.05    0.23
   4   3  -4    0.68    0.23
  -4  -3   4    1.17    0.24
   3   3  -4   49.37    1.11
   3   3  -4   49.61    1.11
   3   3  -4   49.24    1.11
   3   3  -4   49.00    1.14
  -3  -3   4   48.46    1.04
  -3  -3   4   49.38    1.11
   2   3  -4   48.83    0.98
   2   3  -4   44.94    1.03
   2   3  -4   45.13    0.98
   2   3  -4   46.80    1.04
  -2  -3   4   46.39    0.90
  -2  -3   4   46.11    0.81
  -2  -3   4   47.68    0.98
   1   3  -4   70.50    1.35
   1   3  -4   70.35    1.36
   1   3  -4   72.34    1.27
  -1  -3   4   70.04    1.26
  -1  -3   4   70.64    1.23
  -1  -3   4   74.42    1.45
   0   3  -4  332.66    4.84
   0   3  -4  332.88    4.74
   0   3  -4  336.23    4.88
   0  -3   4  336.32    4.75
   0  -3   4  337.95    4.78
   0  -3   4  324.63    4.86
   0  -3   4  330.39    4.83
  -1   3  -4   57.47    1.17
  -1   3  -4   54.50    1.12
  -1   3  -4   57.52    1.08
   1  -3   4   57.24    1.13
   1  -3   4   56.89    1.14
   1  -3   4   56.16    1.07
   1  -3   4   56.86    1.18
   1  -3   4   54.80    1.10
   1  -3   4   57.12    1.06
  -2   3  -4    9.02    0.39
  -2   3  -4    8.81    0.43
   2  -3   4    8.75    0.32
   2  -3   4    8.33    0.41
   2  -3   4    9.31    0.45
   2  -3   4    8.25    0.43
   2  -3   4    7.99    0.37
  -3   3  -4    0.36    0.19
  -3   3  -4    0.04    0.14
   3  -3   4    0.26    0.17
   3  -3   4    0.51    0.17
   3  -3   4    0.60    0.22
   3  -3   4    0.33    0.08
   3  -3   4    0.61    0.19
  -4   3  -4    0.54    0.25
   4  -3   4    0.30    0.21
   4  -3   4    0.74    0.24
   4  -3   4    0.33    0.23
   5   2  -4    4.42    0.47
   5   2  -4    5.41    0.54
  -5  -2   4    3.20    0.42
   4   2  -4    5.76    0.40
   4   2  -4    6.04    0.42
  -4  -2   4    5.73    0.40
  -4  -2   4    5.31    0.39
   3   2  -4    1.19    0.19
   3   2  -4    1.07    0.18
   3   2  -4    1.04    0.19
   3   2  -4    1.12    0.19
  -3  -2   4    1.34    0.20
  -3  -2   4    0.90    0.17
   2   2  -4    3.36    0.23
   2   2  -4    2.68    0.20
   2   2  -4    3.07    0.25
   2   2  -4    3.14    0.23
   2   2  -4    2.84    0.14
  -2  -2   4    3.05    0.20
  -2  -2   4    2.74    0.14
   1   2  -4   46.97    0.98
   1   2  -4   47.16    0.96
   1   2  -4   45.91    0.90
  -1  -2   4   45.95    0.85
  -1  -2   4   46.88    0.98
   0   2  -4   36.71    0.73
   0   2  -4   37.49    0.80
   0  -2   4   36.07    0.77
   0  -2   4   36.57    0.78
  -1   2  -4   16.89    0.50
  -1   2  -4   17.93    0.48
  -1   2  -4   17.45    0.52
   1  -2   4   17.25    0.43
   1  -2   4   17.79    0.48
   1  -2   4   16.81    0.53
   1  -2   4   17.57    0.50
   1  -2   4   17.04    0.45
   1  -2   4   17.71    0.52
  -2   2  -4   28.97    0.75
  -2   2  -4   28.81    0.80
   2  -2   4   28.42    0.80
   2  -2   4   30.56    0.81
   2  -2   4   29.02    0.73
   2  -2   4   27.67    0.57
   2  -2   4   28.80    0.59
   2  -2   4   29.10    0.78
  -3   2  -4   51.64    1.28
   3  -2   4   52.68    1.24
   3  -2   4   52.58    1.19
   3  -2   4   49.72    1.26
   3  -2   4   54.64    1.26
  -4   2  -4    7.41    0.55
   4  -2   4    6.77    0.51
   4  -2   4    7.20    0.47
   4  -2   4    6.86    0.48
   5   1  -4    9.50    0.60
   5   1  -4   10.31    0.59
  -5  -1   4    9.66    0.59
   4   1  -4   31.51    0.91
   4   1  -4   31.09    0.94
  -4  -1   4   30.72    0.92
   3   1  -4   52.46    1.08
   3   1  -4   51.04    1.15
   3   1  -4   54.27    1.11
   3   1  -4   51.70    1.16
  -3  -1   4   50.89    1.12
   2   1  -4  121.78    2.02
   2   1  -4  120.93    2.07
   2   1  -4  122.99    1.81
   2   1  -4  120.71    2.00
  -2  -1   4  122.74    1.98
  -2  -1   4  122.43    1.81
  -2  -1   4  121.72    1.99
   1   1  -4   87.00    1.50
   1   1  -4   86.05    1.54
   1   1  -4   87.29    1.43
  -1  -1   4   87.23    1.37
  -1  -1   4   84.87    1.49
  -1  -1   4   85.62    1.54
   0   1  -4  219.11    3.20
   0   1  -4  222.68    3.26
   0  -1   4  223.66    3.21
  -1   1  -4   56.52    1.09
  -1   1  -4   58.08    1.05
  -1   1  -4   56.46    1.04
   1  -1   4   56.73    0.92
   1  -1   4   57.71    0.91
   1  -1   4   59.42    1.05
   1  -1   4   57.56    1.10
  -2   1  -4    7.54    0.35
  -2   1  -4    7.78    0.38
   2  -1   4    7.93    0.39
   2  -1   4    7.77    0.37
   2  -1   4    7.02    0.35
   2  -1   4    8.01    0.34
  -3   1  -4    0.65    0.19
   3  -1   4    0.43    0.16
   3  -1   4    0.78    0.21
   3  -1   4    0.60    0.17
   3  -1   4    0.63    0.17
  -4   1  -4   -0.04    0.16
   4  -1   4    0.22    0.20
   4  -1   4    0.09    0.18
   5   0  -4    0.65    0.29
   5   0  -4    1.02    0.28
  -5   0   4    0.80    0.27
   4   0  -4    1.81    0.30
   4   0  -4    1.50    0.25
  -4   0   4    1.88    0.29
   3   0  -4    1.00    0.16
   3   0  -4    1.18    0.19
   3   0  -4    0.81    0.17
   3   0  -4    1.27    0.19
  -3   0   4    1.24    0.20
   2   0  -4   49.78    0.97
   2   0  -4   49.92    1.05
   2   0  -4   50.35    0.86
   2   0  -4   49.56    1.03
   2   0  -4   49.66    1.00
  -2   0   4   48.02    0.94
  -2   0   4   49.56    0.86
  -2   0   4   49.52    1.00
   1   0  -4    5.05    0.22
   1   0  -4    4.97    0.25
   1   0  -4    5.05    0.24
  -1   0   4    5.56    0.26
  -1   0   4    4.83    0.23
  -1   0   4    5.06    0.20
   0   0  -4   65.02    1.08
   0   0  -4   62.59    1.21
   0   0  -4   64.55    1.08
   0   0   4   66.53    1.03
   0   0   4   64.95    1.11
   0   0   4   65.91    1.22
   0   0   4   65.30    1.08
  -1   0  -4   89.48    1.65
  -1   0  -4   93.78    1.46
  -1   0  -4   98.86    1.61
  -1   0  -4   97.81    1.55
   1   0   4   98.88    1.68
   1   0   4   94.43    1.60
   1   0   4   97.72    1.61
   1   0   4   97.03    1.55
  -2   0  -4   72.49    1.24
  -2   0  -4   71.96    1.40
   2   0   4   72.70    1.33
   2   0   4   72.97    1.37
   2   0   4   73.63    1.37
   2   0   4   72.11    1.39
  -3   0  -4   45.38    1.12
   3   0   4   45.76    1.11
   3   0   4   45.92    1.13
   3   0   4   44.97    1.05
   3   0   4   43.91    1.05
  -4   0  -4    5.27    0.48
   4   0   4    4.64    0.44
   4   0   4    4.56    0.43
   5  -1  -4    9.50    0.62
  -5   1   4    9.36    0.60
   4  -1  -4   36.17    0.98
   4  -1  -4   34.93    1.01
  -4   1   4   36.20    1.06
   3  -1  -4  101.91    1.89
   3  -1  -4  103.52    1.80
   3  -1  -4  104.78    1.88
  -3   1   4  102.70    1.91
   2  -1  -4  136.09    2.10
   2  -1  -4  133.26    2.14
   2  -1  -4  126.61    2.18
   2  -1  -4  134.79    2.20
   2  -1  -4  133.13    2.02
  -2   1   4  135.76    2.19
   1  -1  -4    1.68    0.14
   1  -1  -4    1.28    0.14
   1  -1  -4    1.61    0.14
  -1   1   4    1.68    0.12
  -1   1   4    1.61    0.14
  -1   1   4    1.46    0.15
   0  -1  -4   27.58    0.64
   0  -1  -4   27.28    0.50
   0  -1  -4   26.66    0.54
   0   1   4   27.43    0.64
   0   1   4   26.73    0.54
   0   1   4   27.74    0.57
   0   1   4   27.22    0.43
  -1  -1  -4    5.99    0.24
  -1  -1  -4    5.45    0.27
   1   1   4    5.61    0.23
   1   1   4    5.86    0.25
   1   1   4    6.02    0.27
   1   1   4    5.91    0.25
  -2  -1  -4    4.55    0.17
  -2  -1  -4    4.17    0.24
  -2  -1  -4    4.73    0.27
   2   1   4    4.12    0.25
   2   1   4    4.06    0.23
   2   1   4    4.32    0.26
   2   1   4    3.84    0.24
   2   1   4    4.12    0.23
  -3  -1  -4    0.67    0.18
   3   1   4    0.46    0.15
   3   1   4    0.58    0.16
   3   1   4    0.65    0.15
   3   1   4    0.49    0.16
  -4  -1  -4    3.44    0.37
   4   1   4    3.25    0.37
   4   1   4    3.25    0.36
  -5  -1  -4    5.25    0.57
   5   1   4    3.64    0.46
   5   1   4    4.67    0.49
   5  -2  -4    2.27    0.38
  -5   2   4    2.72    0.43
   4  -2  -4    0.29    0.17
   4  -2  -4    0.18    0.16
  -4   2   4    0.28    0.19
   3  -2  -4   -0.04    0.11
   3  -2  -4    0.07    0.09
   3  -2  -4    0.03    0.10
   3  -2  -4    0.10    0.10
  -3   2   4    0.07    0.13
   2  -2  -4   67.97    1.31
   2  -2  -4   67.80    1.31
   2  -2  -4   69.56    1.24
   2  -2  -4   68.77    1.20
   2  -2  -4   68.70    1.25
  -2   2   4   67.15    1.31
  -2   2   4   67.06    1.30
   1  -2  -4   31.02    0.67
   1  -2  -4   32.70    0.63
   1  -2  -4   33.21    0.69
   1  -2  -4   31.98    0.65
   1  -2  -4   31.10    0.70
  -1   2   4   31.63    0.65
  -1   2   4   32.56    0.69
  -1   2   4   32.25    0.65
   0  -2  -4   95.20    1.46
   0  -2  -4   88.72    1.54
   0  -2  -4   91.36    1.39
   0  -2  -4   92.03    1.33
   0   2   4   92.69    1.46
  -1  -2  -4    0.97    0.12
  -1  -2  -4    0.91    0.13
   1   2   4    1.18    0.13
   1   2   4    1.06    0.14
   1   2   4    0.96    0.11
  -2  -2  -4  362.09    5.14
  -2  -2  -4  358.71    5.18
   2   2   4  358.99    5.18
   2   2   4  348.76    5.10
   2   2   4  360.27    5.15
   2   2   4  360.78    5.19
  -3  -2  -4   51.69    1.18
   3   2   4   54.00    1.21
   3   2   4   53.49    1.07
   3   2   4   53.39    1.16
   3   2   4   51.66    1.18
  -4  -2  -4   18.81    0.73
   4   2   4   18.67    0.75
   4   2   4   19.32    0.72
  -5  -2  -4   20.95    0.89
   5   2   4   19.37    0.89
   5   2   4   20.27    0.85
   4  -3  -4   12.81    0.56
   4  -3  -4   11.50    0.56
  -4   3   4   11.90    0.63
   3  -3  -4   47.44    1.07
   3  -3  -4   48.36    1.02
   3  -3  -4   47.61    1.13
   3  -3  -4   48.55    1.04
  -3   3   4   45.21    1.15
  -3   3   4   48.53    1.19
   2  -3  -4   79.99    1.52
   2  -3  -4   72.95    1.41
   2  -3  -4   72.59    1.32
   2  -3  -4   72.93    1.31
  -2   3   4   74.27    1.40
  -2   3   4   73.74    1.41
  -2   3   4   72.86    1.41
   1  -3  -4   20.50    0.52
   1  -3  -4   21.89    0.52
   1  -3  -4   20.68    0.46
   1  -3  -4   20.67    0.52
  -1   3   4   21.11    0.50
  -1   3   4   21.20    0.52
  -1   3   4   23.17    0.55
  -1   3   4   21.39    0.52
   0  -3  -4   46.99    0.84
   0  -3  -4   45.16    0.75
   0  -3  -4   44.50    0.74
   0   3   4   43.37    0.83
  -1  -3  -4    3.39    0.17
  -1  -3  -4    3.57    0.21
   1   3   4    3.42    0.18
   1   3   4    3.19    0.16
  -2  -3  -4  104.25    1.74
  -2  -3  -4  104.02    1.76
   2   3   4  105.12    1.74
   2   3   4  105.28    1.77
   2   3   4  105.87    1.69
   2   3   4  105.84    1.80
  -3  -3  -4    3.31    0.30
   3   3   4    3.49    0.31
   3   3   4    3.63    0.33
   3   3   4    3.07    0.21
   3   3   4    3.17    0.29
  -4  -3  -4    2.36    0.31
   4   3   4    2.02    0.31
   4   3   4    2.86    0.37
  -5  -3  -4    2.54    0.40
   5   3   4    1.81    0.37
   5   3   4    1.44    0.33
   4  -4  -4    0.10    0.15
   4  -4  -4    0.24    0.19
  -4   4   4    0.03    0.16
   3  -4  -4    3.60    0.35
   3  -4  -4    3.82    0.28
   3  -4  -4    4.02    0.30
   3  -4  -4    4.20    0.34
  -3   4   4    3.35    0.35
   2  -4  -4   26.72    0.65
   2  -4  -4   28.73    0.75
   2  -4  -4   27.53    0.70
  -2   4   4   26.76    0.74
  -2   4   4   27.26    0.73
  -2   4   4   29.10    0.76
   1  -4  -4   48.03    0.93
   1  -4  -4   47.02    0.94
   1  -4  -4   48.76    0.83
  -1   4   4   48.65    0.95
  -1   4   4   47.37    0.93
   0  -4  -4   60.80    0.93
   0  -4  -4   61.46    1.09
   0   4   4   60.49    1.08
  -1  -4  -4   44.84    0.84
   1   4   4   45.22    0.84
   1   4   4   44.16    0.78
  -2  -4  -4  216.31    3.26
  -2  -4  -4  222.28    3.03
  -2  -4  -4  212.48    3.14
  -2  -4  -4  216.93    3.22
   2   4   4  217.98    3.22
   2   4   4  214.42    3.29
   2   4   4  212.93    3.15
   2   4   4  208.25    3.21
  -3  -4  -4   58.46    1.20
   3   4   4   56.67    1.27
   3   4   4   55.67    1.20
  -4  -4  -4   21.50    0.74
   4   4   4   19.95    0.77
   4   4   4   21.38    0.77
  -5  -4  -4   19.37    0.80
   5   4   4   17.53    0.82
   5   4   4   18.69    0.85
   4  -5  -4   18.10    0.76
   4  -5  -4   18.88    0.72
  -4   5   4   18.63    0.82
   3  -5  -4   25.38    0.76
   3  -5  -4   24.50    0.81
   3  -5  -4   25.09    0.72
   3  -5  -4   24.76    0.71
  -3   5   4   24.57    0.84
   2  -5  -4   37.97    0.81
   2  -5  -4   35.51    0.87
   2  -5  -4   36.01    0.78
   2  -5  -4   36.73    0.91
   2  -5  -4   37.16    0.78
  -2   5   4   36.77    0.93
  -2   5   4   37.29    0.78
  -2   5   4   35.58    0.91
   1  -5  -4   65.19    1.06
   1  -5  -4   66.17    1.26
   1  -5  -4   65.29    1.22
  -1   5   4   68.12    1.24
  -1   5   4   66.18    1.19
  -1   5   4   67.39    1.23
   0  -5  -4    7.59    0.30
   0   5   4    7.35    0.30
   0   5   4    7.61    0.24
   0   5   4    7.40    0.30
  -1  -5  -4    0.00    0.06
   1   5   4    0.10    0.05
   1   5   4    0.00    0.06
   1   5   4    0.13    0.07
  -2  -5  -4    3.83    0.21
  -2  -5  -4    4.34    0.21
   2   5   4    4.36    0.24
   2   5   4    4.13    0.21
   2   5   4    3.80    0.22
   2   5   4    4.21    0.27
  -3  -5  -4   12.49    0.46
   3   5   4   12.56    0.49
   3   5   4   12.29    0.53
   3   5   4   13.19    0.47
   4   5   4    3.39    0.37
   4   5   4    3.40    0.38
   5   5   4    3.94    0.45
   5   5   4    3.68    0.46
  -4   6   4    2.89    0.42
   3  -6  -4    8.86    0.42
   3  -6  -4    9.14    0.50
   3  -6  -4    9.68    0.49
   3  -6  -4    8.42    0.43
  -3   6   4    7.77    0.50
   2  -6  -4   36.69    0.92
   2  -6  -4   35.13    0.75
   2  -6  -4   34.34    0.91
   2  -6  -4   35.22    0.81
  -2   6   4   34.50    0.92
  -2   6   4   35.53    0.92
  -2   6   4   34.39    0.78
   1  -6  -4   34.72    0.62
   1  -6  -4   34.27    0.84
   1  -6  -4   35.16    0.84
   1  -6  -4   35.45    0.82
  -1   6   4   34.95    0.81
  -1   6   4   34.19    0.80
  -1   6   4   35.02    0.79
   0  -6  -4   14.76    0.47
   0   6   4   14.61    0.46
   0   6   4   15.34    0.40
  -1  -6  -4  228.86    3.40
  -1  -6  -4  225.03    3.38
   1   6   4  230.51    3.45
   1   6   4  229.96    3.38
   1   6   4  227.30    3.20
   1   6   4  226.55    3.39
  -2  -6  -4   43.34    0.99
  -2  -6  -4   43.87    0.86
   2   6   4   42.77    0.94
   2   6   4   43.14    0.85
   2   6   4   44.80    0.88
   2   6   4   43.75    0.99
  -3  -6  -4   17.96    0.66
   3   6   4   17.84    0.59
   3   6   4   16.90    0.64
   3   6   4   16.61    0.54
   4   6   4    6.93    0.45
   4   6   4    7.05    0.49
   5   6   4    3.89    0.48
   5   6   4    3.82    0.46
   4  -7  -4   16.60    0.76
  -4   7   4   17.48    0.86
   3  -7  -4   24.34    0.77
   3  -7  -4   24.32    0.85
   3  -7  -4   25.13    0.84
  -3   7   4   24.86    0.90
   2  -7  -4   26.81    0.81
   2  -7  -4   27.60    0.82
   2  -7  -4   26.99    0.73
  -2   7   4   26.22    0.80
  -2   7   4   26.48    0.69
  -2   7   4   26.57    0.81
   1  -7  -4   22.39    0.60
   1  -7  -4   21.97    0.67
   1  -7  -4   22.10    0.64
  -1   7   4   22.92    0.63
  -1   7   4   22.43    0.63
  -1   7   4   22.20    0.64
   0  -7  -4    0.30    0.09
   0  -7  -4    0.22    0.10
   0   7   4    0.07    0.09
   0   7   4    0.27    0.08
   0   7   4    0.27    0.09
  -1  -7  -4    0.78    0.15
  -1  -7  -4    1.17    0.16
  -1  -7  -4    0.97    0.09
   1   7   4    1.00    0.09
   1   7   4    0.82    0.14
   1   7   4    0.61    0.13
   1   7   4    0.87    0.09
  -2  -7  -4    1.56    0.17
  -2  -7  -4    1.25    0.19
   2   7   4    1.86    0.18
   2   7   4    1.57    0.22
   2   7   4    1.39    0.20
  -3  -7  -4    9.19    0.49
   3   7   4   10.20    0.51
   3   7   4    9.94    0.44
  -4  -7  -4   19.85    0.80
   4   7   4   18.90    0.72
   4   7   4   18.50    0.78
   3  -8  -4    1.39    0.25
   3  -8  -4    1.21    0.28
  -3   8   4    1.27    0.29
   2  -8  -4   11.49    0.55
   2  -8  -4   11.53    0.48
   2  -8  -4   12.16    0.56
  -2   8   4   12.07    0.55
  -2   8   4   12.21    0.56
  -2   8   4   11.35    0.51
   1  -8  -4   34.64    0.93
   1  -8  -4   34.31    0.84
  -1   8   4   35.09    0.89
  -1   8   4   34.80    0.87
   0  -8  -4   27.56    0.76
   0  -8  -4   27.90    0.72
   0   8   4   26.24    0.67
   0   8   4   28.07    0.64
   0   8   4   27.12    0.75
  -1  -8  -4   78.72    1.47
  -1  -8  -4   78.50    1.49
   1   8   4   79.07    1.56
   1   8   4   81.15    1.29
   1   8   4   80.30    1.50
  -2  -8  -4   19.07    0.54
   2   8   4   18.07    0.62
   2   8   4   18.09    0.63
  -3  -8  -4   13.13    0.59
   3   8   4   13.39    0.55
   3   8   4   12.76    0.50
   3   8   4   13.32    0.59
  -4  -8  -4    1.36    0.29
   4   8   4    1.36    0.30
   4   8   4    1.62    0.29
   3  -9  -4    2.93    0.35
   3  -9  -4    3.25    0.42
  -3   9   4    3.21    0.43
   2  -9  -4    5.63    0.38
   2  -9  -4    5.44    0.42
  -2   9   4    6.18    0.44
  -2   9   4    4.94    0.38
   1  -9  -4   11.78    0.54
   1  -9  -4   10.87    0.47
  -1   9   4   10.69    0.45
  -1   9   4   11.15    0.49
  -1   9   4   11.14    0.50
   0  -9  -4   -0.06    0.09
   0  -9  -4   -0.12    0.11
   0   9   4    0.13    0.12
  -1  -9  -4    0.13    0.12
  -1  -9  -4    0.44    0.14
   1   9   4    0.26    0.13
  -2  -9  -4   10.87    0.50
   2   9   4   12.35    0.53
   2   9   4   11.45    0.53
  -3  -9  -4   21.97    0.81
   3   9   4   21.98    0.77
   3   9   4   22.88    0.82
  -4  -9  -4   14.08    0.72
   4   9   4   15.38    0.75
   3 -10  -4    2.74    0.41
   3 -10  -4    2.95    0.39
  -3  10   4    3.67    0.47
   2 -10  -4   19.16    0.72
   2 -10  -4   18.58    0.78
  -2  10   4   18.12    0.72
   1 -10  -4   47.35    1.15
   1 -10  -4   45.76    1.22
  -1  10   4   48.82    1.18
  -1  10   4   47.34    1.18
   0 -10  -4   35.00    0.98
   0 -10  -4   34.44    0.93
   0  10   4   36.74    0.99
  -1 -10  -4   30.00    0.83
  -1 -10  -4   27.22    0.82
   1  10   4   27.59    0.87
  -2 -10  -4   17.28    0.67
   2  10   4   18.57    0.69
   2  10   4   17.81    0.37
   2  10   4   18.10    0.71
  -3 -10  -4    3.85    0.40
   3  10   4    4.54    0.44
   3  10   4    4.77    0.45
  -4 -10  -4    2.33    0.38
   4  10   4    1.78    0.35
   2 -11  -4    0.19    0.24
   2 -11  -4    0.53    0.22
   1 -11  -4    9.65    0.56
   1 -11  -4   10.10    0.53
  -1  11   4    9.11    0.50
   0 -11  -4    0.58    0.18
   0 -11  -4    0.40    0.19
   0  11   4    0.44    0.19
  -1 -11  -4    4.07    0.40
  -1 -11  -4    4.40    0.39
   1  11   4    4.10    0.41
  -2 -11  -4    0.21    0.16
   2  11   4    0.55    0.21
   2  11   4    0.68    0.22
  -3 -11  -4   23.25    0.90
   3  11   4   21.76    0.86
   3  11   4   24.58    0.90
   1 -12  -4   27.60    0.93
   1 -12  -4   27.54    1.00
  -1  12   4   26.59    0.92
   0 -12  -4   19.00    0.78
   0 -12  -4   20.37    0.77
   0  12   4   19.51    0.79
  -1 -12  -4   24.75    0.86
  -1 -12  -4   23.64    0.82
   1  12   4   23.49    0.89
  -2 -12  -4   18.72    0.76
   2  12   4   17.65    0.78
  -3 -12  -4    1.28    0.31
   3  12   4    1.02    0.29
   3  12   4    0.69    0.28
   1 -13  -4    0.02    0.21
   1 -13  -4    0.03    0.19
  -1  13   4    0.15    0.19
   0 -13  -4    1.31    0.29
   0 -13  -4    0.97    0.27
   0  13   4    1.00    0.26
  -1 -13  -4    2.07    0.33
  -1 -13  -4    1.71    0.31
   1  13   4    2.70    0.39
  -2 -13  -4    0.08    0.21
   2  13   4    0.04    0.22
   2  10  -5    6.28    0.60
  -2 -10   5    7.42    0.57
   1  10  -5    4.25    0.48
  -1 -10   5    4.97    0.49
   0  10  -5   11.67    0.66
   0 -10   5   11.65    0.66
   0 -10   5   10.52    0.65
   2   9  -5    4.54    0.50
  -2  -9   5    4.67    0.48
   1   9  -5    0.17    0.19
  -1  -9   5    0.12    0.19
   0   9  -5    1.21    0.28
   0  -9   5    0.52    0.22
   0  -9   5    0.34    0.22
  -1   9  -5    0.47    0.22
   1  -9   5    0.90    0.27
   1  -9   5    0.84    0.29
   3   8  -5    9.24    0.60
   3   8  -5    7.74    0.49
  -3  -8   5    7.43    0.50
   2   8  -5   13.03    0.57
   2   8  -5   13.25    0.69
  -2  -8   5   13.45    0.64
   1   8  -5   27.72    0.96
  -1  -8   5   29.79    0.93
  -1  -8   5   29.72    0.90
   0   8  -5   22.10    0.82
   0  -8   5   23.02    0.84
   0  -8   5   23.25    0.83
  -1   8  -5   12.34    0.60
   1  -8   5   11.70    0.63
   1  -8   5   12.13    0.67
   2  -8   5   13.14    0.70
   2  -8   5   12.52    0.74
   3   7  -5    3.25    0.36
   3   7  -5    3.88    0.40
   3   7  -5    4.35    0.47
  -3  -7   5    3.61    0.40
   2   7  -5    6.46    0.40
   2   7  -5    6.31    0.45
  -2  -7   5    6.02    0.42
   1   7  -5    3.19    0.29
   1   7  -5    3.80    0.38
  -1  -7   5    4.17    0.36
  -1  -7   5    4.57    0.40
   0   7  -5    0.18    0.15
   0   7  -5    0.14    0.12
   0  -7   5    0.12    0.16
   0  -7   5    0.25    0.16
  -1   7  -5    7.53    0.45
  -1   7  -5    7.45    0.39
   1  -7   5    7.98    0.50
   1  -7   5    8.97    0.55
  -2   7  -5   18.34    0.77
   2  -7   5   20.09    0.81
   2  -7   5   17.39    0.81
   2  -7   5   19.05    0.78
   4   6  -5    5.94    0.51
   4   6  -5    6.57    0.49
   4   6  -5    6.37    0.54
  -4  -6   5    5.71    0.51
   3   6  -5   23.39    0.81
   3   6  -5   25.14    0.81
   3   6  -5   23.50    0.85
  -3  -6   5   24.13    0.82
   2   6  -5   39.28    1.11
   2   6  -5   40.78    0.99
   2   6  -5   39.01    1.07
  -2  -6   5   39.87    1.03
   1   6  -5   61.26    1.42
   1   6  -5   60.53    1.41
   1   6  -5   62.32    1.25
  -1  -6   5   61.37    1.29
  -1  -6   5   60.65    1.32
   0   6  -5   66.38    1.47
   0   6  -5   68.15    1.31
   0  -6   5   68.30    1.47
   0  -6   5   67.44    1.43
  -1   6  -5   26.32    0.80
  -1   6  -5   25.83    0.72
   1  -6   5   24.61    0.85
   1  -6   5   27.02    0.79
   1  -6   5   26.72    0.84
   1  -6   5   26.32    0.73
   1  -6   5   25.89    0.80
  -2   6  -5    8.58    0.46
  -2   6  -5    9.58    0.54
   2  -6   5   10.20    0.56
   2  -6   5    9.42    0.54
   2  -6   5    8.56    0.54
   2  -6   5    9.69    0.47
  -3   6  -5   10.40    0.65
  -3   6  -5    9.28    0.53
   3  -6   5    9.68    0.62
   3  -6   5    9.21    0.52
   3  -6   5    9.28    0.65
   4   5  -5    4.32    0.44
   4   5  -5    4.48    0.43
   4   5  -5    4.71    0.45
  -4  -5   5    4.97    0.46
   3   5  -5   26.94    0.82
   3   5  -5   26.00    0.81
   3   5  -5   24.08    0.84
  -3  -5   5   26.28    0.81
   2   5  -5    4.49    0.35
   2   5  -5    4.80    0.36
   2   5  -5    4.83    0.33
  -2  -5   5    4.96    0.33
   1   5  -5    0.40    0.13
   1   5  -5    0.59    0.17
   1   5  -5    0.58    0.18
  -1  -5   5    0.15    0.11
  -1  -5   5    0.65    0.15
   0   5  -5    0.84    0.15
   0   5  -5    0.77    0.15
   0   5  -5    0.64    0.16
   0   5  -5    0.68    0.18
   0  -5   5    0.73    0.18
   0  -5   5    0.87    0.17
   0  -5   5    1.04    0.16
  -1   5  -5    5.00    0.33
  -1   5  -5    4.38    0.30
  -1   5  -5    4.71    0.32
   1  -5   5    4.83    0.30
   1  -5   5    5.24    0.34
   1  -5   5    4.32    0.33
   1  -5   5    4.68    0.36
   1  -5   5    4.54    0.31
  -2   5  -5   25.15    0.85
  -2   5  -5   27.18    0.78
   2  -5   5   26.77    0.73
   2  -5   5   26.80    0.91
   2  -5   5   26.39    0.77
   2  -5   5   25.85    0.85
   2  -5   5   26.15    0.87
  -3   5  -5    6.05    0.44
  -3   5  -5    5.81    0.55
   3  -5   5    5.58    0.53
   3  -5   5    4.32    0.46
   3  -5   5    4.98    0.48
   3  -5   5    5.56    0.45
   4   4  -5   34.61    1.07
   4   4  -5   36.86    1.05
  -4  -4   5   37.72    1.07
   3   4  -5   54.29    1.23
   3   4  -5   56.03    1.30
   3   4  -5   56.82    1.29
   3   4  -5   55.51    1.27
  -3  -4   5   53.68    1.23
   2   4  -5   59.30    1.32
   2   4  -5   60.11    1.25
   2   4  -5   59.88    1.33
   2   4  -5   60.28    1.23
  -2  -4   5   62.24    1.24
   1   4  -5   52.67    1.19
   1   4  -5   51.37    1.17
   1   4  -5   52.64    1.07
  -1  -4   5   52.44    1.07
  -1  -4   5   50.86    1.06
  -1  -4   5   52.54    0.99
   0   4  -5   28.55    0.79
   0   4  -5   30.43    0.72
   0   4  -5   30.08    0.83
   0   4  -5   28.30    0.70
   0  -4   5   28.78    0.71
   0  -4   5   29.92    0.75
   0  -4   5   30.95    0.80
  -1   4  -5   45.94    1.02
  -1   4  -5   45.34    1.05
  -1   4  -5   46.99    0.99
   1  -4   5   45.08    1.04
   1  -4   5   46.50    1.06
   1  -4   5   46.61    1.00
   1  -4   5   46.20    1.12
   1  -4   5   45.83    0.98
  -2   4  -5   27.38    0.77
  -2   4  -5   26.21    0.84
   2  -4   5   28.31    0.69
   2  -4   5   26.41    0.75
   2  -4   5   25.12    0.81
   2  -4   5   28.15    0.87
   2  -4   5   25.29    0.85
  -3   4  -5    7.32    0.45
  -3   4  -5    7.56    0.50
   3  -4   5    7.77    0.46
   3  -4   5    6.49    0.48
   3  -4   5    6.94    0.49
   3  -4   5    6.72    0.56
  -4   4  -5    0.79    0.27
  -4   4  -5    0.59    0.26
   4  -4   5    0.40    0.25
   4  -4   5    0.59    0.25
   4  -4   5    0.27    0.26
   4   3  -5    1.48    0.26
   4   3  -5    1.07    0.28
  -4  -3   5    0.89    0.24
   3   3  -5   78.14    1.57
   3   3  -5   75.11    1.56
   3   3  -5   77.28    1.58
   3   3  -5   76.19    1.51
   2   3  -5    3.39    0.24
   2   3  -5    3.31    0.29
   2   3  -5    2.89    0.26
   2   3  -5    3.16    0.30
  -2  -3   5    3.38    0.22
   1   3  -5    0.17    0.10
   1   3  -5    0.21    0.11
   1   3  -5    0.31    0.11
  -1  -3   5    0.34    0.12
  -1  -3   5    0.21    0.07
  -1  -3   5    0.08    0.07
  -1  -3   5    0.18    0.09
   0   3  -5    0.63    0.15
   0   3  -5    0.65    0.14
   0   3  -5    0.82    0.14
   0  -3   5    0.63    0.12
   0  -3   5    0.70    0.14
   0  -3   5    0.56    0.13
   0  -3   5    0.75    0.13
  -1   3  -5   49.33    1.02
  -1   3  -5   49.86    1.03
  -1   3  -5   48.47    1.07
  -1   3  -5   48.29    1.10
   1  -3   5   48.03    1.01
   1  -3   5   48.84    1.05
   1  -3   5   48.84    1.12
   1  -3   5   49.29    0.97
   1  -3   5   50.08    1.08
  -2   3  -5   22.33    0.67
  -2   3  -5   21.02    0.71
   2  -3   5   21.32    0.53
   2  -3   5   22.33    0.75
   2  -3   5   22.27    0.71
   2  -3   5   20.95    0.72
   2  -3   5   22.04    0.66
  -3   3  -5   23.40    0.85
  -3   3  -5   24.11    0.79
   3  -3   5   24.83    0.85
   3  -3   5   23.85    0.78
   3  -3   5   23.59    0.85
   3  -3   5   23.60    0.85
  -4   3  -5   10.70    0.68
  -4   3  -5   10.52    0.62
   4  -3   5   12.03    0.65
   4  -3   5   11.48    0.67
   4  -3   5   12.91    0.65
   4   2  -5   39.00    1.06
   4   2  -5   41.38    1.14
  -4  -2   5   40.43    1.06
   3   2  -5   73.18    1.48
   3   2  -5   73.78    1.54
   3   2  -5   72.92    1.51
   3   2  -5   73.69    1.44
  -3  -2   5   76.37    1.46
  -3  -2   5   73.78    1.44
   2   2  -5   82.87    1.63
   2   2  -5   84.12    1.56
   2   2  -5   84.10    1.59
   2   2  -5   84.18    1.36
   2   2  -5   86.85    1.48
  -2  -2   5   84.60    1.48
  -2  -2   5   87.62    1.49
  -2  -2   5   83.93    1.36
   1   2  -5   53.81    1.11
   1   2  -5   53.31    1.13
   1   2  -5   53.20    1.04
  -1  -2   5   53.12    1.00
  -1  -2   5   53.69    1.11
  -1  -2   5   52.89    0.99
   0   2  -5   16.40    0.52
   0   2  -5   16.66    0.48
   0   2  -5   17.21    0.52
   0  -2   5   17.09    0.52
   0  -2   5   17.83    0.50
   0  -2   5   16.72    0.48
  -1   2  -5   50.66    1.07
  -1   2  -5   50.26    1.01
  -1   2  -5   49.40    1.05
  -1   2  -5   51.34    1.01
   1  -2   5   51.78    0.92
   1  -2   5   50.53    0.95
   1  -2   5   51.55    1.11
   1  -2   5   52.02    1.08
   1  -2   5   50.15    1.01
   1  -2   5   51.48    1.03
  -2   2  -5   27.60    0.81
  -2   2  -5   27.11    0.73
   2  -2   5   28.15    0.74
   2  -2   5   27.63    0.52
   2  -2   5   27.92    0.78
   2  -2   5   27.85    0.81
   2  -2   5   26.80    0.80
   2  -2   5   27.50    0.51
  -3   2  -5   20.03    0.77
  -3   2  -5   19.16    0.71
   3  -2   5   19.31    0.76
   3  -2   5   19.19    0.69
   3  -2   5   20.12    0.73
   3  -2   5   20.22    0.73
  -4   2  -5    2.88    0.40
  -4   2  -5    2.61    0.38
   4  -2   5    3.40    0.40
   4  -2   5    2.92    0.37
   4  -2   5    2.90    0.38
   4   1  -5    9.98    0.51
   4   1  -5   10.51    0.55
  -4  -1   5    9.95    0.52
   3   1  -5    2.23    0.24
   3   1  -5    1.85    0.25
   3   1  -5    2.10    0.24
   3   1  -5    1.88    0.24
  -3  -1   5    2.26    0.24
  -3  -1   5    1.82    0.23
   2   1  -5    0.80    0.15
   2   1  -5    0.73    0.10
   2   1  -5    0.70    0.15
   2   1  -5    0.59    0.14
  -2  -1   5    0.54    0.12
  -2  -1   5    0.70    0.10
   1   1  -5   11.41    0.41
   1   1  -5   12.51    0.40
   1   1  -5   12.10    0.43
   1   1  -5   11.21    0.46
  -1  -1   5   12.17    0.42
  -1  -1   5   11.96    0.37
  -1  -1   5   12.19    0.36
   0   1  -5   14.83    0.44
   0   1  -5   14.92    0.45
   0   1  -5   14.81    0.42
   0   1  -5   14.45    0.53
   0  -1   5   14.98    0.45
   0  -1   5   14.27    0.40
   0  -1   5   14.14    0.42
  -1   1  -5   69.22    1.24
  -1   1  -5   68.74    1.31
  -1   1  -5   68.87    1.25
   1  -1   5   67.57    1.07
   1  -1   5   71.18    1.06
   1  -1   5   68.85    1.34
   1  -1   5   70.42    1.31
   1  -1   5   68.85    1.25
   1  -1   5   70.68    1.26
  -2   1  -5   53.22    1.19
  -2   1  -5   54.05    1.13
   2  -1   5   52.68    1.18
   2  -1   5   52.95    1.17
   2  -1   5   54.24    1.12
   2  -1   5   53.25    1.14
  -3   1  -5  106.80    2.11
   3  -1   5  106.59    2.04
   3  -1   5  106.38    1.99
   3  -1   5  104.93    2.05
   3  -1   5  109.40    2.12
  -4   1  -5   16.69    0.76
   4  -1   5   16.96    0.77
   4  -1   5   17.24    0.72
   4  -1   5   16.99    0.76
   4  -1   5   17.55    0.71
   5   0  -5   18.86    0.84
  -5   0   5   20.23    0.86
   4   0  -5   19.59    0.74
  -4   0   5   20.20    0.76
   3   0  -5   50.23    1.05
   3   0  -5   47.65    1.02
   3   0  -5   48.46    1.12
   3   0  -5   48.14    1.15
  -3   0   5   48.48    1.12
   2   0  -5  194.50    2.97
   2   0  -5  191.75    3.03
   2   0  -5  191.83    2.98
   2   0  -5  193.23    3.00
   2   0  -5  190.39    3.06
   2   0  -5  190.99    2.81
  -2   0   5  191.39    2.81
  -2   0   5  193.65    2.98
   1   0  -5  141.91    2.30
   1   0  -5  137.87    2.22
   1   0  -5  141.38    2.17
   1   0  -5  138.80    2.20
  -1   0   5  134.13    2.11
  -1   0   5  134.05    2.18
  -1   0   5  140.88    2.17
   0   0  -5   69.26    1.38
   0   0  -5   70.89    1.22
   0   0  -5   72.90    1.23
   0   0   5   71.91    1.13
   0   0   5   70.72    1.23
   0   0   5   71.15    1.26
  -1   0  -5   89.12    1.51
  -1   0  -5   89.18    1.67
  -1   0  -5   92.06    1.44
   1   0   5   89.06    1.57
   1   0   5   90.20    1.51
   1   0   5   87.28    1.55
  -2   0  -5    9.87    0.40
  -2   0  -5    8.38    0.40
   2   0   5    8.57    0.38
   2   0   5    7.75    0.35
   2   0   5    8.72    0.41
   2   0   5    8.42    0.38
  -3   0  -5   36.33    1.01
   3   0   5   34.70    0.96
   3   0   5   36.26    1.02
   3   0   5   37.62    0.96
   3   0   5   35.89    0.94
  -4   0  -5    7.96    0.54
   4   0   5    6.75    0.51
   4   0   5    6.95    0.46
   4   0   5    7.14    0.49
   4  -1  -5   14.71    0.63
  -4   1   5   14.31    0.66
   3  -1  -5   12.05    0.43
   3  -1  -5   11.88    0.49
   3  -1  -5   11.96    0.52
   3  -1  -5   11.94    0.44
  -3   1   5   11.23    0.50
   2  -1  -5   18.04    0.54
   2  -1  -5   17.47    0.56
   2  -1  -5   17.75    0.53
   2  -1  -5   18.63    0.47
   2  -1  -5   17.36    0.57
   2  -1  -5   17.20    0.50
  -2   1   5   18.34    0.58
  -2   1   5   18.25    0.46
  -2   1   5   17.64    0.54
   1  -1  -5   40.92    0.85
   1  -1  -5   41.44    0.91
   1  -1  -5   42.53    0.82
   1  -1  -5   42.69    0.80
  -1   1   5   40.92    0.83
  -1   1   5   42.62    0.85
  -1   1   5   40.68    0.80
   0  -1  -5   90.01    1.46
   0  -1  -5   92.39    1.63
   0  -1  -5   91.42    1.42
   0   1   5   90.15    1.30
   0   1   5   90.53    1.50
   0   1   5   91.85    1.50
  -1  -1  -5   31.39    0.67
  -1  -1  -5   30.49    0.51
  -1  -1  -5   29.53    0.76
   1   1   5   30.62    0.71
   1   1   5   30.79    0.70
   1   1   5   31.29    0.67
  -2  -1  -5   63.06    1.27
  -2  -1  -5   62.78    1.02
  -2  -1  -5   62.56    1.24
  -2  -1  -5   60.97    1.26
   2   1   5   62.76    1.23
   2   1   5   63.48    1.22
   2   1   5   61.83    1.23
   2   1   5   62.12    1.27
  -3  -1  -5   89.05    1.76
   3   1   5   86.84    1.65
   3   1   5   86.99    1.73
   3   1   5   83.04    1.67
   3   1   5   88.70    1.77
  -4  -1  -5   15.34    0.70
   4   1   5   14.03    0.63
   4   1   5   14.91    0.68
   4   1   5   14.04    0.67
   4  -2  -5   29.17    0.91
  -4   2   5   29.63    0.97
   3  -2  -5   71.00    1.46
   3  -2  -5   73.15    1.52
   3  -2  -5   71.71    1.32
   3  -2  -5   72.67    1.36
  -3   2   5   73.71    1.54
   2  -2  -5  135.50    2.23
   2  -2  -5  132.53    2.15
   2  -2  -5  129.58    2.15
   2  -2  -5  130.78    2.07
  -2   2   5  128.23    2.20
  -2   2   5  133.25    2.22
  -2   2   5  132.72    2.11
  -2   2   5  130.63    2.07
   1  -2  -5  252.75    3.60
   1  -2  -5  246.84    3.65
   1  -2  -5  248.00    3.61
   1  -2  -5  249.49    3.74
  -1   2   5  251.29    3.67
  -1   2   5  246.34    3.60
  -1   2   5  249.49    3.61
   0  -2  -5   65.05    1.08
   0  -2  -5   64.59    1.01
   0  -2  -5   65.11    1.24
   0   2   5   66.00    1.14
   0   2   5   63.11    1.13
  -1  -2  -5  119.99    1.85
  -1  -2  -5  117.63    1.99
   1   2   5  116.47    1.89
   1   2   5  118.34    1.90
   1   2   5  116.19    1.84
  -2  -2  -5  153.88    2.53
  -2  -2  -5  156.76    2.54
   2   2   5  157.30    2.49
   2   2   5  156.55    2.49
   2   2   5  158.00    2.52
   2   2   5  160.30    2.55
  -3  -2  -5    1.06    0.20
   3   2   5    1.79    0.25
   3   2   5    1.11    0.21
   3   2   5    1.95    0.23
   3   2   5    1.51    0.23
  -4  -2  -5    0.64    0.21
   4   2   5    0.71    0.22
   4   2   5    0.11    0.18
   4   2   5    0.61    0.22
  -5  -2  -5    1.74    0.34
   5   2   5    1.08    0.32
   5   2   5    0.80    0.28
   4  -3  -5    1.97    0.31
  -4   3   5    1.54    0.30
   3  -3  -5    1.10    0.21
   3  -3  -5    1.25    0.19
   3  -3  -5    1.28    0.21
  -3   3   5    0.92    0.21
   2  -3  -5    9.08    0.36
   2  -3  -5    9.03    0.34
   2  -3  -5    8.69    0.40
   2  -3  -5    9.30    0.39
   2  -3  -5    8.78    0.35
  -2   3   5    9.22    0.34
  -2   3   5    8.63    0.38
  -2   3   5    9.09    0.40
   1  -3  -5  106.68    1.65
   1  -3  -5  104.06    1.71
   1  -3  -5  103.22    1.80
   1  -3  -5  104.63    1.71
  -1   3   5  102.56    1.66
  -1   3   5  105.18    1.75
  -1   3   5  105.64    1.72
   0  -3  -5  112.10    1.79
   0  -3  -5  112.57    1.90
   0  -3  -5  110.26    1.61
   0  -3  -5  111.01    1.69
   0   3   5  112.20    1.77
   0   3   5  109.09    1.78
  -1  -3  -5   56.43    1.14
  -1  -3  -5   55.83    0.99
   1   3   5   55.76    1.04
   1   3   5   56.28    0.99
   1   3   5   56.13    1.04
  -2  -3  -5   79.27    1.45
  -2  -3  -5   78.11    1.46
   2   3   5   79.58    1.40
   2   3   5   78.52    1.41
   2   3   5   79.95    1.45
   2   3   5   77.58    1.44
  -3  -3  -5   16.21    0.59
   3   3   5   16.70    0.52
   3   3   5   16.40    0.61
   3   3   5   14.19    0.54
   3   3   5   16.00    0.59
  -4  -3  -5   22.25    0.79
   4   3   5   21.42    0.78
   4   3   5   22.59    0.80
   4   3   5   20.48    0.80
  -5  -3  -5   10.57    0.64
   5   3   5   10.04    0.65
   5   3   5    8.97    0.65
   4  -4  -5   34.61    1.02
  -4   4   5   35.90    1.14
   3  -4  -5   36.07    1.00
   3  -4  -5   34.73    0.89
   3  -4  -5   36.66    0.91
  -3   4   5   36.99    1.02
  -3   4   5   36.81    1.02
   2  -4  -5  104.84    1.75
   2  -4  -5  103.91    1.81
   2  -4  -5  105.33    1.75
   2  -4  -5  107.39    1.90
  -2   4   5  105.13    1.89
  -2   4   5  104.37    1.90
  -2   4   5  104.44    1.75
   1  -4  -5   70.06    1.17
   1  -4  -5   68.77    1.26
   1  -4  -5   71.82    1.26
   1  -4  -5   70.82    1.28
  -1   4   5   70.07    1.21
  -1   4   5   71.86    1.31
  -1   4   5   71.45    1.26
  -1   4   5   70.56    1.28
   0  -4  -5   63.17    1.03
   0  -4  -5   64.86    1.16
   0   4   5   64.53    1.14
   0   4   5   62.35    1.15
   0   4   5   64.98    1.16
  -1  -4  -5   45.45    0.90
  -1  -4  -5   45.42    0.83
  -1  -4  -5   47.23    1.01
   1   4   5   46.14    0.89
   1   4   5   46.26    0.91
   1   4   5   45.33    0.84
   1   4   5   47.64    0.99
  -2  -4  -5  124.13    2.12
  -2  -4  -5  122.80    2.05
   2   4   5  124.82    2.06
   2   4   5  127.10    2.10
   2   4   5  124.17    2.01
   2   4   5  130.72    2.10
   2   4   5  125.19    2.04
  -3  -4  -5    1.92    0.25
   3   4   5    2.45    0.27
   3   4   5    2.37    0.22
   3   4   5    2.58    0.27
   3   4   5    2.84    0.29
  -4  -4  -5    1.65    0.27
   4   4   5    1.20    0.25
   4   4   5    1.17    0.25
   4   4   5    1.35    0.25
  -5  -4  -5   -0.13    0.19
   5   4   5    0.19    0.23
   5   4   5    0.31    0.27
   4  -5  -5    0.58    0.21
  -4   5   5    0.42    0.20
   3  -5  -5    4.52    0.31
   3  -5  -5    4.65    0.37
   3  -5  -5    4.91    0.35
  -3   5   5    4.04    0.39
  -3   5   5    5.05    0.39
   2  -5  -5   48.37    1.06
   2  -5  -5   47.22    0.97
   2  -5  -5   48.40    0.93
   2  -5  -5   46.54    1.08
   2  -5  -5   47.28    0.95
  -2   5   5   46.91    1.10
  -2   5   5   49.58    0.98
  -2   5   5   45.72    1.08
   1  -5  -5   96.66    1.72
   1  -5  -5  100.43    1.54
   1  -5  -5   99.29    1.70
  -1   5   5   99.19    1.69
  -1   5   5  100.64    1.68
  -1   5   5  100.87    1.72
   0  -5  -5   83.52    1.45
   0  -5  -5   80.86    1.24
   0   5   5   80.05    1.42
   0   5   5   82.54    1.44
   0   5   5   82.65    1.39
  -1  -5  -5   43.91    0.90
  -1  -5  -5   44.84    0.80
   1   5   5   46.34    0.87
   1   5   5   44.01    0.92
   1   5   5   45.84    0.91
   1   5   5   45.00    0.81
  -2  -5  -5   84.16    1.48
  -2  -5  -5   85.74    1.47
  -2  -5  -5   84.73    1.59
   2   5   5   85.49    1.49
   2   5   5   84.21    1.47
   2   5   5   84.83    1.46
   2   5   5   85.10    1.56
  -3  -5  -5   48.02    1.06
   3   5   5   47.65    1.06
   3   5   5   45.81    1.13
   3   5   5   47.79    1.08
  -4  -5  -5   22.83    0.77
   4   5   5   24.80    0.83
   4   5   5   25.74    0.90
   5   5   5   12.16    0.68
   5   5   5   13.48    0.76
  -4   6   5   24.50    0.98
   3  -6  -5    2.59    0.27
   3  -6  -5    2.67    0.33
   3  -6  -5    2.21    0.28
  -3   6   5    2.83    0.37
   2  -6  -5  108.78    1.81
   2  -6  -5  111.45    1.85
   2  -6  -5  111.29    2.01
   2  -6  -5  114.49    2.06
   2  -6  -5  109.94    1.88
  -2   6   5  110.07    2.03
  -2   6   5  110.90    1.88
  -2   6   5  112.29    2.06
   1  -6  -5   55.84    0.93
   1  -6  -5   54.80    1.15
   1  -6  -5   55.45    1.12
  -1   6   5   56.79    1.11
  -1   6   5   55.66    1.12
  -1   6   5   54.47    1.09
   0  -6  -5   35.20    0.80
   0   6   5   34.80    0.67
   0   6   5   34.78    0.80
   0   6   5   31.79    0.72
   0   6   5   34.97    0.80
  -1  -6  -5   62.16    1.14
  -1  -6  -5   60.11    1.16
  -1  -6  -5   62.15    1.01
   1   6   5   60.20    1.00
   1   6   5   60.67    1.19
   1   6   5   61.20    1.16
   1   6   5   62.22    1.18
  -2  -6  -5    3.48    0.26
  -2  -6  -5    3.02    0.21
  -2  -6  -5    3.59    0.22
   2   6   5    3.42    0.22
   2   6   5    3.70    0.24
   2   6   5    3.10    0.24
   2   6   5    3.36    0.22
   2   6   5    3.79    0.27
  -3  -6  -5    0.06    0.10
   3   6   5   -0.08    0.09
   3   6   5   -0.03    0.10
   3   6   5    0.06    0.12
   3   6   5   -0.07    0.10
   4   6   5    2.91    0.36
   4   6   5    4.45    0.42
   4  -7  -5    0.28    0.22
  -4   7   5    0.73    0.29
   3  -7  -5    9.39    0.54
   3  -7  -5    9.09    0.52
  -3   7   5    9.24    0.54
   2  -7  -5   59.68    1.34
   2  -7  -5   59.33    1.35
   2  -7  -5   60.87    1.21
  -2   7   5   61.28    1.22
  -2   7   5   60.40    1.36
  -2   7   5   63.28    1.38
   1  -7  -5   90.60    1.71
   1  -7  -5   91.64    1.55
   1  -7  -5   92.57    1.67
  -1   7   5   86.58    1.63
  -1   7   5   91.42    1.64
  -1   7   5   90.74    1.64
   0  -7  -5   65.49    1.30
   0  -7  -5   66.44    1.20
   0   7   5   68.20    1.17
   0   7   5   66.60    1.21
   0   7   5   67.79    1.32
  -1  -7  -5   71.50    1.32
  -1  -7  -5   69.31    1.11
  -1  -7  -5   70.71    1.30
   1   7   5   70.31    1.11
   1   7   5   70.33    1.37
   1   7   5   69.72    1.32
   1   7   5   70.71    1.30
  -2  -7  -5   58.33    1.24
  -2  -7  -5   58.56    1.13
   2   7   5   58.47    1.23
   2   7   5   60.10    1.23
   2   7   5   56.91    1.09
   2   7   5   59.45    1.13
  -3  -7  -5   30.52    0.91
   3   7   5   30.95    0.92
   3   7   5   33.04    0.84
   3   7   5   31.71    0.83
  -4  -7  -5   23.04    0.88
   4   7   5   23.34    0.81
   4   7   5   22.69    0.88
   3  -8  -5   32.50    1.01
  -3   8   5   29.54    1.01
   2  -8  -5   34.92    0.88
   2  -8  -5   36.02    1.01
  -2   8   5   35.52    0.99
  -2   8   5   33.80    0.87
  -2   8   5   34.96    0.98
   1  -8  -5   34.80    0.81
   1  -8  -5   33.09    0.91
  -1   8   5   33.90    0.86
  -1   8   5   33.52    0.86
  -1   8   5   33.44    0.84
   0  -8  -5    8.20    0.40
   0  -8  -5    9.39    0.37
   0   8   5    8.59    0.33
   0   8   5    8.42    0.41
   0   8   5    8.62    0.34
  -1  -8  -5   27.07    0.72
  -1  -8  -5   28.28    0.74
   1   8   5   27.64    0.78
   1   8   5   27.79    0.73
   1   8   5   28.28    0.49
  -2  -8  -5    9.49    0.45
  -2  -8  -5    9.23    0.37
   2   8   5    8.46    0.43
   2   8   5    9.27    0.45
  -3  -8  -5    0.78    0.21
   3   8   5    1.09    0.21
   3   8   5    0.82    0.18
   3   8   5    0.56    0.18
  -4  -8  -5   17.56    0.78
   4   8   5   17.73    0.71
   4   8   5   18.70    0.81
   3  -9  -5    5.23    0.50
  -3   9   5    3.96    0.44
   2  -9  -5   11.17    0.49
   2  -9  -5   11.25    0.59
  -2   9   5   11.86    0.51
  -2   9   5   11.67    0.58
  -2   9   5   11.54    0.56
   1  -9  -5   37.77    0.93
   1  -9  -5   38.04    1.04
  -1   9   5   40.93    1.00
  -1   9   5   38.46    0.94
  -1   9   5   40.47    1.00
   0  -9  -5   41.85    0.97
   0  -9  -5   41.44    1.05
   0   9   5   42.97    1.05
   0   9   5   42.69    0.92
  -1  -9  -5   50.13    1.12
  -1  -9  -5   50.40    1.13
   1   9   5   49.80    1.19
   1   9   5   52.53    0.89
   1   9   5   51.85    1.12
  -2  -9  -5   47.83    1.04
  -2  -9  -5   46.53    1.13
   2   9   5   48.10    1.17
   2   9   5   47.30    1.13
  -3  -9  -5    5.61    0.47
   3   9   5    6.20    0.42
   3   9   5    5.64    0.41
  -4  -9  -5   14.02    0.73
   4   9   5   15.07    0.75
   3 -10  -5   48.33    1.41
  -3  10   5   46.51    1.38
   2 -10  -5   10.08    0.59
   2 -10  -5   10.71    0.60
  -2  10   5   11.05    0.57
   1 -10  -5   11.22    0.50
   1 -10  -5   12.35    0.59
  -1  10   5   11.31    0.53
  -1  10   5   11.34    0.52
  -1  10   5   13.09    0.70
   0 -10  -5    1.01    0.21
   0 -10  -5    1.13    0.19
   0  10   5    1.13    0.23
   0  10   5    1.08    0.18
  -1 -10  -5   -0.11    0.10
  -1 -10  -5    0.12    0.13
   1  10   5    0.04    0.07
   1  10   5   -0.04    0.12
  -2 -10  -5    1.48    0.26
   2  10   5    0.98    0.23
   2  10   5    1.20    0.24
  -3 -10  -5    2.16    0.34
   3  10   5    2.64    0.35
   3  10   5    2.32    0.35
  -4 -10  -5   12.35    0.69
   4  10   5   12.33    0.69
   2 -11  -5   11.08    0.64
  -2  11   5   11.01    0.58
   1 -11  -5    6.35    0.42
   1 -11  -5    6.75    0.50
  -1  11   5    6.38    0.44
   0 -11  -5   21.62    0.73
   0 -11  -5   22.34    0.80
   0  11   5   21.24    0.78
  -1 -11  -5   18.08    0.67
  -1 -11  -5   17.20    0.66
   1  11   5   16.94    0.71
  -2 -11  -5   14.77    0.65
   2  11   5   15.38    0.69
   2  11   5   16.01    0.67
  -3 -11  -5   38.31    1.15
   3  11   5   36.39    1.12
   3  11   5   36.73    1.13
   2 -12  -5    5.97    0.58
   1 -12  -5    7.86    0.57
   1 -12  -5    7.96    0.50
  -1  12   5    7.40    0.51
   0 -12  -5    1.48    0.30
   0 -12  -5    1.17    0.24
   0  12   5    1.30    0.28
  -1 -12  -5    2.63    0.34
  -1 -12  -5    2.44    0.33
   1  12   5    1.98    0.33
  -2 -12  -5    3.25    0.39
   2  12   5    3.59    0.40
   2  12   5    2.28    0.35
  -3 -12  -5   18.90    0.82
   3  12   5   18.45    0.82
   3  12   5   19.52    0.83
   1 -13  -5   11.28    0.69
   1 -13  -5   10.83    0.60
  -1  13   5   10.57    0.62
   0 -13  -5   10.43    0.63
   0 -13  -5   10.81    0.60
   0  13   5   10.43    0.61
  -1 -13  -5   11.70    0.62
  -1 -13  -5   11.63    0.62
   1  13   5   12.16    0.68
  -2 -13  -5    5.31    0.50
   2  13   5    6.04    0.57
   2   9  -6    3.83    0.49
  -2  -9   6    3.49    0.43
   1   9  -6    8.30    0.59
  -1  -9   6    8.10    0.55
   0   9  -6   14.13    0.72
   0  -9   6   13.04    0.69
   0  -9   6   14.23    0.73
   1  -9   6   15.11    0.81
   1  -9   6   13.39    0.72
   3   8  -6    9.62    0.56
   3   8  -6    9.80    0.65
  -3  -8   6   10.81    0.62
   2   8  -6   25.04    0.87
   2   8  -6   24.35    0.95
  -2  -8   6   23.18    0.85
   1   8  -6    4.66    0.48
  -1  -8   6    5.10    0.46
   0   8  -6    0.10    0.17
   0  -8   6    0.12    0.18
   0  -8   6    0.15    0.19
  -1   8  -6    0.36    0.20
   1  -8   6    0.48    0.24
   1  -8   6    0.35    0.26
   3   7  -6    4.15    0.46
   3   7  -6    5.67    0.48
  -3  -7   6    5.53    0.49
   2   7  -6    0.12    0.17
   2   7  -6    0.24    0.18
  -2  -7   6    0.35    0.18
   1   7  -6    6.69    0.48
   1   7  -6    6.66    0.39
  -1  -7   6    7.27    0.46
  -1  -7   6    6.16    0.43
   0   7  -6   16.58    0.58
   0   7  -6   14.75    0.67
   0  -7   6   14.91    0.64
   0  -7   6   14.59    0.68
  -1   7  -6   12.00    0.59
  -1   7  -6   12.21    0.55
   1  -7   6   13.76    0.65
   1  -7   6   13.03    0.67
  -2   7  -6   26.39    0.94
   2  -7   6   26.08    0.97
   2  -7   6   26.74    0.95
   2  -7   6   26.92    1.04
   4   6  -6    8.22    0.57
   4   6  -6    7.80    0.57
   4   6  -6    8.49    0.55
  -4  -6   6    8.24    0.55
   3   6  -6   19.24    0.73
   3   6  -6   20.29    0.83
   3   6  -6   20.32    0.77
  -3  -6   6   19.16    0.74
   2   6  -6   30.72    0.88
   2   6  -6   30.83    1.00
  -2  -6   6   31.43    0.91
   1   6  -6    0.84    0.21
   1   6  -6    0.92    0.19
   1   6  -6    1.22    0.25
  -1  -6   6    1.16    0.21
  -1  -6   6    0.87    0.20
   0   6  -6    0.61    0.16
   0   6  -6    0.82    0.22
   0  -6   6    0.52    0.20
   0  -6   6    0.98    0.22
  -1   6  -6    5.11    0.38
  -1   6  -6    4.32    0.36
   1  -6   6    4.93    0.34
   1  -6   6    4.69    0.46
   1  -6   6    4.07    0.38
   1  -6   6    4.46    0.41
  -2   6  -6   20.56    0.81
  -2   6  -6   19.87    0.71
   2  -6   6   18.75    0.78
   2  -6   6   20.89    0.73
   2  -6   6   18.90    0.83
   2  -6   6   20.85    0.82
  -3   6  -6    5.39    0.48
  -3   6  -6    5.03    0.53
   3  -6   6    7.10    0.65
   3  -6   6    5.98    0.50
   3  -6   6    4.97    0.52
   3  -6   6    4.81    0.50
   4   5  -6    0.89    0.26
   4   5  -6    0.73    0.26
   4   5  -6    0.74    0.25
  -4  -5   6    0.86    0.27
   3   5  -6    4.57    0.43
   3   5  -6    3.52    0.35
   3   5  -6    5.23    0.48
  -3  -5   6    4.76    0.41
   2   5  -6    6.81    0.44
   2   5  -6    5.73    0.42
   2   5  -6    6.28    0.39
  -2  -5   6    6.17    0.38
   1   5  -6   28.54    0.89
   1   5  -6   27.49    0.86
   1   5  -6   28.03    0.76
  -1  -5   6   27.21    0.77
  -1  -5   6   28.31    0.78
   0   5  -6   37.09    0.89
   0   5  -6   36.42    1.04
   0   5  -6   36.42    0.88
   0   5  -6   37.53    1.00
   0  -5   6   36.69    0.94
   0  -5   6   35.77    0.98
   0  -5   6   36.79    0.89
  -1   5  -6    5.88    0.37
  -1   5  -6    5.66    0.37
  -1   5  -6    5.17    0.32
   1  -5   6    5.34    0.36
   1  -5   6    4.94    0.44
   1  -5   6    4.92    0.37
   1  -5   6    4.98    0.32
   1  -5   6    4.55    0.32
  -2   5  -6   65.51    1.54
  -2   5  -6   66.83    1.44
   2  -5   6   67.78    1.62
   2  -5   6   65.34    1.43
   2  -5   6   66.19    1.56
   2  -5   6   65.13    1.53
  -3   5  -6    6.96    0.48
  -3   5  -6    6.97    0.52
   3  -5   6    6.03    0.49
   3  -5   6    7.14    0.60
   3  -5   6    6.10    0.54
   3  -5   6    5.44    0.55
   4   4  -6    5.36    0.48
   4   4  -6    5.18    0.47
   3   4  -6    4.04    0.39
   3   4  -6    4.38    0.37
   3   4  -6    3.28    0.35
   2   4  -6    9.83    0.51
   2   4  -6    9.84    0.51
   2   4  -6    9.89    0.45
   1   4  -6    1.35    0.23
   1   4  -6    1.02    0.21
   1   4  -6    0.91    0.16
  -1  -4   6    0.88    0.17
  -1  -4   6    1.01    0.18
  -1  -4   6    0.78    0.14
   0   4  -6   -0.04    0.09
   0   4  -6   -0.02    0.10
   0   4  -6    0.00    0.09
   0   4  -6    0.04    0.10
   0  -4   6    0.11    0.09
   0  -4   6    0.13    0.13
   0  -4   6    0.13    0.10
  -1   4  -6    7.01    0.36
  -1   4  -6    6.62    0.37
  -1   4  -6    6.38    0.38
   1  -4   6    6.21    0.34
   1  -4   6    7.23    0.34
   1  -4   6    6.49    0.38
   1  -4   6    6.62    0.39
   1  -4   6    6.63    0.41
  -2   4  -6   35.65    1.03
  -2   4  -6   35.58    0.94
   2  -4   6   35.34    1.06
   2  -4   6   35.86    0.80
   2  -4   6   35.61    1.04
   2  -4   6   35.24    0.93
   2  -4   6   36.19    1.01
  -3   4  -6   19.53    0.74
  -3   4  -6   18.40    0.81
   3  -4   6   19.71    0.74
   3  -4   6   19.36    0.83
   3  -4   6   18.12    0.77
   3  -4   6   17.80    0.81
   4   3  -6    4.96    0.48
   3   3  -6    1.30    0.25
   3   3  -6    1.22    0.21
   3   3  -6    1.03    0.23
   3   3  -6    1.33    0.23
  -3  -3   6    1.42    0.22
   2   3  -6   87.62    1.74
   2   3  -6   83.78    1.70
   2   3  -6   86.57    1.55
   2   3  -6   85.48    1.63
  -2  -3   6   86.56    1.55
  -2  -3   6   83.46    1.52
   1   3  -6   72.88    1.46
   1   3  -6   71.30    1.47
   1   3  -6   71.41    1.35
  -1  -3   6   71.67    1.30
  -1  -3   6   64.50    1.28
  -1  -3   6   72.31    1.34
   0   3  -6   33.06    0.79
   0   3  -6   32.60    0.85
   0   3  -6   33.58    0.89
   0  -3   6   33.77    0.80
   0  -3   6   34.47    0.79
   0  -3   6   33.25    0.86
  -1   3  -6   57.06    1.18
  -1   3  -6   55.56    1.21
  -1   3  -6   55.36    1.15
   1  -3   6   54.66    1.17
   1  -3   6   56.26    1.07
   1  -3   6   55.79    1.22
   1  -3   6   54.90    1.26
   1  -3   6   56.65    1.16
  -2   3  -6   30.80    0.84
  -2   3  -6   31.10    0.92
   2  -3   6   31.28    0.89
   2  -3   6   30.30    0.63
   2  -3   6   30.39    0.92
   2  -3   6   31.52    0.85
   2  -3   6   29.97    0.93
  -3   3  -6    4.41    0.45
  -3   3  -6    5.20    0.44
   3  -3   6    4.27    0.43
   3  -3   6    5.64    0.50
   3  -3   6    5.70    0.45
   3  -3   6    4.50    0.46
  -4   3  -6    2.75    0.42
  -4   3  -6    2.36    0.38
   4  -3   6    3.90    0.48
   4  -3   6    2.84    0.43
   4  -3   6    3.11    0.41
   4  -3   6    2.03    0.39
   4   2  -6   12.63    0.64
   3   2  -6    6.90    0.37
   3   2  -6    6.30    0.42
   3   2  -6    7.27    0.42
   3   2  -6    6.27    0.41
  -3  -2   6    6.69    0.37
  -3  -2   6    7.24    0.37
   2   2  -6    2.70    0.21
   2   2  -6    3.11    0.28
   2   2  -6    3.40    0.31
  -2  -2   6    3.09    0.22
  -2  -2   6    3.48    0.25
  -2  -2   6    2.82    0.19
   1   2  -6    7.91    0.40
   1   2  -6    8.39    0.36
   1   2  -6    8.04    0.39
  -1  -2   6    8.06    0.33
  -1  -2   6    7.85    0.37
  -1  -2   6    7.56    0.33
   0   2  -6    6.07    0.33
   0   2  -6    6.74    0.34
   0   2  -6    7.01    0.32
   0  -2   6    6.43    0.33
   0  -2   6    6.46    0.31
   0  -2   6    6.23    0.31
  -1   2  -6   18.56    0.56
  -1   2  -6   19.18    0.57
  -1   2  -6   18.50    0.60
   1  -2   6   18.39    0.45
   1  -2   6   19.60    0.57
   1  -2   6   17.73    0.63
   1  -2   6   18.48    0.48
   1  -2   6   18.00    0.59
   1  -2   6   18.55    0.56
  -2   2  -6   10.02    0.45
  -2   2  -6   10.80    0.51
   2  -2   6   10.07    0.50
   2  -2   6   10.24    0.47
   2  -2   6    9.72    0.49
   2  -2   6    8.76    0.43
  -3   2  -6   17.67    0.68
  -3   2  -6   17.73    0.74
   3  -2   6   17.64    0.75
   3  -2   6   18.18    0.68
   3  -2   6   18.04    0.71
   3  -2   6   17.72    0.73
  -4   2  -6   14.70    0.71
  -4   2  -6   14.42    0.75
   4  -2   6   16.01    0.71
   4  -2   6   14.95    0.75
   4  -2   6   14.74    0.73
   4  -2   6   14.45    0.75
   4   1  -6   10.72    0.59
  -4  -1   6    9.86    0.53
   3   1  -6    3.16    0.34
   3   1  -6    3.73    0.33
   3   1  -6    2.99    0.31
  -3  -1   6    3.27    0.31
   2   1  -6   60.89    1.25
   2   1  -6   61.44    1.32
   2   1  -6   60.64    1.09
   2   1  -6   60.40    1.26
  -2  -1   6   62.91    1.11
  -2  -1   6   61.92    1.22
   1   1  -6   87.35    1.61
   1   1  -6   87.37    1.52
   1   1  -6   85.95    1.70
   1   1  -6   87.51    1.58
  -1  -1   6   86.44    1.48
  -1  -1   6   84.92    1.49
  -1  -1   6   82.19    1.54
   0   1  -6   18.65    0.66
   0   1  -6   17.99    0.52
   0   1  -6   17.88    0.55
   0   1  -6   19.50    0.56
   0  -1   6   18.79    0.55
   0  -1   6   18.59    0.49
   0  -1   6   18.22    0.53
  -1   1  -6  147.21    2.40
  -1   1  -6  142.88    2.30
  -1   1  -6  141.53    2.32
  -1   1  -6  140.59    2.30
   1  -1   6  141.18    2.04
   1  -1   6  148.38    2.31
   1  -1   6  147.29    2.04
   1  -1   6  142.15    2.38
   1  -1   6  145.05    2.43
   1  -1   6  143.28    2.33
  -2   1  -6   17.11    0.57
  -2   1  -6   16.56    0.62
   2  -1   6   16.46    0.58
   2  -1   6   17.23    0.62
   2  -1   6   16.43    0.62
   2  -1   6   17.19    0.57
  -3   1  -6    0.05    0.15
  -3   1  -6   -0.06    0.15
   3  -1   6    0.09    0.15
   3  -1   6    0.11    0.13
   3  -1   6    0.17    0.18
   3  -1   6    0.23    0.17
  -4   1  -6    2.17    0.37
  -4   1  -6    1.72    0.31
   4  -1   6    1.16    0.30
   4  -1   6    1.65    0.31
   4  -1   6    1.80    0.31
   4  -1   6    1.75    0.34
   4   0  -6   10.68    0.56
  -4   0   6   10.46    0.54
   3   0  -6   16.66    0.61
   3   0  -6   16.84    0.65
   3   0  -6   16.35    0.57
  -3   0   6   15.53    0.60
   2   0  -6    2.25    0.23
   2   0  -6    2.31    0.18
   2   0  -6    2.30    0.25
   2   0  -6    2.24    0.23
   2   0  -6    1.96    0.23
  -2   0   6    2.47    0.18
  -2   0   6    2.42    0.24
   1   0  -6    0.09    0.09
   1   0  -6   -0.07    0.06
   1   0  -6    0.01    0.09
   1   0  -6    0.09    0.09
  -1   0   6   -0.06    0.06
  -1   0   6   -0.09    0.06
  -1   0   6    0.10    0.08
   0   0  -6   15.18    0.45
   0   0  -6   15.55    0.47
   0   0  -6   15.38    0.57
   0   0  -6   15.11    0.45
   0   0   6   14.80    0.46
   0   0   6   15.35    0.38
   0   0   6   14.94    0.48
  -1   0  -6   36.37    0.95
  -1   0  -6   36.92    0.76
  -1   0  -6   38.65    0.80
  -1   0  -6   38.49    0.82
   1   0   6   36.36    0.85
   1   0   6   30.59    0.74
   1   0   6   36.98    0.81
   1   0   6   37.22    0.87
  -2   0  -6   21.88    0.69
   2   0   6   20.47    0.68
   2   0   6   21.61    0.68
   2   0   6   20.93    0.63
   2   0   6   21.41    0.63
  -3   0  -6   12.55    0.58
  -3   0  -6   12.85    0.59
   3   0   6   13.07    0.56
   3   0   6   13.17    0.61
   3   0   6   13.21    0.57
   3   0   6   13.79    0.59
  -4   0  -6   43.02    1.26
   4   0   6   41.58    1.24
   4   0   6   40.13    1.15
   4   0   6   39.36    1.20
   4   0   6   41.69    1.29
   4  -1  -6    4.04    0.42
  -4   1   6    4.09    0.42
   3  -1  -6   13.53    0.58
   3  -1  -6   12.36    0.48
   3  -1  -6   13.81    0.55
  -3   1   6   14.56    0.57
   2  -1  -6   25.43    0.67
   2  -1  -6   25.78    0.68
   2  -1  -6   24.86    0.60
   2  -1  -6   25.20    0.71
   2  -1  -6   25.43    0.73
  -2   1   6   25.42    0.72
  -2   1   6   24.73    0.69
  -2   1   6   25.23    0.60
   1  -1  -6  140.67    2.23
   1  -1  -6  140.87    2.28
   1  -1  -6  140.80    2.39
   1  -1  -6  142.04    2.28
   1  -1  -6  141.39    2.21
  -1   1   6  139.28    2.21
  -1   1   6  143.26    2.28
  -1   1   6  142.45    2.27
  -1   1   6  142.85    2.22
   0  -1  -6   63.69    1.17
   0  -1  -6   63.71    1.10
   0  -1  -6   63.87    1.14
   0  -1  -6   62.70    1.31
   0   1   6   64.49    1.18
   0   1   6   61.17    0.94
   0   1   6   62.26    1.17
   0   1   6   62.61    1.17
  -1  -1  -6   40.76    0.73
  -1  -1  -6   39.37    0.98
  -1  -1  -6   42.04    0.86
   1   1   6   41.86    0.91
   1   1   6   40.67    0.91
   1   1   6   40.91    0.85
  -2  -1  -6    8.34    0.41
  -2  -1  -6    8.75    0.43
  -2  -1  -6    8.95    0.39
   2   1   6    8.24    0.37
   2   1   6    8.25    0.41
   2   1   6    8.71    0.38
   2   1   6    8.62    0.40
  -3  -1  -6    0.19    0.16
   3   1   6    0.28    0.18
   3   1   6    0.03    0.12
   3   1   6    0.21    0.16
   3   1   6    0.24    0.15
  -4  -1  -6    3.29    0.41
   4   1   6    2.52    0.35
   4   1   6    3.19    0.40
   4   1   6    2.51    0.34
   4  -2  -6    5.35    0.45
  -4   2   6    6.42    0.48
   3  -2  -6    1.46    0.21
   3  -2  -6    2.35    0.27
   3  -2  -6    1.48    0.25
  -3   2   6    1.97    0.27
   2  -2  -6   14.05    0.51
   2  -2  -6   14.00    0.44
   2  -2  -6   14.88    0.54
   2  -2  -6   15.01    0.49
   2  -2  -6   14.81    0.49
  -2   2   6   15.17    0.49
  -2   2   6   14.03    0.51
  -2   2   6   14.34    0.44
  -2   2   6   13.69    0.51
   1  -2  -6    9.71    0.37
   1  -2  -6   10.13    0.37
   1  -2  -6    9.78    0.35
   1  -2  -6    9.59    0.34
   1  -2  -6    9.89    0.42
  -1   2   6    9.55    0.33
  -1   2   6    9.92    0.38
  -1   2   6    9.83    0.35
  -1   2   6   10.15    0.37
   0  -2  -6   46.20    0.91
   0  -2  -6   43.94    1.02
   0  -2  -6   46.90    0.81
   0  -2  -6   45.30    0.87
   0   2   6   45.06    0.92
   0   2   6   46.24    0.92
   0   2   6   46.05    0.92
  -1  -2  -6   60.87    1.14
  -1  -2  -6   62.14    1.30
   1   2   6   63.64    1.21
   1   2   6   65.55    1.22
   1   2   6   62.76    1.15
  -2  -2  -6   28.00    0.78
  -2  -2  -6   28.26    0.74
  -2  -2  -6   27.53    0.75
   2   2   6   26.02    0.74
   2   2   6   27.82    0.74
   2   2   6   28.57    0.73
   2   2   6   27.92    0.71
  -3  -2  -6   69.67    1.50
   3   2   6   66.13    1.41
   3   2   6   67.48    1.48
   3   2   6   69.54    1.40
   3   2   6   67.62    1.46
  -4  -2  -6   30.85    1.01
   4   2   6   30.59    1.01
   4   2   6   32.00    0.99
   4   2   6   32.36    1.03
   4  -3  -6   13.27    0.63
  -4   3   6   13.92    0.69
   3  -3  -6   14.70    0.52
   3  -3  -6   15.41    0.63
   3  -3  -6   16.20    0.59
  -3   3   6   14.65    0.62
   2  -3  -6   70.01    1.31
   2  -3  -6   67.57    1.29
   2  -3  -6   69.85    1.38
   2  -3  -6   69.84    1.40
   2  -3  -6   70.94    1.31
  -2   3   6   68.20    1.39
  -2   3   6   69.66    1.31
  -2   3   6   69.19    1.29
   1  -3  -6  224.42    3.45
   1  -3  -6  207.18    3.28
   1  -3  -6  220.70    3.30
   1  -3  -6  218.70    3.23
   1  -3  -6  219.70    3.30
  -1   3   6  219.02    3.29
  -1   3   6  217.90    3.20
  -1   3   6  223.93    3.32
  -1   3   6  223.98    3.34
   0  -3  -6   28.72    0.76
   0  -3  -6   29.21    0.67
   0  -3  -6   28.87    0.66
   0  -3  -6   28.21    0.54
   0  -3  -6   28.50    0.60
   0   3   6   28.25    0.66
   0   3   6   27.15    0.66
   0   3   6   28.00    0.66
  -1  -3  -6   30.95    0.69
  -1  -3  -6   31.01    0.67
  -1  -3  -6   30.05    0.80
   1   3   6   32.14    0.68
   1   3   6   30.61    0.72
   1   3   6   31.09    0.69
   1   3   6   29.48    0.72
  -2  -3  -6   15.88    0.56
  -2  -3  -6   14.51    0.50
  -2  -3  -6   16.06    0.54
   2   3   6   16.47    0.52
   2   3   6   16.07    0.54
   2   3   6   15.54    0.51
   2   3   6   16.44    0.51
  -3  -3  -6    6.56    0.39
   3   3   6    7.40    0.42
   3   3   6    7.36    0.38
   3   3   6    7.68    0.43
   3   3   6    7.86    0.42
  -4  -3  -6    0.19    0.19
   4   3   6    0.15    0.18
   4   3   6    0.22    0.18
   4   3   6    0.13    0.19
   4  -4  -6    1.52    0.30
  -4   4   6    1.46    0.30
   3  -4  -6    0.40    0.16
   3  -4  -6    0.38    0.14
   3  -4  -6    0.36    0.14
  -3   4   6    0.12    0.15
   2  -4  -6    0.40    0.13
   2  -4  -6    0.22    0.11
   2  -4  -6   -0.01    0.04
   2  -4  -6    0.35    0.13
   2  -4  -6    0.22    0.09
  -2   4   6    0.20    0.10
  -2   4   6    0.13    0.12
   1  -4  -6    0.27    0.10
   1  -4  -6    0.16    0.09
   1  -4  -6    0.19    0.08
   1  -4  -6    0.28    0.08
   1  -4  -6    0.23    0.12
  -1   4   6    0.47    0.12
  -1   4   6    0.43    0.11
  -1   4   6    0.28    0.08
  -1   4   6    0.45    0.12
   0  -4  -6   70.46    1.27
   0  -4  -6   70.03    1.28
   0  -4  -6   69.26    1.10
   0  -4  -6   70.36    1.40
   0  -4  -6   69.52    1.16
   0   4   6   69.62    1.27
   0   4   6   69.71    1.26
   0   4   6   68.45    1.27
  -1  -4  -6  117.93    1.87
  -1  -4  -6  120.16    2.10
  -1  -4  -6  120.74    1.97
   1   4   6  118.73    1.96
   1   4   6  117.66    1.87
   1   4   6  120.93    1.96
   1   4   6  120.22    1.95
  -2  -4  -6    0.88    0.16
  -2  -4  -6    1.10    0.17
  -2  -4  -6    0.90    0.15
   2   4   6    1.18    0.16
   2   4   6    0.92    0.15
   2   4   6    1.11    0.17
   2   4   6    1.02    0.15
   2   4   6    0.88    0.16
  -3  -4  -6   85.03    1.68
   3   4   6   86.42    1.69
   3   4   6   85.20    1.66
   3   4   6   87.59    1.59
   3   4   6   84.68    1.72
  -4  -4  -6   14.10    0.64
   4   4   6   13.36    0.63
   4   4   6   13.47    0.66
   4   4   6   15.17    0.66
   4  -5  -6   37.43    1.06
  -4   5   6   35.18    1.17
   3  -5  -6   41.20    0.99
   3  -5  -6   40.61    1.11
   3  -5  -6   40.68    1.02
  -3   5   6   39.44    1.12
  -3   5   6   41.36    1.12
   2  -5  -6   63.03    1.35
   2  -5  -6   65.26    1.21
   2  -5  -6   61.85    1.30
  -2   5   6   62.91    1.35
  -2   5   6   64.53    1.25
  -2   5   6   66.02    1.35
   1  -5  -6   57.55    1.13
   1  -5  -6   55.23    1.11
   1  -5  -6   58.65    1.17
   1  -5  -6   57.42    1.01
  -1   5   6   58.45    1.17
  -1   5   6   56.50    1.16
  -1   5   6   58.94    1.14
   0  -5  -6   45.72    0.81
   0  -5  -6   46.22    0.97
   0  -5  -6   47.29    0.82
   0   5   6   46.51    0.96
   0   5   6   46.69    0.95
   0   5   6   46.64    0.97
  -1  -5  -6   25.61    0.57
  -1  -5  -6   27.70    0.67
   1   5   6   26.27    0.66
   1   5   6   25.90    0.63
   1   5   6   26.51    0.58
   1   5   6   25.52    0.65
  -2  -5  -6   13.76    0.46
  -2  -5  -6   13.55    0.47
  -2  -5  -6   13.77    0.54
   2   5   6   12.98    0.45
   2   5   6   13.97    0.49
   2   5   6   13.50    0.45
  -3  -5  -6    8.74    0.43
   3   5   6    8.88    0.46
   3   5   6    9.31    0.44
   3   5   6    7.94    0.42
  -4  -5  -6    5.68    0.43
   4   5   6    4.64    0.41
   4   5   6    6.17    0.43
   4   5   6    5.81    0.44
  -4   6   6   -0.12    0.19
   3  -6  -6    0.37    0.19
   3  -6  -6    0.35    0.16
   3  -6  -6    0.34    0.17
  -3   6   6    0.80    0.23
  -3   6   6    0.71    0.23
   2  -6  -6   45.06    1.06
   2  -6  -6   43.16    1.07
   2  -6  -6   43.72    0.91
  -2   6   6   43.03    1.08
  -2   6   6   43.83    0.98
  -2   6   6   44.52    1.07
   1  -6  -6   22.23    0.66
   1  -6  -6   21.48    0.61
   1  -6  -6   22.80    0.50
  -1   6   6   22.35    0.62
  -1   6   6   22.36    0.61
  -1   6   6   21.44    0.64
   0  -6  -6   48.05    1.02
   0  -6  -6   48.86    0.81
   0   6   6   48.71    0.98
   0   6   6   48.00    1.02
   0   6   6   46.51    1.00
  -1  -6  -6   30.16    0.62
  -1  -6  -6   31.24    0.75
  -1  -6  -6   30.61    0.69
   1   6   6   30.42    0.70
   1   6   6   31.86    0.70
   1   6   6   30.76    0.76
   1   6   6   30.38    0.62
   1   6   6   30.10    0.74
  -2  -6  -6   59.68    1.16
  -2  -6  -6   60.27    1.22
  -2  -6  -6   58.62    1.16
  -2  -6  -6   57.28    1.30
   2   6   6   57.62    1.12
   2   6   6   57.41    1.21
   2   6   6   58.93    1.19
   2   6   6   58.91    1.15
   2   6   6   59.31    1.16
  -3  -6  -6   40.38    0.97
   3   6   6   38.79    0.96
   3   6   6   40.89    1.07
   3   6   6   41.97    1.00
   4   6   6    9.00    0.56
   4   6   6    9.34    0.53
  -4   7   6   20.26    0.93
   3  -7  -6   39.93    1.15
   3  -7  -6   38.88    1.09
  -3   7   6   39.46    1.15
  -3   7   6   38.03    1.15
   2  -7  -6   50.82    1.20
  -2   7   6   51.32    1.20
  -2   7   6   50.08    1.21
  -2   7   6   48.71    1.09
   1  -7  -6   14.67    0.55
  -1   7   6   15.50    0.51
  -1   7   6   13.96    0.50
  -1   7   6   14.98    0.53
   0  -7  -6   22.23    0.65
   0   7   6   22.64    0.66
   0   7   6   22.49    0.65
  -1  -7  -6    0.15    0.09
  -1  -7  -6    0.10    0.06
  -1  -7  -6    0.16    0.08
   1   7   6    0.21    0.10
   1   7   6    0.05    0.08
   1   7   6    0.09    0.09
   1   7   6    0.14    0.06
   1   7   6    0.13    0.08
  -2  -7  -6    7.23    0.34
  -2  -7  -6    8.11    0.39
   2   7   6    6.55    0.35
   2   7   6    7.07    0.32
   2   7   6    6.70    0.36
   2   7   6    7.03    0.34
   2   7   6    7.14    0.32
  -3  -7  -6   -0.02    0.14
   3   7   6    0.12    0.11
   3   7   6    0.12    0.13
   3   7   6   -0.03    0.14
  -4  -7  -6    3.31    0.41
   4   7   6    4.28    0.45
   4   7   6    3.78    0.39
   3  -8  -6    2.06    0.32
   3  -8  -6    1.75    0.37
  -3   8   6    2.00    0.32
   2  -8  -6    3.21    0.36
  -2   8   6    3.49    0.36
  -2   8   6    3.12    0.31
  -2   8   6    3.02    0.34
   1  -8  -6   24.17    0.76
  -1   8   6   22.13    0.68
  -1   8   6   22.75    0.67
  -1   8   6   24.17    0.71
   0  -8  -6   41.33    0.87
   0  -8  -6   40.32    0.98
   0   8   6   39.71    0.82
   0   8   6   40.48    0.99
   0   8   6   42.59    0.90
  -1  -8  -6   12.14    0.44
  -1  -8  -6   12.43    0.47
   1   8   6   12.18    0.51
   1   8   6   12.33    0.47
   1   8   6   11.97    0.49
  -2  -8  -6  128.10    2.24
  -2  -8  -6  127.37    2.15
   2   8   6  129.08    2.26
   2   8   6  124.57    2.14
   2   8   6  127.53    2.24
  -3  -8  -6   48.03    1.21
   3   8   6   45.56    1.20
   3   8   6   47.26    1.13
   3   8   6   46.06    1.06
  -4  -8  -6   18.08    0.79
   4   8   6   17.48    0.70
   4   8   6   15.53    0.76
   3  -9  -6   13.93    0.71
  -3   9   6   13.76    0.72
   2  -9  -6   25.15    0.89
  -2   9   6   26.44    0.78
  -2   9   6   26.37    0.86
  -2   9   6   25.87    0.86
   1  -9  -6   27.28    0.85
  -1   9   6   27.37    0.81
  -1   9   6   28.43    0.80
  -1   9   6   27.46    0.79
   0  -9  -6   11.45    0.51
   0  -9  -6   11.41    0.44
   0   9   6   11.58    0.43
   0   9   6   11.61    0.40
   0   9   6   11.71    0.52
  -1  -9  -6    0.61    0.17
  -1  -9  -6    0.73    0.16
   1   9   6    0.81    0.20
   1   9   6    0.79    0.17
  -2  -9  -6    4.74    0.31
  -2  -9  -6    4.49    0.35
   2   9   6    4.74    0.41
   2   9   6    4.55    0.34
  -3  -9  -6    0.88    0.22
   3   9   6    1.27    0.24
   3   9   6    0.58    0.21
  -4  -9  -6    0.06    0.22
   4   9   6    0.27    0.22
   3 -10  -6    0.08    0.23
  -3  10   6    0.17    0.21
   2 -10  -6   11.37    0.64
  -2  10   6   12.36    0.61
  -2  10   6   13.33    0.62
   1 -10  -6   21.98    0.80
  -1  10   6   21.26    0.90
  -1  10   6   22.24    0.71
  -1  10   6   21.46    0.75
   0 -10  -6   43.67    1.02
   0 -10  -6   43.18    1.13
   0  10   6   43.09    1.12
   0  10   6   43.92    0.96
  -1 -10  -6   37.83    0.98
  -1 -10  -6   36.22    0.93
   1  10   6   36.48    1.02
   1  10   6   36.94    0.65
  -2 -10  -6   48.80    1.20
  -2 -10  -6   49.70    1.14
   2  10   6   49.48    1.21
   2  10   6   50.24    1.25
  -3 -10  -6   21.81    0.83
   3  10   6   21.45    0.79
   3  10   6   20.38    0.80
  -4 -10  -6   11.90    0.71
   4  10   6   12.63    0.71
   2 -11  -6   10.69    0.63
  -2  11   6    9.75    0.57
   1 -11  -6    6.61    0.50
  -1  11   6    7.47    0.46
   0 -11  -6   15.34    0.66
   0 -11  -6   15.64    0.60
   0  11   6   16.04    0.67
  -1 -11  -6    0.56    0.19
  -1 -11  -6    0.99    0.22
   1  11   6    0.82    0.12
   1  11   6    0.81    0.24
  -2 -11  -6    0.18    0.17
   2  11   6   -0.12    0.14
   2  11   6   -0.13    0.15
  -3 -11  -6    0.20    0.21
   3  11   6    0.34    0.21
   3  11   6   -0.12    0.17
   2 -12  -6    6.18    0.58
   1 -12  -6   18.24    0.81
  -1  12   6   19.28    0.78
   0 -12  -6   53.19    1.28
   0 -12  -6   51.92    1.36
   0  12   6   51.23    1.36
  -1 -12  -6   19.74    0.75
  -1 -12  -6   18.88    0.72
   1  12   6   19.52    0.80
  -2 -12  -6   11.24    0.60
   2  12   6   10.93    0.63
   2  12   6   10.67    0.58
  -3 -12  -6   12.54    0.68
   3  12   6   12.56    0.68
   3  12   6   11.10    0.65
   1 -13  -6    3.94    0.49
  -1  13   6    4.27    0.46
   0 -13  -6    7.95    0.57
   0 -13  -6    7.13    0.49
   0  13   6    7.75    0.54
  -1 -13  -6    0.39    0.23
  -1 -13  -6    0.22    0.19
   1  13   6    0.22    0.21
  -2 -13  -6    3.09    0.40
   2  13   6    3.47    0.45
   1   9  -7    5.38    0.58
  -1  -9   7    4.81    0.49
   2   8  -7   14.11    0.77
  -2  -8   7   14.20    0.69
   1   8  -7   14.43    0.76
  -1  -8   7   15.09    0.70
   0   8  -7    9.53    0.60
   0  -8   7   11.20    0.65
   0  -8   7   10.29    0.59
  -1   8  -7   13.02    0.74
   1  -8   7   13.13    0.70
   1  -8   7   13.49    0.75
   3   7  -7    5.35    0.53
   3   7  -7    4.42    0.46
  -3  -7   7    5.38    0.51
   2   7  -7   10.90    0.55
   2   7  -7   11.12    0.66
  -2  -7   7   11.05    0.59
   1   7  -7   23.48    0.78
   1   7  -7   24.05    0.94
  -1  -7   7   25.04    0.85
  -1  -7   7   25.40    0.85
   0   7  -7    2.91    0.39
   0   7  -7    2.31    0.29
   0  -7   7    2.51    0.37
   0  -7   7    2.58    0.35
  -1   7  -7    3.61    0.37
  -1   7  -7    4.38    0.44
   1  -7   7    4.21    0.48
   1  -7   7    4.96    0.49
  -2   7  -7    1.47    0.31
   2  -7   7    0.92    0.31
   2  -7   7    1.07    0.30
   2  -7   7    0.78    0.27
   3   6  -7   11.49    0.59
   3   6  -7   11.13    0.66
  -3  -6   7   11.29    0.58
   2   6  -7   33.74    1.10
   2   6  -7   35.30    0.98
  -2  -6   7   35.45    0.99
   1   6  -7   38.49    1.16
   1   6  -7   37.83    1.13
   1   6  -7   36.47    0.98
  -1  -6   7   39.09    1.03
  -1  -6   7   38.30    1.03
   0   6  -7   30.85    0.98
   0   6  -7   28.63    0.84
   0   6  -7   30.61    1.02
   0  -6   7   30.28    0.96
   0  -6   7   31.44    0.93
  -1   6  -7   26.88    0.82
  -1   6  -7   29.31    0.92
   1  -6   7   28.31    0.92
   1  -6   7   30.13    1.03
   1  -6   7   27.93    0.90
  -2   6  -7   16.20    0.75
  -2   6  -7   14.74    0.64
   2  -6   7   15.12    0.72
   2  -6   7   15.52    0.78
   2  -6   7   14.53    0.64
   2  -6   7   13.92    0.71
   4   5  -7   16.35    0.77
   3   5  -7   16.38    0.74
   3   5  -7   14.45    0.65
   3   5  -7   14.81    0.69
   2   5  -7   11.31    0.60
   2   5  -7   11.23    0.52
   2   5  -7   11.69    0.61
  -2  -5   7   11.96    0.53
   1   5  -7   22.29    0.83
   1   5  -7   21.79    0.71
   1   5  -7   22.21    0.80
  -1  -5   7   24.43    0.74
  -1  -5   7   23.21    0.73
   0   5  -7    0.98    0.24
   0   5  -7    1.08    0.20
   0   5  -7    1.21    0.25
   0   5  -7    0.99    0.20
   0  -5   7    0.88    0.20
   0  -5   7    1.01    0.23
   0  -5   7    0.98    0.20
  -1   5  -7    0.34    0.17
  -1   5  -7    0.46    0.18
  -1   5  -7    0.33    0.16
   1  -5   7    0.76    0.22
   1  -5   7    0.57    0.17
   1  -5   7    0.49    0.18
   1  -5   7    0.66    0.22
  -2   5  -7   25.46    0.91
  -2   5  -7   26.25    0.84
   2  -5   7   25.81    0.84
   2  -5   7   23.93    0.90
   2  -5   7   24.42    0.94
   2  -5   7   24.90    0.89
  -3   5  -7    9.40    0.64
  -3   5  -7    9.20    0.57
   3  -5   7    9.00    0.56
   3  -5   7    8.02    0.57
   3  -5   7    8.63    0.65
   3  -5   7    8.68    0.63
   4   4  -7    4.58    0.46
   4   4  -7    5.77    0.51
   3   4  -7   12.16    0.60
   3   4  -7   12.06    0.61
   2   4  -7   33.39    0.92
   2   4  -7   33.48    1.01
   2   4  -7   33.11    1.00
  -2  -4   7   34.88    0.88
   1   4  -7   59.04    1.37
   1   4  -7   59.47    1.41
   1   4  -7   58.26    1.25
  -1  -4   7   58.00    1.19
  -1  -4   7   58.48    1.26
   0   4  -7   48.46    1.18
   0   4  -7   44.80    1.18
   0   4  -7   47.27    1.07
   0  -4   7   47.63    1.08
   0  -4   7   47.21    1.15
   0  -4   7   45.76    1.06
  -1   4  -7   44.52    1.11
  -1   4  -7   43.26    1.04
  -1   4  -7   43.91    1.08
   1  -4   7   44.32    1.18
   1  -4   7   44.25    1.05
   1  -4   7   44.14    1.11
   1  -4   7   44.18    1.09
   1  -4   7   43.65    0.97
  -2   4  -7   30.58    0.99
  -2   4  -7   32.00    0.92
   2  -4   7   31.66    0.92
   2  -4   7   31.96    1.04
   2  -4   7   30.89    0.73
   2  -4   7   31.95    0.97
   2  -4   7   32.72    1.02
  -3   4  -7    3.38    0.40
  -3   4  -7    2.85    0.41
   3  -4   7    2.85    0.37
   3  -4   7    2.49    0.36
   3  -4   7    2.34    0.38
   3  -4   7    3.00    0.42
   4   3  -7   21.58    0.85
   3   3  -7    4.67    0.42
   3   3  -7    3.76    0.39
   2   3  -7   37.14    1.05
   2   3  -7   36.79    1.02
   2   3  -7   39.75    0.99
  -2  -3   7   37.62    0.88
  -2  -3   7   36.72    0.88
   1   3  -7    1.71    0.27
   1   3  -7    1.48    0.24
   1   3  -7    1.68    0.22
  -1  -3   7    1.88    0.22
  -1  -3   7    1.91    0.21
  -1  -3   7    1.23    0.18
   0   3  -7    1.35    0.22
   0   3  -7    1.40    0.20
   0   3  -7    1.08    0.20
   0  -3   7    1.45    0.19
   0  -3   7    0.86    0.18
   0  -3   7    1.49    0.20
  -1   3  -7    0.41    0.15
  -1   3  -7    0.05    0.12
  -1   3  -7    0.16    0.12
   1  -3   7    0.42    0.15
   1  -3   7    0.36    0.11
   1  -3   7    0.31    0.15
   1  -3   7    0.12    0.14
   1  -3   7    0.40    0.14
  -2   3  -7    0.72    0.20
  -2   3  -7    0.69    0.20
   2  -3   7    1.12    0.27
   2  -3   7    0.76    0.20
   2  -3   7    0.89    0.21
   2  -3   7    0.61    0.08
   2  -3   7    0.81    0.20
  -3   3  -7   12.06    0.66
  -3   3  -7   10.58    0.57
   3  -3   7   10.89    0.63
   3  -3   7   10.95    0.61
   3  -3   7   10.11    0.63
   3  -3   7   10.98    0.57
   4   2  -7    4.97    0.47
   3   2  -7   31.97    0.94
   3   2  -7   32.07    0.99
   3   2  -7   32.88    0.96
  -3  -2   7   33.49    0.90
   2   2  -7   74.88    1.56
   2   2  -7   74.00    1.59
   2   2  -7   73.14    1.49
  -2  -2   7   73.90    1.62
  -2  -2   7   73.14    1.42
   1   2  -7  107.69    2.01
   1   2  -7  108.83    1.92
   1   2  -7  112.34    2.05
  -1  -2   7  112.18    1.80
  -1  -2   7  106.85    1.89
  -1  -2   7  110.00    1.89
   0   2  -7  103.78    1.88
   0   2  -7  104.37    1.81
   0   2  -7  103.66    1.90
   0  -2   7  100.16    1.81
   0  -2   7  100.81    1.88
   0  -2   7  103.51    1.74
  -1   2  -7   33.11    0.89
  -1   2  -7   33.16    0.84
  -1   2  -7   34.03    0.85
   1  -2   7   33.88    0.85
   1  -2   7   32.89    0.83
   1  -2   7   34.31    0.67
   1  -2   7   33.31    0.89
   1  -2   7   34.09    0.93
  -2   2  -7   42.19    1.04
  -2   2  -7   40.52    1.10
   2  -2   7   42.13    1.04
   2  -2   7   41.54    1.11
   2  -2   7   42.32    1.07
   2  -2   7   42.39    1.14
  -3   2  -7   25.89    0.93
  -3   2  -7   25.88    0.85
   3  -2   7   24.79    0.83
   3  -2   7   23.24    0.91
   3  -2   7   23.22    0.85
   3  -2   7   23.93    0.89
  -4   2  -7    5.30    0.59
  -4   2  -7    4.88    0.48
   4  -2   7    4.73    0.49
   4  -2   7    4.57    0.47
   4  -2   7    5.34    0.54
   4  -2   7    5.16    0.57
   4   1  -7   13.98    0.68
  -4  -1   7   13.90    0.65
   3   1  -7    1.61    0.26
   3   1  -7    1.43    0.24
   3   1  -7    1.88    0.28
  -3  -1   7    1.97    0.26
   2   1  -7   29.55    0.87
   2   1  -7   28.91    0.79
   2   1  -7   30.33    0.69
   2   1  -7   28.80    0.82
  -2  -1   7   28.64    0.76
  -2  -1   7   28.35    0.68
   1   1  -7    0.00    0.11
   1   1  -7    0.01    0.10
   1   1  -7    0.08    0.10
   1   1  -7    0.03    0.09
  -1  -1   7   -0.03    0.08
  -1  -1   7    0.10    0.09
   0   1  -7    0.09    0.08
   0   1  -7    0.06    0.10
   0   1  -7    0.36    0.12
   0  -1   7    0.07    0.06
   0  -1   7    0.08    0.09
   0  -1   7    0.03    0.08
  -1   1  -7    5.10    0.30
  -1   1  -7    5.60    0.30
   1  -1   7    4.99    0.30
   1  -1   7    5.33    0.29
   1  -1   7    5.73    0.35
   1  -1   7    4.70    0.31
  -2   1  -7   16.66    0.64
  -2   1  -7   17.28    0.61
   2  -1   7   16.75    0.65
   2  -1   7   17.42    0.67
   2  -1   7   16.85    0.60
   2  -1   7   17.11    0.60
  -3   1  -7    4.83    0.47
  -3   1  -7    5.39    0.45
   3  -1   7    4.39    0.42
   3  -1   7    4.70    0.42
   3  -1   7    4.98    0.46
   3  -1   7    4.77    0.47
  -4   1  -7   14.93    0.77
  -4   1  -7   15.54    0.75
   4  -1   7   15.55    0.73
   4  -1   7   13.60    0.73
   4  -1   7   15.47    0.74
   4  -1   7   15.18    0.77
   4   0  -7   27.71    0.95
  -4   0   7   28.15    0.94
   3   0  -7   53.50    1.21
   3   0  -7   52.61    1.25
   3   0  -7   53.14    1.31
  -3   0   7   54.16    1.25
   2   0  -7   79.31    1.63
   2   0  -7   78.33    1.54
   2   0  -7   78.35    1.52
   2   0  -7   79.79    1.62
   2   0  -7   79.01    1.40
  -2   0   7   80.68    1.41
  -2   0   7   79.13    1.52
   1   0  -7  152.97    2.69
   1   0  -7  155.72    2.56
   1   0  -7  153.38    2.54
   1   0  -7  156.22    2.49
  -1   0   7  152.84    2.49
  -1   0   7  155.79    2.46
  -1   0   7  155.43    2.48
   0   0  -7   92.86    1.61
   0   0  -7   91.46    1.84
   0   0  -7   90.33    1.64
   0   0  -7   90.50    1.62
   0   0   7   91.76    1.64
   0   0   7   94.27    1.46
   0   0   7   93.60    1.67
  -1   0  -7   60.90    1.22
  -1   0  -7   61.96    1.20
  -1   0  -7   63.01    1.43
   1   0   7   62.75    1.22
   1   0   7   60.28    1.26
   1   0   7   62.03    1.29
  -2   0  -7   71.06    1.49
  -2   0  -7   69.53    1.40
   2   0   7   68.96    1.48
   2   0   7   69.20    1.40
   2   0   7   68.86    1.47
   2   0   7   66.96    1.38
  -3   0  -7   15.42    0.63
  -3   0  -7   15.97    0.69
   3   0   7   16.19    0.69
   3   0   7   16.39    0.66
   3   0   7   15.84    0.63
   3   0   7   15.82    0.65
  -4   0  -7    7.71    0.55
  -4   0  -7    7.24    0.52
   4   0   7    7.22    0.50
   4   0   7    7.44    0.53
   4   0   7    7.91    0.54
   4   0   7    7.43    0.55
   4  -1  -7    8.11    0.53
  -4   1   7    7.47    0.52
   3  -1  -7   59.51    1.42
   3  -1  -7   60.51    1.34
  -3   1   7   60.53    1.37
   2  -1  -7    8.04    0.34
   2  -1  -7    8.17    0.42
   2  -1  -7    7.92    0.39
   2  -1  -7    8.15    0.39
   2  -1  -7    7.82    0.42
  -2   1   7    7.90    0.39
  -2   1   7    7.57    0.33
   1  -1  -7   -0.02    0.08
   1  -1  -7    0.06    0.09
   1  -1  -7    0.44    0.13
   1  -1  -7   -0.05    0.07
   1  -1  -7   -0.13    0.08
  -1   1   7   -0.01    0.09
  -1   1   7    0.01    0.06
  -1   1   7    0.09    0.08
  -1   1   7    0.03    0.08
   0  -1  -7    2.17    0.22
   0  -1  -7    2.52    0.19
   0  -1  -7    1.91    0.25
   0  -1  -7    2.85    0.24
   0   1   7    3.03    0.23
   0   1   7    2.24    0.21
   0   1   7    2.13    0.21
   0   1   7    2.32    0.10
  -1  -1  -7    7.54    0.42
  -1  -1  -7    7.22    0.27
  -1  -1  -7    6.95    0.31
  -1  -1  -7    8.04    0.35
   1   1   7    6.72    0.35
   1   1   7    7.44    0.32
   1   1   7    7.35    0.36
   1   1   7    6.95    0.33
   1   1   7    7.22    0.30
  -2  -1  -7    8.03    0.39
  -2  -1  -7    7.92    0.45
  -2  -1  -7    8.35    0.42
  -2  -1  -7    7.97    0.33
   2   1   7    8.08    0.42
   2   1   7    7.74    0.33
   2   1   7    8.19    0.38
   2   1   7    7.80    0.39
   2   1   7    8.26    0.42
  -3  -1  -7    3.18    0.36
  -3  -1  -7    3.25    0.34
   3   1   7    3.34    0.34
   3   1   7    3.12    0.35
   3   1   7    3.52    0.36
   3   1   7    3.64    0.37
  -4  -1  -7   33.28    1.10
  -4  -1  -7   33.38    1.11
   4   1   7   36.27    1.12
   4   1   7   32.68    1.05
   4   1   7   34.02    1.13
   4  -2  -7   55.08    1.37
  -4   2   7   52.22    1.38
   3  -2  -7   60.64    1.42
   3  -2  -7   59.74    1.34
   3  -2  -7   61.97    1.30
  -3   2   7   61.40    1.41
   2  -2  -7   38.79    0.91
   2  -2  -7   37.00    0.84
   2  -2  -7   39.49    0.99
   2  -2  -7   39.01    0.90
   2  -2  -7   36.94    0.97
  -2   2   7   36.77    0.93
  -2   2   7   37.83    0.85
  -2   2   7   37.74    0.91
   1  -2  -7   69.15    1.46
   1  -2  -7   69.23    1.28
   1  -2  -7   70.72    1.31
   1  -2  -7   69.87    1.34
   1  -2  -7   71.34    1.33
  -1   2   7   67.82    1.22
  -1   2   7   70.09    1.35
  -1   2   7   71.60    1.31
  -1   2   7   71.97    1.35
   0  -2  -7   95.39    1.60
   0  -2  -7   97.06    1.65
   0  -2  -7   92.87    1.80
   0  -2  -7   93.88    1.53
   0   2   7   92.96    1.66
   0   2   7   93.96    1.65
   0   2   7   95.02    1.65
  -1  -2  -7   41.15    0.68
  -1  -2  -7   40.42    0.88
  -1  -2  -7   42.30    0.87
  -1  -2  -7   39.31    1.02
   1   2   7   40.17    0.88
   1   2   7   40.36    0.93
   1   2   7   39.43    0.86
   1   2   7   40.91    0.93
  -2  -2  -7   71.72    1.52
  -2  -2  -7   70.83    1.28
  -2  -2  -7   71.94    1.39
  -2  -2  -7   69.61    1.45
   2   2   7   71.02    1.43
   2   2   7   70.38    1.38
   2   2   7   71.23    1.28
   2   2   7   68.68    1.44
   2   2   7   70.19    1.38
  -3  -2  -7   15.68    0.63
  -3  -2  -7   15.47    0.65
   3   2   7   15.89    0.61
   3   2   7   15.60    0.61
   3   2   7   16.24    0.63
   3   2   7   16.62    0.67
  -4  -2  -7    3.14    0.40
   4   2   7    2.28    0.35
   4   2   7    3.31    0.40
   4   2   7    2.37    0.34
   4  -3  -7    9.46    0.55
  -4   3   7    9.73    0.59
   3  -3  -7   42.71    0.98
   3  -3  -7   41.54    0.99
   3  -3  -7   41.77    1.04
   3  -3  -7   41.63    1.14
  -3   3   7   41.20    1.11
   2  -3  -7    4.47    0.33
   2  -3  -7    4.24    0.32
   2  -3  -7    4.35    0.27
   2  -3  -7    4.56    0.29
   2  -3  -7    4.54    0.28
  -2   3   7    4.60    0.28
  -2   3   7    4.45    0.31
  -2   3   7    4.54    0.29
   1  -3  -7   -0.03    0.08
   1  -3  -7    0.08    0.08
   1  -3  -7    0.05    0.07
   1  -3  -7    0.43    0.15
   1  -3  -7    0.16    0.10
  -1   3   7    0.06    0.06
  -1   3   7    0.17    0.10
  -1   3   7   -0.04    0.07
  -1   3   7    0.07    0.09
   0  -3  -7   22.95    0.50
   0  -3  -7   22.93    0.56
   0  -3  -7   22.22    0.61
   0  -3  -7   21.49    0.60
   0  -3  -7   22.61    0.71
   0   3   7   22.68    0.61
   0   3   7   23.02    0.61
   0   3   7   22.39    0.61
  -1  -3  -7   29.08    0.69
  -1  -3  -7   27.90    0.67
  -1  -3  -7   29.06    0.83
   1   3   7   26.99    0.72
   1   3   7   29.06    0.68
   1   3   7   29.02    0.69
   1   3   7   29.29    0.74
  -2  -3  -7   35.06    0.78
  -2  -3  -7   35.91    0.91
  -2  -3  -7   36.20    0.86
  -2  -3  -7   35.39    0.95
   2   3   7   34.93    0.85
   2   3   7   35.51    0.86
   2   3   7   36.70    0.92
   2   3   7   36.30    0.79
   2   3   7   33.95    0.87
  -3  -3  -7   42.31    1.10
  -3  -3  -7   42.90    1.12
   3   3   7   43.39    1.12
   3   3   7   42.19    1.09
   3   3   7   44.02    1.07
   3   3   7   43.19    1.04
  -4  -3  -7   20.52    0.83
   4   3   7   20.87    0.83
   4   3   7   20.63    0.79
   4   3   7   20.95    0.84
   4  -4  -7   23.33    0.84
  -4   4   7   23.17    0.92
   3  -4  -7   40.95    1.13
   3  -4  -7   41.86    1.01
   3  -4  -7   43.29    1.05
  -3   4   7   39.37    1.11
   2  -4  -7   63.87    1.36
   2  -4  -7   62.60    1.24
   2  -4  -7   63.81    1.27
   2  -4  -7   64.24    1.28
  -2   4   7   62.47    1.27
  -2   4   7   62.32    1.27
  -2   4   7   64.39    1.37
   1  -4  -7   38.65    1.00
   1  -4  -7   38.67    0.88
   1  -4  -7   37.56    0.80
   1  -4  -7   37.37    0.85
   1  -4  -7   38.85    0.88
  -1   4   7   39.15    0.75
  -1   4   7   39.18    0.88
  -1   4   7   38.41    0.88
  -1   4   7   37.63    0.89
   0  -4  -7   54.33    1.08
   0  -4  -7   53.44    1.22
   0  -4  -7   54.33    0.99
   0  -4  -7   55.30    1.10
   0  -4  -7   51.41    0.91
   0   4   7   52.03    1.08
   0   4   7   52.78    1.08
   0   4   7   52.32    1.07
  -1  -4  -7    8.50    0.37
  -1  -4  -7    8.20    0.35
  -1  -4  -7    8.83    0.43
  -1  -4  -7    8.43    0.33
   1   4   7    8.63    0.33
   1   4   7    8.28    0.37
   1   4   7    8.73    0.37
   1   4   7    8.50    0.36
  -2  -4  -7    7.03    0.35
  -2  -4  -7    7.11    0.37
  -2  -4  -7    7.47    0.33
  -2  -4  -7    7.73    0.42
   2   4   7    7.03    0.36
   2   4   7    7.65    0.33
   2   4   7    7.13    0.37
   2   4   7    6.91    0.34
   2   4   7    7.32    0.36
  -3  -4  -7   82.35    1.69
   3   4   7   81.54    1.60
   3   4   7   81.90    1.64
   3   4   7   82.96    1.70
   3   4   7   84.65    1.69
  -4  -4  -7    2.57    0.36
   4   4   7    2.30    0.33
   4   4   7    2.52    0.36
   4   4   7    1.67    0.31
   4  -5  -7    7.06    0.48
  -4   5   7    6.10    0.57
   3  -5  -7   -0.01    0.13
   3  -5  -7    0.13    0.15
   3  -5  -7    0.14    0.15
  -3   5   7   -0.04    0.13
   2  -5  -7    0.28    0.14
   2  -5  -7    0.27    0.11
   2  -5  -7    0.01    0.10
   2  -5  -7    0.34    0.14
   2  -5  -7    0.05    0.07
  -2   5   7    0.16    0.11
  -2   5   7    0.24    0.14
   1  -5  -7    3.18    0.24
   1  -5  -7    3.39    0.25
   1  -5  -7    3.18    0.23
   1  -5  -7    3.10    0.20
   1  -5  -7    3.26    0.30
  -1   5   7    3.07    0.23
  -1   5   7    3.28    0.30
  -1   5   7    3.33    0.25
   0  -5  -7   33.90    0.69
   0  -5  -7   34.01    0.66
   0  -5  -7   34.68    0.83
   0  -5  -7   34.77    0.82
   0  -5  -7   34.87    0.94
   0   5   7   33.78    0.80
   0   5   7   34.53    0.83
   0   5   7   34.61    0.82
  -1  -5  -7   41.83    0.85
  -1  -5  -7   42.38    0.95
  -1  -5  -7   42.80    1.07
   1   5   7   42.19    0.85
   1   5   7   43.65    0.93
   1   5   7   42.42    0.94
   1   5   7   41.10    0.94
  -2  -5  -7   54.53    1.12
  -2  -5  -7   54.35    1.13
  -2  -5  -7   53.21    1.24
   2   5   7   53.32    1.13
   2   5   7   54.96    1.11
   2   5   7   54.15    1.13
   2   5   7   53.46    1.15
  -3  -5  -7  106.22    1.99
   3   5   7  106.26    1.90
   3   5   7  106.58    1.97
   3   5   7  108.15    2.04
   3   5   7  103.02    1.98
  -4  -5  -7   10.83    0.57
   4   5   7   10.75    0.58
   4   5   7   10.59    0.58
   4   5   7   10.85    0.59
  -4   6   7   14.58    0.76
   3  -6  -7   40.69    1.01
   3  -6  -7   42.55    1.10
   3  -6  -7   41.79    1.18
  -3   6   7   40.72    1.18
   2  -6  -7   27.45    0.70
   2  -6  -7   28.15    0.77
   2  -6  -7   28.69    0.82
  -2   6   7   28.39    0.86
  -2   6   7   28.55    0.77
   1  -6  -7  107.47    1.72
   1  -6  -7  106.88    1.93
   1  -6  -7  107.95    1.90
  -1   6   7  108.90    1.93
  -1   6   7  108.60    1.90
  -1   6   7  106.28    1.93
   0  -6  -7   38.84    0.92
   0  -6  -7   38.21    0.73
   0   6   7   38.41    0.91
   0   6   7   38.31    0.90
   0   6   7   39.15    0.89
  -1  -6  -7   29.22    0.66
  -1  -6  -7   27.47    0.73
  -1  -6  -7   28.40    0.63
   1   6   7   28.62    0.74
   1   6   7   27.74    0.63
   1   6   7   27.54    0.70
   1   6   7   28.56    0.65
   1   6   7   27.10    0.73
  -2  -6  -7   16.33    0.55
  -2  -6  -7   16.79    0.65
  -2  -6  -7   17.69    0.54
   2   6   7   17.13    0.53
   2   6   7   17.37    0.56
   2   6   7   17.52    0.57
   2   6   7   18.11    0.57
  -3  -6  -7   28.47    0.81
   3   6   7   25.53    0.83
   3   6   7   26.74    0.78
  -4  -6  -7    0.55    0.32
   4   6   7    0.82    0.25
   4   6   7    0.16    0.14
   4   6   7    0.64    0.24
   3  -7  -7   -0.03    0.14
  -3   7   7    0.19    0.19
  -3   7   7   -0.02    0.17
   2  -7  -7    0.97    0.21
   2  -7  -7    1.11    0.21
  -2   7   7    1.39    0.23
  -2   7   7    1.26    0.21
  -2   7   7    1.14    0.22
   1  -7  -7   31.62    0.87
  -1   7   7   33.59    0.86
  -1   7   7   32.20    0.84
   0  -7  -7   40.99    0.97
   0   7   7   38.89    0.95
   0   7   7   38.84    0.94
   0   7   7   40.74    0.91
  -1  -7  -7   26.08    0.72
  -1  -7  -7   26.37    0.58
  -1  -7  -7   25.75    0.64
   1   7   7   26.24    0.58
   1   7   7   25.71    0.73
   1   7   7   26.31    0.65
   1   7   7   26.09    0.67
   1   7   7   25.67    0.71
  -2  -7  -7   21.36    0.64
  -2  -7  -7   21.27    0.66
  -2  -7  -7   21.75    0.77
  -2  -7  -7   21.05    0.59
   2   7   7   21.34    0.59
   2   7   7   21.54    0.64
   2   7   7   22.18    0.67
   2   7   7   21.30    0.62
   2   7   7   21.05    0.66
  -3  -7  -7   32.65    0.96
   3   7   7   32.68    0.87
   3   7   7   31.45    0.95
   3   7   7   32.17    0.85
   4   7   7   19.37    0.82
   4   7   7   19.58    0.76
   3  -8  -7   31.27    1.01
  -3   8   7   34.02    1.10
   2  -8  -7    6.67    0.39
   2  -8  -7    4.76    0.42
  -2   8   7    6.34    0.42
  -2   8   7    6.26    0.38
  -2   8   7    6.10    0.42
   1  -8  -7   64.21    1.41
  -1   8   7   63.83    1.35
  -1   8   7   64.26    1.30
  -1   8   7   62.90    1.35
   0  -8  -7   40.39    1.00
   0   8   7   40.20    0.99
  -1  -8  -7   19.58    0.64
  -1  -8  -7   19.97    0.57
   1   8   7   19.92    0.66
   1   8   7   19.05    0.62
   1   8   7   20.33    0.58
   1   8   7   21.22    0.59
  -2  -8  -7   25.74    0.76
  -2  -8  -7   26.87    0.74
   2   8   7   26.16    0.78
   2   8   7   26.03    0.76
   2   8   7   25.65    0.73
  -3  -8  -7   -0.05    0.14
   3   8   7    0.03    0.09
   3   8   7   -0.05    0.14
   3   8   7    0.19    0.14
  -4  -8  -7    0.07    0.21
   4   8   7    0.11    0.19
   4   8   7    0.30    0.23
   3  -9  -7    0.16    0.22
  -3   9   7   -0.10    0.19
   2  -9  -7    1.15    0.25
   2  -9  -7    1.39    0.25
  -2   9   7    1.01    0.23
  -2   9   7    1.35    0.24
   1  -9  -7   17.37    0.68
  -1   9   7   16.95    0.62
  -1   9   7   18.03    0.65
  -1   9   7   17.36    0.60
   0  -9  -7   33.51    0.93
   0   9   7   32.88    0.92
   0   9   7   33.44    0.83
  -1  -9  -7    9.70    0.42
  -1  -9  -7    9.45    0.46
   1   9   7    9.56    0.42
   1   9   7   10.47    0.47
   1   9   7    9.83    0.49
  -2  -9  -7   16.97    0.59
  -2  -9  -7   16.58    0.61
   2   9   7   15.76    0.57
   2   9   7   16.55    0.62
   2   9   7   15.59    0.62
  -3  -9  -7   22.83    0.83
   3   9   7   24.04    0.80
   3   9   7   23.37    0.83
  -4  -9  -7    8.78    0.60
   4   9   7    8.70    0.60
   3 -10  -7    4.53    0.51
  -3  10   7    5.12    0.52
   2 -10  -7   29.63    1.00
  -2  10   7   29.16    0.89
  -2  10   7   28.39    0.95
   1 -10  -7   12.10    0.60
  -1  10   7   12.25    0.56
   0 -10  -7   15.33    0.64
   0  10   7   14.83    0.62
   0  10   7   15.40    0.48
  -1 -10  -7    2.05    0.24
  -1 -10  -7    2.46    0.29
   1  10   7    2.02    0.29
  -2 -10  -7    0.19    0.15
  -2 -10  -7    0.36    0.16
   2  10   7    0.55    0.20
   2  10   7    0.15    0.15
  -3 -10  -7    0.18    0.18
   3  10   7   -0.08    0.15
   3  10   7    0.10    0.17
  -4 -10  -7    0.50    0.27
   4  10   7    0.45    0.25
   2 -11  -7    6.75    0.58
  -2  11   7    6.83    0.50
   1 -11  -7    6.33    0.47
  -1  11   7    7.32    0.47
   0 -11  -7   13.47    0.64
   0  11   7   13.59    0.62
  -1 -11  -7   15.78    0.65
  -1 -11  -7   17.06    0.63
   1  11   7   16.60    0.70
  -2 -11  -7   16.83    0.68
   2  11   7   16.30    0.71
   2  11   7   16.82    0.68
  -3 -11  -7   20.98    0.86
   3  11   7   21.92    0.85
   3  11   7   22.81    0.86
   1 -12  -7    4.48    0.47
  -1  12   7    3.81    0.41
   0 -12  -7    6.72    0.48
   0  12   7    7.32    0.50
  -1 -12  -7    0.14    0.17
  -1 -12  -7    0.16    0.16
   1  12   7    0.33    0.20
  -2 -12  -7    0.13    0.18
   2  12   7   -0.11    0.17
   2  12   7   -0.01    0.17
  -3 -12  -7   -0.15    0.21
   3  12   7   -0.40    0.17
   3  12   7    0.03    0.22
   1 -13  -7   12.88    0.75
  -1  13   7   12.85    0.68
   0 -13  -7    6.19    0.54
   0  13   7    6.59    0.57
  -1 -13  -7   15.57    0.68
  -1 -13  -7   17.35    0.74
   1  13   7   17.06    0.78
  -2 -13  -7   10.44    0.60
   2  13   7   10.19    0.65
   1   8  -8    9.18    0.65
  -1  -8   8    9.12    0.58
   0   8  -8    2.11    0.39
   0  -8   8    1.51    0.33
   0  -8   8    1.42    0.31
   2   7  -8    0.25    0.21
   2   7  -8    0.39    0.25
  -2  -7   8    0.06    0.19
   1   7  -8    4.43    0.40
   1   7  -8    5.37    0.55
  -1  -7   8    4.65    0.46
   0   7  -8    9.54    0.51
   0   7  -8    9.56    0.61
   0  -7   8    9.31    0.55
   0  -7   8    9.75    0.61
  -1   7  -8   11.03    0.62
   1  -7   8   10.67    0.67
   1  -7   8    9.84    0.59
   3   6  -8    8.88    0.62
   3   6  -8    9.34    0.60
   2   6  -8    2.88    0.36
   2   6  -8    3.28    0.42
  -2  -6   8    3.63    0.38
   1   6  -8   16.55    0.66
   1   6  -8   16.28    0.76
   1   6  -8   16.89    0.86
  -1  -6   8   16.36    0.68
  -1  -6   8   16.09    0.66
   0   6  -8    2.81    0.39
   0   6  -8    3.13    0.33
   0  -6   8    2.81    0.36
   0  -6   8    2.26    0.30
  -1   6  -8    0.34    0.20
  -1   6  -8    0.76    0.21
  -1   6  -8    0.02    0.16
   1  -6   8    0.13    0.20
   1  -6   8    0.22    0.22
   1  -6   8    0.38    0.21
  -2   6  -8    0.34    0.22
  -2   6  -8    0.28    0.23
   2  -6   8    0.24    0.20
   2  -6   8    0.38    0.25
   2  -6   8    0.15    0.20
   2  -6   8    0.20    0.24
   3   5  -8    0.26    0.22
   3   5  -8    0.14    0.22
   2   5  -8   11.90    0.63
   2   5  -8   11.29    0.57
   1   5  -8    5.93    0.52
   1   5  -8    4.03    0.42
   1   5  -8    6.08    0.39
  -1  -5   8    6.09    0.39
  -1  -5   8    5.56    0.39
   0   5  -8   23.15    0.75
   0   5  -8   24.37    0.86
   0  -5   8   24.89    0.87
   0  -5   8   23.17    0.76
  -1   5  -8   21.41    0.79
  -1   5  -8   21.88    0.74
  -1   5  -8   22.19    0.79
   1  -5   8   21.20    0.79
   1  -5   8   21.27    0.87
   1  -5   8   24.00    0.81
  -2   5  -8    4.52    0.43
  -2   5  -8    4.83    0.50
   2  -5   8    5.30    0.47
   2  -5   8    5.67    0.52
   2  -5   8    4.87    0.48
   2  -5   8    4.48    0.51
   3   4  -8    8.06    0.52
   3   4  -8    9.41    0.58
   2   4  -8   17.09    0.73
   2   4  -8   16.57    0.65
   2   4  -8   15.45    0.69
   1   4  -8   23.26    0.85
   1   4  -8   22.45    0.73
   1   4  -8   24.03    0.84
  -1  -4   8   23.09    0.70
  -1  -4   8   23.73    0.75
   0   4  -8    1.33    0.25
   0   4  -8    1.24    0.22
   0  -4   8    1.18    0.24
   0  -4   8    1.55    0.23
   0  -4   8    0.92    0.19
  -1   4  -8   -0.11    0.14
  -1   4  -8    0.08    0.14
  -1   4  -8    0.03    0.14
   1  -4   8    0.02    0.12
   1  -4   8   -0.23    0.13
   1  -4   8   -0.16    0.15
   1  -4   8   -0.02    0.14
  -2   4  -8    0.30    0.18
  -2   4  -8    0.05    0.17
   2  -4   8   -0.12    0.16
   2  -4   8    0.29    0.21
   2  -4   8    0.31    0.18
   2  -4   8    0.52    0.23
  -3   4  -8   12.48    0.66
  -3   4  -8   11.74    0.70
   3  -4   8   12.77    0.70
   3  -4   8   12.11    0.64
   3  -4   8   12.64    0.76
   3  -4   8   12.38    0.72
   4   3  -8    3.75    0.46
   4   3  -8    4.12    0.46
   3   3  -8    4.27    0.43
   3   3  -8    4.31    0.42
   2   3  -8    0.44    0.19
   2   3  -8    0.27    0.17
   2   3  -8    0.36    0.18
   1   3  -8   18.13    0.71
   1   3  -8   17.86    0.62
   1   3  -8   18.58    0.70
  -1  -3   8   18.61    0.63
  -1  -3   8   19.20    0.62
  -1  -3   8   18.77    0.58
   0   3  -8   40.94    1.06
   0   3  -8   40.69    0.99
   0  -3   8   38.69    0.98
   0  -3   8   39.03    1.05
  -1   3  -8   37.86    1.00
  -1   3  -8   37.23    1.02
  -1   3  -8   38.44    0.98
   1  -3   8   38.69    1.04
   1  -3   8   38.59    0.81
   1  -3   8   37.17    1.08
   1  -3   8   37.51    0.97
   1  -3   8   37.32    0.96
  -2   3  -8    6.90    0.47
  -2   3  -8    8.13    0.47
   2  -3   8    8.16    0.53
   2  -3   8    8.56    0.47
   2  -3   8    8.98    0.50
   2  -3   8    8.17    0.51
  -3   3  -8   24.40    0.97
  -3   3  -8   25.20    0.89
   3  -3   8   23.22    0.96
   3  -3   8   25.13    0.89
   3  -3   8   23.29    0.96
   3  -3   8   22.95    0.90
   4   2  -8   23.62    0.91
   3   2  -8   36.82    1.07
   3   2  -8   36.49    1.06
  -3  -2   8   36.18    0.98
   2   2  -8   32.15    0.96
   2   2  -8   32.50    0.91
   2   2  -8   32.28    0.99
  -2  -2   8   32.47    0.85
   1   2  -8    2.87    0.29
   1   2  -8    2.96    0.32
   1   2  -8    4.14    0.38
  -1  -2   8    3.65    0.32
  -1  -2   8    3.43    0.30
   0   2  -8    0.05    0.12
   0   2  -8    0.04    0.10
   0  -2   8    0.25    0.14
   0  -2   8   -0.01    0.09
   0  -2   8    0.04    0.11
  -1   2  -8    2.52    0.28
  -1   2  -8    2.39    0.30
  -1   2  -8    2.56    0.27
   1  -2   8    2.62    0.33
   1  -2   8    3.03    0.33
   1  -2   8    2.93    0.29
   1  -2   8    2.36    0.16
   1  -2   8    2.65    0.28
  -2   2  -8    6.03    0.44
  -2   2  -8    5.42    0.38
   2  -2   8    6.23    0.40
   2  -2   8    5.25    0.38
   2  -2   8    5.14    0.46
   2  -2   8    6.65    0.45
  -3   2  -8    9.13    0.58
  -3   2  -8    9.27    0.55
   3  -2   8    9.55    0.57
   3  -2   8    8.26    0.53
   3  -2   8    9.34    0.59
   3  -2   8    9.84    0.62
   4   1  -8    5.48    0.51
  -4  -1   8    4.74    0.46
   3   1  -8   18.99    0.72
   3   1  -8   18.61    0.71
   3   1  -8   19.75    0.78
  -3  -1   8   19.05    0.70
   2   1  -8    7.89    0.47
   2   1  -8    8.73    0.45
   2   1  -8    8.98    0.46
   2   1  -8    8.49    0.38
  -2  -1   8    8.67    0.37
  -2  -1   8    9.44    0.44
   1   1  -8   45.24    1.11
   1   1  -8   43.59    1.07
   1   1  -8   45.18    1.03
  -1  -1   8   45.27    1.02
  -1  -1   8   44.46    1.00
   0   1  -8   61.39    1.25
   0   1  -8   58.45    1.27
   0  -1   8   59.99    1.12
   0  -1   8   60.87    1.30
   0  -1   8   59.46    1.25
  -1   1  -8   10.98    0.46
  -1   1  -8   10.22    0.45
   1  -1   8   11.37    0.50
   1  -1   8   11.30    0.47
   1  -1   8   12.56    0.55
  -2   1  -8   49.08    1.26
  -2   1  -8   51.03    1.19
   2  -1   8   52.31    1.20
   2  -1   8   50.35    1.27
   2  -1   8   51.61    1.20
   2  -1   8   49.64    1.26
  -3   1  -8   19.52    0.81
  -3   1  -8   18.67    0.73
   3  -1   8   18.65    0.75
   3  -1   8   19.22    0.80
   3  -1   8   19.12    0.73
   3  -1   8   19.21    0.81
  -4   1  -8    1.65    0.31
  -4   1  -8    1.62    0.35
   4  -1   8    1.09    0.30
   4  -1   8    1.55    0.37
   4  -1   8    1.57    0.32
   4  -1   8    1.90    0.37
   4   0  -8   11.71    0.62
  -4   0   8   10.39    0.60
   3   0  -8   16.43    0.64
   3   0  -8   17.10    0.67
   3   0  -8   15.69    0.69
  -3   0   8   16.67    0.65
   2   0  -8   30.69    0.87
   2   0  -8   30.07    0.94
   2   0  -8   30.99    0.76
   2   0  -8   32.42    0.93
   2   0  -8   30.89    0.85
  -2   0   8   31.06    0.84
  -2   0   8   30.72    0.76
   1   0  -8    1.58    0.23
   1   0  -8    1.43    0.20
   1   0  -8    1.42    0.24
   1   0  -8    1.22    0.19
  -1   0   8    1.43    0.20
  -1   0   8    1.55    0.20
   0   0  -8    0.17    0.10
   0   0  -8   -0.04    0.11
   0   0  -8    0.01    0.08
   0   0   8   -0.03    0.09
   0   0   8    0.05    0.05
   0   0   8    0.00    0.09
  -1   0  -8   15.43    0.68
  -1   0  -8   14.55    0.52
  -1   0  -8   15.19    0.53
   1   0   8   15.38    0.49
   1   0   8   14.94    0.56
   1   0   8   15.67    0.54
   1   0   8   14.69    0.57
  -2   0  -8   57.93    1.27
  -2   0  -8   58.04    1.35
   2   0   8   56.75    1.25
   2   0   8   57.18    1.35
   2   0   8   57.84    1.35
   2   0   8   55.65    1.25
  -3   0  -8   14.66    0.69
  -3   0  -8   14.08    0.62
   3   0   8   15.38    0.64
   3   0   8   16.17    0.70
   3   0   8   15.78    0.67
   3   0   8   14.41    0.68
  -4   0  -8    4.02    0.44
  -4   0  -8    3.96    0.49
   4   0   8    3.15    0.43
   4   0   8    4.07    0.45
   4   0   8    3.94    0.45
   4   0   8    4.00    0.48
   4  -1  -8    3.97    0.43
  -4   1   8    4.68    0.46
   3  -1  -8   18.36    0.69
   3  -1  -8   17.99    0.74
   3  -1  -8   19.28    0.68
  -3   1   8   19.56    0.72
   2  -1  -8   28.60    0.79
   2  -1  -8   28.45    0.86
   2  -1  -8   29.17    0.73
   2  -1  -8   28.04    0.81
  -2   1   8   29.46    0.82
  -2   1   8   28.50    0.72
   1  -1  -8   59.12    1.37
   1  -1  -8   56.87    1.21
   1  -1  -8   55.61    1.21
   1  -1  -8   56.04    1.16
   1  -1  -8   56.64    1.17
  -1   1   8   56.89    1.16
  -1   1   8   56.08    1.19
   0  -1  -8   85.36    1.60
   0  -1  -8   85.87    1.55
   0  -1  -8   87.78    1.81
   0  -1  -8   86.18    1.56
   0   1   8   84.16    1.60
   0   1   8   86.66    1.61
   0   1   8   87.55    1.62
  -1  -1  -8   17.84    0.56
  -1  -1  -8   17.68    0.70
  -1  -1  -8   18.59    0.57
   1   1   8   17.68    0.56
   1   1   8   17.81    0.51
   1   1   8   17.08    0.60
   1   1   8   18.29    0.57
   1   1   8   16.66    0.60
  -2  -1  -8   57.64    1.27
  -2  -1  -8   60.14    1.36
  -2  -1  -8   58.46    1.44
  -2  -1  -8   63.77    1.45
   2   1   8   58.06    1.33
   2   1   8   58.76    1.25
   2   1   8   58.50    1.35
   2   1   8   57.37    1.26
  -3  -1  -8   32.36    0.96
  -3  -1  -8   32.94    1.03
   3   1   8   31.82    1.01
   3   1   8   33.32    0.97
   3   1   8   33.68    1.00
   3   1   8   34.18    1.00
  -4  -1  -8    9.89    0.64
  -4  -1  -8    8.76    0.59
   4   1   8    9.77    0.58
   4   1   8    8.88    0.56
   4   1   8    8.46    0.58
   4   1   8    8.94    0.62
   4  -2  -8    4.83    0.48
  -4   2   8    4.33    0.46
   3  -2  -8    3.24    0.38
   3  -2  -8    2.52    0.29
   3  -2  -8    2.07    0.27
  -3   2   8    1.72    0.27
   2  -2  -8    9.66    0.40
   2  -2  -8    8.64    0.42
   2  -2  -8    8.17    0.42
   2  -2  -8    8.68    0.46
  -2   2   8    9.20    0.45
  -2   2   8    8.89    0.39
   1  -2  -8    2.33    0.24
   1  -2  -8    2.48    0.25
   1  -2  -8    2.94    0.26
   1  -2  -8    2.17    0.27
   1  -2  -8    2.59    0.25
  -1   2   8    2.39    0.25
  -1   2   8    2.05    0.23
  -1   2   8    2.88    0.26
   0  -2  -8   -0.02    0.09
   0  -2  -8    0.01    0.09
   0  -2  -8    0.03    0.06
   0  -2  -8    0.06    0.09
   0   2   8    0.04    0.09
   0   2   8   -0.04    0.08
   0   2   8    0.02    0.09
  -1  -2  -8   15.55    0.51
  -1  -2  -8   15.46    0.63
  -1  -2  -8   15.79    0.52
   1   2   8   15.39    0.55
   1   2   8   15.30    0.52
   1   2   8   16.30    0.52
   1   2   8   16.08    0.56
  -2  -2  -8   34.31    0.81
  -2  -2  -8   34.11    0.95
  -2  -2  -8   36.04    1.04
  -2  -2  -8   35.73    0.90
   2   2   8   35.22    0.90
   2   2   8   35.53    0.82
   2   2   8   34.33    0.87
   2   2   8   34.90    0.96
   2   2   8   35.89    0.95
  -3  -2  -8   21.71    0.76
  -3  -2  -8   21.35    0.79
   3   2   8   20.76    0.75
   3   2   8   22.34    0.80
   3   2   8   20.88    0.74
   3   2   8   20.75    0.75
  -4  -2  -8    4.00    0.44
  -4  -2  -8    5.53    0.55
   4   2   8    4.33    0.49
   4   2   8    5.26    0.52
   4   2   8    3.87    0.42
   4  -3  -8   13.90    0.67
  -4   3   8   14.36    0.72
   3  -3  -8   22.82    0.75
   3  -3  -8   23.27    0.83
  -3   3   8   21.05    0.78
   2  -3  -8   62.81    1.37
   2  -3  -8   62.34    1.27
   2  -3  -8   60.80    1.30
   2  -3  -8   63.08    1.26
  -2   3   8   59.84    1.29
  -2   3   8   61.22    1.25
  -2   3   8   61.86    1.35
   1  -3  -8   91.07    1.83
   1  -3  -8   92.02    1.65
   1  -3  -8   89.02    1.60
   1  -3  -8   90.08    1.65
   1  -3  -8   90.70    1.68
  -1   3   8   88.22    1.68
  -1   3   8   91.73    1.68
  -1   3   8   91.33    1.65
   0  -3  -8  243.53    3.69
   0  -3  -8  246.72    3.90
   0  -3  -8  232.88    3.65
   0  -3  -8  235.55    3.50
   0  -3  -8  235.80    3.58
   0   3   8  239.59    3.67
   0   3   8  243.22    3.69
   0   3   8  242.22    3.69
  -1  -3  -8   68.06    1.33
  -1  -3  -8   70.19    1.32
  -1  -3  -8   69.42    1.53
  -1  -3  -8   70.10    1.06
   1   3   8   70.08    1.32
   1   3   8   69.99    1.41
   1   3   8   69.98    1.40
   1   3   8   70.44    1.35
  -2  -3  -8   24.83    0.82
  -2  -3  -8   24.32    0.64
  -2  -3  -8   22.93    0.69
  -2  -3  -8   23.56    0.75
   2   3   8   25.19    0.66
   2   3   8   23.19    0.69
   2   3   8   24.33    0.74
   2   3   8   24.34    0.69
   2   3   8   22.89    0.73
  -3  -3  -8   10.95    0.55
  -3  -3  -8   11.62    0.54
   3   3   8   11.18    0.52
   3   3   8   12.28    0.56
   3   3   8   10.69    0.55
   3   3   8   11.22    0.53
  -4  -3  -8    0.83    0.29
  -4  -3  -8    1.47    0.30
   4   3   8    0.96    0.26
   4   3   8    1.05    0.28
   4   3   8    0.81    0.28
   4  -4  -8    7.20    0.48
  -4   4   8    7.26    0.54
   3  -4  -8    6.76    0.42
   3  -4  -8    6.58    0.46
   3  -4  -8    6.03    0.38
   3  -4  -8    5.41    0.37
  -3   4   8    6.04    0.39
  -3   4   8    6.30    0.45
   2  -4  -8    2.74    0.31
   2  -4  -8    3.85    0.32
   2  -4  -8    3.71    0.28
   2  -4  -8    3.18    0.29
   2  -4  -8    3.39    0.31
  -2   4   8    3.49    0.31
  -2   4   8    3.29    0.34
  -2   4   8    2.85    0.27
   1  -4  -8    6.71    0.35
   1  -4  -8    6.74    0.41
   1  -4  -8    6.56    0.34
   1  -4  -8    6.82    0.31
  -1   4   8    6.41    0.34
  -1   4   8    6.08    0.34
  -1   4   8    6.16    0.34
   0  -4  -8    4.70    0.29
   0  -4  -8    4.73    0.30
   0  -4  -8    4.90    0.26
   0  -4  -8    4.71    0.25
   0  -4  -8    4.72    0.34
   0   4   8    4.88    0.29
   0   4   8    4.79    0.29
   0   4   8    4.91    0.30
  -1  -4  -8    8.16    0.37
  -1  -4  -8    8.48    0.35
  -1  -4  -8    8.52    0.46
   1   4   8    7.72    0.36
   1   4   8    8.58    0.40
   1   4   8    8.60    0.40
   1   4   8    8.57    0.35
  -2  -4  -8   13.86    0.60
  -2  -4  -8   13.73    0.50
  -2  -4  -8   13.48    0.47
   2   4   8   13.53    0.54
   2   4   8   13.83    0.48
   2   4   8   13.82    0.50
   2   4   8   13.27    0.54
  -3  -4  -8    1.14    0.23
  -3  -4  -8    0.82    0.21
   3   4   8    1.56    0.24
   3   4   8    0.93    0.21
   3   4   8    0.95    0.22
   3   4   8    1.09    0.21
  -4  -4  -8   30.38    1.05
  -4  -4  -8   30.71    1.03
   4   4   8   33.33    1.04
   4   4   8   32.39    1.07
   4   4   8   33.15    1.07
   4  -5  -8   15.47    0.69
  -4   5   8   15.18    0.76
   3  -5  -8   27.78    0.94
   3  -5  -8   28.04    0.83
   3  -5  -8   29.04    0.85
  -3   5   8   28.40    0.95
   2  -5  -8   36.37    0.91
   2  -5  -8   34.91    1.01
   2  -5  -8   34.00    0.90
   2  -5  -8   35.83    0.85
  -2   5   8   35.57    0.98
  -2   5   8   34.45    0.90
  -2   5   8   33.73    0.89
   1  -5  -8   99.74    1.99
   1  -5  -8  100.84    1.69
   1  -5  -8   98.91    1.81
   1  -5  -8  101.64    1.83
  -1   5   8  101.33    1.86
  -1   5   8   99.41    1.83
  -1   5   8   98.66    1.82
   0  -5  -8  217.72    3.42
   0  -5  -8  218.66    3.27
   0  -5  -8  220.22    3.45
   0  -5  -8  220.91    3.65
   0   5   8  218.87    3.44
   0   5   8  221.93    3.44
   0   5   8  223.10    3.43
  -1  -5  -8   47.83    1.05
  -1  -5  -8   48.24    1.21
  -1  -5  -8   47.08    0.96
  -1  -5  -8   48.15    1.06
   1   5   8   47.46    1.05
   1   5   8   48.24    1.07
   1   5   8   45.61    0.96
   1   5   8   45.66    1.04
  -2  -5  -8   13.58    0.59
  -2  -5  -8   13.81    0.49
  -2  -5  -8   12.99    0.51
  -2  -5  -8   14.02    0.50
   2   5   8   11.59    0.46
   2   5   8   13.43    0.53
   2   5   8   13.66    0.49
   2   5   8   13.08    0.51
  -3  -5  -8    9.69    0.50
  -3  -5  -8    8.99    0.48
   3   5   8    9.70    0.48
   3   5   8    9.27    0.46
   3   5   8    8.71    0.48
   3   5   8    9.88    0.51
  -4  -5  -8    4.25    0.44
   4   5   8    4.35    0.44
   4   5   8    4.02    0.44
   4   5   8    4.30    0.45
  -4   6   8    8.74    0.63
   3  -6  -8    1.81    0.29
   3  -6  -8    1.71    0.25
  -3   6   8    1.29    0.27
   2  -6  -8    0.71    0.18
   2  -6  -8    0.61    0.17
   2  -6  -8    0.41    0.14
   2  -6  -8    0.54    0.19
  -2   6   8    0.67    0.17
  -2   6   8    0.47    0.18
   1  -6  -8    3.89    0.33
   1  -6  -8    3.16    0.34
   1  -6  -8    2.98    0.23
   1  -6  -8    2.91    0.29
  -1   6   8    3.37    0.31
  -1   6   8    3.12    0.30
  -1   6   8    3.44    0.32
   0  -6  -8    5.05    0.37
   0  -6  -8    4.94    0.24
   0  -6  -8    5.16    0.32
   0  -6  -8    5.01    0.31
   0   6   8    4.89    0.31
   0   6   8    5.71    0.33
   0   6   8    4.94    0.31
  -1  -6  -8   24.47    0.71
  -1  -6  -8   24.55    0.68
  -1  -6  -8   23.99    0.82
  -1  -6  -8   23.45    0.60
   1   6   8   23.49    0.70
   1   6   8   25.14    0.67
   1   6   8   23.41    0.60
   1   6   8   23.42    0.67
   1   6   8   23.63    0.69
  -2  -6  -8   26.37    0.87
  -2  -6  -8   26.80    0.76
  -2  -6  -8   26.31    0.71
   2   6   8   26.09    0.70
   2   6   8   26.41    0.74
   2   6   8   27.56    0.77
   2   6   8   26.27    0.75
  -3  -6  -8    3.38    0.31
  -3  -6  -8    3.70    0.35
  -3  -6  -8    3.92    0.38
   3   6   8    4.08    0.36
   3   6   8    4.05    0.38
   3   6   8    3.50    0.34
   3   6   8    4.23    0.36
  -4  -6  -8   30.06    0.98
   4   6   8   28.96    1.02
   4   6   8   31.65    1.00
   4   6   8   29.32    0.98
   3  -7  -8   23.60    0.82
  -3   7   8   22.95    0.89
   2  -7  -8   50.75    1.18
   2  -7  -8   51.75    1.25
  -2   7   8   50.30    1.28
  -2   7   8   52.18    1.19
   1  -7  -8  103.34    1.95
   1  -7  -8  107.78    1.94
  -1   7   8  102.83    1.93
  -1   7   8  105.01    1.93
  -1   7   8  102.48    1.95
   0  -7  -8   42.80    1.04
   0   7   8   42.44    1.04
   0   7   8   44.28    1.00
   0   7   8   44.23    1.04
  -1  -7  -8   39.95    0.85
  -1  -7  -8   38.16    0.80
  -1  -7  -8   37.14    0.95
   1   7   8   38.87    0.83
   1   7   8   37.97    0.80
   1   7   8   38.95    0.91
   1   7   8   38.75    0.96
   1   7   8   37.40    0.95
  -2  -7  -8   12.46    0.49
  -2  -7  -8   11.52    0.44
  -2  -7  -8   11.39    0.49
  -2  -7  -8   12.40    0.60
   2   7   8   12.15    0.45
   2   7   8   12.35    0.50
   2   7   8   12.28    0.49
   2   7   8   11.40    0.49
  -3  -7  -8    3.61    0.35
  -3  -7  -8    2.83    0.31
   3   7   8    3.42    0.34
   3   7   8    3.55    0.34
   3   7   8    3.04    0.33
   4   7   8    0.11    0.19
   4   7   8    0.11    0.20
   3  -8  -8   -0.04    0.19
  -3   8   8   -0.12    0.19
   2  -8  -8   14.35    0.63
   2  -8  -8   14.66    0.59
  -2   8   8   14.16    0.64
  -2   8   8   14.62    0.59
   1  -8  -8   13.59    0.58
  -1   8   8   13.73    0.56
  -1   8   8   14.35    0.56
   0  -8  -8   30.88    0.87
   0   8   8   30.50    0.86
   0   8   8   29.30    0.84
   0   8   8   29.62    0.80
  -1  -8  -8   55.26    1.24
  -1  -8  -8   54.99    1.25
   1   8   8   54.10    1.17
   1   8   8   57.53    1.25
   1   8   8   53.77    1.23
   1   8   8   54.76    1.15
  -2  -8  -8    7.06    0.40
  -2  -8  -8    7.01    0.40
  -2  -8  -8    6.82    0.48
   2   8   8    6.55    0.38
   2   8   8    6.97    0.40
   2   8   8    8.13    0.72
   2   8   8    6.54    0.38
  -3  -8  -8   29.99    0.88
  -3  -8  -8   31.31    0.96
   3   8   8   31.28    0.87
   3   8   8   31.03    0.96
  -4  -8  -8   17.96    0.81
   4   8   8   17.36    0.80
   4   8   8   17.26    0.73
   3  -9  -8   20.35    0.86
  -3   9   8   21.59    0.91
   2  -9  -8   39.91    1.14
   2  -9  -8   39.30    1.05
  -2   9   8   38.82    1.13
  -2   9   8   39.21    1.05
   1  -9  -8   76.40    1.67
  -1   9   8   77.75    1.60
  -1   9   8   78.83    1.62
   0  -9  -8   33.59    0.94
   0   9   8   35.90    0.95
   0   9   8   29.65    0.83
  -1  -9  -8   43.11    1.08
   1   9   8   43.01    1.08
   1   9   8   43.67    1.31
   1   9   8   42.63    1.09
  -2  -9  -8   15.48    0.59
  -2  -9  -8   15.75    0.60
   2   9   8   15.90    0.60
   2   9   8   15.52    0.59
   2   9   8   15.57    0.62
  -3  -9  -8    0.02    0.16
   3   9   8    0.29    0.19
   3   9   8    0.38    0.18
  -4  -9  -8    0.48    0.26
   4   9   8    0.32    0.25
   2 -10  -8    0.32    0.22
   2 -10  -8    0.25    0.18
  -2  10   8    0.21    0.18
  -2  10   8    0.06    0.16
   1 -10  -8    1.55    0.28
  -1  10   8    2.35    0.32
  -1  10   8    1.99    0.28
   0 -10  -8   23.75    0.82
   0  10   8   23.51    0.80
  -1 -10  -8   35.17    0.97
   1  10   8   33.38    1.00
  -2 -10  -8    3.61    0.35
  -2 -10  -8    2.97    0.32
   2  10   8    3.84    0.35
   2  10   8    3.86    0.39
   2  10   8    3.36    0.33
  -3 -10  -8   18.40    0.77
   3  10   8   19.25    0.76
   3  10   8   19.50    0.78
   2 -11  -8   26.68    1.00
  -2  11   8   25.75    0.95
  -2  11   8   26.49    0.90
   1 -11  -8   24.42    0.89
  -1  11   8   23.27    0.84
   0 -11  -8   28.25    0.94
   0  11   8   28.71    0.93
  -1 -11  -8   18.42    0.72
   1  11   8   18.85    0.76
  -2 -11  -8    3.08    0.35
  -2 -11  -8    2.49    0.32
   2  11   8    2.19    0.32
   2  11   8    2.83    0.34
  -3 -11  -8    0.08    0.21
   3  11   8    0.43    0.21
   3  11   8    0.17    0.19
   1 -12  -8    3.11    0.42
  -1  12   8    2.90    0.38
   0 -12  -8    7.94    0.55
   0  12   8    7.42    0.52
  -1 -12  -8   29.84    0.96
   1  12   8   27.14    0.97
  -2 -12  -8   18.63    0.75
   2  12   8   18.15    0.80
   2  12   8   19.27    0.76
  -3 -12  -8   11.15    0.65
   3  12   8   11.94    0.65
   3  12   8   11.64    0.66
   1 -13  -8   14.16    0.76
   0 -13  -8    1.82    0.33
   0  13   8    1.31    0.31
  -1 -13  -8    2.65    0.37
   1  13   8    2.92    0.39
  -2 -13  -8   -0.06    0.18
   2  13   8    0.04    0.19
   1   7  -9   13.99    0.67
   1   7  -9   13.23    0.76
  -1  -7   9   12.76    0.66
   0   7  -9   10.21    0.57
   0   7  -9    9.18    0.62
   0  -7   9   11.12    0.62
   0  -7   9   10.74    0.67
   2   6  -9    0.35    0.23
   2   6  -9    0.35    0.26
   1   6  -9    4.40    0.48
   1   6  -9    4.15    0.40
  -1  -6   9    4.41    0.41
  -1  -6   9    5.01    0.64
   0   6  -9   10.71    0.63
   0   6  -9   10.26    0.55
   0  -6   9   10.41    0.61
   0  -6   9   11.60    0.59
  -1   6  -9    9.76    0.60
  -1   6  -9    9.48    0.55
   1  -6   9   10.25    0.59
   1  -6   9    8.64    0.64
   3   5  -9   27.79    1.06
   3   5  -9   28.94    1.02
   2   5  -9   14.49    0.66
   2   5  -9   16.19    0.78
   1   5  -9    3.92    0.46
   1   5  -9    4.50    0.42
  -1  -5   9    3.95    0.40
   0   5  -9   15.07    0.71
   0   5  -9   15.91    0.65
   0  -5   9   15.38    0.64
   0  -5   9   14.50    0.69
  -1   5  -9    0.30    0.19
  -1   5  -9    0.23    0.19
  -1   5  -9    0.50    0.20
   1  -5   9    0.20    0.21
   1  -5   9    0.45    0.23
   1  -5   9    0.46    0.21
  -2   5  -9    0.37    0.24
  -2   5  -9    0.51    0.25
   2  -5   9    0.32    0.28
   2  -5   9    0.24    0.21
   2  -5   9    0.50    0.24
   2  -5   9    0.59    0.26
   3   4  -9    0.45    0.26
   3   4  -9    0.94    0.27
   2   4  -9    2.71    0.35
   2   4  -9    2.66    0.38
   1   4  -9    8.68    0.54
   1   4  -9    9.22    0.50
  -1  -4   9   10.07    0.52
   0   4  -9   23.97    0.86
   0   4  -9   23.30    0.77
   0  -4   9   23.89    0.85
   0  -4   9   22.93    0.75
   0  -4   9   23.95    0.79
  -1   4  -9   13.91    0.64
  -1   4  -9   15.24    0.66
   1  -4   9   13.36    0.69
   1  -4   9   13.99    0.65
   1  -4   9   14.07    0.61
  -2   4  -9   22.77    0.90
   2  -4   9   23.29    0.95
   2  -4   9   24.39    0.86
   2  -4   9   22.32    0.85
   2  -4   9   23.90    0.92
   3   3  -9   18.07    0.80
   3   3  -9   18.64    0.78
   2   3  -9   18.46    0.72
   2   3  -9   17.00    0.74
   2   3  -9   17.35    0.76
   1   3  -9   18.04    0.66
   1   3  -9   17.37    0.71
  -1  -3   9   17.97    0.66
  -1  -3   9   17.58    0.63
   0   3  -9   10.34    0.50
   0   3  -9   10.22    0.54
   0  -3   9    9.01    0.51
   0  -3   9   10.06    0.45
   0  -3   9    9.71    0.49
  -1   3  -9    0.25    0.17
  -1   3  -9    0.16    0.15
  -1   3  -9    0.21    0.17
   1  -3   9    0.22    0.15
   1  -3   9    0.34    0.10
   1  -3   9    0.13    0.14
   1  -3   9    0.62    0.22
   1  -3   9    0.65    0.22
  -2   3  -9    2.82    0.36
  -2   3  -9    3.38    0.42
   2  -3   9    2.97    0.37
   2  -3   9    2.47    0.37
   2  -3   9    2.08    0.32
   2  -3   9    2.42    0.38
  -3   3  -9    7.81    0.61
  -3   3  -9    9.58    0.60
   3  -3   9    9.10    0.58
   3  -3   9    9.01    0.67
   3  -3   9    7.96    0.68
   3  -3   9    8.45    0.60
   4   2  -9    0.02    0.21
   4   2  -9   -0.09    0.20
   3   2  -9   11.41    0.61
   3   2  -9   12.50    0.64
   2   2  -9   26.50    0.90
   2   2  -9   27.83    0.87
   2   2  -9   29.83    0.98
  -2  -2   9   28.24    0.82
   1   2  -9   30.88    0.94
   1   2  -9   31.52    0.89
  -1  -2   9   30.89    0.85
  -1  -2   9   31.34    0.87
   0   2  -9   39.03    1.07
   0   2  -9   41.22    1.03
   0  -2   9   41.36    1.04
   0  -2   9   39.37    1.06
   0  -2   9   41.67    0.94
  -1   2  -9   32.21    0.90
  -1   2  -9   31.63    0.95
  -1   2  -9   32.17    0.92
   1  -2   9   32.05    0.87
   1  -2   9   32.00    0.99
   1  -2   9   32.73    0.57
   1  -2   9   31.43    0.95
   1  -2   9   31.19    0.90
  -2   2  -9   21.71    0.83
   2  -2   9   21.27    0.76
   2  -2   9   21.28    0.76
   2  -2   9   21.01    0.83
   2  -2   9   20.01    0.82
  -3   2  -9   38.54    1.24
  -3   2  -9   37.62    1.13
   3  -2   9   36.68    1.11
   3  -2   9   39.47    1.26
   3  -2   9   37.58    1.15
   3  -2   9   38.68    1.24
   4   1  -9   18.98    0.83
   3   1  -9   21.97    0.82
   3   1  -9   21.02    0.80
  -3  -1   9   22.31    0.78
   2   1  -9    2.08    0.27
   2   1  -9    1.75    0.26
   2   1  -9    2.59    0.33
   2   1  -9    2.38    0.32
  -2  -1   9    2.20    0.27
  -2  -1   9    1.98    0.29
   1   1  -9   64.01    1.44
   1   1  -9   63.17    1.35
  -1  -1   9   65.00    1.37
  -1  -1   9   64.42    1.35
   0   1  -9    3.33    0.31
   0   1  -9    4.29    0.38
   0  -1   9    4.16    0.38
   0  -1   9    2.98    0.31
  -1   1  -9    3.56    0.34
  -1   1  -9    3.09    0.31
   1  -1   9    3.54    0.34
   1  -1   9    3.61    0.28
   1  -1   9    3.16    0.35
   1  -1   9    3.51    0.34
  -2   1  -9    4.62    0.44
  -2   1  -9    3.99    0.38
   2  -1   9    4.53    0.44
   2  -1   9    4.47    0.40
   2  -1   9    4.62    0.41
   2  -1   9    4.45    0.43
  -3   1  -9    0.65    0.25
  -3   1  -9    1.11    0.28
   3  -1   9    0.93    0.26
   3  -1   9    0.83    0.25
   3  -1   9    1.05    0.26
   3  -1   9    1.05    0.29
   4   0  -9   -0.22    0.20
  -4   0   9    0.21    0.22
   3   0  -9    7.69    0.48
   3   0  -9    8.21    0.54
   3   0  -9    8.48    0.50
  -3   0   9    7.99    0.49
   2   0  -9   30.76    0.89
   2   0  -9   32.02    0.97
   2   0  -9   31.43    0.81
   2   0  -9   32.42    0.93
   2   0  -9   32.58    1.03
  -2   0   9   31.47    0.90
  -2   0   9   30.85    0.81
   1   0  -9   63.71    1.33
   1   0  -9   65.90    1.58
   1   0  -9   66.17    1.42
  -1   0   9   64.23    1.33
  -1   0   9   60.71    1.33
   0   0  -9   66.47    1.42
   0   0  -9   66.78    1.62
   0   0  -9   68.44    1.37
   0   0   9   66.87    1.40
   0   0   9   66.14    1.41
  -1   0  -9   52.04    1.40
  -1   0  -9   50.21    1.15
  -1   0  -9   50.65    1.16
   1   0   9   50.28    1.15
   1   0   9   51.35    1.24
   1   0   9   50.23    1.07
   1   0   9   50.92    1.21
  -2   0  -9    9.75    0.53
  -2   0  -9    8.93    0.47
   2   0   9    8.61    0.45
   2   0   9    9.53    0.48
   2   0   9    9.70    0.53
   2   0   9    8.84    0.52
  -3   0  -9    9.69    0.54
  -3   0  -9    9.91    0.59
   3   0   9   10.28    0.60
   3   0   9    9.07    0.53
   3   0   9    9.49    0.54
   3   0   9   10.46    0.59
   4  -1  -9   31.77    1.06
  -4   1   9   31.60    1.06
   3  -1  -9   15.33    0.71
   3  -1  -9   16.05    0.67
   3  -1  -9   16.83    0.67
  -3   1   9   15.79    0.67
   2  -1  -9   10.91    0.45
   2  -1  -9   11.86    0.57
   2  -1  -9   11.02    0.57
   2  -1  -9   11.20    0.52
   2  -1  -9   11.26    0.50
  -2   1   9   11.43    0.46
  -2   1   9   11.76    0.53
   1  -1  -9   16.29    0.59
   1  -1  -9   17.49    0.58
   1  -1  -9   16.93    0.71
  -1   1   9   16.73    0.57
  -1   1   9   14.92    0.57
   0  -1  -9    1.97    0.30
   0  -1  -9    2.02    0.26
   0  -1  -9    1.88    0.23
   0   1   9    1.89    0.24
   0   1   9    2.76    0.30
  -1  -1  -9    3.51    0.41
  -1  -1  -9    2.86    0.29
  -1  -1  -9    3.32    0.31
   1   1   9    3.34    0.24
   1   1   9    3.08    0.30
   1   1   9    2.85    0.30
   1   1   9    3.47    0.34
  -2  -1  -9    5.24    0.36
  -2  -1  -9    4.57    0.42
  -2  -1  -9    5.45    0.45
   2   1   9    5.17    0.36
   2   1   9    4.67    0.33
   2   1   9    5.31    0.46
   2   1   9    5.06    0.45
  -3  -1  -9   13.99    0.69
  -3  -1  -9   12.77    0.61
   3   1   9   13.68    0.62
   3   1   9   14.58    0.67
   3   1   9   13.78    0.69
   3   1   9   14.08    0.64
  -4  -1  -9    6.24    0.55
  -4  -1  -9    5.16    0.55
   4   1   9    6.00    0.56
   4   1   9    5.57    0.58
   4   1   9    5.58    0.51
   4   1   9    5.42    0.53
   4  -2  -9    0.33    0.22
  -4   2   9    0.21    0.19
   3  -2  -9   12.54    0.65
   3  -2  -9   12.39    0.59
   3  -2  -9   13.82    0.60
  -3   2   9   12.79    0.62
   2  -2  -9   37.85    0.92
   2  -2  -9   37.88    1.08
   2  -2  -9   37.12    0.96
   2  -2  -9   36.30    1.41
   2  -2  -9   35.49    0.97
  -2   2   9   38.15    0.92
  -2   2   9   38.00    1.00
   1  -2  -9   31.69    0.98
   1  -2  -9   30.31    0.79
   1  -2  -9   30.38    0.85
   1  -2  -9   30.28    0.81
  -1   2   9   29.97    0.85
  -1   2   9   30.42    0.84
  -1   2   9   32.87    0.83
   0  -2  -9   70.53    1.61
   0  -2  -9   68.34    1.41
   0  -2  -9   70.08    1.36
   0   2   9   69.97    1.42
   0   2   9   70.15    1.44
   0   2   9   68.70    1.41
  -1  -2  -9   37.16    1.09
  -1  -2  -9   36.17    0.89
  -1  -2  -9   35.83    0.89
   1   2   9   36.22    0.90
   1   2   9   36.14    0.87
   1   2   9   35.04    0.94
   1   2   9   35.26    0.89
   1   2   9   36.29    0.96
  -2  -2  -9   12.80    0.64
  -2  -2  -9   12.71    0.58
  -2  -2  -9   12.77    0.53
  -2  -2  -9   12.79    0.49
   2   2   9   12.56    0.57
   2   2   9   13.23    0.49
   2   2   9   12.76    0.53
   2   2   9   13.33    0.58
  -3  -2  -9   19.57    0.80
  -3  -2  -9   18.45    0.71
   3   2   9   19.04    0.72
   3   2   9   18.76    0.73
   3   2   9   18.91    0.75
   3   2   9   19.66    0.80
  -4  -2  -9    3.09    0.44
  -4  -2  -9    2.74    0.38
   4   2   9    2.95    0.45
   4   2   9    3.21    0.43
   4   2   9    2.96    0.40
   4  -3  -9   24.45    0.92
  -4   3   9   24.53    0.97
   3  -3  -9    3.13    0.33
   3  -3  -9    3.25    0.35
   3  -3  -9    2.97    0.37
  -3   3   9    3.78    0.40
   2  -3  -9   33.89    0.93
   2  -3  -9   33.92    1.02
   2  -3  -9   33.78    0.87
   2  -3  -9   35.10    0.90
  -2   3   9   32.78    0.91
  -2   3   9   32.18    0.86
  -2   3   9   35.10    0.97
   1  -3  -9    1.18    0.19
   1  -3  -9    1.78    0.22
   1  -3  -9    1.42    0.26
   1  -3  -9    1.62    0.23
  -1   3   9    1.51    0.23
  -1   3   9    1.51    0.21
  -1   3   9    1.55    0.23
   0  -3  -9    0.57    0.19
   0  -3  -9    0.15    0.12
   0  -3  -9    0.32    0.13
   0  -3  -9    0.24    0.11
   0   3   9    0.30    0.13
   0   3   9    0.14    0.11
   0   3   9    0.21    0.13
  -1  -3  -9    4.21    0.29
  -1  -3  -9    3.91    0.31
  -1  -3  -9    4.59    0.38
   1   3   9    4.39    0.32
   1   3   9    3.62    0.27
   1   3   9    4.68    0.30
   1   3   9    3.67    0.34
  -2  -3  -9    9.90    0.42
  -2  -3  -9   10.50    0.57
  -2  -3  -9   10.02    0.46
  -2  -3  -9   10.08    0.50
   2   3   9    9.97    0.49
   2   3   9    9.60    0.49
   2   3   9   10.21    0.43
   2   3   9   10.33    0.47
  -3  -3  -9   13.31    0.59
  -3  -3  -9   13.77    0.65
   3   3   9   11.80    0.58
   3   3   9   12.76    0.58
   3   3   9   13.70    0.66
   3   3   9   13.81    0.61
  -4  -3  -9    8.84    0.59
  -4  -3  -9    8.84    0.61
   4   3   9    9.06    0.59
   4   3   9    9.48    0.63
   4   3   9    9.41    0.60
   4  -4  -9    0.85    0.27
  -4   4   9    1.23    0.31
   3  -4  -9   17.87    0.69
   3  -4  -9   23.04    0.77
   3  -4  -9   23.36    0.81
  -3   4   9   23.04    0.85
  -3   4   9   23.49    0.77
   2  -4  -9   46.48    1.10
   2  -4  -9   47.14    1.08
   2  -4  -9   46.33    1.12
   2  -4  -9   46.32    1.24
  -2   4   9   46.64    1.10
  -2   4   9   46.52    1.17
  -2   4   9   46.35    1.13
   1  -4  -9   29.89    0.82
   1  -4  -9   31.34    0.96
   1  -4  -9   30.54    0.82
   1  -4  -9   29.87    0.76
  -1   4   9   30.58    0.85
  -1   4   9   28.87    0.82
  -1   4   9   30.64    0.82
   0  -4  -9   15.61    0.50
   0  -4  -9   14.98    0.55
   0  -4  -9   15.11    0.56
   0  -4  -9   14.76    0.65
   0   4   9   15.14    0.55
   0   4   9   15.47    0.56
   0   4   9   15.34    0.56
  -1  -4  -9   60.93    1.47
  -1  -4  -9   60.85    1.28
  -1  -4  -9   62.00    1.24
   1   4   9   62.88    1.34
   1   4   9   62.43    1.29
   1   4   9   61.39    1.32
   1   4   9   61.84    1.24
  -2  -4  -9   22.40    0.66
  -2  -4  -9   22.88    0.70
  -2  -4  -9   22.59    0.83
   2   4   9   23.07    0.70
   2   4   9   22.97    0.76
   2   4   9   22.75    0.68
   2   4   9   22.22    0.74
  -3  -4  -9   14.68    0.63
  -3  -4  -9   13.73    0.64
   3   4   9   13.89    0.61
   3   4   9   13.43    0.61
   3   4   9   14.40    0.62
   3   4   9   14.59    0.66
  -4  -4  -9   10.85    0.62
  -4  -4  -9   12.44    0.68
   4   4   9   11.47    0.67
   4   4   9   11.17    0.65
   4   4   9   10.73    0.61
   4  -5  -9   17.78    0.76
  -4   5   9   15.81    0.83
   3  -5  -9   10.78    0.53
   3  -5  -9   10.68    0.53
  -3   5   9   11.12    0.60
  -3   5   9   11.97    0.58
   2  -5  -9    9.07    0.53
   2  -5  -9    9.75    0.43
   2  -5  -9    8.57    0.45
   2  -5  -9    8.84    0.46
  -2   5   9    8.47    0.48
  -2   5   9    9.20    0.46
  -2   5   9    9.53    0.47
   1  -5  -9    0.09    0.12
   1  -5  -9    0.06    0.09
   1  -5  -9    0.11    0.14
   1  -5  -9    0.08    0.11
  -1   5   9    0.11    0.12
  -1   5   9   -0.02    0.10
  -1   5   9    0.09    0.12
   0  -5  -9    0.55    0.16
   0  -5  -9    0.14    0.11
   0  -5  -9    0.24    0.10
   0  -5  -9    0.23    0.14
   0   5   9    0.10    0.11
   0   5   9    0.33    0.14
   0   5   9    0.26    0.12
  -1  -5  -9   26.29    0.88
  -1  -5  -9   25.67    0.73
  -1  -5  -9   26.62    0.69
  -1  -5  -9   25.91    0.76
   1   5   9   25.54    0.75
   1   5   9   25.49    0.76
   1   5   9   26.21    0.69
   1   5   9   24.72    0.73
  -2  -5  -9   11.27    0.46
  -2  -5  -9   10.98    0.47
  -2  -5  -9   10.54    0.57
   2   5   9    9.89    0.44
   2   5   9   10.27    0.49
   2   5   9   10.71    0.46
   2   5   9   10.12    0.45
   2   5   9   10.41    0.50
  -3  -5  -9    8.94    0.50
  -3  -5  -9    9.24    0.50
   3   5   9    9.51    0.49
   3   5   9    8.42    0.48
   3   5   9    9.33    0.50
   3   5   9    9.28    0.52
  -4  -5  -9   41.31    1.24
  -4  -5  -9   39.90    1.23
   4   5   9   42.25    1.21
   4   5   9   43.02    1.26
   4   5   9   41.44    1.24
   3  -6  -9   23.95    0.82
   3  -6  -9   23.60    0.78
  -3   6   9   24.12    0.92
   2  -6  -9   25.65    0.80
   2  -6  -9   26.99    0.93
   2  -6  -9   24.91    0.71
   2  -6  -9   26.85    0.81
  -2   6   9   25.02    0.85
  -2   6   9   24.80    0.79
   1  -6  -9   35.70    0.93
   1  -6  -9   34.93    1.06
   1  -6  -9   34.26    0.79
   1  -6  -9   33.92    0.93
  -1   6   9   34.49    0.93
  -1   6   9   35.71    0.93
  -1   6   9   32.79    0.92
   0  -6  -9   33.33    0.89
   0  -6  -9   33.40    1.03
   0  -6  -9   34.03    0.91
   0  -6  -9   33.83    0.75
   0   6   9   34.26    0.88
   0   6   9   33.70    0.91
   0   6   9   33.32    0.89
  -1  -6  -9   40.44    1.17
  -1  -6  -9   39.88    1.00
  -1  -6  -9   40.97    0.90
  -1  -6  -9   41.64    1.03
   1   6   9   40.30    0.99
   1   6   9   41.90    1.03
   1   6   9   42.67    0.91
   1   6   9   41.21    1.01
  -2  -6  -9   22.68    0.68
  -2  -6  -9   22.74    0.73
  -2  -6  -9   23.47    0.72
  -2  -6  -9   25.00    0.87
   2   6   9   23.57    0.75
   2   6   9   23.93    0.70
   2   6   9   23.42    0.75
   2   6   9   23.63    0.69
   2   6   9   23.63    0.72
  -3  -6  -9    0.18    0.18
  -3  -6  -9    0.32    0.16
  -3  -6  -9    0.27    0.17
   3   6   9    0.42    0.18
   3   6   9    0.34    0.16
   3   6   9    0.24    0.17
   3   6   9    0.14    0.18
  -4  -6  -9   14.66    0.71
  -4  -6  -9   13.93    0.70
   4   6   9   15.03    0.71
   4   6   9   14.25    0.71
   4   6   9   15.34    0.74
   3  -7  -9   17.92    0.75
  -3   7   9   18.19    0.80
   2  -7  -9    1.08    0.22
   2  -7  -9    0.92    0.23
   2  -7  -9    0.77    0.24
  -2   7   9    1.03    0.23
  -2   7   9    0.87    0.20
   1  -7  -9    0.06    0.15
   1  -7  -9   -0.04    0.12
   1  -7  -9    0.18    0.15
  -1   7   9   -0.07    0.12
  -1   7   9    0.13    0.13
  -1   7   9    0.06    0.13
   0  -7  -9    4.10    0.24
   0  -7  -9    4.43    0.33
   0  -7  -9    4.09    0.31
   0  -7  -9    4.63    0.39
   0   7   9    4.21    0.31
   0   7   9    4.05    0.31
   0   7   9    4.86    0.34
  -1  -7  -9   14.58    0.68
  -1  -7  -9   13.78    0.46
  -1  -7  -9   14.71    0.57
   1   7   9   14.31    0.56
   1   7   9   14.87    0.55
   1   7   9   14.48    0.57
   1   7   9   13.97    0.46
  -2  -7  -9   15.34    0.53
  -2  -7  -9   15.07    0.59
  -2  -7  -9   14.33    0.54
  -2  -7  -9   15.15    0.70
   2   7   9   14.87    0.58
   2   7   9   15.33    0.56
   2   7   9   14.75    0.59
   2   7   9   15.74    0.59
   2   7   9   14.47    0.52
  -3  -7  -9   10.25    0.51
  -3  -7  -9    9.18    0.50
   3   7   9   10.26    0.53
   3   7   9    9.05    0.68
   3   7   9    9.76    0.51
   3   7   9    8.57    0.48
  -4  -7  -9   40.51    1.21
   4   7   9   41.03    1.18
   4   7   9   41.33    1.26
   3  -8  -9   18.09    0.77
  -3   8   9   15.82    0.77
   2  -8  -9   29.15    0.89
   2  -8  -9   29.66    0.95
   2  -8  -9   28.03    1.03
  -2   8   9   29.11    0.96
  -2   8   9   30.76    0.91
   1  -8  -9    1.17    0.23
   1  -8  -9    1.33    0.23
  -1   8   9    1.04    0.21
  -1   8   9    1.82    0.27
   0  -8  -9   33.10    0.94
   0   8   9   32.62    0.93
   0   8   9   32.35    0.92
   0   8   9   34.61    0.90
  -1  -8  -9    7.59    0.43
  -1  -8  -9    7.16    0.51
   1   8   9    7.79    0.44
   1   8   9    5.25    0.33
   1   8   9    8.26    0.44
  -2  -8  -9    8.49    0.43
  -2  -8  -9    8.23    0.45
  -2  -8  -9    8.69    0.55
   2   8   9    9.23    0.47
   2   8   9    7.35    0.41
   2   8   9    7.96    0.43
   2   8   9    8.17    0.45
  -3  -8  -9    8.36    0.51
  -3  -8  -9    7.68    0.45
   3   8   9    8.65    0.46
   3   8   9    7.93    0.50
  -4  -8  -9    1.62    0.31
  -4  -8  -9    1.70    0.35
   4   8   9    2.11    0.33
   4   8   9    1.41    0.32
   3  -9  -9    5.33    0.52
  -3   9   9    4.21    0.48
   2  -9  -9    0.40    0.20
   2  -9  -9    0.13    0.21
  -2   9   9    0.38    0.19
  -2   9   9    0.09    0.17
   1  -9  -9    2.42    0.32
   1  -9  -9    1.62    0.26
  -1   9   9    1.37    0.25
  -1   9   9    1.91    0.27
   0  -9  -9   12.59    0.59
   0   9   9   13.84    0.55
   0   9   9   13.06    0.58
   0   9   9   13.44    0.60
  -1  -9  -9   30.77    0.92
   1   9   9   31.51    0.92
   1   9   9   32.30    0.85
   1   9   9   31.48    0.93
  -2  -9  -9   29.31    1.05
  -2  -9  -9   30.49    0.86
  -2  -9  -9   31.07    0.90
   2   9   9   30.96    0.93
   2   9   9   31.04    0.90
   2   9   9   29.78    0.85
  -3  -9  -9   22.73    0.84
   3   9   9   23.56    0.84
   3   9   9   25.15    0.83
   2 -10  -9   16.83    0.71
   2 -10  -9   16.57    0.77
  -2  10   9   17.55    0.72
  -2  10   9   17.26    0.77
   1 -10  -9    5.11    0.48
  -1  10   9    4.29    0.41
  -1  10   9    5.08    0.44
   0 -10  -9    6.23    0.44
   0  10   9    7.48    0.41
   0  10   9    7.44    0.46
  -1 -10  -9    4.09    0.39
   1  10   9    3.76    0.38
   1  10   9    3.22    0.35
  -2 -10  -9    2.90    0.34
  -2 -10  -9    3.20    0.33
   2  10   9    3.95    0.41
   2  10   9    3.00    0.33
  -3 -10  -9    9.74    0.58
   3  10   9    9.37    0.56
   3  10   9    9.42    0.54
   2 -11  -9    1.24    0.29
   2 -11  -9    1.54    0.33
  -2  11   9    1.10    0.27
  -2  11   9    1.63    0.32
   1 -11  -9    2.88    0.39
  -1  11   9    3.36    0.39
  -1  11   9    3.44    0.37
   0 -11  -9    7.43    0.49
   0  11   9    7.09    0.49
  -1 -11  -9   26.46    0.89
   1  11   9   24.25    0.88
  -2 -11  -9   15.55    0.65
   2  11   9   15.30    0.70
  -3 -11  -9   17.32    0.77
   3  11   9   17.35    0.76
   3  11   9   17.32    0.77
   1 -12  -9   23.21    0.93
  -1  12   9   24.73    0.91
   0 -12  -9    9.84    0.58
   0  12   9    9.77    0.58
  -1 -12  -9    9.12    0.56
   1  12   9    8.69    0.56
   2  12   9    0.81    0.25
   0 -13  -9    6.96    0.60
   0  13   9    5.50    0.52
  -1 -13  -9    2.05    0.34
   1  13   9    1.37    0.31
   2  13   9    6.00    0.58
   1   6 -10   10.13    0.60
   1   6 -10    9.13    0.65
   0   6 -10   13.45    0.66
   0   6 -10   14.69    0.77
   0  -6  10   15.00    0.78
   0  -6  10   14.74    0.69
   2   5 -10    1.12    0.32
   2   5 -10    1.52    0.30
   1   5 -10    3.79    0.45
   1   5 -10    4.02    0.42
  -1  -5  10    4.50    0.44
   0   5 -10    5.24    0.52
   0   5 -10    5.52    0.47
   0  -5  10    5.71    0.48
   0  -5  10    5.67    0.54
  -1   5 -10   10.76    0.62
  -1   5 -10    9.65    0.59
  -1   5 -10    9.41    0.57
   1  -5  10    9.60    0.57
   1  -5  10    9.25    0.60
   1  -5  10    9.42    0.65
   3   4 -10    7.71    0.66
   3   4 -10    7.82    0.58
   2   4 -10   20.25    0.81
   2   4 -10   18.47    0.84
   1   4 -10   19.11    0.81
   1   4 -10   17.75    0.73
  -1  -4  10   18.60    0.74
   0   4 -10   38.32    1.07
   0   4 -10   37.12    1.15
   0   4 -10   35.90    1.06
   0  -4  10   37.66    1.07
   0  -4  10   35.63    1.11
  -1   4 -10    9.00    0.55
  -1   4 -10    9.92    0.56
  -1   4 -10    9.27    0.57
   1  -4  10    8.32    0.58
   1  -4  10    8.96    0.57
   1  -4  10    8.62    0.52
  -2   4 -10    0.52    0.23
  -2   4 -10    0.49    0.25
   2  -4  10    0.67    0.29
   2  -4  10    0.37    0.26
   2  -4  10    0.43    0.22
   2  -4  10    0.20    0.20
   3   3 -10   -0.07    0.21
   3   3 -10    0.24    0.24
   2   3 -10    0.54    0.25
   2   3 -10    1.41    0.41
   2   3 -10    1.54    0.28
   1   3 -10   14.93    0.63
   1   3 -10   15.51    0.72
  -1  -3  10   15.41    0.64
  -1  -3  10   15.35    0.63
   0   3 -10    9.60    0.54
   0   3 -10   10.59    0.52
   0  -3  10    8.74    0.54
   0  -3  10   10.58    0.54
  -1   3 -10   18.25    0.74
  -1   3 -10   17.43    0.74
   1  -3  10   17.45    0.67
   1  -3  10   19.43    0.78
   1  -3  10   16.85    0.76
  -2   3 -10    8.74    0.56
  -2   3 -10    9.05    0.60
   2  -3  10    8.79    0.54
   2  -3  10    8.13    0.54
   2  -3  10    8.79    0.61
   2  -3  10    9.31    0.61
   3   2 -10   19.38    0.84
   3   2 -10   20.13    0.83
   2   2 -10   14.98    0.67
   2   2 -10   15.08    0.71
  -2  -2  10   14.66    0.61
   1   2 -10   29.55    0.90
   1   2 -10   29.74    0.97
  -1  -2  10   30.35    0.89
  -1  -2  10   28.78    0.87
   0   2 -10   23.32    0.77
   0   2 -10   22.50    0.82
   0  -2  10   24.11    0.84
   0  -2  10   24.21    0.81
  -1   2 -10    3.80    0.40
  -1   2 -10    2.72    0.33
  -1   2 -10    2.28    0.33
   1  -2  10    3.70    0.43
   1  -2  10    3.13    0.36
   1  -2  10    3.53    0.39
  -2   2 -10    0.10    0.18
  -2   2 -10   -0.11    0.18
   2  -2  10    0.12    0.21
   2  -2  10    0.22    0.18
   2  -2  10    0.43    0.22
   2  -2  10    0.21    0.23
  -3   2 -10    0.26    0.24
  -3   2 -10   -0.03    0.22
   3  -2  10    0.49    0.30
   3  -2  10    0.25    0.26
   3  -2  10    0.35    0.25
   3  -2  10    0.46    0.24
   3   1 -10    2.15    0.34
   3   1 -10    1.73    0.32
  -3  -1  10    1.67    0.31
   2   1 -10   22.00    0.78
   2   1 -10   23.55    0.84
  -2  -1  10   22.02    0.76
   1   1 -10    0.26    0.18
   1   1 -10    0.47    0.18
  -1  -1  10    0.33    0.16
  -1  -1  10    0.10    0.14
   0   1 -10   33.32    0.93
   0   1 -10   33.27    0.97
   0  -1  10   32.53    0.97
   0  -1  10   33.95    0.96
  -1   1 -10   43.41    1.12
  -1   1 -10   45.81    1.15
   1  -1  10   44.18    1.12
   1  -1  10   45.08    1.05
   1  -1  10   46.59    1.24
   1  -1  10   45.83    1.20
  -2   1 -10   18.52    0.72
  -2   1 -10   18.59    0.79
   2  -1  10   18.31    0.79
   2  -1  10   20.02    0.74
   2  -1  10   18.49    0.79
   2  -1  10   19.15    0.74
  -3   1 -10    7.68    0.57
  -3   1 -10    7.06    0.51
   3  -1  10    7.85    0.53
   3  -1  10    7.91    0.55
   3  -1  10    7.91    0.58
   3  -1  10    7.50    0.57
   3   0 -10   16.59    0.73
   3   0 -10   16.40    0.72
  -3   0  10   17.39    0.72
   2   0 -10   29.42    1.03
   2   0 -10   29.23    0.92
   2   0 -10   28.17    0.88
   2   0 -10   29.58    0.82
  -2   0  10   28.26    0.88
  -2   0  10   29.05    0.81
   1   0 -10   59.64    1.57
   1   0 -10   60.05    1.32
   1   0 -10   59.02    1.39
  -1   0  10   58.20    1.34
  -1   0  10   59.22    1.32
   0   0 -10    2.70    0.32
   0   0 -10    2.28    0.37
   0   0 -10    2.21    0.26
   0   0  10    2.65    0.31
   0   0  10    2.41    0.13
   0   0  10    2.25    0.30
  -1   0 -10    0.93    0.26
  -1   0 -10    1.23    0.23
  -1   0 -10    0.63    0.20
   1   0  10    0.90    0.22
   1   0  10    0.86    0.22
   1   0  10    1.12    0.23
  -2   0 -10    0.24    0.18
  -2   0 -10   -0.14    0.12
   2   0  10    0.20    0.20
   2   0  10    0.00    0.15
   2   0  10    0.18    0.16
   2   0  10    0.10    0.15
  -3   0 -10    2.96    0.41
  -3   0 -10    3.08    0.40
   3   0  10    3.27    0.40
   3   0  10    3.00    0.41
   3   0  10    2.84    0.40
   3   0  10    2.92    0.36
   3  -1 -10    6.58    0.52
   3  -1 -10    6.02    0.45
   3  -1 -10    6.45    0.47
  -3   1  10    6.40    0.47
   2  -1 -10   40.66    1.21
   2  -1 -10   37.38    1.06
   2  -1 -10   39.10    0.97
   2  -1 -10   39.92    1.05
  -2   1  10   38.75    0.98
  -2   1  10   39.41    1.07
   1  -1 -10    2.96    0.32
   1  -1 -10    2.92    0.39
   1  -1 -10    2.68    0.28
  -1   1  10    2.97    0.31
  -1   1  10    2.86    0.32
   0  -1 -10   58.27    1.27
   0  -1 -10   58.52    1.53
   0  -1 -10   58.59    1.31
   0   1  10   58.20    1.33
   0   1  10   59.18    1.33
  -1  -1 -10   95.57    1.84
  -1  -1 -10   99.71    2.17
  -1  -1 -10   97.83    1.85
   1   1  10   94.45    1.92
   1   1  10   96.85    1.85
   1   1  10   97.64    1.95
  -2  -1 -10   15.16    0.76
  -2  -1 -10   14.48    0.62
  -2  -1 -10   14.29    0.67
   2   1  10   15.75    0.69
   2   1  10   13.80    0.61
   2   1  10   14.85    0.68
  -3  -1 -10   23.39    0.86
  -3  -1 -10   24.39    0.94
   3   1  10   24.66    0.95
   3   1  10   22.88    0.85
   3   1  10   23.11    0.86
   3   1  10   23.95    0.92
   4  -2 -10   29.51    1.03
  -4   2  10   26.90    1.02
   3  -2 -10   32.08    0.99
   3  -2 -10   33.39    1.01
  -3   2  10   29.04    0.98
   2  -2 -10   22.08    0.74
   2  -2 -10   23.30    0.72
   2  -2 -10   23.71    0.89
   2  -2 -10   24.41    0.81
  -2   2  10   24.81    0.82
  -2   2  10   23.70    0.73
   1  -2 -10   38.80    0.96
   1  -2 -10   39.03    0.99
   1  -2 -10   37.76    1.16
   1  -2 -10   38.39    1.03
  -1   2  10   39.17    1.02
  -1   2  10   39.55    0.99
  -1   2  10   37.47    1.02
   0  -2 -10    7.50    0.42
   0  -2 -10    8.42    0.53
   0  -2 -10    8.49    0.41
   0   2  10    7.54    0.41
   0   2  10    7.90    0.44
   0   2  10    8.38    0.44
  -1  -2 -10    1.29    0.22
  -1  -2 -10    0.93    0.19
  -1  -2 -10    1.10    0.26
   1   2  10    0.92    0.22
   1   2  10    0.85    0.19
   1   2  10    1.02    0.19
   1   2  10    1.18    0.22
  -2  -2 -10    1.17    0.24
  -2  -2 -10    1.14    0.27
  -2  -2 -10    1.25    0.22
  -2  -2 -10    0.96    0.23
   2   2  10    0.92    0.19
   2   2  10    0.84    0.22
   2   2  10    1.35    0.25
   2   2  10    1.21    0.26
   2   2  10    1.18    0.21
  -3  -2 -10    6.76    0.46
  -3  -2 -10    5.94    0.53
   3   2  10    6.40    0.49
   3   2  10    6.01    0.45
   3   2  10    5.77    0.53
   3   2  10    6.20    0.45
   3  -3 -10   10.93    0.56
   3  -3 -10   11.28    0.58
  -3   3  10   11.79    0.63
   2  -3 -10   11.47    0.61
   2  -3 -10   11.76    0.54
   2  -3 -10   10.54    0.49
   2  -3 -10   10.81    0.49
  -2   3  10   11.37    0.54
  -2   3  10   10.54    0.55
  -2   3  10   10.44    0.48
   1  -3 -10   47.78    1.13
   1  -3 -10   46.90    1.16
   1  -3 -10   46.60    1.08
   1  -3 -10   46.52    1.30
  -1   3  10   49.97    1.15
  -1   3  10   47.19    1.16
  -1   3  10   48.89    1.17
   0  -3 -10   56.60    1.29
   0  -3 -10   56.42    1.46
   0  -3 -10   56.12    1.20
   0  -3 -10   57.48    1.27
   0   3  10   57.42    1.29
   0   3  10   55.13    1.27
   0   3  10   57.89    1.29
  -1  -3 -10   85.68    1.93
  -1  -3 -10   87.02    1.66
  -1  -3 -10   83.90    1.66
   1   3  10   88.29    1.78
   1   3  10   86.41    1.75
   1   3  10   85.57    1.65
   1   3  10   86.52    1.68
  -2  -3 -10   24.33    0.93
  -2  -3 -10   25.34    0.79
  -2  -3 -10   24.39    0.73
  -2  -3 -10   24.37    0.84
   2   3  10   25.23    0.85
   2   3  10   25.02    0.74
   2   3  10   24.48    0.77
   2   3  10   23.66    0.82
   2   3  10   24.94    0.75
  -3  -3 -10   15.22    0.72
  -3  -3 -10   14.23    0.64
   3   3  10   13.70    0.64
   3   3  10   14.35    0.68
   3   3  10   13.85    0.63
   3   3  10   15.04    0.72
  -4  -3 -10    6.03    0.57
   4   3  10    6.60    0.59
   4   3  10    6.69    0.58
   4   3  10    5.56    0.55
   3  -4 -10   28.41    0.90
   3  -4 -10   27.05    0.90
  -3   4  10   28.58    0.98
   2  -4 -10   24.49    0.78
   2  -4 -10   25.56    0.82
   2  -4 -10   24.18    0.76
   2  -4 -10   25.64    0.93
  -2   4  10   25.24    0.82
  -2   4  10   25.07    0.84
  -2   4  10   25.28    0.78
   1  -4 -10   20.71    0.69
   1  -4 -10   22.51    0.85
   1  -4 -10   21.81    0.72
   1  -4 -10   22.12    0.66
  -1   4  10   21.92    0.74
  -1   4  10   21.95    0.72
  -1   4  10   21.23    0.70
   0  -4 -10    3.91    0.43
   0  -4 -10    3.27    0.32
   0  -4 -10    2.85    0.30
   0  -4 -10    3.01    0.27
   0   4  10    3.14    0.31
   0   4  10    3.34    0.33
   0   4  10    3.59    0.34
  -1  -4 -10    0.11    0.16
  -1  -4 -10    0.36    0.14
  -1  -4 -10    0.43    0.15
   1   4  10    0.51    0.16
   1   4  10    0.06    0.14
   1   4  10    0.36    0.13
   1   4  10    0.24    0.15
  -2  -4 -10    5.18    0.34
  -2  -4 -10    6.44    0.49
  -2  -4 -10    5.50    0.38
   2   4  10    5.24    0.35
   2   4  10    5.98    0.42
   2   4  10    6.36    0.40
   2   4  10    6.22    0.43
  -3  -4 -10    3.30    0.36
  -3  -4 -10    3.72    0.44
   3   4  10    2.98    0.35
   3   4  10    3.12    0.37
   3   4  10    2.67    0.34
   3   4  10    2.87    0.38
  -4  -4 -10    0.84    0.28
  -4  -4 -10    1.43    0.33
   4   4  10    0.93    0.30
   4   4  10    0.58    0.25
   4   4  10    1.16    0.29
   3  -5 -10   18.32    0.72
   3  -5 -10   17.58    0.69
   3  -5 -10   18.90    0.72
  -3   5  10   17.69    0.79
  -3   5  10   18.48    0.73
   2  -5 -10   20.13    0.82
   2  -5 -10   19.40    0.66
   2  -5 -10   19.55    0.71
   2  -5 -10   19.55    0.70
  -2   5  10   20.57    0.77
  -2   5  10   19.40    0.70
  -2   5  10   20.64    0.71
   1  -5 -10   33.55    1.07
   1  -5 -10   34.54    0.94
   1  -5 -10   33.94    0.84
   1  -5 -10   33.99    0.94
  -1   5  10   36.36    0.96
  -1   5  10   34.75    0.95
  -1   5  10   34.18    0.96
   0  -5 -10   33.42    1.06
   0  -5 -10   34.81    0.92
   0  -5 -10   33.09    0.81
   0  -5 -10   33.24    0.92
   0   5  10   32.27    0.90
   0   5  10   33.29    0.91
   0   5  10   33.32    0.92
  -1  -5 -10  106.05    2.23
  -1  -5 -10  105.16    1.98
  -1  -5 -10  108.95    2.05
  -1  -5 -10  110.93    1.92
   1   5  10  107.44    1.91
   1   5  10  107.70    2.04
   1   5  10  104.52    1.97
   1   5  10  107.44    2.03
  -2  -5 -10   34.75    0.93
  -2  -5 -10   35.54    0.93
  -2  -5 -10   36.92    1.14
   2   5  10   34.75    0.93
   2   5  10   35.51    1.01
   2   5  10   36.84    1.02
   2   5  10   35.06    0.93
  -3  -5 -10   19.31    0.74
  -3  -5 -10   21.55    0.82
   3   5  10   20.74    0.77
   3   5  10   20.90    0.77
   3   5  10   19.69    0.79
   3   5  10   19.81    0.75
  -4  -5 -10   10.09    0.62
  -4  -5 -10    9.45    0.63
   4   5  10    9.55    0.64
   4   5  10   10.77    0.65
   4   5  10   10.89    0.65
   3  -6 -10   14.74    0.93
   3  -6 -10   12.17    0.57
   3  -6 -10   11.92    0.61
  -3   6  10   13.09    0.88
  -3   6  10   12.34    0.68
   2  -6 -10   14.65    0.62
   2  -6 -10   13.90    0.55
   2  -6 -10   14.44    0.61
   2  -6 -10   13.92    0.70
  -2   6  10   14.73    0.61
  -2   6  10   14.14    0.64
  -2   6  10   13.88    0.61
   1  -6 -10   11.40    0.53
   1  -6 -10   11.42    0.62
   1  -6 -10   11.53    0.54
   1  -6 -10   10.78    0.44
  -1   6  10   11.86    0.54
  -1   6  10   12.88    0.56
  -1   6  10   11.13    0.53
   0  -6 -10    0.57    0.14
   0  -6 -10    0.97    0.21
   0  -6 -10    0.68    0.18
   0  -6 -10    0.24    0.16
   0   6  10    0.50    0.16
   0   6  10    0.75    0.19
   0   6  10    0.71    0.19
  -1  -6 -10    2.92    0.27
  -1  -6 -10    2.04    0.28
  -1  -6 -10    2.38    0.29
  -1  -6 -10    2.65    0.37
   1   6  10    2.16    0.27
   1   6  10    2.85    0.32
   1   6  10    2.70    0.26
   1   6  10    2.79    0.32
  -2  -6 -10   15.90    0.64
  -2  -6 -10   15.96    0.58
  -2  -6 -10   16.16    0.61
  -2  -6 -10   17.13    0.76
   2   6  10   17.16    0.66
   2   6  10   16.20    0.59
   2   6  10   16.60    0.62
   2   6  10   15.50    0.64
  -3  -6 -10    7.89    0.51
  -3  -6 -10    8.95    0.51
  -3  -6 -10    9.32    0.52
   3   6  10    8.68    0.53
   3   6  10    9.18    0.51
   3   6  10    9.85    0.53
   3   6  10    8.61    0.50
  -4  -6 -10    1.21    0.30
  -4  -6 -10    1.49    0.32
   4   6  10    1.18    0.32
   4   6  10    1.54    0.32
   4   6  10    1.73    0.33
   3  -7 -10   23.55    0.86
  -3   7  10   23.03    0.94
   2  -7 -10   40.26    1.24
   2  -7 -10   38.28    1.08
   2  -7 -10   38.66    1.06
  -2   7  10   38.74    1.07
  -2   7  10   38.10    1.12
   1  -7 -10   41.26    1.08
   1  -7 -10   42.76    1.28
   1  -7 -10   42.28    1.11
  -1   7  10   43.43    1.12
  -1   7  10   42.73    1.11
  -1   7  10   40.53    1.08
   0  -7 -10   76.27    1.61
   0  -7 -10   75.74    1.61
   0  -7 -10   77.20    1.83
   0  -7 -10   77.91    1.40
   0   7  10   78.09    1.62
   0   7  10   77.68    1.59
   0   7  10   76.95    1.62
  -1  -7 -10   74.29    1.58
  -1  -7 -10   78.74    1.83
  -1  -7 -10   74.81    1.60
  -1  -7 -10   77.93    1.43
   1   7  10   76.02    1.59
   1   7  10   75.93    1.43
   1   7  10   74.81    1.56
   1   7  10   76.33    1.61
  -2  -7 -10   30.64    0.83
  -2  -7 -10   30.15    0.91
  -2  -7 -10   31.44    0.91
  -2  -7 -10   31.21    1.06
   2   7  10   31.44    0.93
   2   7  10   31.54    0.91
   2   7  10   29.91    0.90
   2   7  10   30.12    0.82
  -3  -7 -10   14.63    0.66
  -3  -7 -10   14.75    0.64
  -3  -7 -10   14.66    0.61
   3   7  10   14.35    0.65
   3   7  10   13.54    0.60
   3   7  10   15.19    0.65
   3   7  10   14.55    0.65
  -4  -7 -10   13.82    0.71
   4   7  10   15.03    1.08
   4   7  10   14.01    0.73
   4   7  10   13.82    0.71
   3  -8 -10    7.85    0.55
  -3   8  10    7.29    0.64
   2  -8 -10    3.51    0.38
   2  -8 -10    3.25    0.39
  -2   8  10    3.31    0.37
  -2   8  10    3.63    0.42
   1  -8 -10    2.90    0.35
   1  -8 -10    3.28    0.36
   1  -8 -10    3.13    0.42
  -1   8  10    2.85    0.33
  -1   8  10    2.91    0.35
  -1   8  10    3.66    0.38
   0  -8 -10   11.41    0.54
   0  -8 -10   11.90    0.57
   0  -8 -10   11.11    0.65
   0   8  10   13.58    0.59
   0   8  10   13.09    0.55
   0   8  10   11.18    0.53
  -1  -8 -10    1.92    0.33
  -1  -8 -10    1.38    0.25
  -1  -8 -10    1.57    0.26
   1   8  10    2.14    0.28
   1   8  10    1.89    0.27
   1   8  10    2.15    0.29
  -2  -8 -10   12.31    0.68
  -2  -8 -10   12.05    0.56
  -2  -8 -10   12.84    0.58
   2   8  10   12.02    0.56
   2   8  10   12.28    0.57
   2   8  10   10.80    0.53
  -3  -8 -10    3.60    0.39
  -3  -8 -10    3.47    0.35
   3   8  10    3.75    0.37
   3   8  10    5.30    0.46
   2  -9 -10   27.15    0.91
   2  -9 -10   27.84    0.97
  -2   9  10   27.60    0.92
  -2   9  10   29.42    1.00
   1  -9 -10   54.98    1.38
   1  -9 -10   54.88    1.35
  -1   9  10   54.01    1.35
  -1   9  10   56.75    1.36
   0  -9 -10  145.48    2.63
   0  -9 -10  142.56    2.64
   0   9  10  144.95    2.56
   0   9  10  145.10    2.64
   0   9  10  144.86    2.64
  -1  -9 -10   27.87    0.89
  -1  -9 -10   31.33    1.59
   1   9  10   26.93    0.87
   1   9  10   29.27    0.91
  -2  -9 -10   15.19    0.64
   2   9  10   15.29    0.64
   2   9  10   15.09    0.63
  -3  -9 -10    6.95    0.49
   3   9  10    6.70    0.48
   3   9  10    6.48    0.46
   2 -10 -10    1.55    0.32
   2 -10 -10    1.33    0.29
  -2  10  10    1.06    0.29
  -2  10  10    1.29    0.28
   1 -10 -10    5.88    0.46
   1 -10 -10    4.95    0.46
  -1  10  10    6.35    0.45
  -1  10  10    6.05    0.45
   0 -10 -10   10.43    0.56
   0  10  10   10.46    0.56
   0  10  10   10.64    0.57
   0  10  10   11.95    0.55
  -1 -10 -10    1.43    0.28
   1  10  10    1.37    0.26
   1  10  10    1.46    0.28
  -2 -10 -10   13.46    0.62
   2  10  10   12.95    0.62
   2  10  10   13.99    0.66
  -3 -10 -10    0.30    0.21
   3  10  10   -0.08    0.17
   3  10  10    0.12    0.18
   2 -11 -10   17.95    0.78
   2 -11 -10   19.98    0.89
  -2  11  10   16.63    0.76
  -2  11  10   18.18    0.82
   1 -11 -10   30.33    1.00
   1 -11 -10   28.61    1.01
  -1  11  10   28.42    0.94
  -1  11  10   29.19    0.99
   0 -11 -10   45.98    1.27
   0  11  10   43.24    1.23
  -1 -11 -10   17.57    0.73
   1  11  10   18.39    0.77
   1  11  10   17.98    0.74
  -2 -11 -10    7.31    0.49
   2  11  10    8.60    0.52
   2  11  10    7.26    0.51
  -3 -11 -10    3.74    0.47
   3  11  10    3.62    0.44
   3  11  10    4.20    0.47
   1 -12 -10    1.49    0.35
  -1  12  10    1.33    0.31
   0 -12 -10    1.90    0.34
   0  12  10    1.77    0.32
  -1 -12 -10    8.43    0.56
   1  12  10    7.67    0.52
  -2 -12 -10   12.78    0.65
   2  12  10   12.87    0.69
   0 -13 -10   10.73    0.67
   0  13  10   11.52    0.67
  -1 -13 -10   11.02    0.65
   1  13  10    9.22    0.60
   1   5 -11    4.78    0.55
   1   5 -11    4.46    0.47
   0   5 -11    2.30    0.34
   0   5 -11    3.17    0.45
   0  -5  11    2.65    0.41
   2   4 -11    1.10    0.33
   2   4 -11    0.99    0.27
   1   4 -11    0.94    0.27
   1   4 -11    1.08    0.29
  -1  -4  11    0.96    0.26
   0   4 -11    4.36    0.45
   0   4 -11    3.00    0.41
   0   4 -11    3.26    0.39
   0  -4  11    4.31    0.45
   0  -4  11    4.24    0.48
  -1   4 -11   15.08    0.74
  -1   4 -11   16.24    0.74
  -1   4 -11   14.93    0.74
   1  -4  11   15.97    0.77
   1  -4  11   15.46    0.81
   1  -4  11   16.19    1.00
   2   3 -11   15.90    0.80
   2   3 -11   16.51    0.75
   1   3 -11   11.97    0.61
   1   3 -11   11.77    0.67
  -1  -3  11   12.15    0.60
  -1  -3  11   11.86    0.61
   0   3 -11    1.36    0.30
   0   3 -11    0.34    0.20
   0  -3  11    0.98    0.28
   0  -3  11    1.00    0.25
  -1   3 -11    9.20    0.54
  -1   3 -11    8.23    0.54
  -1   3 -11    8.32    0.56
   1  -3  11    7.80    0.55
   1  -3  11    7.55    0.57
  -2   3 -11    1.60    0.33
  -2   3 -11    2.75    0.43
   2  -3  11    2.46    0.41
   2  -3  11    1.43    0.34
   2  -3  11    2.13    0.35
   2  -3  11    1.82    0.33
   3   2 -11    1.08    0.29
   3   2 -11    0.82    0.29
   2   2 -11    1.18    0.26
   2   2 -11    1.64    0.34
  -2  -2  11    1.27    0.27
   1   2 -11    5.14    0.46
   1   2 -11    4.85    0.48
  -1  -2  11    4.23    0.41
  -1  -2  11    4.20    0.42
   0   2 -11    6.90    0.50
   0   2 -11    6.22    0.45
   0  -2  11    6.91    0.49
   0  -2  11    6.82    0.48
  -1   2 -11   24.82    0.88
  -1   2 -11   26.02    0.94
   1  -2  11   24.79    0.92
   1  -2  11   25.61    0.97
  -2   2 -11   11.13    0.67
  -2   2 -11   10.45    0.62
   2  -2  11   10.17    0.66
   2  -2  11   11.15    0.59
   2  -2  11   10.64    0.61
   2  -2  11   12.06    0.72
   3   1 -11   28.28    1.03
   3   1 -11   29.08    1.02
  -3  -1  11   28.61    0.97
   2   1 -11   14.10    0.65
   2   1 -11   13.01    0.68
  -2  -1  11   14.56    0.64
   1   1 -11    2.99    0.35
   1   1 -11    2.44    0.34
  -1  -1  11    3.23    0.37
  -1  -1  11    3.06    0.35
   0   1 -11   16.37    0.65
   0   1 -11   16.39    0.71
   0  -1  11   17.37    0.69
   0  -1  11   15.54    0.68
   0  -1  11   16.65    0.42
  -1   1 -11    1.43    0.26
  -1   1 -11    1.65    0.29
   1  -1  11    1.78    0.31
   1  -1  11    2.12    0.35
  -2   1 -11    1.60    0.30
  -2   1 -11    1.68    0.31
   2  -1  11    1.32    0.29
   2  -1  11    2.10    0.34
   2  -1  11    1.16    0.32
   2  -1  11    1.49    0.28
   3   0 -11    0.89    0.26
   3   0 -11    0.50    0.23
  -3   0  11    0.76    0.25
   2   0 -11    0.77    0.26
   2   0 -11    1.27    0.29
   2   0 -11    0.84    0.25
  -2   0  11    1.11    0.25
   1   0 -11    6.74    0.53
   1   0 -11    7.20    0.44
   1   0 -11    7.11    0.48
  -1   0  11    7.51    0.46
  -1   0  11    7.40    0.46
   0   0 -11   17.66    0.68
   0   0 -11   19.08    1.02
   0   0 -11   17.71    0.70
   0   0  11   19.50    0.75
   0   0  11   18.43    0.71
  -1   0 -11   16.35    0.66
  -1   0 -11   18.17    0.68
   1   0  11   16.29    0.66
   1   0  11   16.13    0.72
   1   0  11   16.16    0.70
  -2   0 -11   27.69    0.97
  -2   0 -11   26.39    0.91
   2   0  11   26.69    0.97
   2   0  11   26.78    0.99
   2   0  11   26.43    0.90
  -3   0 -11    9.28    0.64
  -3   0 -11    8.44    0.58
   3   0  11    7.49    0.58
   3   0  11    9.27    0.66
   3   0  11    8.50    0.59
   3   0  11    8.95    0.57
   3  -1 -11   28.06    0.96
   3  -1 -11   27.88    0.98
  -3   1  11   27.12    0.97
   2  -1 -11   20.05    0.79
   2  -1 -11   20.91    0.76
   2  -1 -11   21.38    0.91
   2  -1 -11   20.95    0.71
  -2   1  11   20.72    0.78
  -2   1  11   20.16    0.70
   1  -1 -11    0.72    0.20
   1  -1 -11    0.47    0.24
   1  -1 -11    0.39    0.18
  -1   1  11    0.73    0.20
  -1   1  11    0.43    0.19
   0  -1 -11   17.68    0.84
   0  -1 -11   18.04    0.69
   0  -1 -11   18.01    0.67
   0   1  11   18.16    0.71
   0   1  11   18.32    0.70
  -1  -1 -11    2.81    0.33
  -1  -1 -11    2.97    0.42
  -1  -1 -11    2.27    0.30
   1   1  11    2.45    0.35
   1   1  11    2.51    0.31
   1   1  11    3.17    0.38
  -2  -1 -11    2.24    0.31
  -2  -1 -11    1.52    0.29
   2   1  11    2.32    0.34
   2   1  11    1.89    0.32
   2   1  11    1.53    0.27
  -3  -1 -11    2.34    0.36
  -3  -1 -11    2.16    0.37
   3   1  11    2.54    0.36
   3   1  11    1.92    0.34
   3   1  11    2.55    0.42
   3   1  11    3.06    0.39
   3  -2 -11    0.46    0.22
   3  -2 -11    0.32    0.22
  -3   2  11    0.72    0.25
   2  -2 -11    7.79    0.50
   2  -2 -11    7.67    0.56
   2  -2 -11    7.80    0.44
   2  -2 -11    7.45    0.47
  -2   2  11    7.11    0.42
  -2   2  11    8.28    0.51
   1  -2 -11   11.16    0.65
   1  -2 -11   10.93    0.52
   1  -2 -11   10.61    0.54
   1  -2 -11   10.71    0.50
  -1   2  11    9.85    0.49
  -1   2  11   11.59    0.56
   0  -2 -11   18.25    0.84
   0  -2 -11   18.52    0.69
   0  -2 -11   18.61    0.65
   0   2  11   18.19    0.71
   0   2  11   19.15    0.71
   0   2  11   18.92    0.70
  -1  -2 -11   31.81    0.91
  -1  -2 -11   32.60    1.14
  -1  -2 -11   33.19    0.94
   1   2  11   32.65    0.94
   1   2  11   33.05    0.93
   1   2  11   32.68    0.99
   1   2  11   32.11    0.98
  -2  -2 -11   48.33    1.44
  -2  -2 -11   45.47    1.19
  -2  -2 -11   43.57    1.26
   2   2  11   44.00    1.25
   2   2  11   45.01    1.27
   2   2  11   45.74    1.19
  -3  -2 -11   21.87    0.86
  -3  -2 -11   23.12    0.94
   3   2  11   22.07    0.94
   3   2  11   23.32    0.92
   3   2  11   24.01    0.89
   3   2  11   23.53    0.86
   3  -3 -11   23.51    0.85
   3  -3 -11   23.66    0.87
  -3   3  11   24.30    0.92
   2  -3 -11    5.27    0.38
   2  -3 -11    5.81    0.49
   2  -3 -11    5.84    0.40
   2  -3 -11    6.13    0.45
  -2   3  11    5.67    0.44
  -2   3  11    5.50    0.39
   1  -3 -11   11.42    0.51
   1  -3 -11   12.20    0.58
   1  -3 -11   11.28    0.65
   1  -3 -11   11.76    0.54
  -1   3  11   11.75    0.57
  -1   3  11   11.19    0.54
  -1   3  11   12.11    0.57
   0  -3 -11    3.33    0.31
   0  -3 -11    2.93    0.32
   0  -3 -11    3.57    0.36
   0  -3 -11    4.07    0.47
   0   3  11    3.13    0.35
   0   3  11    2.95    0.33
   0   3  11    2.95    0.33
  -1  -3 -11    0.96    0.20
  -1  -3 -11    1.43    0.23
  -1  -3 -11    0.93    0.24
   1   3  11    0.99    0.21
   1   3  11    1.12    0.21
   1   3  11    0.82    0.23
   1   3  11    1.39    0.26
  -2  -3 -11    1.64    0.27
  -2  -3 -11    1.15    0.30
  -2  -3 -11    1.09    0.22
   2   3  11    0.69    0.21
   2   3  11    1.47    0.26
   2   3  11    0.54    0.16
   2   3  11    1.30    0.27
  -3  -3 -11    0.00    0.17
  -3  -3 -11    0.29    0.20
   3   3  11   -0.01    0.18
   3   3  11    0.03    0.18
   3   3  11    0.14    0.19
   3   3  11    0.00    0.17
   3  -4 -11    2.02    0.31
   3  -4 -11    1.73    0.32
  -3   4  11    1.99    0.34
   2  -4 -11   22.90    0.82
   2  -4 -11   23.15    0.78
   2  -4 -11   23.43    0.93
   2  -4 -11   23.71    0.77
  -2   4  11   22.87    0.83
  -2   4  11   23.56    0.83
  -2   4  11   24.20    0.79
   1  -4 -11   56.33    1.32
   1  -4 -11   57.06    1.25
   1  -4 -11   56.36    1.34
   1  -4 -11   58.20    1.54
  -1   4  11   57.20    1.33
  -1   4  11   58.16    1.37
  -1   4  11   55.13    1.35
   0  -4 -11   25.76    0.97
   0  -4 -11   26.32    0.83
   0  -4 -11   27.00    0.85
   0  -4 -11   26.27    0.76
   0   4  11   26.77    0.85
   0   4  11   25.66    0.83
   0   4  11   26.05    0.82
  -1  -4 -11   27.68    0.81
  -1  -4 -11   28.19    1.03
  -1  -4 -11   27.31    0.84
   1   4  11   28.01    0.88
   1   4  11   29.65    0.92
   1   4  11   27.83    0.85
   1   4  11   27.81    0.81
  -2  -4 -11   26.77    0.84
  -2  -4 -11   25.26    0.79
  -2  -4 -11   25.80    1.00
   2   4  11   26.40    0.90
   2   4  11   24.80    0.87
   2   4  11   24.31    0.80
   2   4  11   25.58    0.79
  -3  -4 -11   13.14    0.64
  -3  -4 -11   12.62    0.68
   3   4  11   12.08    0.63
   3   4  11   12.58    0.63
   3   4  11   12.24    0.68
   3   4  11   12.28    0.65
   3  -5 -11   19.69    0.79
   3  -5 -11   18.64    0.74
  -3   5  11   19.61    0.85
  -3   5  11   19.63    0.79
   2  -5 -11    1.82    0.28
   2  -5 -11    1.82    0.30
   2  -5 -11    1.65    0.26
   2  -5 -11    2.01    0.36
  -2   5  11    1.74    0.29
  -2   5  11    2.02    0.32
  -2   5  11    1.39    0.25
   1  -5 -11   14.57    0.61
   1  -5 -11   14.76    0.73
   1  -5 -11   13.50    0.60
   1  -5 -11   14.67    0.55
  -1   5  11   15.70    0.65
  -1   5  11   13.77    0.60
  -1   5  11   15.71    0.63
   0  -5 -11    7.02    0.37
   0  -5 -11    6.30    0.50
   0  -5 -11    6.11    0.40
   0  -5 -11    5.81    0.40
   0   5  11    6.21    0.40
   0   5  11    7.25    0.44
   0   5  11    7.25    0.45
  -1  -5 -11    8.16    0.48
  -1  -5 -11    9.12    0.44
  -1  -5 -11    8.78    0.57
  -1  -5 -11    7.89    0.46
   1   5  11    8.64    0.48
   1   5  11    9.14    0.49
   1   5  11    9.31    0.50
   1   5  11    8.39    0.43
  -2  -5 -11    3.31    0.35
  -2  -5 -11    3.06    0.33
  -2  -5 -11    3.09    0.42
   2   5  11    2.74    0.32
   2   5  11    3.42    0.35
   2   5  11    2.47    0.32
   2   5  11    2.70    0.34
  -3  -5 -11    7.53    0.54
  -3  -5 -11    8.07    0.52
   3   5  11    7.54    0.51
   3   5  11    7.41    0.50
   3   5  11    9.07    0.52
   3   5  11    7.97    0.55
   3  -6 -11    3.77    0.41
   3  -6 -11    3.34    0.39
   3  -6 -11    2.64    0.36
  -3   6  11    3.16    0.42
  -3   6  11    3.27    0.39
   2  -6 -11   26.74    0.88
   2  -6 -11   27.27    0.89
   2  -6 -11   28.40    1.04
   2  -6 -11   28.39    0.82
  -2   6  11   26.02    0.86
  -2   6  11   26.20    0.89
  -2   6  11   27.13    0.94
   1  -6 -11   45.95    1.18
   1  -6 -11   46.16    1.18
   1  -6 -11   47.19    1.06
   1  -6 -11   44.64    1.33
  -1   6  11   45.16    1.17
  -1   6  11   45.43    1.18
  -1   6  11   45.16    1.19
   0  -6 -11   43.53    1.15
   0  -6 -11   44.64    1.32
   0  -6 -11   45.76    1.02
   0  -6 -11   42.18    1.12
   0   6  11   43.69    1.13
   0   6  11   43.25    1.13
   0   6  11   44.77    1.16
  -1  -6 -11    8.49    0.41
  -1  -6 -11    8.33    0.55
  -1  -6 -11    7.47    0.46
  -1  -6 -11    8.08    0.45
   1   6  11    8.07    0.48
   1   6  11    7.94    0.47
   1   6  11    8.92    0.42
   1   6  11    8.21    0.45
  -2  -6 -11   13.40    0.58
  -2  -6 -11   12.97    0.71
  -2  -6 -11   13.43    0.62
  -2  -6 -11   12.99    0.56
   2   6  11   13.58    0.58
   2   6  11   13.85    0.58
   2   6  11   13.70    0.62
   2   6  11   13.13    0.62
  -3  -6 -11   11.04    0.58
  -3  -6 -11    9.46    0.55
  -3  -6 -11    9.62    0.59
   3   6  11   10.78    0.61
   3   6  11   11.80    0.60
   3   6  11   10.29    0.93
   3   6  11   10.09    0.58
   3  -7 -11   16.50    0.75
  -3   7  11   14.35    0.75
   2  -7 -11   11.95    0.59
   2  -7 -11   11.30    0.59
  -2   7  11   11.50    0.57
  -2   7  11   10.98    0.57
  -2   7  11   10.13    0.59
   1  -7 -11    1.94    0.36
   1  -7 -11    2.32    0.33
   1  -7 -11    2.76    0.35
  -1   7  11    3.42    0.39
  -1   7  11    2.45    0.34
  -1   7  11    2.37    0.33
   0  -7 -11    0.56    0.24
   0  -7 -11    0.72    0.20
   0  -7 -11    0.51    0.14
   0  -7 -11    0.79    0.23
   0   7  11    0.31    0.17
   0   7  11    0.70    0.21
   0   7  11    0.44    0.17
  -1  -7 -11    3.99    0.40
  -1  -7 -11    3.68    0.39
  -1  -7 -11    2.55    0.38
  -1  -7 -11    3.66    0.30
   1   7  11    3.46    0.36
   1   7  11    3.51    0.35
   1   7  11    3.79    0.40
  -2  -7 -11    9.95    0.49
  -2  -7 -11    8.71    0.50
  -2  -7 -11   10.13    0.55
  -2  -7 -11    9.39    0.60
   2   7  11   10.87    0.53
   2   7  11   10.09    0.49
   2   7  11    9.47    0.54
   2   7  11    9.85    0.53
  -3  -7 -11    8.79    0.52
  -3  -7 -11    9.39    0.56
  -3  -7 -11    8.74    0.53
   3   7  11    8.72    0.55
   3   7  11    8.53    0.53
   3   7  11    7.97    0.50
   2  -8 -11   21.98    0.82
   2  -8 -11   22.31    0.84
  -2   8  11   20.27    0.84
  -2   8  11   20.48    0.80
   1  -8 -11   17.34    0.71
   1  -8 -11   15.92    0.69
  -1   8  11   16.50    0.69
  -1   8  11   16.32    0.70
  -1   8  11   16.66    0.69
   0  -8 -11    9.83    0.53
   0  -8 -11    9.42    0.52
   0   8  11    9.89    0.51
   0   8  11    9.12    0.51
   0   8  11    9.19    0.52
  -1  -8 -11   26.98    0.88
  -1  -8 -11   24.87    0.86
   1   8  11   26.11    0.87
   1   8  11   27.57    0.86
   1   8  11   25.80    0.86
  -2  -8 -11   12.97    0.61
  -2  -8 -11   12.03    0.61
   2   8  11   12.74    0.62
   2   8  11   12.85    0.62
   2   8  11   12.75    0.59
  -3  -8 -11   12.00    0.62
  -3  -8 -11    9.77    0.53
   3   8  11   10.50    0.59
   3   8  11    9.86    0.54
   3   8  11   11.01    0.66
   2  -9 -11    8.61    0.54
   2  -9 -11    7.33    0.55
  -2   9  11    7.99    0.52
  -2   9  11    8.81    0.59
   1  -9 -11    0.14    0.17
   1  -9 -11    0.32    0.21
  -1   9  11    0.12    0.19
  -1   9  11    0.04    0.16
  -1   9  11    0.03    0.14
   0  -9 -11   -0.28    0.12
   0  -9 -11    0.16    0.18
   0   9  11    0.03    0.15
   0   9  11    0.01    0.15
   0   9  11    0.01    0.14
  -1  -9 -11    7.99    0.50
  -1  -9 -11    6.51    0.46
   1   9  11    7.80    0.49
   1   9  11    7.12    0.48
   1   9  11    7.49    0.46
  -2  -9 -11    7.67    0.49
  -2  -9 -11    8.61    0.53
   2   9  11    8.73    0.51
   2   9  11    8.19    0.51
  -3  -9 -11    9.36    0.57
   3   9  11   10.71    0.58
   2 -10 -11   15.35    0.72
   2 -10 -11   15.54    0.78
  -2  10  11   15.26    0.75
  -2  10  11   16.02    0.74
   1 -10 -11   28.28    0.99
   1 -10 -11   28.09    0.96
  -1  10  11   28.00    0.96
  -1  10  11   28.63    0.96
   0 -10 -11    2.71    0.34
   0 -10 -11    3.27    0.38
   0  10  11    2.97    0.36
   0  10  11    3.63    0.41
   0  10  11    3.38    0.37
  -1 -10 -11   31.95    1.02
   1  10  11   31.55    1.01
   1  10  11   31.13    1.01
  -2 -10 -11   10.75    0.59
   2  10  11   10.57    0.59
   2  10  11    9.66    0.57
   3  10  11    3.25    0.41
   1 -11 -11    0.77    0.25
   1 -11 -11    0.50    0.25
  -1  11  11    0.65    0.24
  -1  11  11    1.06    0.27
   0 -11 -11    0.21    0.21
   0  11  11    0.27    0.18
   0  11  11    0.52    0.20
  -1 -11 -11    3.03    0.38
   1  11  11    3.81    0.43
   1  11  11    2.73    0.37
  -2 -11 -11    8.55    0.55
   2  11  11    9.80    0.58
   2  11  11    8.03    0.55
   1 -12 -11   10.61    0.67
   1 -12 -11   10.77    0.65
  -1  12  11   10.93    0.65
  -1  12  11   10.30    0.62
   0 -12 -11   14.95    0.74
   0  12  11   13.41    0.69
  -1 -12 -11   11.42    0.65
   1  12  11    9.96    0.61
  -2 -12 -11    7.11    0.52
   2  12  11    7.31    0.53
   2  12  11    7.51    0.57
   1   3 -12   -0.04    0.18
   1   3 -12   -0.18    0.17
  -1  -3  12    0.08    0.20
   0   3 -12    2.73    0.41
   0   3 -12    3.03    0.38
   0  -3  12    3.39    0.43
   0  -3  12    3.00    0.40
  -1   3 -12    2.46    0.37
  -1   3 -12    3.77    0.45
  -1   3 -12    3.33    0.44
   1  -3  12    2.66    0.42
   1  -3  12    3.30    0.45
   2   2 -12   21.41    0.87
   2   2 -12   21.23    0.92
   1   2 -12   20.22    0.79
   1   2 -12   19.03    0.84
  -1  -2  12   19.80    0.80
  -1  -2  12   20.52    0.80
   0   2 -12   14.18    0.66
   0   2 -12   13.52    0.69
   0  -2  12   15.38    0.71
   0  -2  12   13.60    0.70
  -1   2 -12   19.05    0.84
  -1   2 -12   18.41    0.79
  -1   2 -12   19.24    0.80
   1  -2  12   19.37    0.89
   1  -2  12   17.89    0.83
   2   1 -12    0.34    0.24
   2   1 -12    1.00    0.31
  -2  -1  12    0.52    0.23
   1   1 -12    2.21    0.37
   1   1 -12    2.11    0.31
  -1  -1  12    1.74    0.29
  -1  -1  12    3.15    0.37
   0   1 -12    5.18    0.49
   0   1 -12    4.67    0.44
   0  -1  12    4.82    0.47
   0  -1  12    5.44    0.50
  -1   1 -12    9.03    0.54
  -1   1 -12    9.64    0.56
   1  -1  12    8.76    0.57
   1  -1  12    9.06    0.59
  -2   1 -12   19.23    0.86
   2  -1  12   19.56    0.88
   2  -1  12   19.32    0.80
   2  -1  12   18.65    0.89
   3   0 -12   27.12    0.99
   3   0 -12   25.28    1.00
  -3   0  12   23.83    0.94
   2   0 -12   32.43    1.03
   2   0 -12   32.12    1.08
  -2   0  12   32.88    1.04
   1   0 -12   29.59    1.00
   1   0 -12   28.49    0.92
  -1   0  12   31.08    0.98
  -1   0  12   30.94    0.96
   0   0 -12   62.58    1.45
   0   0 -12   63.41    1.52
   0   0  12   60.60    1.50
   0   0  12   61.74    1.50
  -1   0 -12   19.24    0.77
  -1   0 -12   20.89    0.78
   1   0  12   19.04    0.80
   1   0  12   19.28    0.82
  -2   0 -12    1.64    0.33
  -2   0 -12    2.19    0.35
   2   0  12    1.96    0.34
   2   0  12    2.58    0.38
   2   0  12    2.61    0.42
   3  -1 -12    0.10    0.20
   3  -1 -12   -0.02    0.19
  -3   1  12   -0.10    0.20
   2  -1 -12    1.48    0.28
   2  -1 -12    2.24    0.31
   2  -1 -12    1.80    0.32
  -2   1  12    1.57    0.26
  -2   1  12    1.87    0.32
   1  -1 -12   45.07    1.20
   1  -1 -12   44.22    1.17
   1  -1 -12   43.91    1.23
  -1   1  12   43.51    1.20
  -1   1  12   43.48    1.18
   0  -1 -12    0.40    0.17
   0  -1 -12    0.50    0.20
   0   1  12    0.35    0.19
   0   1  12    0.59    0.21
  -1  -1 -12    9.67    0.52
  -1  -1 -12    9.28    0.54
   1   1  12   10.33    0.59
   1   1  12    9.13    0.58
  -2  -1 -12   15.99    0.72
  -2  -1 -12   15.98    0.77
   2   1  12   15.10    0.71
   2   1  12   16.72    0.80
   2   1  12   16.47    0.77
   3  -2 -12   30.09    1.04
   3  -2 -12   29.83    1.03
  -3   2  12   29.76    1.06
   2  -2 -12   26.67    0.89
   2  -2 -12   26.78    0.95
   2  -2 -12   26.89    0.86
  -2   2  12   26.42    0.86
  -2   2  12   25.09    0.92
   1  -2 -12   32.19    0.95
   1  -2 -12   32.24    1.00
   1  -2 -12   30.11    0.94
  -1   2  12   31.35    0.95
  -1   2  12   32.10    1.00
   0  -2 -12  102.50    1.98
   0  -2 -12   99.61    2.04
   0   2  12  103.65    2.09
   0   2  12  102.00    2.08
  -1  -2 -12   14.56    0.64
  -1  -2 -12   13.99    0.63
   1   2  12   15.32    0.69
   1   2  12   14.69    0.68
  -2  -2 -12    0.62    0.24
  -2  -2 -12    0.51    0.21
   2   2  12    0.60    0.23
   2   2  12    0.30    0.21
   2   2  12    0.54    0.21
  -3  -2 -12    0.40    0.25
  -3  -2 -12    0.37    0.26
   3   2  12    0.08    0.22
   3   2  12    0.20    0.25
   3   2  12    0.31    0.26
   3  -3 -12    0.41    0.24
   3  -3 -12    0.78    0.25
  -3   3  12    0.35    0.25
   2  -3 -12    2.61    0.32
   2  -3 -12    2.51    0.32
   2  -3 -12    3.26    0.39
  -2   3  12    2.79    0.33
  -2   3  12    2.97    0.38
   1  -3 -12   19.07    0.72
   1  -3 -12   16.80    0.71
   1  -3 -12   18.45    0.69
  -1   3  12   17.42    0.70
  -1   3  12   16.83    0.70
  -1   3  12   17.31    0.72
   0  -3 -12    9.07    0.47
   0  -3 -12    8.95    0.52
   0  -3 -12    8.94    0.51
   0   3  12    9.69    0.52
   0   3  12    9.00    0.53
   0   3  12    9.27    0.52
  -1  -3 -12   15.86    0.66
  -1  -3 -12   16.30    0.64
   1   3  12   16.34    0.71
   1   3  12   15.90    0.64
   1   3  12   15.56    0.66
   1   3  12   16.50    0.71
  -2  -3 -12   24.27    0.82
  -2  -3 -12   23.80    0.92
  -2  -3 -12   24.68    0.85
   2   3  12   25.55    0.93
   2   3  12   25.48    0.94
   2   3  12   25.13    0.86
  -3  -3 -12    2.80    0.43
  -3  -3 -12    2.11    0.34
   3   3  12    1.92    0.34
   3   3  12    1.49    0.32
   3   3  12    1.91    0.37
   3  -4 -12   25.74    0.94
   3  -4 -12   25.00    0.91
  -3   4  12   25.49    0.99
   2  -4 -12   30.22    0.95
   2  -4 -12   32.71    0.96
   2  -4 -12   32.33    1.03
  -2   4  12   31.91    0.97
  -2   4  12   32.31    1.06
  -2   4  12   32.08    1.04
   1  -4 -12   20.93    0.80
   1  -4 -12   21.52    0.73
   1  -4 -12   20.74    0.77
  -1   4  12   21.21    0.79
  -1   4  12   21.23    0.77
  -1   4  12   21.56    0.80
   0  -4 -12   17.53    0.70
   0  -4 -12   17.20    0.64
   0  -4 -12   17.13    0.70
   0   4  12   18.72    0.73
   0   4  12   17.66    0.71
   0   4  12   16.87    0.69
  -1  -4 -12    7.36    0.46
  -1  -4 -12    7.24    0.45
   1   4  12    7.63    0.50
   1   4  12    8.05    0.46
   1   4  12    6.97    0.47
   1   4  12    7.42    0.47
  -2  -4 -12    0.43    0.18
  -2  -4 -12    0.39    0.19
   2   4  12    0.17    0.19
   2   4  12    0.00    0.15
   2   4  12    0.01    0.19
   2   4  12    0.25    0.20
  -3  -4 -12   -0.22    0.20
  -3  -4 -12    0.30    0.20
   3   4  12   -0.17    0.20
   3   4  12    0.03    0.18
   3   4  12    0.00    0.18
   3  -5 -12    0.30    0.23
   3  -5 -12    1.00    0.27
  -3   5  12    0.81    0.30
   2  -5 -12    5.92    0.50
   2  -5 -12    5.58    0.42
   2  -5 -12    5.29    0.47
  -2   5  12    6.09    0.45
  -2   5  12    5.31    0.47
  -2   5  12    5.20    0.49
   1  -5 -12    2.04    0.28
   1  -5 -12    2.07    0.30
   1  -5 -12    1.99    0.30
  -1   5  12    2.38    0.31
  -1   5  12    2.19    0.32
  -1   5  12    1.88    0.32
   0  -5 -12   33.76    1.00
   0  -5 -12   33.94    1.03
   0  -5 -12   35.28    0.93
   0   5  12   33.93    1.02
   0   5  12   32.90    0.99
   0   5  12   35.66    1.05
  -1  -5 -12   37.44    0.99
  -1  -5 -12   37.10    1.10
  -1  -5 -12   37.05    1.04
   1   5  12   38.21    1.11
   1   5  12   37.19    1.06
   1   5  12   37.76    1.09
  -2  -5 -12   43.05    1.13
  -2  -5 -12   41.32    1.12
   2   5  12   41.10    1.21
   2   5  12   41.67    1.12
   2   5  12   42.77    1.22
   2   5  12   40.03    1.10
  -3  -5 -12    8.67    0.57
  -3  -5 -12    9.32    0.63
   3   5  12    9.12    0.58
   3   5  12   10.72    0.65
   3   5  12    9.15    0.60
   3  -6 -12   20.46    0.85
  -3   6  12   19.85    0.84
  -3   6  12   23.69    0.97
   2  -6 -12   20.41    0.80
   2  -6 -12   20.33    0.79
   2  -6 -12   18.86    0.70
  -2   6  12   19.57    0.79
  -2   6  12   20.38    0.79
  -2   6  12   18.39    0.79
   1  -6 -12   14.74    0.66
   1  -6 -12   14.57    0.57
   1  -6 -12   15.26    0.67
  -1   6  12   14.93    0.67
  -1   6  12   15.10    0.67
  -1   6  12   15.15    0.69
   0  -6 -12    5.90    0.37
   0  -6 -12    5.60    0.48
   0  -6 -12    6.04    0.43
   0   6  12    6.10    0.45
   0   6  12    5.86    0.42
   0   6  12    6.43    0.46
  -1  -6 -12   -0.10    0.16
  -1  -6 -12    0.03    0.14
  -1  -6 -12    0.11    0.16
   1   6  12    0.37    0.18
   1   6  12    0.13    0.17
   1   6  12   -0.15    0.17
  -2  -6 -12    0.53    0.20
  -2  -6 -12    0.45    0.20
  -2  -6 -12    0.73    0.25
   2   6  12    0.87    0.24
   2   6  12    1.18    0.25
   2   6  12    0.69    0.24
   2   6  12    0.95    0.23
  -3  -6 -12    2.26    0.36
  -3  -6 -12    2.56    0.35
  -3  -6 -12    2.47    0.38
   3   6  12    1.82    0.33
   3   6  12    2.45    0.35
   3   6  12    2.93    0.40
   2  -7 -12   11.22    0.60
   2  -7 -12   10.07    0.59
  -2   7  12    9.91    0.60
  -2   7  12   10.09    0.58
  -2   7  12   10.92    0.60
   1  -7 -12   18.38    0.75
   1  -7 -12   18.04    0.75
  -1   7  12   18.48    0.75
  -1   7  12   17.68    0.73
  -1   7  12   17.27    0.74
   0  -7 -12   31.67    0.98
   0  -7 -12   29.85    0.97
   0  -7 -12   30.98    0.82
   0   7  12   32.47    0.99
   0   7  12   29.01    0.97
   0   7  12   29.80    0.95
  -1  -7 -12   30.14    0.83
  -1  -7 -12   29.87    0.94
  -1  -7 -12   28.07    0.95
   1   7  12   29.32    0.95
   1   7  12   29.63    0.94
   1   7  12   29.26    0.96
  -2  -7 -12   47.32    1.17
  -2  -7 -12   46.54    1.29
  -2  -7 -12   46.80    1.22
   2   7  12   46.67    1.29
   2   7  12   46.89    1.23
   2   7  12   46.48    1.27
   2   7  12   45.43    1.16
  -3  -7 -12   11.08    0.65
  -3  -7 -12   10.74    0.58
  -3  -7 -12   10.28    0.60
   3   7  12   11.13    0.60
   3   7  12   10.25    0.64
   3   7  12   10.43    0.62
   2  -8 -12   15.83    0.72
   2  -8 -12   15.73    0.72
  -2   8  12   15.19    0.71
  -2   8  12   15.07    0.75
   1  -8 -12   13.20    0.66
   1  -8 -12   12.57    0.65
  -1   8  12   12.55    0.63
  -1   8  12   12.32    0.63
  -1   8  12   12.69    0.64
   0  -8 -12    3.19    0.37
   0  -8 -12    3.02    0.35
   0   8  12    3.40    0.38
   0   8  12    3.27    0.37
   0   8  12    2.96    0.35
  -1  -8 -12    0.30    0.21
  -1  -8 -12    0.39    0.20
   1   8  12    0.85    0.23
   1   8  12    0.90    0.24
   1   8  12    0.75    0.24
  -2  -8 -12    0.32    0.21
  -2  -8 -12    0.35    0.20
   2   8  12    0.15    0.18
   2   8  12    0.29    0.21
   2   8  12   -0.03    0.19
  -3  -8 -12    4.09    0.42
  -3  -8 -12    4.19    0.46
  -3  -8 -12    3.85    0.44
   3   8  12    3.77    0.44
   3   8  12    4.06    0.45
   3   8  12    3.67    0.41
   2  -9 -12   13.44    0.69
   2  -9 -12   12.50    0.70
  -2   9  12   13.13    0.72
  -2   9  12   13.76    0.70
   1  -9 -12   15.92    0.73
   1  -9 -12   16.70    0.74
  -1   9  12   15.77    0.73
  -1   9  12   14.89    0.71
  -1   9  12   15.43    0.72
   0  -9 -12   12.14    0.63
   0  -9 -12   11.08    0.61
   0   9  12   11.94    0.61
   0   9  12   12.45    0.63
   0   9  12   13.08    0.67
  -1  -9 -12   49.24    1.33
  -1  -9 -12   50.44    1.34
   1   9  12   48.79    1.33
   1   9  12   49.03    1.33
   1   9  12   51.29    1.30
  -2  -9 -12   20.22    0.82
  -2  -9 -12   20.73    0.82
   2   9  12   19.86    0.79
   2   9  12   19.64    0.80
   2   9  12   19.49    0.81
   1 -10 -12    9.70    0.60
   1 -10 -12    9.53    0.59
  -1  10  12   10.26    0.60
  -1  10  12    9.44    0.59
   0 -10 -12    8.67    0.55
   0 -10 -12    8.14    0.55
   0  10  12   10.10    0.59
   0  10  12    9.81    0.57
   0  10  12    9.26    0.55
  -1 -10 -12    0.94    0.25
  -1 -10 -12    1.03    0.27
   1  10  12    0.87    0.23
   1  10  12    1.19    0.26
   1  10  12    1.56    0.30
  -2 -10 -12    2.38    0.34
  -2 -10 -12    1.91    0.35
   2  10  12    2.31    0.36
   2  10  12    1.65    0.30
   1 -11 -12    5.83    0.56
   1 -11 -12    5.33    0.52
  -1  11  12    7.05    0.60
  -1  11  12    5.86    0.53
   0 -11 -12    4.38    0.47
   0 -11 -12    4.11    0.45
   0  11  12    4.89    0.46
   0  11  12    5.36    0.52
   0  11  12    4.98    0.49
  -1 -11 -12   56.00    1.49
  -1 -11 -12   51.81    1.45
   1  11  12   56.54    1.48
   1  11  12   54.19    1.47
  -2 -11 -12   11.15    0.65
  -2 -11 -12   11.16    0.66
   2  11  12   11.64    0.66
   2  11  12   11.23    0.65
   0 -12 -12    3.15    0.43
   0 -12 -12    3.18    0.45
   0  12  12    3.03    0.44
  -1 -12 -12    0.17    0.23
   1  12  12    0.20    0.22
   1  12  12    0.02    0.21
   1   2 -13    0.36    0.22
   1   2 -13    0.74    0.30
  -1  -2  13    0.44    0.24
  -1  -2  13    0.24    0.22
   0   2 -13    0.91    0.29
   0   2 -13    0.67    0.27
   0  -2  13    0.42    0.25
   0  -2  13    0.57    0.28
   2   1 -13   16.82    0.82
   2   1 -13   17.32    0.81
  -2  -1  13   15.23    0.74
   1   1 -13   10.72    0.66
   1   1 -13   10.40    0.62
  -1  -1  13   10.06    0.61
  -1  -1  13    9.22    0.59
   0   1 -13   12.73    0.66
   0   1 -13   11.69    0.66
   0  -1  13   11.03    0.65
   0  -1  13   11.95    0.68
  -1   1 -13    4.01    0.49
  -1   1 -13    3.40    0.42
  -1   1 -13    4.08    0.47
   1  -1  13    3.17    0.44
   1  -1  13    4.80    0.52
   2   0 -13    0.42    0.22
   2   0 -13    0.52    0.26
  -2   0  13    0.69    0.27
   1   0 -13    1.01    0.29
   1   0 -13    1.13    0.26
  -1   0  13    1.13    0.27
  -1   0  13    0.96    0.26
   0   0 -13    6.88    0.59
   0   0 -13    5.50    0.48
   0   0  13    5.62    0.51
   0   0  13    6.09    0.54
  -1   0 -13    5.80    0.52
  -1   0 -13    5.78    0.50
   1   0  13    6.75    0.60
   1   0  13    6.24    0.59
   2   0  13    9.30    0.59
   2   0  13    9.73    0.69
   2  -1 -13   24.74    0.97
   2  -1 -13   25.48    0.93
  -2   1  13   24.60    0.93
   1  -1 -13    7.45    0.53
   1  -1 -13    8.16    0.54
   1  -1 -13    7.76    0.50
  -1   1  13    8.62    0.54
  -1   1  13    7.52    0.53
   0  -1 -13    1.82    0.31
   0  -1 -13    1.34    0.29
   0   1  13    1.51    0.31
   0   1  13    1.71    0.31
  -1  -1 -13   16.45    0.74
  -1  -1 -13   17.57    0.74
   1   1  13   17.83    0.82
   1   1  13   17.62    0.78
  -2  -1 -13    0.78    0.27
  -2  -1 -13    1.52    0.32
   2   1  13    1.87    0.36
   2   1  13    1.72    0.38
   2   1  13    0.90    0.29
   2  -2 -13    0.11    0.20
   2  -2 -13    0.13    0.19
   2  -2 -13    0.00    0.20
  -2   2  13   -0.07    0.17
  -2   2  13    0.21    0.20
   1  -2 -13    3.50    0.40
   1  -2 -13    3.21    0.39
   1  -2 -13    3.90    0.46
  -1   2  13    2.34    0.34
  -1   2  13    3.13    0.39
   0  -2 -13    9.24    0.52
   0  -2 -13    9.92    0.56
   0   2  13    9.89    0.59
   0   2  13    9.74    0.57
  -1  -2 -13   32.02    1.01
  -1  -2 -13   32.54    1.02
   1   2  13   33.15    1.11
   1   2  13   33.01    1.10
  -2  -2 -13   13.04    0.73
  -2  -2 -13   11.98    0.64
   2   2  13   11.84    0.71
   2   2  13   11.43    0.62
   2   2  13   12.48    0.72
   2  -3 -13   27.31    0.98
   2  -3 -13   28.44    0.94
   2  -3 -13   29.23    0.96
  -2   3  13   27.87    0.93
  -2   3  13   26.66    0.99
   1  -3 -13   14.98    0.64
   1  -3 -13   15.06    0.72
   1  -3 -13   14.18    0.67
  -1   3  13   14.30    0.70
  -1   3  13   14.15    0.68
   0  -3 -13    0.56    0.22
   0  -3 -13    0.64    0.21
   0  -3 -13    0.82    0.25
   0   3  13    0.56    0.22
   0   3  13    0.86    0.24
   0   3  13    1.00    0.25
  -1  -3 -13   17.88    0.74
  -1  -3 -13   16.01    0.69
   1   3  13   17.00    0.76
   1   3  13   16.91    0.77
   1   3  13   16.48    0.72
  -2  -3 -13    0.83    0.26
  -2  -3 -13    0.85    0.28
   2   3  13    0.87    0.28
   2   3  13    0.53    0.22
   2   3  13    0.57    0.27
   2  -4 -13    1.51    0.33
   2  -4 -13    1.94    0.31
   2  -4 -13    2.22    0.34
  -2   4  13    2.06    0.32
  -2   4  13    1.99    0.36
   1  -4 -13    9.52    0.53
   1  -4 -13    9.99    0.60
   1  -4 -13   10.11    0.56
  -1   4  13    9.77    0.57
  -1   4  13    9.16    0.55
  -1   4  13    9.37    0.58
   0  -4 -13   12.99    0.65
   0  -4 -13   15.37    0.69
   0  -4 -13   14.31    0.62
   0   4  13   13.56    0.67
   0   4  13   14.36    0.66
   0   4  13   13.26    0.65
  -1  -4 -13   13.03    0.60
  -1  -4 -13   12.37    0.61
   1   4  13   12.85    0.67
   1   4  13   13.74    0.64
   1   4  13   13.83    0.69
  -2  -4 -13   19.37    0.76
  -2  -4 -13   19.57    0.78
   2   4  13   19.58    0.85
   2   4  13   19.19    0.85
   2   4  13   19.21    0.77
   2   4  13   18.42    0.76
   2  -5 -13   37.18    1.16
   2  -5 -13   38.98    1.09
   2  -5 -13   37.57    1.12
  -2   5  13   36.19    1.16
  -2   5  13   37.60    1.13
  -2   5  13   36.83    1.18
   1  -5 -13    5.46    0.49
   1  -5 -13    6.43    0.48
   1  -5 -13    6.00    0.43
  -1   5  13    6.19    0.47
  -1   5  13    6.12    0.47
  -1   5  13    5.53    0.49
   0  -5 -13   13.92    0.67
   0  -5 -13   15.16    0.69
   0  -5 -13   13.13    0.58
   0   5  13   13.64    0.66
   0   5  13   13.66    0.66
   0   5  13   13.42    0.66
  -1  -5 -13    2.95    0.39
  -1  -5 -13    2.59    0.31
  -1  -5 -13    3.84    0.42
   1   5  13    2.98    0.37
   1   5  13    3.08    0.38
   1   5  13    3.23    0.40
  -2  -5 -13    1.59    0.30
  -2  -5 -13    1.11    0.28
   2   5  13    1.45    0.29
   2   5  13    1.32    0.30
   2   5  13    0.86    0.28
   2   5  13    0.69    0.25
   2  -6 -13    3.06    0.41
   2  -6 -13    2.38    0.35
   2  -6 -13    2.77    0.34
  -2   6  13    2.59    0.39
  -2   6  13    3.91    0.43
  -2   6  13    1.64    0.29
   1  -6 -13    8.41    0.54
   1  -6 -13    6.71    0.43
   1  -6 -13    6.82    0.51
  -1   6  13    6.87    0.51
  -1   6  13    7.23    0.51
  -1   6  13    6.71    0.49
   0  -6 -13   19.23    0.79
   0  -6 -13   18.78    0.68
   0  -6 -13   18.74    0.76
   0   6  13   18.84    0.78
   0   6  13   19.26    0.77
   0   6  13   19.59    0.79
  -1  -6 -13   19.40    0.76
  -1  -6 -13   18.35    0.69
  -1  -6 -13   18.65    0.79
   1   6  13   17.99    0.78
   1   6  13   19.12    0.76
   1   6  13   19.24    0.78
  -2  -6 -13   16.28    0.70
  -2  -6 -13   17.25    0.71
  -2  -6 -13   15.88    0.77
   2   6  13   15.52    0.74
   2   6  13   15.83    0.69
   2   6  13   16.97    0.72
   2   6  13   16.97    0.77
   2  -7 -13   24.82    0.94
   2  -7 -13   24.80    0.93
  -2   7  13   24.36    0.97
  -2   7  13   26.95    0.97
  -2   7  13   25.81    0.95
   1  -7 -13    6.39    0.54
   1  -7 -13    6.12    0.47
  -1   7  13    5.89    0.53
  -1   7  13    6.29    0.47
  -1   7  13    6.26    0.47
   0  -7 -13    3.20    0.40
   0  -7 -13    2.96    0.38
   0  -7 -13    4.07    0.35
   0   7  13    3.08    0.38
   0   7  13    3.57    0.41
   0   7  13    3.70    0.42
  -1  -7 -13    0.17    0.20
  -1  -7 -13    0.32    0.17
  -1  -7 -13    0.16    0.21
   1   7  13    0.33    0.21
   1   7  13    0.43    0.23
   1   7  13    0.48    0.23
  -2  -7 -13    9.27    0.56
  -2  -7 -13    7.83    0.50
  -2  -7 -13    8.28    0.58
   2   7  13    8.28    0.57
   2   7  13   10.18    0.58
   2   7  13    9.29    0.53
   2   7  13    7.83    0.58
   2  -8 -13    5.95    0.54
   2  -8 -13    6.76    0.51
  -2   8  13    7.16    0.52
  -2   8  13    7.70    0.60
  -2   8  13    6.85    0.59
   1  -8 -13   21.27    0.87
   1  -8 -13   22.93    0.90
  -1   8  13   22.12    0.88
  -1   8  13   21.83    0.88
  -1   8  13   22.37    0.89
   0  -8 -13   15.76    0.73
   0  -8 -13   15.42    0.72
   0   8  13   15.80    0.72
   0   8  13   14.80    0.70
   0   8  13   14.99    0.71
  -1  -8 -13   26.28    0.94
  -1  -8 -13   25.77    0.92
   1   8  13   25.47    0.94
   1   8  13   24.78    0.91
   1   8  13   25.03    0.92
  -2  -8 -13   14.93    0.75
  -2  -8 -13   15.13    0.71
   2   8  13   15.16    0.74
   2   8  13   15.28    0.75
   2   8  13   16.22    0.71
   1  -9 -13   13.20    0.70
   1  -9 -13   13.76    0.72
  -1   9  13   13.66    0.71
  -1   9  13   13.66    0.69
  -1   9  13   12.95    0.69
   0  -9 -13    3.16    0.40
   0  -9 -13    3.81    0.42
   0   9  13    3.75    0.42
   0   9  13    4.11    0.46
   0   9  13    3.42    0.39
  -1  -9 -13    2.27    0.38
  -1  -9 -13    1.75    0.33
   1   9  13    2.24    0.36
   1   9  13    2.43    0.36
   1   9  13    2.28    0.36
  -2  -9 -13    1.43    0.31
  -2  -9 -13    1.20    0.29
   2   9  13    1.41    0.31
   2   9  13    1.13    0.30
   2   9  13    1.01    0.29
   1 -10 -13   36.67    1.18
   1 -10 -13   36.63    1.21
  -1  10  13   37.11    1.21
  -1  10  13   36.02    1.17
  -1  10  13   35.39    1.16
   0 -10 -13   25.76    0.97
   0 -10 -13   25.59    0.97
   0  10  13   24.94    0.95
   0  10  13   24.26    0.94
   0  10  13   26.63    0.94
  -1 -10 -13    2.17    0.35
  -1 -10 -13    2.41    0.36
   1  10  13    1.93    0.34
   1  10  13    1.92    0.32
   1  10  13    2.23    0.36
  -2 -10 -13   16.57    0.78
  -2 -10 -13   15.38    0.77
   2  10  13   16.06    0.78
   2  10  13   15.62    0.76
   0 -11 -13    2.86    0.44
   0 -11 -13    3.15    0.43
   0  11  13    2.75    0.42
   0  11  13    2.18    0.37
   0  11  13    3.79    0.44
  -1 -11 -13   11.24    0.68
  -1 -11 -13   10.74    0.67
   1  11  13   12.86    0.71
   1  11  13   12.11    0.70
   1   0 -14   23.76    0.91
   1   0 -14   23.60    0.97
  -1   0  14   24.18    0.96
  -1   0  14   22.91    0.92
   0   0 -14   11.66    0.66
   0   0 -14   12.01    0.71
   0   0  14   12.25    0.72
   0   0  14   12.03    0.70
   1  -1 -14    0.58    0.25
   1  -1 -14    0.51    0.24
   1  -1 -14    0.74    0.27
  -1   1  14    0.46    0.23
  -1   1  14    0.64    0.24
   0  -1 -14    2.98    0.41
   0  -1 -14    2.97    0.38
   0   1  14    2.95    0.43
   0   1  14    3.71    0.46
  -1  -1 -14    0.76    0.25
  -1  -1 -14    1.37    0.29
   1   1  14    0.80    0.31
   1   1  14    1.72    0.36
   2  -2 -14   22.63    0.90
   2  -2 -14   23.84    0.97
  -2   2  14   23.72    0.96
   1  -2 -14   19.09    0.86
   1  -2 -14   20.33    0.82
   1  -2 -14   19.07    0.79
  -1   2  14   20.31    0.86
  -1   2  14   20.17    0.83
   0  -2 -14    4.58    0.50
   0  -2 -14    4.61    0.46
   0   2  14    4.58    0.50
   0   2  14    3.85    0.45
  -1  -2 -14   29.33    1.01
  -1  -2 -14   32.01    1.07
   1   2  14   31.15    1.12
   1   2  14   31.20    1.11
   2  -3 -14    0.88    0.28
   2  -3 -14    0.69    0.25
   2  -3 -14    0.40    0.25
  -2   3  14    0.49    0.22
  -2   3  14    0.52    0.27
   1  -3 -14    1.01    0.28
   1  -3 -14    0.55    0.23
   1  -3 -14    0.44    0.25
  -1   3  14    0.71    0.25
  -1   3  14    0.98    0.27
   0  -3 -14   21.15    0.88
   0  -3 -14   19.37    0.77
   0  -3 -14   21.91    0.86
   0   3  14   19.99    0.86
   0   3  14   19.14    0.83
  -1  -3 -14    3.29    0.39
  -1  -3 -14    3.59    0.42
   1   3  14    3.21    0.43
   1   3  14    3.79    0.47
  -2  -3 -14    9.81    0.65
  -2  -3 -14    8.93    0.58
   2   3  14    9.09    0.60
   2   3  14    9.50    0.64
   2   3  14    9.00    0.67
   2  -4 -14   16.74    0.76
   2  -4 -14   16.27    0.80
   2  -4 -14   17.09    0.76
  -2   4  14   15.22    0.72
  -2   4  14   16.63    0.80
   1  -4 -14   17.83    0.75
   1  -4 -14   18.42    0.83
   1  -4 -14   17.79    0.79
  -1   4  14   18.06    0.81
  -1   4  14   18.31    0.82
  -1   4  14   17.55    0.79
   0  -4 -14    6.07    0.54
   0  -4 -14    6.17    0.46
   0  -4 -14    6.98    0.59
   0   4  14    5.40    0.53
   0   4  14    7.16    0.52
   0   4  14    6.71    0.52
  -1  -4 -14   22.89    0.85
  -1  -4 -14   22.45    0.87
  -1  -4 -14   22.69    0.93
   1   4  14   23.33    0.94
   1   4  14   25.69    0.93
   1   4  14   22.24    0.92
  -2  -4 -14    3.34    0.44
  -2  -4 -14    3.22    0.40
   2   4  14    2.87    0.43
   2   4  14    3.61    0.44
   2   4  14    3.00    0.45
   2   4  14    3.18    0.44
   2  -5 -14    0.65    0.27
   2  -5 -14    1.16    0.30
   2  -5 -14    0.85    0.26
  -2   5  14    0.90    0.30
  -2   5  14    0.62    0.25
  -2   5  14    0.71    0.27
   1  -5 -14    6.98    0.51
   1  -5 -14    6.62    0.48
   1  -5 -14    7.14    0.53
  -1   5  14    7.05    0.51
  -1   5  14    6.81    0.51
  -1   5  14    7.82    0.56
   0  -5 -14    5.09    0.51
   0  -5 -14    4.74    0.49
   0  -5 -14    6.07    0.44
   0   5  14    5.02    0.51
   0   5  14    5.91    0.56
   0   5  14    4.84    0.49
  -1  -5 -14   10.93    0.58
  -1  -5 -14    9.53    0.64
  -1  -5 -14    9.80    0.60
   1   5  14   10.43    0.61
   1   5  14   10.37    0.65
   1   5  14    9.88    0.63
  -2  -5 -14   13.27    0.76
  -2  -5 -14   14.70    0.70
  -2  -5 -14   13.70    0.69
   2   5  14   14.66    0.79
   2   5  14   14.33    0.76
   2   5  14   13.83    0.69
   2   5  14   15.17    0.71
   2  -6 -14   13.23    0.73
   2  -6 -14   12.60    0.69
   2  -6 -14   12.96    0.65
  -2   6  14   12.78    0.70
  -2   6  14   13.11    0.70
  -2   6  14   13.56    0.75
   1  -6 -14   27.32    1.00
   1  -6 -14   26.29    0.87
   1  -6 -14   25.26    0.95
  -1   6  14   25.56    0.95
  -1   6  14   25.00    0.97
  -1   6  14   26.69    0.99
   0  -6 -14   29.91    0.92
   0  -6 -14   30.37    1.05
   0  -6 -14   29.32    1.03
   0   6  14   30.05    1.05
   0   6  14   29.82    1.03
   0   6  14   31.82    1.06
  -1  -6 -14    4.88    0.50
  -1  -6 -14    5.29    0.50
  -1  -6 -14    4.65    0.43
   1   6  14    5.30    0.52
   1   6  14    5.56    0.52
   1   6  14    4.67    0.50
  -2  -6 -14    0.20    0.21
  -2  -6 -14   -0.16    0.23
  -2  -6 -14    0.12    0.20
   2   6  14    0.51    0.23
   2   6  14    0.15    0.24
   2   6  14    0.46    0.26
   2   6  14    0.36    0.23
   1  -7 -14   12.82    0.68
   1  -7 -14   11.62    0.68
  -1   7  14   12.45    0.68
  -1   7  14   11.84    0.68
  -1   7  14   12.91    0.68
   0  -7 -14    2.73    0.33
   0  -7 -14    2.75    0.39
   0  -7 -14    2.77    0.40
   0   7  14    2.68    0.39
   0   7  14    2.75    0.40
   0   7  14    3.04    0.39
  -1  -7 -14    8.73    0.50
  -1  -7 -14    8.71    0.55
  -1  -7 -14    8.12    0.59
   1   7  14    9.21    0.60
   1   7  14    7.83    0.58
   1   7  14    8.52    0.55
  -2  -7 -14    8.07    0.55
  -2  -7 -14    9.06    0.55
  -2  -7 -14    8.39    0.62
   2   7  14    8.32    0.60
   2   7  14    9.56    0.56
   2   7  14    8.90    0.62
   2   7  14    8.96    0.57
   1  -8 -14   14.03    0.75
   1  -8 -14   13.85    0.72
  -1   8  14   13.36    0.72
  -1   8  14   13.63    0.73
  -1   8  14   13.50    0.73
   0  -8 -14   14.30    0.73
   0  -8 -14   13.98    0.73
   0   8  14   14.98    0.73
   0   8  14   14.01    0.73
   0   8  14   14.09    0.73
  -1  -8 -14    3.56    0.43
  -1  -8 -14    3.40    0.43
   1   8  14    4.04    0.44
   1   8  14    4.76    0.49
   1   8  14    4.23    0.49
  -2  -8 -14    0.45    0.26
  -2  -8 -14    0.33    0.22
   2   8  14    0.47    0.27
   2   8  14   -0.04    0.21
   2   8  14    0.26    0.22
   1  -9 -14    4.85    0.53
   1  -9 -14    3.79    0.47
  -1   9  14    4.59    0.51
  -1   9  14    4.31    0.51
  -1   9  14    4.22    0.49
   0  -9 -14   13.14    0.73
   0  -9 -14   12.78    0.71
   0   9  14   13.14    0.71
   0   9  14   12.93    0.71
   0   9  14   13.37    0.72
  -1  -9 -14   11.30    0.66
  -1  -9 -14   10.98    0.66
   1   9  14   12.00    0.67
   1   9  14   10.24    0.64
   1   9  14   10.21    0.63
   0 -10 -14    2.54    0.39
   0 -10 -14    2.54    0.42
   0  10  14    2.31    0.38
   0  10  14    2.96    0.45
   0  10  14    2.65    0.41
  -1 -10 -14    0.22    0.25
  -1 -10 -14    0.68    0.28
   1  10  14    0.75    0.27
   1  10  14    1.21    0.31
   1  10  14    0.69    0.27
   0  -2 -15    0.30    0.24
   0  -2 -15    0.10    0.23
   0   2  15    0.05    0.22
   0   2  15    0.10    0.24
   1  -3 -15   40.67    1.28
   1  -3 -15   42.19    1.24
   1  -3 -15   42.86    1.33
  -1   3  15   40.80    1.30
  -1   3  15   42.24    1.29
   0  -3 -15   34.02    1.15
   0  -3 -15   32.44    1.07
   0  -3 -15   33.04    1.16
   0   3  15   31.70    1.15
   0   3  15   32.40    1.15
   1  -4 -15    0.28    0.24
   1  -4 -15    0.03    0.21
   1  -4 -15    0.00    0.22
  -1   4  15    0.02    0.22
  -1   4  15    0.26    0.25
   0  -4 -15    0.16    0.23
   0  -4 -15    0.52    0.23
   0  -4 -15    0.14    0.23
   0   4  15   -0.01    0.21
   0   4  15    0.70    0.29
   0   4  15    0.16    0.22
  -1  -4 -15    0.36    0.24
  -1  -4 -15    0.29    0.25
  -1  -4 -15    0.64    0.26
   1   4  15    0.72    0.32
   1   4  15    0.22    0.26
   1   4  15    0.14    0.23
   1  -5 -15   25.05    0.91
   1  -5 -15   24.06    0.99
   1  -5 -15   23.78    0.96
  -1   5  15   22.99    0.96
  -1   5  15   25.54    0.98
  -1   5  15   22.17    0.96
   0  -5 -15    9.73    0.67
   0  -5 -15   11.99    0.63
   0  -5 -15   11.81    0.70
   0   5  15   11.88    0.69
   0   5  15   10.86    0.68
   0   5  15   10.16    0.65
  -1  -5 -15    6.46    0.63
  -1  -5 -15    5.90    0.51
  -1  -5 -15    7.34    0.56
   1   5  15    6.58    0.61
   1   5  15    6.50    0.63
   1   5  15    6.58    0.63
   1  -6 -15    1.00    0.26
   1  -6 -15    1.22    0.31
   1  -6 -15    0.63    0.26
  -1   6  15    0.40    0.23
  -1   6  15    1.21    0.31
  -1   6  15    0.97    0.32
   0  -6 -15    4.50    0.42
   0  -6 -15    5.03    0.54
   0  -6 -15    4.81    0.53
   0   6  15    5.25    0.53
   0   6  15    5.22    0.54
   0   6  15    4.61    0.53
  -1  -6 -15    8.42    0.55
  -1  -6 -15    8.44    0.63
  -1  -6 -15    7.54    0.55
   1   6  15    7.74    0.60
   1   6  15    8.70    0.59
   1   6  15    8.29    0.62
   0  -7 -15    2.30    0.48
   0  -7 -15    2.38    0.41
   0  -7 -15    2.49    0.39
   0   7  15    2.38    0.37
   0   7  15    2.96    0.43
   0   7  15    3.25    0.46
  -1  -7 -15   12.43    0.63
  -1  -7 -15   11.67    0.69
  -1  -7 -15   11.88    0.71
   1   7  15   12.64    0.73
   1   7  15   13.08    0.74
   1   7  15   10.71    0.64
   0  -8 -15    5.78    0.56
   0  -8 -15    5.88    0.58
   0   8  15    6.45    0.58
   0   8  15    6.95    0.60
   0   8  15    5.97    0.57
   1   8  15    7.15    0.63
   0   0   0    0.00    0.00
;
_shelx_hkl_checksum              21835
loop_
_space_group_symop_operation_xyz
'x, y, z'
'-x, -y, -z'
loop_
_atom_site_label
_atom_site_type_symbol
_atom_site_fract_x
_atom_site_fract_y
_atom_site_fract_z
_atom_site_U_iso_or_equiv
_atom_site_adp_type
_atom_site_occupancy
_atom_site_site_symmetry_order
_atom_site_calc_flag
_atom_site_refinement_flags_posn
_atom_site_refinement_flags_adp
Br1 Br 1.46010(4) 0.73797(2) -0.21698(2) 0.02536(7) Uani 1 1 d . .
C1 C 1.2024(4) 0.75580(16) -0.10492(14) 0.0194(3) Uani 1 1 d . .
C3 C 0.9469(4) 0.66722(15) 0.06396(13) 0.0182(3) Uani 1 1 d . .
C2 C 1.1523(4) 0.65301(16) -0.01526(14) 0.0199(3) Uani 1 1 d . .
H2 H 1.2522 0.5742 -0.0062 0.024 Uiso 1 1 calc R U
C4 C 1.0592(4) 0.87754(16) -0.12083(14) 0.0218(4) Uani 1 1 d . .
H4 H 1.1001 0.9464 -0.1823 0.026 Uiso 1 1 calc R U
C7 C 0.8740(4) 0.56530(16) 0.15765(14) 0.0220(4) Uani 1 1 d . .
H7 H 0.9653 0.4842 0.1706 0.026 Uiso 1 1 calc R U
C6 C 0.7987(4) 0.78874(16) 0.04899(13) 0.0188(3) Uani 1 1 d . .
C9 C 0.5371(4) 0.71157(17) 0.20922(14) 0.0207(4) Uani 1 1 d . .
C8 C 0.6690(4) 0.58699(17) 0.22878(14) 0.0231(4) Uani 1 1 d . .
H8 H 0.6158 0.5205 0.2899 0.028 Uiso 1 1 calc R U
C5 C 0.8602(4) 0.89292(16) -0.04491(14) 0.0211(4) Uani 1 1 d . .
H5 H 0.7643 0.9727 -0.0551 0.025 Uiso 1 1 calc R U
C10 C 0.3285(4) 0.73764(18) 0.29246(15) 0.0251(4) Uani 1 1 d . .
H10A H 0.2254 0.6661 0.3302 0.030 Uiso 1 1 calc R U
H10B H 0.1763 0.8094 0.2540 0.030 Uiso 1 1 calc R U
N1 N 0.5971(3) 0.80908(13) 0.12271(11) 0.0201(3) Uani 1 1 d . .
C11 C 0.5076(4) 0.76342(16) 0.37702(14) 0.0204(4) Uani 1 1 d . .
C16 C 0.5394(4) 0.88494(17) 0.36182(15) 0.0249(4) Uani 1 1 d . .
H16 H 0.4437 0.9514 0.3003 0.030 Uiso 1 1 calc R U
C12 C 0.6554(4) 0.66636(18) 0.46913(15) 0.0287(4) Uani 1 1 d . .
H12 H 0.6398 0.5841 0.4803 0.034 Uiso 1 1 calc R U
C15 C 0.7112(5) 0.9086(2) 0.43678(17) 0.0326(4) Uani 1 1 d . .
H15 H 0.7301 0.9907 0.4253 0.039 Uiso 1 1 calc R U
C14 C 0.8544(5) 0.8115(2) 0.52839(16) 0.0348(5) Uani 1 1 d . .
H14 H 0.9695 0.8276 0.5789 0.042 Uiso 1 1 calc R U
C13 C 0.8255(4) 0.6901(2) 0.54453(15) 0.0354(5) Uani 1 1 d . .
H13 H 0.9207 0.6239 0.6064 0.043 Uiso 1 1 calc R U
loop_
_atom_site_aniso_label
_atom_site_aniso_U_11
_atom_site_aniso_U_22
_atom_site_aniso_U_33
_atom_site_aniso_U_23
_atom_site_aniso_U_13
_atom_site_aniso_U_12
Br1 0.02367(11) 0.02821(11) 0.02570(11) -0.01290(8) 0.00389(7) -0.00176(7)
C1 0.0158(8) 0.0235(9) 0.0211(8) -0.0115(7) -0.0019(6) -0.0013(7)
C3 0.0171(8) 0.0187(8) 0.0197(8) -0.0092(7) -0.0055(6) 0.0004(6)
C2 0.0188(8) 0.0186(8) 0.0234(8) -0.0110(7) -0.0055(7) 0.0025(7)
C4 0.0228(9) 0.0187(9) 0.0229(8) -0.0067(7) -0.0017(7) -0.0030(7)
C7 0.0251(9) 0.0171(8) 0.0227(8) -0.0078(7) -0.0055(7) 0.0011(7)
C6 0.0162(8) 0.0205(9) 0.0222(8) -0.0116(7) -0.0039(6) -0.0007(7)
C9 0.0163(8) 0.0259(9) 0.0231(8) -0.0128(7) -0.0033(6) -0.0035(7)
C8 0.0241(9) 0.0226(9) 0.0212(8) -0.0067(7) -0.0023(7) -0.0043(7)
C5 0.0208(9) 0.0162(8) 0.0259(9) -0.0087(7) -0.0029(7) 0.0004(7)
C10 0.0176(9) 0.0303(10) 0.0295(9) -0.0135(8) 0.0037(7) -0.0053(7)
N1 0.0164(7) 0.0219(8) 0.0238(7) -0.0114(6) -0.0018(6) -0.0008(6)
C11 0.0150(8) 0.0260(9) 0.0212(8) -0.0101(7) 0.0083(6) -0.0040(7)
C16 0.0244(9) 0.0238(9) 0.0247(9) -0.0083(7) 0.0036(7) -0.0010(7)
C12 0.0307(10) 0.0245(10) 0.0268(9) -0.0052(8) 0.0068(8) -0.0053(8)
C15 0.0338(11) 0.0352(11) 0.0372(11) -0.0216(9) 0.0074(8) -0.0106(9)
C14 0.0285(10) 0.0572(14) 0.0267(10) -0.0229(10) 0.0044(8) -0.0134(9)
C13 0.0294(10) 0.0458(13) 0.0203(9) -0.0031(8) 0.0001(8) 0.0008(9)
loop_
_atom_type_symbol
_atom_type_description
_atom_type_scat_dispersion_real
_atom_type_scat_dispersion_imag
_atom_type_scat_source
C C 0.0033 0.0016 'International Tables Vol C Tables 4.2.6.8 and 6.1.1.4'
H H 0.0000 0.0000 'International Tables Vol C Tables 4.2.6.8 and 6.1.1.4'
N N 0.0061 0.0033 'International Tables Vol C Tables 4.2.6.8 and 6.1.1.4'
Br Br -0.2901 2.4595 'International Tables Vol C Tables 4.2.6.8 and 6.1.1.4'
loop_
_geom_angle_atom_site_label_1
_geom_angle_atom_site_label_2
_geom_angle_atom_site_label_3
_geom_angle
C2 C1 C4 122.12(16)
C2 C1 Br1 120.08(13)
C4 C1 Br1 117.76(13)
C7 C3 C2 123.12(15)
C7 C3 C6 117.45(15)
C2 C3 C6 119.41(15)
C1 C2 C3 119.32(15)
C5 C4 C1 119.29(16)
C8 C7 C3 119.36(16)
N1 C6 C5 118.38(15)
N1 C6 C3 122.37(15)
C5 C6 C3 119.25(15)
N1 C9 C8 123.02(16)
N1 C9 C10 116.92(15)
C8 C9 C10 120.00(16)
C7 C8 C9 119.58(16)
C4 C5 C6 120.60(16)
C9 C10 C11 110.26(14)
C9 N1 C6 118.18(14)
C16 C11 C12 118.05(16)
C16 C11 C10 120.73(16)
C12 C11 C10 121.16(16)
C15 C16 C11 120.93(17)
C13 C12 C11 121.04(18)
C14 C15 C16 120.45(19)
C15 C14 C13 119.30(18)
C12 C13 C14 120.23(18)
loop_
_geom_bond_atom_site_label_1
_geom_bond_atom_site_label_2
_geom_bond_distance
Br1 C1 1.9015(17)
C1 C2 1.360(2)
C1 C4 1.414(2)
C3 C7 1.413(2)
C3 C2 1.412(2)
C3 C6 1.421(2)
C4 C5 1.366(3)
C7 C8 1.361(3)
C6 N1 1.371(2)
C6 C5 1.413(2)
C9 N1 1.316(2)
C9 C8 1.418(2)
C9 C10 1.510(2)
C10 C11 1.515(2)
C11 C16 1.386(3)
C11 C12 1.387(2)
C16 C15 1.382(3)
C12 C13 1.382(3)
C15 C14 1.377(3)
C14 C13 1.380(3)
