#------------------------------------------------------------------------------
#$Date: 2017-07-25 13:40:16 +0300 (Tue, 25 Jul 2017) $
#$Revision: 199305 $
#$URL: file:///home/coder/svn-repositories/cod/cif/1/54/67/1546709.cif $
#------------------------------------------------------------------------------
#
# This file is available in the Crystallography Open Database (COD),
# http://www.crystallography.net/. The original data for this entry
# were provided by IUCr Journals, http://journals.iucr.org/.
#
# The file may be used within the scientific community so long as
# proper attribution is given to the journal article from which the
# data were obtained.
#
data_1546709
loop_
_publ_author_name
'Bourichi, Selma'
'Kandri Rodi, Youssef'
'Jasinski, Jerry P.'
'Kaur, Manpreet'
'Ouzidan, Younes'
'Essassi, El Mokhtar'
_publ_section_title
;
 4-Benzyl-6-bromo-2-(4-chlorophenyl)-4<i>H</i>-imidazo[4,5-<i>b</i>]pyridine
;
_journal_coeditor_code           VM4023
_journal_issue                   6
_journal_name_full               IUCrData
_journal_page_first              x170899
_journal_paper_doi               10.1107/S2414314617008999
_journal_volume                  2
_journal_year                    2017
_chemical_formula_iupac          'C19 H13 Br Cl N3'
_chemical_formula_moiety         'C19 H13 Br Cl N3'
_chemical_formula_sum            'C19 H13 Br Cl N3'
_chemical_formula_weight         398.68
_chemical_name_systematic
;
4-Benzyl-6-bromo-2-(4-chlorophenyl)-4<i>H</i>-imidazo[4,5-<i>b</i>]pyridine
;
_space_group_crystal_system      triclinic
_space_group_IT_number           2
_space_group_name_Hall           '-P 1'
_space_group_name_H-M_alt        'P -1'
_symmetry_space_group_name_Hall  '-P 1'
_symmetry_space_group_name_H-M   'P -1'
_atom_sites_solution_hydrogens   geom
_atom_sites_solution_primary     dual
_audit_creation_method
;
Olex2 1.2
(compiled 2017.03.28 svn.r3405 for OlexSys, GUI svn.r5337)
;
_cell_angle_alpha                76.030(6)
_cell_angle_beta                 66.511(7)
_cell_angle_gamma                85.843(6)
_cell_formula_units_Z            2
_cell_length_a                   8.7749(7)
_cell_length_b                   9.9403(7)
_cell_length_c                   10.4475(8)
_cell_measurement_reflns_used    2096
_cell_measurement_temperature    293(2)
_cell_measurement_theta_max      71.2150
_cell_measurement_theta_min      4.5580
_cell_volume                     810.76(12)
_computing_cell_refinement
;
CrysAlis PRO (Rigaku Oxford Diffraction, 2015)
;
_computing_data_collection
;
CrysAlis PRO (Rigaku Oxford Diffraction, 2015)
;
_computing_data_reduction
;
CrysAlis PRO (Rigaku Oxford Diffraction, 2015)
;
_computing_molecular_graphics
;
OLEX2 (Dolomanov <i>et al.</i>,  2009)
;
_computing_publication_material
;
OLEX2 (Dolomanov <i>et al.</i>,  2009)
;
_computing_structure_refinement
;
SHELXL (Sheldrick, 2015b)
;
_computing_structure_solution
;
SHELXT2014 (Sheldrick, 2015a)
;
_diffrn_ambient_temperature      293(2)
_diffrn_detector_area_resol_mean 16.0416
_diffrn_measured_fraction_theta_full 0.999
_diffrn_measured_fraction_theta_max 0.977
_diffrn_measurement_device       'four-circle diffractometer'
_diffrn_measurement_device_type  'Rigaku Oxford Diffraction'
_diffrn_measurement_method       '\w scans'
_diffrn_radiation_monochromator  graphite
_diffrn_radiation_type           CuK\a
_diffrn_radiation_wavelength     1.54184
_diffrn_reflns_av_R_equivalents  0.0373
_diffrn_reflns_limit_h_max       10
_diffrn_reflns_limit_h_min       -6
_diffrn_reflns_limit_k_max       12
_diffrn_reflns_limit_k_min       -11
_diffrn_reflns_limit_l_max       12
_diffrn_reflns_limit_l_min       -12
_diffrn_reflns_number            5047
_diffrn_reflns_theta_full        67.684
_diffrn_reflns_theta_max         71.273
_diffrn_reflns_theta_min         4.586
_exptl_absorpt_coefficient_mu    5.002
_exptl_absorpt_correction_T_max  1.00000
_exptl_absorpt_correction_T_min  0.39291
_exptl_absorpt_correction_type   multi-scan
_exptl_absorpt_process_details
;
(CrysAlis PRO; Rigaku Oxford Diffraction, 2015)
;
_exptl_crystal_colour            yellow
_exptl_crystal_density_diffrn    1.633
_exptl_crystal_description       irregular
_exptl_crystal_F_000             400
_exptl_crystal_size_max          0.14
_exptl_crystal_size_mid          0.12
_exptl_crystal_size_min          0.06
_refine_diff_density_max         0.644
_refine_diff_density_min         -0.604
_refine_ls_extinction_coef       0.0012(4)
_refine_ls_extinction_expression Fc^*^=kFc[1+0.001xFc^2^\l^3^/sin(2\q)]^-1/4^
_refine_ls_extinction_method
;
SHELXT2014 (Sheldrick, 2015a)
;
_refine_ls_goodness_of_fit_ref   1.040
_refine_ls_hydrogen_treatment    constr
_refine_ls_matrix_type           full
_refine_ls_number_parameters     218
_refine_ls_number_reflns         3076
_refine_ls_number_restraints     0
_refine_ls_restrained_S_all      1.040
_refine_ls_R_factor_all          0.0517
_refine_ls_R_factor_gt           0.0443
_refine_ls_shift/su_max          0.001
_refine_ls_shift/su_mean         0.000
_refine_ls_structure_factor_coef Fsqd
_refine_ls_weighting_details
'w=1/[\s^2^(Fo^2^)+(0.0674P)^2^+0.2037P] where P=(Fo^2^+2Fc^2^)/3'
_refine_ls_weighting_scheme      calc
_refine_ls_wR_factor_gt          0.1162
_refine_ls_wR_factor_ref         0.1244
_reflns_number_gt                2637
_reflns_number_total             3076
_reflns_threshold_expression     'I > 2\s(I)'
_cod_data_source_file            vm4023sup1.cif
_cod_data_source_block           I
_cod_database_code               1546709
_shelx_space_group_comment
;
The symmetry employed for this shelxl refinement is uniquely defined
by the following loop, which should always be used as a source of
symmetry information in preference to the above space-group names.
They are only intended as comments.
;
_shelx_hkl_file
;
   0   0   1  360.30   13.97
   0   0  -1  389.65   12.13
   0   0  -2    1.49    0.64
   0   0   2    1.10    0.49
   0   0  -2    0.91    0.31
   0   0   2    1.72    1.66
   0   0  -3   18.49    1.96
   0   0   3   19.19    3.37
   0   0   3   15.34    1.83
   0   0   4 1337.20   49.48
   0   0  -4 1346.89   44.93
   0   0  -5   46.88    4.35
   0   0   5   41.79    5.84
   0   0   6  101.18    9.91
   0   0   7    7.81    2.93
   0   0  -7    6.72    1.65
   0   0  -8   51.17    5.02
   0   0  -8   41.90    5.03
   0   0  -9  136.50    8.58
   0   0  -9  129.79    8.56
   0   0 -10   36.71    3.86
   0   0 -10   32.88    4.20
   0   0 -11    0.25    0.75
   0   1 -10   17.60    2.73
   0   1 -10   25.82    3.49
   0   1  -9    1.45    1.33
   0   1  -9    1.45    1.32
   0   1  -9    0.83    1.10
   0   1  -8    0.60    1.11
   0   1  -8    1.48    1.43
   0   1  -8    0.79    1.02
   0   1  -7  190.91   10.47
   0   1  -7  193.58   11.27
   0  -1   6  210.21   15.14
   0  -1   5  335.57   18.91
   0  -1   4  127.74    9.81
   0  -1   3   11.92    3.00
   0   1  -3   13.06    1.87
   0  -1   3   12.20    1.82
   0   1  -2  580.66   18.86
   0   1  -2  604.49   19.18
   0  -1   2  565.74   22.58
   0  -1   1   39.81    2.98
   0   1  -1   42.51    2.16
   0   1   0  110.01    4.63
   0   1   0  115.28    4.44
   0  -1   0  120.01    4.19
   0   1   1  176.62    6.33
   0   1   1  186.95    7.38
   0   1   2 1481.84   45.81
   0   1   2 1394.92   49.00
   0  -1  -2 1500.09   46.71
   0  -1  -3 1045.22   32.97
   0   1   3  884.38   36.15
   0   1   4   11.92    2.86
   0  -1  -4    7.38    1.42
   0   1   5 1000.76   40.90
   0  -1  -5 1023.91   35.74
   0   1   6   19.24    4.45
   0   1   7    1.52    1.68
   0  -1  -8   69.95    6.55
   0  -1  -8   84.05    6.43
   0  -1  -9  111.86    7.76
   0  -1  -9   89.44    7.80
   0  -1 -10   -1.28    1.29
   0  -1 -11    2.00    1.27
   0   2 -10    4.78    1.47
   0   2  -9   25.72    3.60
   0   2  -9   24.11    3.43
   0   2  -9   25.49    3.73
   0   2  -8    0.88    1.04
   0   2  -8   -0.13    1.22
   0   2  -8    0.69    1.09
   0   2  -7   60.53    5.34
   0   2  -7   54.99    5.59
   0  -2   6  216.14   15.89
   0  -2   5  669.07   31.27
   0   2  -4   28.86    2.76
   0  -2   4   32.12    5.01
   0   2  -3   28.04    2.66
   0   2  -3   31.17    2.35
   0  -2   3   27.61    4.22
   0  -2   2  177.32   10.10
   0  -2   2  179.36    8.35
   0   2  -2  195.18    7.92
   0  -2   1 2575.48   81.28
   0   2  -1 2605.23   81.28
   0   2   0   20.22    1.81
   0   2   0   18.81    1.53
   0   2   0   18.57    2.02
   0  -2   0   20.83    1.49
   0   2   1   91.73    4.40
   0   2   1   97.00    5.20
   0   2   1   93.57    4.45
   0   2   2 1100.25   35.75
   0   2   2 1134.92   38.22
   0   2   3 1841.91   65.14
   0  -2  -3 2024.08   61.77
   0   2   3 1905.40   60.81
   0  -2  -4  658.68   22.69
   0   2   4  580.91   26.58
   0  -2  -5  704.17   25.65
   0   2   6    5.08    2.69
   0   2   7   76.64    9.30
   0  -2  -8   46.66    4.59
   0  -2  -8   43.64    5.02
   0  -2  -9   50.36    4.85
   0  -2  -9   31.83    4.50
   0  -2 -10    0.37    1.32
   0  -2 -11    0.83    1.17
   0   3 -10   40.85    3.76
   0   3  -9    5.14    1.75
   0   3  -8   10.94    2.36
   0   3  -8   11.41    2.62
   0   3  -7   93.86    6.93
   0   3  -7   99.98    7.24
   0   3  -6   64.69    5.24
   0  -3   5    9.09    3.27
   0   3  -4   32.20    3.44
   0  -3   4   38.49    5.82
   0   3  -3  472.76   18.95
   0   3  -3  502.16   18.42
   0  -3   3  466.95   22.80
   0   3  -2  526.75   19.21
   0  -3   2  493.93   22.04
   0  -3   1 1074.33   35.08
   0   3  -1 1048.12   37.24
   0   3  -1 1027.12   35.30
   0   3   0 1162.17   38.28
   0   3   0 1135.00   39.25
   0   3   1  289.96   11.38
   0   3   1  285.03   12.43
   0   3   1  276.35   11.12
   0   3   2  457.68   18.37
   0   3   2  436.15   16.23
   0   3   2  431.44   16.10
   0   3   3  735.31   28.22
   0  -3  -3  748.49   25.77
   0   3   3  668.86   24.43
   0  -3  -4 1219.05   39.85
   0   3   4 1124.95   44.52
   0   3   5   57.88    6.89
   0   3   6    5.47    2.85
   0   3   7  199.86   15.75
   0  -3  -8  129.48    9.19
   0  -3  -9   24.32    3.93
   0  -3 -10    7.81    2.46
   0  -3 -11   10.42    2.23
   0   4  -9   43.86    4.34
   0   4  -9   45.43    4.22
   0   4  -8   54.70    5.25
   0   4  -7    3.60    1.37
   0   4  -7    4.64    1.46
   0   4  -6  239.97   12.30
   0   4  -6  248.63   12.24
   0  -4   5   -5.30    2.80
   0   4  -4   10.00    2.11
   0  -4   4   11.03    3.73
   0   4  -3  542.56   23.27
   0  -4   3  589.13   28.21
   0  -4   2 2351.50   84.77
   0   4  -2 2558.57   80.96
   0   4  -1   42.53    3.89
   0   4  -1   40.16    4.70
   0   4   0   76.03    5.24
   0   4   0   78.98    6.18
   0   4   1   52.92    3.28
   0   4   1   47.83    4.02
   0   4   1   49.01    4.74
   0   4   2  505.46   18.82
   0   4   2  530.07   21.25
   0   4   3  108.95    8.19
   0   4   3   97.83    6.03
   0   4   4  197.99    9.58
   0   4   4  198.58   12.90
   0   4   5   20.93    4.24
   0   4   6  111.10   10.90
   0  -4  -7    4.54    1.60
   0   4   7    5.63    1.76
   0   4   8  199.90   12.00
   0  -4  -8  176.27   11.24
   0  -4  -9    1.34    1.54
   0  -4 -10    0.66    1.35
   0  -4 -11    2.21    1.30
   0   5  -9    0.47    0.70
   0   5  -9    0.74    1.05
   0   5  -8   21.31    3.07
   0   5  -8   21.27    3.13
   0   5  -7   14.24    2.69
   0   5  -6   26.42    3.48
   0   5  -5   28.71    3.44
   0   5  -5   31.76    3.68
   0  -5   4  350.75   22.57
   0   5  -4  314.33   16.10
   0  -5   3  103.34   10.67
   0   5  -3   98.69    7.48
   0  -5   2  445.68   23.29
   0   5  -2  435.26   19.26
   0   5  -2  449.79   19.20
   0   5  -1   82.30    6.32
   0  -5   1   86.17    8.11
   0   5   0  130.92    8.03
   0   5   0  133.04    9.40
   0   5   1    3.25    1.39
   0   5   1    5.40    2.13
   0   5   2  353.46   16.86
   0   5   2  294.72   14.04
   0   5   3  691.82   26.85
   0   5   3  751.07   30.59
   0   5   4   29.83    4.87
   0   5   4   29.52    3.53
   0   5   5   39.08    6.03
   0   5   6  232.07   17.26
   0   5   7   86.35    7.23
   0  -5  -7   87.80    7.07
   0  -5  -8   29.84    4.22
   0   5   8   30.01    4.39
   0  -5  -9   20.77    3.56
   0   5   9   27.79    3.91
   0  -5 -10   46.85    5.01
   0  -5 -11   13.99    2.33
   0   6  -8    6.04    1.61
   0   6  -8    6.02    1.59
   0   6  -7   83.85    6.51
   0   6  -7   83.21    6.30
   0   6  -6   -0.42    1.65
   0   6  -6   -2.55    1.27
   0   6  -5   22.97    3.16
   0   6  -4   54.80    4.73
   0   6  -3  360.77   15.60
   0  -6   2   45.38    7.27
   0   6  -2   47.73    5.19
   0   6  -2   44.99    5.15
   0   6  -1   14.39    2.85
   0  -6   1   15.12    3.94
   0   6  -1   14.04    2.79
   0   6   0  203.56   11.62
   0   6   0  198.04   11.35
   0   6   0  222.86   14.29
   0   6   1  317.64   17.29
   0   6   1  274.25   14.28
   0   6   2  299.11   16.75
   0   6   2  261.55   13.90
   0   6   3  529.52   24.91
   0   6   3  473.42   21.20
   0   6   4    8.06    2.17
   0   6   4    7.74    2.94
   0   6   5  115.79   11.25
   0   6   6  151.85    9.77
   0  -6  -6  156.60    9.55
   0  -6  -7  256.72   13.43
   0   6   7  234.98   13.56
   0  -6  -8   18.00    3.17
   0   6   8   19.12    3.48
   0  -6  -9    1.53    1.34
   0   6   9    1.57    1.24
   0  -6 -10   20.14    3.03
   0  -6 -11    6.24    1.51
   0   7  -7    0.59    0.95
   0   7  -7   -0.01    0.71
   0   7  -6    6.60    2.11
   0   7  -6    5.35    1.59
   0   7  -5  126.36    8.63
   0   7  -5  123.91    7.97
   0   7  -4   84.49    6.77
   0   7  -3   45.95    4.78
   0   7  -2   70.00    5.78
   0   7  -1  377.43   16.72
   0   7  -1  404.14   19.52
   0   7   0  351.22   17.81
   0   7   0  349.08   18.14
   0   7   1  345.42   18.05
   0   7   1  389.22   21.69
   0   7   1  372.73   17.85
   0   7   2  187.87   14.03
   0   7   2  182.08   10.92
   0   7   2  164.64   11.16
   0   7   3    3.07    1.30
   0   7   3    2.25    1.81
   0   7   4    0.31    1.77
   0   7   4    1.11    1.20
   0   7   5  176.36   11.26
   0  -7  -6    2.79    1.55
   0   7   6   -0.41    1.04
   0   7   7    0.55    1.17
   0  -7  -7    3.90    1.76
   0  -7  -8    0.67    1.00
   0   7   8    0.75    1.41
   0   7   9   36.34    4.35
   0  -7  -9   33.10    3.92
   0  -7 -10    1.48    1.02
   0   7  10    6.10    1.50
   0   8  -6   12.46    2.35
   0   8  -5   13.41    2.71
   0   8  -4  141.77    9.28
   0   8  -3   29.68    3.92
   0   8  -2   33.87    4.13
   0   8  -1    3.52    1.40
   0   8   0  129.67    8.56
   0   8   1   46.34    4.75
   0   8   2  193.16   11.18
   0   8   3   -0.27    1.38
   0   8   4   19.69    3.41
   0   8   5  111.09    8.86
   0   8   6  193.19   12.09
   0   8   6  169.93   10.87
   0   8   7    8.50    2.42
   0  -8  -8    0.84    0.96
   0   8   8    1.81    1.60
   0  -8  -9   16.12    2.45
   0   8   9   13.92    2.56
   0   8  10   39.54    3.38
   0   9  -5   39.32    4.05
   0   9  -4   28.71    3.76
   0   9  -3   87.17    7.00
   0   9  -2   95.15    7.51
   0   9  -2   98.75    6.85
   0   9  -1  127.02    8.87
   0   9   0  178.55   10.95
   0   9   1    8.83    2.24
   0   9   1    7.99    2.20
   0   9   2   73.71    6.85
   0   9   2   88.38    7.38
   0   9   3   64.15    6.41
   0   9   4  254.43   14.47
   0   9   5   18.12    3.47
   0   9   5   19.69    3.27
   0   9   6  114.14    8.36
   0   9   6  127.75    9.27
   0   9   7    1.36    1.58
   0   9   8   48.43    4.96
   0   9   9    3.01    1.14
   0  10  -4    6.30    1.67
   0  10  -4    1.56    1.17
   0  10  -3    3.13    1.61
   0  10  -2    9.68    2.45
   0  10  -1  200.74   10.88
   0  10  -1  218.76   12.23
   0  10   0   24.18    3.76
   0  10   0   17.62    2.99
   0  10   0   25.58    4.57
   0  10   1   71.41    7.50
   0  10   1   64.02    6.25
   0  10   1   65.06    6.11
   0  10   2   17.11    3.41
   0  10   3    7.29    2.45
   0  10   4   60.72    5.39
   0  10   4   59.93    6.27
   0  10   5  102.23    7.28
   0  10   5   89.62    7.62
   0  10   6    0.18    1.29
   0  10   6    4.43    1.83
   0  10   7    4.17    1.68
   0  10   8   34.42    3.60
   0  11  -2   14.78    2.65
   0  11  -2   16.05    2.54
   0  11  -1   72.58    5.86
   0  11  -1   72.62    6.49
   0  11  -1   67.33    4.85
   0  11   0   47.78    4.42
   0  11   0   44.05    4.72
   0  11   0   38.25    4.77
   0  11   1    3.73    1.59
   0  11   1    2.45    1.50
   0  11   2    2.12    1.53
   0  11   3   57.02    5.69
   0  11   4   26.53    3.86
   0  11   4   28.76    3.18
   0  11   5   -0.21    1.08
   0  11   5    1.36    0.89
   0  11   6    3.16    1.31
   0  11   6   -1.58    0.98
   0  11   7   20.12    2.46
   0  12   2   47.98    4.31
   0  12   3   24.94    3.09
   0  12   4   40.13    3.82
  -1  12   2   27.36    3.02
  -1  11   6    9.86    1.78
  -1  11   5   74.38    5.47
  -1  11   5   85.93    5.64
  -1  11   4    3.32    1.26
  -1  11   4    6.59    1.72
  -1  11   3    2.40    1.44
  -1  11   3    3.32    1.25
   1 -11  -2    2.28    1.27
  -1  11   2    1.15    1.51
  -1  11   1  160.56    9.87
  -1  11   0   16.97    2.83
  -1  11  -1   17.39    2.89
  -1  11  -1   19.79    3.04
  -1  11  -1   17.19    2.57
  -1  11  -2    1.26    1.08
  -1  11  -2    5.36    1.63
  -1  10   8   24.26    2.50
  -1  10   7   42.99    4.04
  -1  10   6   20.58    3.14
  -1  10   5   22.09    3.29
  -1  10   5   20.58    3.26
  -1  10   4   26.45    3.89
  -1  10   3   29.95    4.24
  -1  10   2   25.51    4.07
  -1  10   1   30.87    4.17
  -1  10   1   36.37    4.80
  -1  10   0   85.00    7.08
  -1  10   0   79.42    6.81
  -1  10   0   78.86    7.59
  -1  10  -1   18.80    3.17
  -1  10  -1   20.38    3.31
  -1  10  -2   12.43    2.32
  -1  10  -2   10.97    2.62
  -1  10  -3   35.01    3.38
  -1  10  -3   41.70    4.40
  -1  10  -4   98.31    6.54
  -1   9   8   46.14    4.17
   1  -9  -8   35.52    3.37
   1  -9  -7   -0.59    0.78
  -1   9   7    0.04    1.08
  -1   9   6   45.66    5.01
  -1   9   5    8.47    2.22
  -1   9   4    1.58    1.40
  -1   9   3   42.17    5.14
  -1   9   2  343.27   17.07
  -1   9   2  349.22   17.59
  -1   9   1   51.72    5.43
  -1   9   0   -1.45    1.46
  -1   9  -1   20.05    3.28
  -1   9  -2  208.64   11.84
  -1   9  -3   40.85    4.67
  -1   9  -4   67.03    5.89
  -1   9  -5    6.18    1.88
  -1   8   9   -0.62    0.76
   1  -8  -9    0.16    0.82
  -1   8   8   22.77    3.26
   1  -8  -8   23.40    3.17
   1  -8  -7   10.70    2.46
  -1   8   7    9.08    2.46
  -1   8   6   22.84    3.70
   1  -8  -6   23.69    3.54
  -1   8   5   96.87    7.72
   1  -8  -5   85.95    7.05
  -1   8   4  158.87   10.56
  -1   8   3  182.54   11.42
  -1   8   2  105.64    7.91
  -1   8   1  298.70   14.90
  -1   8   0    0.66    0.81
  -1   8  -1    6.93    1.78
  -1   8  -2    1.61    1.19
  -1   8  -3  285.37   14.29
  -1   8  -4   20.99    3.36
  -1   8  -5    3.88    1.67
  -1   8  -6   53.17    4.85
  -1   8  -7   38.79    3.57
   1  -7 -10   -1.27    0.80
  -1   7   9   12.25    2.19
   1  -7  -9   11.30    2.20
   1  -7  -8   49.14    5.13
  -1   7   8   60.56    5.60
  -1   7   7  168.19   10.62
   1  -7  -7  155.15   10.12
   1  -7  -6    2.88    1.60
   1  -7  -5    7.05    2.09
   1  -7  -4  175.47   10.52
  -1   7   4  160.76   10.34
  -1   7   3  592.91   30.49
  -1   7   3  611.13   27.11
  -1   7   2   38.13    6.39
  -1   7   2   34.34    4.84
  -1   7   1   11.55    2.86
  -1   7   1    7.27    3.04
  -1   7   0   57.26    6.23
  -1   7   0   76.88    9.44
   1  -7   1  676.81   35.15
  -1   7  -1  662.98   28.52
  -1   7  -1  646.64   25.35
  -1   7  -2   66.65    5.55
  -1   7  -3   22.70    3.21
  -1   7  -4    2.54    1.40
  -1   7  -5  205.50   10.84
  -1   7  -5  187.04   10.89
  -1   7  -6   43.65    4.40
  -1   7  -6   42.33    4.53
   1  -7   7   41.46    4.23
  -1   7  -7   35.44    3.79
   1  -6 -10    5.26    1.60
   1  -6  -9   29.96    3.84
  -1   6   8   26.10    3.69
   1  -6  -8   19.20    3.36
  -1   6   7   12.35    2.78
   1  -6  -7    9.17    2.53
   1  -6  -6   21.53    3.45
   1  -6  -5  116.34    8.30
  -1   6   4    3.00    1.91
  -1   6   3   68.19    7.86
  -1   6   3   65.27    6.21
  -1   6   2  219.96   15.02
  -1   6   2  236.24   13.01
  -1   6   1  198.25   11.65
  -1   6   1  204.26   14.07
  -1   6   0    2.35    1.41
  -1   6   0    4.10    2.04
   1  -6   1  292.32   19.22
  -1   6  -1  331.80   16.14
   1  -6   2  577.27   30.48
  -1   6  -2  533.65   23.57
  -1   6  -3   82.94    7.25
  -1   6  -3   78.04    5.82
   1  -6   3   98.08   11.82
  -1   6  -4  125.62    8.09
  -1   6  -4  134.06    7.86
  -1   6  -5   50.29    4.83
  -1   6  -5   42.89    4.36
  -1   6  -6   71.20    5.82
  -1   6  -6   71.66    5.93
  -1   6  -7   20.02    3.00
  -1   6  -7   24.29    3.35
  -1   6  -8   13.39    2.29
  -1   6  -8    7.32    1.89
   1  -5 -11    6.48    1.33
   1  -5 -10   17.24    2.80
   1  -5  -9    9.25    2.47
   1  -5  -8   14.17    3.04
   1  -5  -7   30.17    4.31
  -1   5   7   37.76    4.60
   1  -5  -6    4.77    1.86
  -1   5   6    2.38    0.98
  -1   5   5  292.61   18.80
  -1   5   4  903.85   38.58
  -1   5   3  213.44   13.88
  -1   5   3  207.73   11.17
  -1   5   2  137.02    8.48
  -1   5   2  134.44   10.03
  -1   5   1   19.88    2.91
  -1   5   1   24.64    4.02
  -1   5   0 2043.08   69.58
  -1   5   0 1929.12   66.04
  -1   5  -1  153.33   11.20
  -1   5  -1  134.88    8.44
   1  -5   2  262.11   16.85
  -1   5  -2  245.78   12.72
  -1   5  -3   12.94    2.49
   1  -5   3    9.58    3.28
   1  -5   4  161.13   15.11
  -1   5  -4  150.54    9.77
  -1   5  -5   78.76    5.76
  -1   5  -6  128.91    8.09
  -1   5  -7   16.55    2.75
  -1   5  -7   14.70    2.56
  -1   5  -8    3.70    1.71
  -1   5  -8    3.28    1.46
  -1   5  -9    9.07    1.78
  -1   5  -9   11.19    2.09
   1  -4 -11   -0.65    0.77
   1  -4 -10   47.54    4.80
   1  -4  -9   65.29    6.31
   1  -4  -8   47.83    5.45
   1  -4  -7   26.80    3.94
  -1   4   6  154.98   13.04
  -1   4   5  410.42   22.37
  -1   4   4  106.49    9.43
  -1   4   3  339.16   17.74
  -1   4   3  343.06   14.61
  -1   4   2   58.98    5.82
  -1   4   2   49.22    4.20
  -1   4   1   13.33    2.09
  -1   4   1   15.20    2.81
  -1   4   0 1643.01   55.38
  -1   4   0 1550.64   52.92
  -1   4  -1  369.02   15.63
  -1   4  -1  391.00   18.00
  -1   4  -2  238.96   11.15
   1  -4   2  200.15   13.35
   1  -4   3   43.70    6.38
  -1   4  -3   49.34    4.33
  -1   4  -4  377.52   16.71
   1  -4   4  349.62   22.30
   1  -4   5  222.07   17.84
  -1   4  -6   51.81    5.49
  -1   4  -6   52.51    4.64
  -1   4  -7   36.85    4.89
  -1   4  -7   30.53    3.70
  -1   4  -8   23.96    3.40
  -1   4  -8   30.48    4.40
  -1   4  -9   41.51    4.32
  -1   4  -9   46.49    4.21
  -1   4 -10    2.87    1.29
   1  -3 -11    3.78    1.18
   1  -3 -10    5.88    1.98
   1  -3  -9    2.60    1.57
   1  -3  -8    2.26    1.56
   1  -3  -7   17.99    3.20
  -1   3   6   92.64    9.60
  -1   3   5  634.23   29.39
  -1   3   4   47.81    5.72
   1  -3  -4   29.88    3.80
  -1   3   3   36.92    3.11
   1  -3  -3   37.11    4.36
  -1   3   3   34.84    4.59
  -1   3   2  110.77    5.92
  -1   3   2  107.57    7.55
  -1   3   1 1867.85   62.37
  -1   3   1 1880.42   60.60
  -1   3   0   38.15    3.22
  -1   3   0   36.78    3.64
  -1   3  -1  619.64   23.66
  -1   3  -1  613.94   22.12
  -1   3  -2  169.33    8.06
   1  -3   2  152.43    9.96
   1  -3   3    7.08    2.88
  -1   3  -3    4.06    1.19
   1  -3   4  152.50   12.39
   1  -3   5  946.75   42.52
   1  -3   6   60.09    8.68
  -1   3  -7    2.01    1.16
  -1   3  -7    0.72    0.97
  -1   3  -7    0.76    0.91
  -1   3  -8   29.42    4.24
  -1   3  -8   27.34    3.61
  -1   3  -9   86.76    6.59
  -1   3  -9   83.18    7.24
  -1   3 -10    0.74    1.00
   1  -2 -11   21.87    2.41
   1  -2 -10   37.20    4.20
   1  -2 -10   25.62    3.10
   1  -2  -9   16.24    2.86
   1  -2  -9   17.91    3.22
   1  -2  -8   15.43    2.94
   1  -2  -8    9.98    2.50
   1  -2  -7   91.70    7.57
   1  -2  -7  116.67    7.73
  -1   2   6  404.71   22.38
   1  -2  -5  200.78   11.42
  -1   2   5  206.40   13.76
   1  -2  -4  564.68   23.31
  -1   2   4  642.51   26.65
  -1   2   3  229.11    8.65
  -1   2   3  227.47   12.46
   1  -2  -3  225.15    9.16
  -1   2   3  230.38    8.84
   1  -2  -3  207.96   11.10
  -1   2   2   72.29    5.50
  -1   2   2   69.50    3.93
  -1   2   1 1500.87   50.38
  -1   2   1 1539.87   48.91
   1  -2   0 1505.38   46.99
  -1   2   0 1479.18   48.59
  -1   2   0 1486.24   48.00
  -1   2  -1  175.11    8.17
  -1   2  -1  171.19    7.42
  -1   2  -2   43.49    3.02
   1  -2   2   36.81    4.10
  -1   2  -3 2096.53   64.70
   1  -2   3 1826.54   69.52
   1  -2   4  209.42   13.99
   1  -2   5  243.23   16.42
   1  -2   6   13.85    4.21
  -1   2  -7  166.54    9.99
  -1   2  -7  150.21    8.74
  -1   2  -7  155.06    8.87
  -1   2  -8    1.03    1.19
  -1   2  -8    3.31    1.45
  -1   2  -9   24.48    3.38
  -1   2  -9   21.80    3.68
  -1   2 -10   17.70    3.25
  -1   2 -10   12.87    2.50
  -1   2 -11    1.51    0.86
   1  -1 -10   39.29    4.08
   1  -1 -10   57.23    4.99
   1  -1  -9   -0.75    1.55
   1  -1  -9   -0.28    1.03
   1  -1  -8   13.94    3.05
   1  -1  -8   23.67    3.61
   1  -1  -7    7.24    2.09
   1  -1  -7   12.44    2.48
  -1   1   6  363.69   20.33
   1  -1  -6  381.05   18.83
  -1   1   5   95.57    8.63
   1  -1  -5   92.87    7.24
   1  -1  -4   67.55    5.49
  -1   1   4   72.14    4.87
  -1   1   4   79.40    7.08
   1  -1  -3   25.36    2.86
  -1   1   3   20.84    3.35
  -1   1   3   17.44    1.91
   1  -1  -2 2846.89   88.61
   1  -1  -2 2668.75   86.61
  -1   1   2 2848.34   89.19
  -1   1   1 1578.97   51.32
  -1   1   0  193.94    7.10
   1  -1   0  175.96    6.32
   1  -1   1  771.30   25.72
   1  -1   2  221.87   10.63
   1  -1   3  414.63   20.34
  -1   1  -3  499.47   16.49
   1  -1   4  596.74   26.54
   1  -1   5    3.59    2.29
   1  -1   6   24.34    5.07
   1  -1   7   74.12    9.36
  -1   1  -8  438.98   18.21
  -1   1  -8  402.54   19.08
  -1   1  -8  404.45   17.93
  -1   1  -9    8.19    2.01
  -1   1  -9   11.15    2.68
  -1   1 -10   14.79    3.04
  -1   1 -10   14.52    2.50
  -1   1 -11    5.71    1.78
  -1   1 -11    3.52    1.16
   1   0 -10    1.54    1.16
   1   0 -10    2.76    1.23
   1   0  -9    1.23    1.10
   1   0  -9    0.36    1.06
   1   0  -9    1.23    1.33
   1   0  -8  140.63    9.42
   1   0  -8  131.82    9.42
   1   0  -7    1.57    1.16
   1   0  -7    0.25    0.88
  -1   0   6  242.79   15.88
   1   0  -6  243.07   14.53
  -1   0   5  333.81   18.14
   1   0  -5  327.73   16.19
  -1   0   4  222.85   10.96
  -1   0   4  240.63   13.57
   1   0  -4  234.97   11.74
  -1   0   3  293.12   12.48
   1   0  -3  335.29   13.58
  -1   0   3  312.62   15.00
   1   0  -2 1801.79   57.69
  -1   0   2 1742.92   59.04
  -1   0   1  125.41    6.46
  -1   0   1  139.42    5.01
  -1   0   0  936.29   29.06
   1   0   0  951.43   30.83
   1   0   0  879.97   30.27
   1   0   1  291.18   10.19
   1   0   2    5.31    1.54
   1   0   3  622.76   24.73
   1   0   4   51.94    5.85
   1   0   5   11.22    3.49
   1   0   6  144.16   12.27
   1   0   7   31.51    5.98
  -1   0  -8  137.75    8.06
  -1   0  -8  117.34    7.72
  -1   0  -8  117.55    8.45
  -1   0  -9   47.23    5.37
  -1   0  -9   47.00    4.73
  -1   0  -9   51.64    4.82
  -1   0 -10    1.29    1.50
  -1   0 -10    0.31    0.88
  -1   0 -11   -0.24    1.18
   1   1 -10   -0.34    0.87
   1   1  -9   10.53    2.55
   1   1  -9   16.18    2.88
   1   1  -9   15.61    2.65
   1   1  -8    1.19    1.26
   1   1  -8    0.74    1.02
   1   1  -7  478.69   20.15
   1   1  -7  391.89   19.34
  -1  -1   6   48.47    6.70
  -1  -1   5   63.78    7.07
   1   1  -5   57.89    5.90
   1   1  -4  133.89    8.48
  -1  -1   4  132.62    9.74
  -1  -1   4  133.37    8.23
   1   1  -3  934.21   32.94
  -1  -1   3  904.52   32.39
  -1  -1   3  956.59   35.36
   1   1  -2   75.35    4.70
  -1  -1   2   68.33    4.35
  -1  -1   2   71.20    5.54
  -1  -1   1  405.97   15.45
   1   1   0   46.55    2.63
   1   1   1   26.21    1.21
   1   1   1   25.61    1.68
   1   1   2 2449.12   76.09
   1   1   3 9999.00  310.44
   1   1   4  645.49   26.93
   1   1   5  104.97    9.19
   1   1   6   87.45    9.22
   1   1   7  523.19   27.90
  -1  -1  -8   19.73    2.80
  -1  -1  -8   16.15    2.83
  -1  -1  -9   34.46    3.95
  -1  -1  -9   31.09    4.35
  -1  -1 -10   11.12    2.71
  -1  -1 -11   36.82    4.32
  -1  -1 -12   11.91    1.92
   1   2 -10   -0.47    0.83
   1   2  -9   62.46    5.49
   1   2  -9   59.08    5.36
   1   2  -8   43.46    4.91
   1   2  -8   39.45    4.75
   1   2  -7   47.10    5.06
   1   2  -6   19.76    2.99
  -1  -2   5  314.95   18.37
  -1  -2   4  443.34   19.08
  -1  -2   4  394.28   20.68
  -1  -2   3  625.23   24.26
  -1  -2   3  654.13   26.94
   1   2  -3  638.84   24.48
  -1  -2   2  784.32   28.19
   1   2  -2  736.92   26.01
  -1  -2   2  697.41   25.77
   1   2  -2  701.91   25.13
   1   2  -1   67.94    4.17
   1   2  -1   74.82    4.33
  -1  -2   1   81.30    5.18
   1   2   0 1240.14   40.44
   1   2   0 1223.96   39.69
   1   2   0 1265.74   40.15
   1   2   1   56.84    3.19
   1   2   1   62.55    3.55
   1   2   1   58.17    3.37
   1   2   1   61.96    4.50
   1   2   2  284.01   10.27
   1   2   2  303.75   11.77
   1   2   3   11.73    2.17
   1   2   4  515.15   22.05
   1   2   5  603.24   26.91
   1   2   6  112.70   10.32
   1   2   7    3.71    2.26
  -1  -2  -8  154.75    9.57
  -1  -2  -8  142.93    8.32
  -1  -2  -9   20.08    3.52
  -1  -2  -9   25.56    3.32
  -1  -2 -10    0.52    1.30
  -1  -2 -11   31.15    4.10
  -1  -2 -12   21.84    2.70
   1   3  -9    0.84    1.08
   1   3  -8  121.61    8.44
   1   3  -8  115.30    8.12
   1   3  -7    1.66    1.33
   1   3  -6   27.21    3.59
  -1  -3   5   11.55    3.45
  -1  -3   4  561.39   26.88
   1   3  -3  159.25    8.80
  -1  -3   3  155.96    9.28
  -1  -3   3  155.86   11.04
  -1  -3   2  670.97   26.01
  -1  -3   2  755.61   28.78
   1   3  -2  719.72   26.05
  -1  -3   1   17.71    2.15
   1   3  -1   13.28    2.07
  -1  -3   1   17.27    2.77
   1   3  -1   17.11    2.22
   1   3   0  214.68    9.21
   1   3   0  197.43    9.37
   1   3   0  182.07    9.61
   1   3   0  204.68    9.05
  -1  -3   0  196.35    8.34
   1   3   1  416.24   16.18
   1   3   1  424.44   15.85
   1   3   1  420.11   15.49
   1   3   2  880.30   30.61
   1   3   2  843.18   29.47
   1   3   2  885.75   28.88
   1   3   3   18.92    2.42
   1   3   3   23.61    1.89
   1   3   3   20.37    2.92
   1   3   4    0.33    1.18
   1   3   5 1192.67   45.54
   1   3   6  548.08   26.90
   1   3   7  157.76   13.51
   1   3   8  133.31    9.58
  -1  -3  -8  140.89    9.13
  -1  -3  -9   27.05    4.02
  -1  -3 -10   48.80    5.40
  -1  -3 -11    2.88    1.54
  -1  -3 -12    3.59    1.22
   1   4  -9    2.91    1.13
   1   4  -9    2.07    1.22
   1   4  -8   45.97    4.69
   1   4  -7  105.44    7.44
   1   4  -7   90.97    7.29
   1   4  -6  135.22    8.97
   1   4  -6  134.25    8.67
   1   4  -5   90.27    6.58
   1   4  -5   84.16    6.24
  -1  -4   4  165.52   13.22
   1   4  -3  232.00   12.36
  -1  -4   3  234.98   15.20
  -1  -4   2  603.84   25.83
   1   4  -2  572.21   22.97
  -1  -4   2  555.94   22.60
   1   4  -1    7.73    1.80
  -1  -4   1    6.65    2.05
  -1  -4   1    4.93    1.51
   1   4  -1    5.61    1.69
   1   4   0  902.08   32.48
  -1  -4   0  915.73   31.25
   1   4   0  969.64   32.75
   1   4   0  883.79   33.29
   1   4   1  892.65   31.71
  -1  -4  -1  947.38   29.78
   1   4   1  821.55   32.64
   1   4   1  879.54   32.36
   1   4   1  883.50   31.22
   1   4   2  222.76   10.49
   1   4   2  253.14   10.19
   1   4   2  250.66   11.70
   1   4   3  127.15    7.23
   1   4   3  134.99    8.62
   1   4   3  139.28    6.63
   1   4   3  142.04    8.91
   1   4   4  381.36   16.82
   1   4   4  351.98   17.82
   1   4   5  133.11   10.38
   1   4   5  135.85    8.91
   1   4   6  333.53   19.70
   1   4   7   43.91    6.90
  -1  -4  -8   18.93    3.14
   1   4   8   14.51    3.03
  -1  -4  -9   15.76    2.98
   1   4   9   16.98    3.38
  -1  -4 -10   31.83    4.24
  -1  -4 -11   19.87    3.14
  -1  -4 -12   -0.24    0.65
   1   5  -8   17.57    2.69
   1   5  -7    0.39    1.25
   1   5  -6  242.37   12.19
   1   5  -6  227.02   12.37
   1   5  -5  245.14   12.70
   1   5  -5  233.15   12.38
   1   5  -4    3.63    1.19
   1   5  -4    2.29    1.20
   1   5  -3  199.10   12.08
  -1  -5   3  207.44   15.36
  -1  -5   2    1.14    1.15
   1   5  -2    4.02    1.56
  -1  -5   1  398.29   17.58
  -1  -5   1  462.53   21.31
   1   5  -1  424.35   18.64
   1   5  -1  440.07   18.88
   1   5   0  362.30   15.79
   1   5   0  325.90   15.18
  -1  -5   0  342.98   14.19
   1   5   0  338.07   16.86
   1   5   1 2578.21   85.03
   1   5   1 2595.13   84.43
   1   5   1 2700.79   85.06
   1   5   1 2491.21   86.13
   1   5   2   55.24    5.41
   1   5   2   50.45    4.61
   1   5   2   57.67    5.29
   1   5   2   47.95    4.15
   1   5   3  195.65   11.58
   1   5   3  196.76    9.40
   1   5   3  184.29   10.02
   1   5   4  214.11   13.13
   1   5   5  178.07   12.80
   1   5   6    8.63    3.29
   1   5   7    5.26    1.86
  -1  -5  -7    6.63    1.81
   1   5   8   26.76    4.09
  -1  -5  -8   27.35    3.72
  -1  -5  -9   34.19    4.48
   1   5   9   24.56    4.05
   1   5  10    8.84    2.37
  -1  -5 -10    5.56    1.82
  -1  -5 -11    9.77    2.08
   1   6  -8    4.79    1.24
   1   6  -7    1.66    1.31
   1   6  -7    1.25    1.19
   1   6  -6   27.68    3.59
   1   6  -5   43.21    4.50
   1   6  -4   26.50    3.36
   1   6  -4   22.31    3.29
   1   6  -3    1.06    0.88
  -1  -6   2    0.34    1.96
   1   6  -2   -0.63    1.05
   1   6  -1  610.07   26.02
  -1  -6   1  643.00   29.80
   1   6   0  136.95   10.48
   1   6   0  123.19    8.55
   1   6   0  122.06    8.66
   1   6   1   56.28    6.10
   1   6   1   50.98    5.23
   1   6   1   50.27    4.95
   1   6   2   25.74    4.06
   1   6   2   19.07    2.88
   1   6   2   21.68    3.34
   1   6   3  458.86   21.04
   1   6   3  519.82   20.53
   1   6   3  508.62   23.49
   1   6   4    2.60    1.91
   1   6   5  148.97   12.06
   1   6   6  144.30    9.01
   1   6   7   45.12    5.04
  -1  -6  -7   52.56    4.89
   1   6   8   82.65    7.42
  -1  -6  -8   92.71    6.98
   1   6   9   40.69    5.20
  -1  -6  -9   52.22    5.10
  -1  -6 -10   22.85    3.21
   1   6  10   17.15    3.12
  -1  -6 -11   -0.98    0.90
   1   7  -7   13.29    2.19
   1   7  -6   89.15    6.14
   1   7  -6   86.52    6.68
   1   7  -5   36.47    4.53
   1   7  -4   38.31    4.56
   1   7  -3   25.06    3.63
   1   7  -3   25.25    3.40
   1   7  -2  109.72    7.36
   1   7  -2  106.65    7.72
   1   7  -1  127.00    8.02
   1   7  -1  120.11    7.45
  -1  -7   0  420.42   22.92
   1   7   0  354.43   18.36
   1   7   1   24.96    3.81
   1   7   1   29.92    5.07
   1   7   2    7.10    2.05
   1   7   2    8.20    2.82
   1   7   3  237.57   15.58
   1   7   4  337.46   19.95
   1   7   5   25.51    3.83
   1   7   6   55.43    5.39
   1   7   6   55.05    6.18
   1   7   7   11.21    2.52
   1   7   7    4.06    1.99
   1   7   8   73.99    6.76
   1   7   9   29.30    4.29
  -1  -7  -9   28.57    3.56
  -1  -7 -10   18.22    2.60
   1   7  10   18.37    3.11
   1   7  11    2.94    1.04
   1   8  -6   48.89    4.28
   1   8  -5   17.06    2.92
   1   8  -4    4.75    1.93
   1   8  -3   13.84    2.86
   1   8  -2  225.38   12.65
   1   8  -1   47.48    5.01
   1   8  -1   53.89    4.81
   1   8   0   38.64    4.33
   1   8   0   33.37    3.89
   1   8   1    7.24    1.94
   1   8   2  583.32   26.55
   1   8   2  535.15   22.93
   1   8   3  177.21   12.67
   1   8   3  201.76   11.50
   1   8   4  133.17    9.37
   1   8   5   86.05    7.61
   1   8   5   78.65    6.37
   1   8   6  104.66    7.66
   1   8   6   91.17    8.36
   1   8   7    6.78    2.58
   1   8   7    9.53    2.49
   1   8   8   37.21    4.62
   1   8   9    2.15    1.62
   1   8  10   11.24    2.23
   1   9  -5    6.75    1.43
   1   9  -5    9.11    1.82
   1   9  -4   19.56    3.19
   1   9  -3   29.39    4.03
   1   9  -2   82.15    6.96
   1   9  -1   94.29    6.57
   1   9  -1   82.78    7.13
   1   9   0   -2.01    1.28
   1   9   0    0.95    1.05
   1   9   1    9.92    3.23
   1   9   1    9.00    2.21
   1   9   2   15.82    2.93
   1   9   2   14.13    3.63
   1   9   3   85.71    7.30
   1   9   3   86.10    8.46
   1   9   4    1.11    1.25
   1   9   4    2.58    1.15
   1   9   5   11.56    2.43
   1   9   5   10.40    2.74
   1   9   6    2.99    1.88
   1   9   6    1.48    1.30
   1   9   7   75.03    7.12
   1   9   7   79.40    6.55
   1   9   8    8.10    2.54
   1   9   9   26.50    3.50
   1   9  10    1.77    0.98
   1  10  -3  141.66    8.44
   1  10  -3  139.54    8.71
   1  10  -2   15.37    3.14
   1  10  -2   17.67    3.07
   1  10  -1   34.37    4.32
   1  10  -1   34.12    5.00
   1  10   0   -1.25    1.22
   1  10   0    0.74    0.94
   1  10   0    0.98    1.63
   1  10   1  145.81    9.21
   1  10   1  148.44   11.58
   1  10   2   96.72    8.96
   1  10   2   90.22    7.23
   1  10   3  127.78    9.79
   1  10   3  114.27    8.62
   1  10   4    0.69    1.22
   1  10   5  176.91    9.71
   1  10   5  150.41   10.64
   1  10   6   44.37    4.53
   1  10   6   42.69    5.24
   1  10   7   85.53    6.43
   1  10   7   80.53    6.84
   1  10   8   16.08    2.64
   1  10   9    1.30    0.95
   1  11  -2   18.37    2.64
   1  11  -1   32.67    4.08
   1  11   0    9.40    2.60
   1  11   0    5.34    1.40
   1  11   1   46.59    4.45
   1  11   1   53.40    5.87
   1  11   2  118.44    8.80
   1  11   2  115.31    7.83
   1  11   3    0.91    1.24
   1  11   4   12.86    2.84
   1  11   5    2.14    1.36
   1  11   6   12.43    2.63
   1  11   6   15.70    2.30
   1  11   7    5.19    1.60
   1  11   7    2.65    1.06
   1  12   2   53.74    4.29
   1  12   3    4.67    1.53
   1  12   4   26.54    3.28
   1  12   5    1.84    1.04
  -2  11   5   16.81    2.21
  -2  11   4   11.59    1.85
  -2  11   4    8.98    1.87
  -2  11   3   51.53    4.45
  -2  11   3   54.67    4.62
   2 -11  -2   43.84    4.19
  -2  11   2   49.28    4.67
   2 -11  -1    5.88    1.67
  -2  11   1    4.59    1.66
   2 -11   0    7.15    1.89
  -2  11   0    8.60    2.02
  -2  11  -1   56.87    4.91
  -2  11  -2   71.37    5.01
  -2  10   7   11.15    1.69
  -2  10   6   21.15    2.70
  -2  10   5    2.00    1.60
  -2  10   4   36.54    3.90
   2 -10  -3   36.01    4.18
  -2  10   3   47.12    4.84
   2 -10  -2   65.77    5.84
  -2  10   2   73.27    6.49
  -2  10   1   -0.61    1.29
  -2  10   0   27.51    4.03
  -2  10   0   32.35    4.13
  -2  10  -1   21.99    3.39
  -2  10  -2  126.05    8.31
  -2  10  -3    2.78    1.23
  -2  10  -3    0.09    1.09
  -2  10  -4    0.02    0.93
  -2   9   8   16.26    1.90
   2  -9  -8   16.62    1.98
   2  -9  -7   59.28    4.71
  -2   9   7   61.98    4.84
   2  -9  -6   13.98    2.43
  -2   9   6   11.15    2.43
   2  -9  -5  170.25    9.95
  -2   9   4  113.65    7.85
   2  -9  -4  103.53    7.64
   2  -9  -3   76.06    6.51
   2  -9  -3   71.20    6.37
  -2   9   3   73.03    6.54
  -2   9   2    5.86    1.94
  -2   9   1    1.57    1.29
  -2   9   0   95.68    7.43
  -2   9  -1   42.18    4.76
  -2   9  -2   54.96    5.44
  -2   9  -3    6.80    2.23
  -2   9  -4   74.91    6.08
  -2   9  -5   15.26    2.56
  -2   9  -6   41.58    3.66
   2  -8  -9   30.93    2.70
   2  -8  -8    2.81    1.22
  -2   8   8    3.92    1.17
  -2   8   7    2.34    1.11
   2  -8  -7    0.05    1.06
  -2   8   6   18.24    3.15
   2  -8  -6   18.27    3.07
   2  -8  -5  326.97   16.12
   2  -8  -4    3.13    1.62
   2  -8  -4    2.39    1.38
   2  -8  -3   10.29    2.48
  -2   8   3    8.69    2.15
  -2   8   2   21.49    3.51
  -2   8   1   35.35    4.30
  -2   8   0  136.26    8.93
  -2   8  -1  376.06   17.28
  -2   8  -2    2.79    1.31
  -2   8  -3   -0.06    1.32
  -2   8  -4  134.76    8.71
  -2   8  -5  132.59    8.42
  -2   8  -6    8.47    1.96
  -2   8  -7   22.81    2.68
   2  -7  -9   29.59    3.10
   2  -7  -8   18.93    3.00
  -2   7   8   23.13    2.85
  -2   7   7   11.24    2.31
   2  -7  -7    8.51    2.39
   2  -7  -6   31.69    4.20
   2  -7  -5   15.77    3.03
   2  -7  -4  154.48   10.30
   2  -7  -4  163.01   10.28
   2  -7  -3    8.59    2.16
  -2   7   3   12.35    2.46
  -2   7   2   23.07    3.30
  -2   7   1  308.80   14.93
  -2   7   1  333.70   20.62
  -2   7   0  442.05   19.12
  -2   7   0  466.40   26.39
  -2   7  -1  111.73    7.50
  -2   7  -2   68.52    5.77
  -2   7  -3   33.87    4.01
   2  -7   4   12.63    2.57
  -2   7  -4    9.45    2.24
   2  -7   5   16.99    2.92
  -2   7  -5   12.91    2.50
  -2   7  -6   45.24    4.52
   2  -7   6   51.43    4.97
   2  -7   7    0.33    1.14
  -2   7  -7   -3.09    1.30
   2  -7   8   -0.10    0.87
  -2   7  -8   -1.66    1.05
   2  -6 -10   10.83    1.60
   2  -6  -9    7.40    1.86
   2  -6  -8   11.31    2.60
   2  -6  -7    8.28    2.34
  -2   6   7   12.62    2.61
   2  -6  -6  215.58   12.52
   2  -6  -5  164.61   10.54
  -2   6   4  166.84   13.23
   2  -6  -4  156.40   10.17
  -2   6   3    1.90    1.88
  -2   6   3    2.56    1.46
  -2   6   2  172.67   13.13
  -2   6   2  175.86   11.64
  -2   6   1  331.77   19.52
  -2   6   1  347.08   17.67
  -2   6   0  529.66   27.38
  -2   6   0  602.21   25.48
   2  -6   1   11.26    3.98
  -2   6  -1    2.29    1.45
  -2   6  -2    5.70    2.00
   2  -6   2    8.56    3.05
  -2   6  -3  358.54   16.09
   2  -6   3  397.10   25.74
  -2   6  -3  391.74   18.82
  -2   6  -4  472.80   19.84
  -2   6  -4  479.98   19.54
  -2   6  -5   20.46    3.10
  -2   6  -5   21.65    3.03
  -2   6  -6    7.99    1.97
  -2   6  -6    8.99    2.13
  -2   6  -7   50.25    4.77
  -2   6  -7   49.42    4.73
  -2   6  -8  149.09    8.36
   2  -6   8  153.38    9.08
   2  -6   9   15.54    2.39
   2  -5 -10    6.28    1.35
   2  -5  -9   26.86    3.51
   2  -5  -8   39.57    4.70
   2  -5  -7   68.80    6.42
  -2   5   6  111.38    8.07
   2  -5  -6  106.09    8.22
  -2   5   5  158.96   12.62
   2  -5  -5  132.13    9.29
  -2   5   4   40.74    5.98
  -2   5   3    0.38    0.81
  -2   5   3    2.63    1.67
  -2   5   2  259.16   13.82
  -2   5   2  274.13   15.65
  -2   5   1   84.06    7.79
  -2   5   1   83.65    6.82
  -2   5   0    7.45    2.34
  -2   5   0    7.09    2.09
  -2   5  -1   10.10    2.31
  -2   5  -1   11.00    2.95
   2  -5   1   11.09    1.93
  -2   5  -2  323.24   15.70
   2  -5   2  332.61   14.98
   2  -5   2  294.51   18.69
   2  -5   3   61.92    8.37
  -2   5  -3   66.69    5.92
   2  -5   4  269.44   20.49
  -2   5  -5  123.50    7.65
  -2   5  -5  122.75    7.54
  -2   5  -6    4.62    1.53
  -2   5  -6    4.48    1.47
  -2   5  -7   48.23    4.63
  -2   5  -7   42.30    4.42
  -2   5  -8   39.71    4.31
  -2   5  -8   44.15    4.26
  -2   5  -9   13.40    2.49
   2  -4 -10    4.42    1.30
   2  -4  -9    4.34    1.87
   2  -4  -8   58.11    5.81
   2  -4  -7  188.17   11.60
   2  -4  -6    4.60    1.60
  -2   4   5   42.60    6.13
  -2   4   4   21.37    4.03
   2  -4  -4   18.62    3.62
  -2   4   3  277.94   15.78
  -2   4   3  271.74   13.29
   2  -4  -3  295.68   16.11
  -2   4   2  888.69   34.75
  -2   4   2  868.43   32.24
  -2   4   1 1197.04   41.46
  -2   4   1 1133.12   42.78
  -2   4   0  361.55   17.90
  -2   4   0  383.40   17.07
  -2   4  -1   10.57    2.27
  -2   4  -1   12.75    2.93
   2  -4   1   12.08    1.93
  -2   4  -2  196.58   10.29
   2  -4   2  175.48   12.09
   2  -4   3 1337.22   55.09
  -2   4  -3 1496.33   49.95
  -2   4  -4   66.04    5.39
   2  -4   4   47.88    7.48
   2  -4   5   19.68    5.34
  -2   4  -6   35.26    4.32
  -2   4  -6   27.23    3.24
  -2   4  -7  156.45    9.28
  -2   4  -7  179.81   11.35
  -2   4  -8   11.83    2.87
  -2   4  -8   13.39    2.32
  -2   4  -8   13.09    2.49
  -2   4  -9   40.76    4.33
  -2   4 -10    1.97    1.14
   2  -3 -10   18.85    2.43
   2  -3  -9   21.14    3.47
   2  -3  -8   -0.53    1.33
   2  -3  -7  199.00   11.99
   2  -3  -6  172.66   10.73
  -2   3   5   21.53    4.21
   2  -3  -5   20.02    3.87
  -2   3   4   26.70    4.42
   2  -3  -4   15.65    3.20
  -2   3   3 1086.11   41.42
   2  -3  -3 1121.86   42.46
  -2   3   2  804.70   29.66
  -2   3   2  870.33   32.21
  -2   3   1   67.29    4.99
  -2   3   1   64.17    5.34
  -2   3   0    0.14    1.04
  -2   3   0    2.02    1.15
  -2   3  -1  137.68    7.64
  -2   3  -1  153.23    8.63
   2  -3   1  139.16    6.99
  -2   3  -2  202.79    9.85
   2  -3   2  175.57   11.03
  -2   3  -2  206.41   10.71
  -2   3  -3  450.35   18.53
   2  -3   3  440.69   21.98
  -2   3  -4  242.68   11.83
  -2   3  -4  234.06   10.83
   2  -3   5  331.74   21.04
   2  -3   6   -5.99    3.17
  -2   3  -7  189.04   11.09
  -2   3  -7  174.43    9.71
  -2   3  -8   85.47    7.38
  -2   3  -8   85.20    6.42
  -2   3  -9   -0.19    1.14
  -2   3  -9    0.11    1.21
  -2   3 -10    1.86    1.22
   2  -2 -10    2.58    0.95
   2  -2  -9   24.77    3.27
   2  -2  -9   33.82    4.00
   2  -2  -8   89.27    7.22
   2  -2  -8   87.22    7.26
   2  -2  -7    2.20    1.62
   2  -2  -7   -0.43    1.24
   2  -2  -6    6.87    1.90
  -2   2   6    8.92    3.24
   2  -2  -5  291.82   17.05
  -2   2   5  375.79   19.06
  -2   2   4   81.64    7.27
   2  -2  -4   55.99    6.11
   2  -2  -3  430.03   20.89
  -2   2   3  536.18   21.71
   2  -2  -2 1166.67   41.89
   2  -2  -2 1108.14   39.36
  -2   2   2 1124.68   40.05
  -2   2   1   43.96    3.92
  -2   2   0  351.19   14.59
  -2   2   0  430.15   16.14
   2  -2   1  556.31   19.15
   2  -2   1  549.79   17.62
  -2   2  -2 1989.97   64.32
   2  -2   2 1867.65   63.91
   2  -2   3   92.37    7.64
  -2   2  -3  100.59    6.82
   2  -2   4    1.69    1.90
  -2   2  -4    1.44    0.91
   2  -2   5   38.30    6.07
   2  -2   6  108.31   11.06
  -2   2  -7   31.10    3.38
  -2   2  -7   28.80    3.63
  -2   2  -8  233.59   12.88
  -2   2  -8  235.86   11.90
  -2   2  -9    3.62    1.75
  -2   2  -9    1.13    1.25
  -2   2 -10    7.41    2.17
  -2   2 -10    7.63    1.82
  -2   2 -11   16.19    2.30
   2  -1  -9    0.41    0.96
   2  -1  -9    0.43    0.94
   2  -1  -8   84.52    6.92
   2  -1  -8   75.88    6.83
   2  -1  -7  104.01    8.17
   2  -1  -7  102.82    7.96
   2  -1  -6    1.63    1.25
   2  -1  -6    0.19    0.90
  -2   1   5   -0.99    1.18
   2  -1  -5    0.07    1.31
  -2   1   4  784.36   28.83
  -2   1   4  835.20   31.23
   2  -1  -3  320.02   16.58
  -2   1   3  431.15   17.48
   2  -1  -2  730.30   29.22
  -2   1   2  799.14   28.01
   2  -1  -2  748.26   27.48
  -2   1   1  159.07    7.61
   2  -1  -1  166.11    8.84
  -2   1   1  166.57    8.05
  -2   1   0 1316.66   44.92
   2  -1   0 1430.31   43.56
  -2   1   0 1288.66   43.15
   2  -1   1   98.81    4.36
   2  -1   1   92.98    5.07
  -2   1  -1   91.24    4.28
   2  -1   1   97.89    4.41
   2  -1   2  960.36   33.16
   2  -1   3 1106.29   39.77
   2  -1   4   74.88    6.95
   2  -1   5   19.87    3.98
   2  -1   6  439.16   23.88
   2  -1   7  150.78   13.65
  -2   1  -8    1.44    1.29
  -2   1  -8    1.87    1.10
  -2   1  -9   11.52    2.64
  -2   1  -9   12.28    2.35
  -2   1 -10   47.57    5.34
  -2   1 -10   58.93    5.04
  -2   1 -11    4.01    1.90
  -2   1 -11    0.69    0.80
   2   0 -10   34.78    2.90
   2   0  -9   70.09    5.91
   2   0  -9   75.06    5.97
   2   0  -8  101.43    8.25
   2   0  -8  134.58    8.66
   2   0  -7   29.41    4.31
   2   0  -7   29.29    3.99
   2   0  -6   66.02    6.03
   2   0  -6   56.05    5.48
  -2   0   5  142.80    9.93
   2   0  -5  130.17   10.39
  -2   0   5  129.48   10.14
  -2   0   4  154.58    9.45
  -2   0   4  146.99   10.03
   2   0  -4  161.54   10.57
  -2   0   3  605.45   23.88
   2   0  -3  557.41   23.80
  -2   0   2   30.64    3.33
   2   0  -2   23.65    3.27
  -2   0   1  250.86   10.11
  -2   0   1  276.60   10.92
   2   0   0  489.35   19.35
   2   0   0  464.30   18.33
  -2   0   0  505.26   16.35
   2   0   1 4821.92  154.68
   2   0   1 4973.51  152.56
   2   0   2   83.45    4.28
   2   0   3   11.90    1.73
   2   0   3   16.53    2.42
   2   0   4   27.69    3.92
   2   0   5  563.36   25.46
   2   0   6  100.05    9.69
   2   0   7   31.28    4.05
   2   0   7   25.64    5.27
  -2   0  -8    1.57    1.03
  -2   0  -8    1.30    0.82
  -2   0  -8   -0.96    0.71
  -2   0  -9   79.87    6.88
  -2   0  -9   93.66    6.45
  -2   0 -10   36.44    4.58
  -2   0 -11   52.89    5.29
  -2   0 -12    3.09    1.31
   2   1  -9   20.92    3.02
   2   1  -9   19.81    3.06
   2   1  -8   24.97    3.99
   2   1  -7   -1.30    1.56
   2   1  -6  142.63    9.64
   2   1  -5  282.79   16.92
  -2  -1   5  300.28   16.52
  -2  -1   5  287.56   16.53
  -2  -1   4    2.43    1.43
   2   1  -4    2.97    1.89
  -2  -1   4    0.08    1.14
  -2  -1   3  385.55   17.87
   2   1  -3  392.53   17.91
  -2  -1   3  392.40   17.26
   2   1  -2  183.17    9.64
  -2  -1   2  166.85    9.43
   2   1  -1 2131.67   70.23
  -2  -1   1 2186.20   69.83
   2   1   0   13.50    2.27
  -2  -1   0   12.13    1.38
   2   1   1 2844.84   85.95
   2   1   1 2613.90   87.81
   2   1   2  138.37    7.06
   2   1   2  133.55    5.47
   2   1   3 3120.54   98.74
   2   1   4    0.82    0.71
   2   1   4    0.68    0.70
   2   1   4    1.02    1.46
   2   1   5  199.69    9.49
   2   1   5  197.51   12.23
   2   1   6  274.79   12.77
   2   1   6  265.34   16.43
   2   1   7    0.08    1.81
  -2  -1  -8   65.59    5.13
  -2  -1  -8   74.95    5.99
  -2  -1  -9    6.00    2.13
  -2  -1 -10   58.28    5.78
  -2  -1 -11    3.26    1.67
  -2  -1 -12    0.31    1.05
   2   2  -9    2.02    1.29
   2   2  -9    2.28    1.25
   2   2  -8    5.20    1.98
   2   2  -7    0.72    1.10
   2   2  -6  140.71    9.67
  -2  -2   5   93.96    8.84
  -2  -2   5   80.31    8.18
  -2  -2   4  417.02   19.99
  -2  -2   4  370.00   19.54
   2   2  -4  411.40   20.11
  -2  -2   3   46.43    5.00
  -2  -2   3   44.38    5.17
   2   2  -3   45.64    4.99
   2   2  -2    3.38    1.57
  -2  -2   2    0.57    1.02
  -2  -2   1  620.74   22.88
   2   2  -1  590.87   22.51
   2   2   0 2915.91   92.78
  -2  -2   0 2945.78   92.70
   2   2   0 2969.87   95.78
   2   2   1  993.21   32.01
   2   2   1  975.42   32.28
   2   2   2 1032.15   32.10
   2   2   2 1017.10   33.76
   2   2   3  335.01   13.85
   2   2   3  354.70   13.67
   2   2   4  295.49   13.33
   2   2   5  358.76   14.95
   2   2   5  374.17   17.44
   2   2   6 2937.22   99.86
   2   2   7   89.38    9.34
  -2  -2  -8  165.77    9.65
   2   2   8  175.26   11.03
  -2  -2  -9   57.46    5.52
   2   2   9   55.72    6.35
  -2  -2 -10   56.20    5.63
  -2  -2 -11   -0.17    1.24
  -2  -2 -12    0.81    1.10
   2   3  -9   25.89    2.79
   2   3  -8    2.01    1.16
   2   3  -8    5.08    1.88
   2   3  -7   42.14    4.81
   2   3  -6  110.24    8.31
   2   3  -5  213.31   11.92
  -2  -3   4   33.30    5.13
  -2  -3   4   34.94    5.23
  -2  -3   3   79.15    6.95
  -2  -3   3   69.08    7.04
  -2  -3   2  996.40   37.18
  -2  -3   2 1020.94   38.46
   2   3  -2 1029.68   37.30
   2   3  -1  599.80   23.29
  -2  -3   1  636.34   24.32
   2   3   0  987.00   39.16
   2   3   0 1125.97   36.50
   2   3   1  257.83   11.13
   2   3   1  283.14   14.24
   2   3   2  355.94   16.07
   2   3   2  320.33   13.17
   2   3   3  171.26    9.23
   2   3   3  171.94    8.54
   2   3   4  568.15   21.88
   2   3   4  525.05   21.33
   2   3   5   47.25    4.60
   2   3   5   48.00    5.16
   2   3   6  164.18   11.55
   2   3   7  270.88   17.29
   2   3   8  220.23   12.57
  -2  -3  -8  213.73   11.32
  -2  -3  -9    0.16    1.08
   2   3   9    3.41    1.85
  -2  -3 -10   10.81    2.44
   2   3  10   11.18    2.92
  -2  -3 -11    2.94    1.54
  -2  -3 -12    1.87    1.12
   2   4  -8   26.44    3.26
   2   4  -7   47.59    5.08
   2   4  -7   45.75    4.77
   2   4  -6   20.59    3.29
   2   4  -5  123.77    8.50
   2   4  -5  107.78    7.92
   2   4  -4    9.38    2.05
  -2  -4   3   -0.14    1.10
  -2  -4   3    4.08    1.92
  -2  -4   2  214.04   13.28
  -2  -4   2  213.20   12.16
  -2  -4   1  559.24   23.39
  -2  -4   1  527.88   21.87
   2   4   0   12.09    2.23
   2   4   1  358.15   15.32
   2   4   1  370.67   15.34
   2   4   1  343.14   17.59
   2   4   2  129.61    7.31
   2   4   2  138.02    7.79
   2   4   2  151.08   10.58
   2   4   3  455.49   20.38
   2   4   3  401.15   17.34
   2   4   4   22.35    3.28
   2   4   4   24.90    3.57
   2   4   5  311.54   15.69
   2   4   5  301.03   15.81
   2   4   6   13.78    2.94
   2   4   6    3.35    1.97
   2   4   7  103.56    9.04
   2   4   7   96.20    9.69
  -2  -4  -8  194.34   10.58
   2   4   8  197.55   11.73
   2   4   9  182.83   11.99
  -2  -4  -9  186.78   10.74
   2   4  10   30.85    4.62
  -2  -4 -10   32.57    4.14
  -2  -4 -11    8.56    2.15
  -2  -4 -12   18.32    2.64
   2   5  -8    7.32    1.58
   2   5  -8    7.89    1.55
   2   5  -7    9.49    2.05
   2   5  -6   -0.60    1.05
   2   5  -6    0.86    1.01
   2   5  -5   69.53    6.37
   2   5  -5   72.03    6.30
   2   5  -4   25.46    3.70
   2   5  -3  453.41   19.14
  -2  -5   3  385.65   22.66
  -2  -5   2  185.41   11.78
  -2  -5   2  186.73   13.21
  -2  -5   1  292.82   14.77
  -2  -5   1  291.88   16.27
  -2  -5   0   -0.15    1.09
   2   5   0    1.61    1.44
  -2  -5   0    0.50    0.73
  -2  -5  -1  780.41   27.20
   2   5   1  735.16   29.09
   2   5   1  793.08   28.92
   2   5   2  213.69   10.64
   2   5   2  207.84   11.23
   2   5   2  178.40   12.52
   2   5   3  530.09   22.43
   2   5   3  563.26   26.49
   2   5   4  399.78   19.08
   2   5   4  460.48   22.84
   2   5   5   23.21    4.20
   2   5   5   16.54    3.26
   2   5   6   11.77    3.20
   2   5   7  214.95   11.61
   2   5   7  213.74   15.54
  -2  -5  -8   37.98    4.04
   2   5   8   37.15    4.66
  -2  -5  -9   15.86    2.77
   2   5   9   12.60    2.82
  -2  -5 -10   -0.11    1.10
   2   5  10   -1.33    1.17
   2   5  11   22.99    3.62
  -2  -5 -11   20.03    2.99
  -2  -5 -12    3.45    1.24
   2   6  -7   39.42    3.82
   2   6  -7   34.89    3.27
   2   6  -6   70.30    5.64
   2   6  -5    4.34    1.55
   2   6  -5    2.01    1.08
   2   6  -4   17.07    3.16
   2   6  -3  687.57   27.61
   2   6  -2  286.74   13.99
  -2  -6   1    4.76    1.76
  -2  -6   1    6.07    2.42
   2   6   0   47.10    5.41
  -2  -6   0   47.33    6.04
   2   6   1   66.75    6.64
   2   6   1   62.81    6.05
   2   6   2  331.31   15.71
   2   6   2  314.42   16.39
   2   6   3  175.76   11.26
   2   6   4  540.18   24.52
   2   6   5   35.21    5.14
   2   6   6  254.14   16.39
   2   6   7   32.11    4.02
   2   6   7   30.81    4.96
   2   6   8   74.97    7.98
   2   6   8   71.51    6.49
   2   6   9    8.88    2.65
  -2  -6 -10    0.13    0.96
   2   6  10    1.32    1.52
  -2  -6 -11   22.00    2.78
   2   6  11   23.28    3.37
   2   7  -6   -2.40    1.26
   2   7  -5   -0.37    1.20
   2   7  -4   64.20    5.88
   2   7  -3   28.48    3.90
   2   7  -2   41.80    4.56
   2   7  -1    2.32    1.10
   2   7  -1    1.82    1.03
   2   7   0   21.62    2.92
   2   7   1   65.86    6.71
   2   7   2  275.78   16.29
   2   7   3   42.25    5.61
   2   7   4   11.27    3.19
   2   7   5   28.00    3.88
   2   7   5   30.31    4.65
   2   7   5   29.37    3.41
   2   7   6  217.11   13.26
   2   7   6  205.82   11.27
   2   7   7    2.89    1.49
   2   7   7   -1.88    1.53
   2   7   8   11.55    2.70
   2   7   8   12.37    2.97
   2   7   9   13.87    3.15
   2   7  10   30.41    4.17
   2   7  11   14.61    2.58
   2   8  -5    1.93    1.14
   2   8  -4   46.86    4.92
   2   8  -3  182.79   11.05
   2   8  -2    1.98    1.41
   2   8  -2    0.90    1.20
   2   8  -1    3.54    1.47
   2   8  -1    2.70    1.26
   2   8   0   71.13    5.77
   2   8   1  217.38   10.68
   2   8   1  190.44   10.81
   2   8   2   84.25    6.54
   2   8   2   77.16    7.89
   2   8   3   46.81    4.88
   2   8   3   45.26    6.01
   2   8   4   31.89    5.16
   2   8   4   33.74    4.23
   2   8   5   50.64    5.56
   2   8   5   46.69    5.91
   2   8   5   49.41    4.67
   2   8   6  140.02    8.93
   2   8   6  155.86   10.92
   2   8   7   47.31    6.11
   2   8   7   53.96    5.30
   2   8   8   -1.61    1.28
   2   8   8    0.30    1.55
   2   8   9    4.74    2.01
   2   8  10   11.21    2.53
   2   8  11   11.12    2.00
   2   9  -4   24.12    2.75
   2   9  -4   22.40    2.90
   2   9  -3   45.00    4.65
   2   9  -3   44.07    4.57
   2   9  -2   12.38    2.59
   2   9  -1  105.19    7.94
   2   9   0   23.10    4.27
   2   9   1  138.16    8.68
   2   9   1  134.49   10.74
   2   9   2   30.85    3.92
   2   9   2   30.20    5.15
   2   9   3    1.16    1.11
   2   9   3    2.37    1.81
   2   9   4   12.97    2.70
   2   9   4   14.20    3.49
   2   9   5  214.75   13.49
   2   9   5  220.56   11.35
   2   9   5  217.36   13.14
   2   9   6   62.43    6.75
   2   9   6   63.30    5.56
   2   9   7   41.44    5.45
   2   9   7   41.06    4.49
   2   9   8    0.87    1.24
   2   9   8    1.21    1.50
   2   9   9   34.50    4.06
   2   9  10    1.91    1.10
   2  10  -3   18.66    2.39
   2  10  -2   -0.27    0.79
   2  10  -2    1.68    1.26
   2  10  -1   33.02    4.45
   2  10   0  114.90    9.14
   2  10   1   11.89    3.19
   2  10   1   13.53    2.45
   2  10   2   23.97    4.35
   2  10   2   17.18    2.91
   2  10   3   12.07    3.35
   2  10   3    8.79    2.20
   2  10   4    2.75    1.73
   2  10   4   -0.65    1.65
   2  10   5   20.78    3.59
   2  10   6    2.26    1.05
   2  10   6   -0.09    1.49
   2  10   7    4.46    2.01
   2  10   7    3.19    1.32
   2  10   8    0.20    0.95
   2  10   8    2.39    1.53
   2  10   9    6.64    1.58
   2  11  -1    3.89    1.45
   2  11   0  131.48    8.67
   2  11   1   16.87    2.34
   2  11   1   15.95    3.15
   2  11   2    3.39    2.03
   2  11   2    1.81    1.05
   2  11   3    0.82    1.14
   2  11   3    2.10    1.38
   2  11   4   85.08    6.76
   2  11   4   83.86    6.68
   2  11   5   59.20    5.66
   2  11   6   40.11    4.58
   2  11   7   19.78    2.34
   2  11   7   17.42    2.86
   2  12   3   34.56    3.27
   2  12   4   22.09    2.79
   2  12   5   20.54    2.74
  -3  11   4   46.34    3.49
  -3  11   3    1.83    0.91
   3 -11  -2    1.36    0.96
  -3  11   2    1.64    0.95
   3 -11  -1   31.82    3.33
  -3  11   1   39.20    3.64
   3 -11   0  141.02    8.13
  -3  11   0  174.86    8.85
  -3  11  -1    0.74    0.87
   3 -11   1    0.79    0.93
  -3  10   6   69.21    4.20
   3 -10  -5   93.67    5.61
  -3  10   5   97.13    5.96
   3 -10  -4   32.82    3.32
   3 -10  -3    5.25    1.50
   3 -10  -3    3.97    1.35
  -3  10   3    3.05    1.12
   3 -10  -2  152.00    8.63
  -3  10   2  152.75    8.75
   3 -10  -2  125.05    8.37
   3 -10  -1   21.39    3.23
  -3  10   1   30.20    3.84
   3 -10   0   67.18    5.82
  -3  10   0   76.57    6.38
  -3  10  -1   35.58    4.13
  -3  10  -2    4.53    1.57
  -3  10  -3    1.22    1.09
  -3  10  -4   57.30    4.54
  -3  10  -4   63.21    4.52
   3  -9  -7   35.38    2.98
   3  -9  -6    4.97    1.46
  -3   9   6    2.48    1.09
   3  -9  -5   14.40    2.53
   3  -9  -4    2.85    1.31
   3  -9  -4    1.97    1.07
   3  -9  -3    3.49    1.45
   3  -9  -3    3.35    1.46
  -3   9   2   21.82    3.31
   3  -9  -2   16.78    3.08
   3  -9  -1  123.03    8.70
  -3   9   0    2.57    1.43
  -3   9  -1   45.78    4.97
  -3   9  -2   11.84    2.65
  -3   9  -3  115.14    7.87
  -3   9  -4    8.99    2.07
  -3   9  -5   42.58    4.03
   3  -8  -8   -1.09    0.67
  -3   8   7   29.56    2.84
   3  -8  -7   23.79    2.92
   3  -8  -6   19.15    2.88
  -3   8   6   19.18    2.69
   3  -8  -5   62.33    5.59
   3  -8  -4   39.34    4.59
   3  -8  -4   37.40    4.42
   3  -8  -3  135.66    9.25
   3  -8  -2  304.45   15.54
  -3   8   1  171.66   10.64
  -3   8   0   40.86    4.76
  -3   8  -1   37.06    4.45
  -3   8  -2   17.47    3.07
  -3   8  -3  115.05    8.04
  -3   8  -4   80.18    6.40
  -3   8  -5   -0.18    1.16
   3  -8   6    2.19    1.30
  -3   8  -6    0.75    0.93
  -3   8  -7   56.89    4.17
   3  -7  -8    6.49    1.48
   3  -7  -7   12.57    2.42
  -3   7   6   65.10    5.49
   3  -7  -6   74.61    6.16
   3  -7  -5    9.97    2.47
   3  -7  -5   13.59    2.60
   3  -7  -4    4.29    1.84
   3  -7  -4    7.02    2.14
   3  -7  -3  258.20   13.91
   3  -7  -2  487.71   21.52
  -3   7   1   18.27    3.16
  -3   7   0    0.66    0.86
  -3   7  -1    1.08    1.02
  -3   7  -2  226.57   12.29
  -3   7  -3   43.74    4.65
  -3   7  -4  200.48   11.25
   3  -7   4  217.58   11.91
   3  -7   5    1.06    0.92
  -3   7  -5   -0.08    1.34
  -3   7  -6   51.91    4.85
   3  -7   6   58.94    5.47
  -3   7  -7   58.09    4.77
   3  -7   7   59.89    5.29
   3  -7   8   40.93    4.00
   3  -6  -9   12.94    1.80
   3  -6  -8   89.81    6.16
   3  -6  -7  116.70    7.98
   3  -6  -6  136.73    9.15
   3  -6  -5    3.09    1.51
   3  -6  -5    3.99    1.78
   3  -6  -4  114.02    8.35
   3  -6  -4  114.99    8.29
   3  -6  -3   35.55    4.34
  -3   6   2  185.36   12.95
  -3   6   1   29.37    4.73
  -3   6   0  161.60   11.83
  -3   6  -1    8.88    2.68
  -3   6  -2  432.75   21.83
  -3   6  -3  671.21   26.29
   3  -6   3  678.91   26.48
   3  -6   4   22.38    3.25
  -3   6  -4   19.70    2.98
   3  -6   5   16.38    2.83
  -3   6  -5   15.77    2.70
  -3   6  -6   51.41    4.93
   3  -6   6   57.35    5.38
   3  -6   7    0.28    1.22
  -3   6  -7    1.19    0.83
   3  -6   8    3.97    1.63
   3  -6   9    1.30    0.92
   3  -5  -9    5.61    1.28
   3  -5  -8   22.90    3.14
   3  -5  -7   17.57    3.03
   3  -5  -6    2.85    1.46
   3  -5  -5   19.00    3.17
   3  -5  -4  347.85   17.01
   3  -5  -4  379.02   17.26
   3  -5  -3  336.94   19.01
  -3   5   2  186.72   12.24
  -3   5   2  169.56   11.45
  -3   5   1  257.33   14.52
  -3   5   1  215.20   13.51
  -3   5   0  270.82   15.18
  -3   5   0  242.77   14.49
  -3   5  -1  560.26   25.11
  -3   5  -1  462.75   22.56
  -3   5  -2  140.67   10.13
   3  -5   2  146.38    9.34
   3  -5   3  410.03   19.01
  -3   5  -3  385.72   19.23
  -3   5  -4   14.26    2.85
   3  -5   4   13.89    3.00
  -3   5  -5  214.58   10.88
  -3   5  -5  192.57   10.54
  -3   5  -6  133.32    8.09
  -3   5  -6  118.48    7.88
  -3   5  -7  215.49   11.94
  -3   5  -7  261.40   12.26
  -3   5  -8    6.66    1.95
   3  -5   9    6.11    1.82
   3  -5  10   43.19    3.90
   3  -4  -9   11.59    1.96
   3  -4  -8   35.51    3.97
   3  -4  -7   12.75    2.71
   3  -4  -6    0.31    1.18
   3  -4  -5  236.89   12.94
   3  -4  -4  298.11   17.28
   3  -4  -3  387.90   20.79
  -3   4   3  406.46   19.84
  -3   4   2    4.34    1.80
  -3   4   2    4.88    1.80
  -3   4   1  413.00   18.31
  -3   4   1  346.75   17.61
  -3   4   0    2.39    1.06
  -3   4   0    2.07    1.72
  -3   4  -1  911.53   33.39
  -3   4  -1  784.11   32.46
  -3   4  -2   18.09    3.22
   3  -4   2   11.33    2.31
   3  -4   2   21.07    3.73
   3  -4   3  114.48    8.09
  -3   4  -3   96.65    7.73
   3  -4   3  127.30   10.33
  -3   4  -4    2.90    1.29
   3  -4   4    1.13    1.17
   3  -4   5  297.61   16.07
   3  -4   5  312.81   20.59
  -3   4  -6   66.65    5.36
  -3   4  -7   23.71    3.21
  -3   4  -8   12.49    2.44
  -3   4  -9    0.25    1.25
   3  -4  10    5.98    1.75
   3  -3  -9    9.88    1.80
   3  -3  -8   61.23    5.35
   3  -3  -7    8.19    2.13
   3  -3  -7    8.02    2.07
   3  -3  -6   78.27    6.73
   3  -3  -6   90.67    7.12
   3  -3  -6   85.96    7.04
   3  -3  -5  280.78   17.72
   3  -3  -5  319.60   15.37
   3  -3  -4  499.55   24.78
  -3   3   4  560.35   24.72
   3  -3  -3    0.73    1.37
  -3   3   3    3.23    1.51
   3  -3  -2    0.25    1.19
  -3   3   2   -0.42    1.00
  -3   3   2    0.17    1.04
  -3   3   1   31.16    3.68
  -3   3   0  692.77   25.67
  -3   3   0  651.35   27.08
  -3   3  -1  597.16   25.58
  -3   3  -1  626.22   23.69
   3  -3   2 1427.29   50.93
  -3   3  -2 1423.04   53.35
   3  -3   3    3.69    1.83
  -3   3  -3    2.74    1.85
   3  -3   3    1.27    1.47
   3  -3   4   36.16    5.37
   3  -3   4   37.92    4.57
  -3   3  -4   42.40    4.41
  -3   3  -4   38.57    4.96
   3  -3   5  203.24   12.05
   3  -3   5  201.07   14.74
   3  -3   6  504.83   23.27
   3  -3   6  523.70   28.03
  -3   3  -7    6.58    1.86
  -3   3  -7    4.42    1.46
  -3   3  -8   22.91    3.64
  -3   3  -8   20.68    3.08
  -3   3  -9   27.41    3.49
  -3   3  -9   30.38    4.25
  -3   3 -10   79.71    5.93
   3  -3  11    0.14    0.78
   3  -2  -9   19.32    2.43
   3  -2  -9   18.88    2.31
   3  -2  -8   37.87    4.28
   3  -2  -8   38.98    4.14
   3  -2  -7   -0.28    1.32
   3  -2  -7   -0.18    1.00
   3  -2  -6   91.75    7.18
   3  -2  -6   86.30    7.01
   3  -2  -6   73.80    6.78
   3  -2  -5   48.40    6.44
   3  -2  -4  190.17   13.12
  -3   2   4  203.41   12.37
  -3   2   3  299.45   15.14
   3  -2  -3  306.13   16.57
   3  -2  -2  106.53    7.47
   3  -2  -2  123.62    9.26
  -3   2   2  120.76    7.70
  -3   2   1   20.73    3.03
   3  -2  -1   24.04    3.45
  -3   2   1   29.04    3.19
  -3   2   0 2262.28   70.50
  -3   2   0 2071.88   72.83
  -3   2  -1  460.71   16.74
  -3   2  -1  423.42   19.46
   3  -2   1  430.08   16.26
  -3   2  -2   27.20    3.97
   3  -2   2   31.44    2.57
   3  -2   2   28.95    3.22
   3  -2   3   94.82    6.62
  -3   2  -3   91.09    7.84
   3  -2   4  478.55   21.57
  -3   2  -4  440.30   21.24
   3  -2   4  458.66   19.50
  -3   2  -5   36.99    4.94
   3  -2   5   27.15    4.54
   3  -2   5   27.89    3.77
   3  -2   6  110.15    8.48
   3  -2   6  122.99   10.96
  -3   2  -7   -2.23    1.04
  -3   2  -7    0.40    0.88
  -3   2  -8  147.23    8.87
  -3   2  -8  161.44    9.82
  -3   2  -9   17.11    3.15
  -3   2  -9   16.55    2.64
  -3   2 -10   18.64    3.31
  -3   2 -10   17.16    2.74
   3  -2  11   22.06    2.87
   3  -1  -9   28.94    3.11
   3  -1  -9   28.82    3.00
   3  -1  -8    1.69    1.25
   3  -1  -7   49.12    4.92
   3  -1  -7   39.65    4.96
   3  -1  -6  141.52   10.20
   3  -1  -6  161.96   10.30
   3  -1  -6  178.65   10.33
   3  -1  -5  280.94   17.90
   3  -1  -5  307.14   15.21
  -3   1   5  306.25   16.99
  -3   1   4    1.81    1.36
   3  -1  -4    3.34    1.88
   3  -1  -3  151.68   10.60
   3  -1  -2  969.05   37.38
  -3   1   2  970.79   34.88
   3  -1  -1  964.54   35.70
  -3   1   1  989.38   33.65
   3  -1  -1  998.10   37.15
  -3   1   1  956.39   34.20
  -3   1   0  131.55    7.79
   3  -1   0  119.05    8.07
   3  -1   0  139.60    6.98
  -3   1   0  130.23    5.91
   3  -1   1  814.39   28.33
   3  -1   2  665.47   23.67
   3  -1   2  690.37   22.85
   3  -1   3  270.53   12.32
   3  -1   3  275.25   12.09
   3  -1   4  888.94   32.42
   3  -1   4  895.69   33.37
   3  -1   5  466.25   19.86
   3  -1   5  479.56   22.11
   3  -1   6    2.09    1.37
   3  -1   6    4.12    1.78
   3  -1   7    2.85    1.80
   3  -1   7    8.97    2.31
  -3   1  -8  115.66    7.34
  -3   1  -8  118.03    7.98
  -3   1  -9   26.40    3.33
  -3   1  -9   28.09    3.86
  -3   1 -10    1.72    1.57
  -3   1 -10    2.92    1.32
  -3   1 -11   24.01    3.55
   3  -1  11   21.11    2.83
   3   0  -9    0.85    0.87
   3   0  -9    0.12    0.71
   3   0  -8   -1.12    1.23
   3   0  -7   47.30    5.48
   3   0  -6   12.17    2.78
   3   0  -5   91.65    7.42
   3   0  -5   96.66    7.47
   3   0  -4  255.91   15.96
  -3   0   4  274.19   15.18
   3   0  -3  164.78   11.60
  -3   0   3  205.58   10.91
  -3   0   2    5.98    1.60
   3   0  -2    4.15    1.84
   3   0  -1  854.86   34.70
  -3   0   1  917.56   31.57
   3   0   0 1021.58   37.69
   3   0   0 1047.68   36.53
   3   0   0 1060.65   38.07
   3   0   1  117.09    7.05
   3   0   1  134.18    8.44
   3   0   2   12.32    1.83
   3   0   2   12.46    2.63
   3   0   3 1146.98   37.82
   3   0   3 1106.72   36.63
   3   0   3 1145.92   40.73
   3   0   3 1075.70   38.34
   3   0   4   45.75    5.05
   3   0   4   40.20    3.91
   3   0   4   42.26    3.92
   3   0   5  375.23   16.68
   3   0   5  374.31   18.10
   3   0   5  429.80   18.87
   3   0   6   17.48    3.63
   3   0   6   16.93    2.85
   3   0   7   78.68    6.90
   3   0   7   87.12    9.11
  -3   0  -8    3.37    1.34
   3   0   8    3.83    1.83
  -3   0  -9  178.57   10.54
  -3   0 -10    2.17    1.67
  -3   0 -11    5.82    2.07
  -3   0 -12    6.49    1.79
   3   1  -9    2.47    1.13
   3   1  -9    2.01    0.93
   3   1  -8   50.52    5.03
   3   1  -7  169.43   11.02
   3   1  -6  241.18   14.04
   3   1  -5   57.43    5.78
  -3  -1   4   10.75    2.85
   3   1  -4    5.35    2.29
   3   1  -3  250.64   15.12
  -3  -1   3  290.63   14.21
   3   1  -2  749.43   31.38
  -3  -1   2  831.64   29.69
   3   1  -1   30.67    3.96
  -3  -1   1   43.11    3.53
   3   1   0   27.38    3.27
  -3  -1   0   23.29    2.06
   3   1   1    1.03    1.16
   3   1   1    1.27    0.90
  -3  -1  -1    0.97    0.31
   3   1   2 1327.25   41.78
   3   1   2 1369.21   43.48
   3   1   3  479.28   18.64
   3   1   3  481.88   16.45
   3   1   3  494.44   20.50
   3   1   4 1188.92   40.99
   3   1   4 1106.73   39.47
   3   1   4 1154.14   38.47
   3   1   5    4.87    1.53
   3   1   6   32.60    3.92
   3   1   7   83.13    6.99
   3   1   8  174.52   11.04
  -3  -1  -8  152.18    9.06
  -3  -1  -9   -0.04    0.91
   3   1   9    0.05    1.34
  -3  -1 -10    9.45    2.36
  -3  -1 -11   12.43    2.59
  -3  -1 -12   21.49    2.97
   3   2  -9    4.83    1.14
   3   2  -8   35.97    3.92
   3   2  -8   35.20    3.92
   3   2  -7    8.13    2.33
   3   2  -6   66.06    6.56
   3   2  -5   14.57    3.08
   3   2  -4  133.58   11.14
  -3  -2   4  126.88   10.70
  -3  -2   3  247.37   14.81
   3   2  -3  246.95   15.04
  -3  -2   3  259.21   14.02
  -3  -2   2  556.98   22.81
   3   2  -2  533.43   23.77
   3   2  -1    7.23    2.13
  -3  -2   1    0.62    0.80
   3   2   0   65.05    5.12
   3   2   0   66.79    6.07
  -3  -2   0   68.30    4.50
   3   2   1  102.29    5.99
   3   2   1  111.10    7.87
  -3  -2  -1   98.19    4.96
   3   2   2  622.29   20.71
   3   2   2  614.79   21.42
   3   2   2  586.33   24.21
   3   2   3  440.20   18.02
   3   2   3  438.02   15.77
   3   2   4  300.56   13.74
   3   2   4  302.46   12.48
   3   2   5  166.84    9.68
   3   2   5  182.27    9.64
   3   2   6 1157.07   42.48
   3   2   7    7.97    2.62
   3   2   8  151.95    9.85
  -3  -2  -8  139.73    8.40
  -3  -2  -9    2.19    1.34
   3   2   9    9.09    2.78
  -3  -2 -10   13.84    2.76
   3   2  10   14.52    3.61
  -3  -2 -11    8.01    2.09
  -3  -2 -12   13.40    2.35
   3   3  -8   44.92    3.91
   3   3  -8   42.29    3.94
   3   3  -7   79.72    6.55
   3   3  -6   29.54    4.21
   3   3  -5    1.15    0.90
   3   3  -4  171.68   10.77
   3   3  -4  184.41   11.03
  -3  -3   3  416.33   21.53
   3   3  -3  436.53   22.12
  -3  -3   3  419.66   20.75
  -3  -3   2   33.99    4.70
   3   3  -2   39.60    5.00
  -3  -3   2   35.26    4.53
  -3  -3   1  201.96   11.13
   3   3  -1  189.36   11.11
   3   3   0   84.83    5.99
   3   3   0   84.84    7.38
  -3  -3   0   77.61    5.57
   3   3   1  546.79   20.46
   3   3   1  569.28   24.47
   3   3   2  533.92   19.46
   3   3   2  528.33   23.61
   3   3   3  564.11   20.79
   3   3   3  590.71   24.06
   3   3   4   58.83    5.35
   3   3   4   63.65    4.70
   3   3   5    2.57    1.32
   3   3   5    1.07    1.03
   3   3   6  162.64   10.68
   3   3   6  178.31   10.84
   3   3   7   67.88    6.88
   3   3   7   70.97    7.24
  -3  -3  -8   17.64    2.63
   3   3   8   19.79    3.16
   3   3   8   12.18    3.23
   3   3   9  714.35   29.68
  -3  -3  -9  691.31   27.16
  -3  -3 -10    6.34    1.90
   3   3  10   11.50    3.21
   3   3  11   20.26    3.86
  -3  -3 -11   29.32    3.67
  -3  -3 -12    1.25    0.82
   3   4  -8    2.68    0.85
   3   4  -7   70.40    5.37
   3   4  -7   69.09    5.55
   3   4  -6   13.01    2.55
   3   4  -5   22.98    3.71
   3   4  -5   31.08    4.17
   3   4  -4   42.90    4.88
   3   4  -4   38.07    4.76
   3   4  -3  390.66   18.22
  -3  -4   2  191.62   12.84
  -3  -4   2  185.93   12.46
  -3  -4   1   41.85    5.09
  -3  -4   1   41.68    4.91
  -3  -4   0  333.19   15.76
   3   4   1  809.16   33.61
   3   4   2  924.01   33.37
   3   4   2  994.75   38.61
   3   4   3   98.31    6.31
   3   4   3  100.92    8.80
   3   4   4    0.95    0.85
   3   4   4    6.27    2.25
   3   4   5  106.21    8.46
   3   4   5  107.53    7.52
   3   4   6  193.33   12.50
   3   4   6  188.51   11.77
   3   4   7  138.10   10.95
   3   4   7  138.31   10.79
   3   4   8    8.78    2.15
   3   4   8   14.35    3.77
   3   4   9  113.68    9.00
  -3  -4  -9  127.46    8.05
   3   4  10   97.56    8.53
  -3  -4 -10  101.59    7.15
   3   4  11   73.61    7.13
  -3  -4 -11   76.61    5.95
  -3  -4 -12    4.78    1.31
   3   5  -7    0.85    0.67
   3   5  -6    7.51    1.96
   3   5  -5  156.70   10.04
   3   5  -4  171.07   11.07
   3   5  -3    2.47    1.71
   3   5  -2  130.95    8.75
  -3  -5   2  115.02   10.22
  -3  -5   1  119.96    9.36
  -3  -5   1  112.90    9.45
  -3  -5   0  163.83   10.53
  -3  -5   0  166.67   10.98
   3   5   1   85.04    8.28
   3   5   2  241.69   12.62
   3   5   2  260.30   15.96
   3   5   3    9.48    2.97
   3   5   3   10.27    2.16
   3   5   4   -0.32    0.86
   3   5   4   -1.02    1.43
   3   5   5  179.57   11.11
   3   5   5  193.56   13.87
   3   5   6   59.51    7.34
   3   5   6   59.63    6.35
   3   5   7   19.45    4.03
   3   5   7   19.60    4.19
   3   5   7   16.52    2.76
   3   5   7   18.64    3.53
   3   5   8    9.26    2.87
   3   5   8   11.43    2.56
   3   5   9   14.93    3.68
   3   5   9   19.12    3.51
  -3  -5 -10   21.88    3.01
   3   5  10   20.06    3.87
  -3  -5 -11   26.77    3.16
   3   5  11   20.32    3.63
  -3  -5 -12   27.39    2.77
   3   5  12   31.89    3.66
   3   6  -6   38.66    3.49
   3   6  -5   34.24    4.12
   3   6  -5   31.71    3.69
   3   6  -4   37.41    4.67
   3   6  -3    3.19    1.91
   3   6  -2    1.30    1.65
   3   6  -2    0.28    1.01
   3   6  -1   19.55    3.41
   3   6  -1   24.61    3.47
  -3  -6   0  784.46   31.93
  -3  -6   0  759.64   33.13
  -3  -6  -1  115.54    9.22
   3   6   2   59.92    6.25
   3   6   2   63.88    7.51
   3   6   3   29.69    4.08
   3   6   3   25.57    4.87
   3   6   4  574.13   25.29
   3   6   4  629.19   30.66
   3   6   5  140.75   10.19
   3   6   6  168.42   12.03
   3   6   6  200.80   11.90
   3   6   6  176.94    9.80
   3   6   7   54.33    6.15
   3   6   7   20.88    3.18
   3   6   8   13.57    2.78
   3   6   8    9.93    3.09
   3   6   9   10.53    2.54
   3   6   9    9.68    3.16
   3   6  10   24.19    4.02
   3   6  11    2.47    1.67
   3   6  12   -1.19    0.99
   3   7  -5   68.70    5.38
   3   7  -4   28.79    3.91
   3   7  -3   51.60    5.52
   3   7  -2    5.57    1.96
   3   7  -1  128.31    8.89
   3   7   0  547.52   23.52
   3   7   0  612.02   25.28
   3   7   1  249.87   12.27
   3   7   1  225.58   13.32
   3   7   2  159.60   10.90
   3   7   2  173.37    9.59
   3   7   3    8.19    2.47
   3   7   3    7.38    2.32
   3   7   3    5.13    1.49
   3   7   4   96.43    8.76
   3   7   4  105.12    7.48
   3   7   4  109.52    9.29
   3   7   5   69.19    6.38
   3   7   5   84.57    8.32
   3   7   5   91.01    6.22
   3   7   6   21.08    2.98
   3   7   6   19.10    3.54
   3   7   7   79.31    7.78
   3   7   7   70.75    6.01
   3   7   8   25.15    3.65
   3   7   8   30.89    5.17
   3   7   9   78.54    8.26
   3   7   9   82.02    6.92
   3   7  10    3.97    1.72
   3   7  11    0.73    1.42
   3   8  -4    6.19    1.72
   3   8  -3   16.84    3.00
   3   8  -3   19.07    2.99
   3   8  -3   18.99    2.91
   3   8  -2    8.02    2.30
   3   8  -2   10.71    2.52
   3   8  -2    8.08    2.38
   3   8  -1  108.47    7.91
   3   8  -1   99.16    8.12
   3   8   0   17.15    2.95
   3   8   0   19.50    3.63
   3   8   1    4.91    1.55
   3   8   1    3.71    1.54
   3   8   2   32.15    4.79
   3   8   2   33.22    3.93
   3   8   3   84.81    8.22
   3   8   3   85.72    6.71
   3   8   4   14.33    3.60
   3   8   4   15.05    2.89
   3   8   5  140.15   11.11
   3   8   5  129.82    9.20
   3   8   6   -0.25    0.75
   3   8   6   -3.87    1.94
   3   8   7   53.31    5.10
   3   8   7   58.95    6.61
   3   8   8   21.72    3.33
   3   8   8   23.98    4.32
   3   8   9   42.52    4.69
   3   8   9   30.66    4.88
   3   8  10    0.91    1.18
   3   8  11    1.03    1.14
   3   9  -3   24.99    2.87
   3   9  -3   21.40    2.60
   3   9  -2   20.41    3.09
   3   9  -1   65.36    6.17
   3   9   0  108.24    7.45
   3   9   0  101.62    8.38
   3   9   1    8.25    1.92
   3   9   1    7.17    2.54
   3   9   2    0.99    1.96
   3   9   2    3.34    1.37
   3   9   3  113.92    9.61
   3   9   3  103.85    7.63
   3   9   4  103.47    9.21
   3   9   4   99.19    7.66
   3   9   5    2.06    1.80
   3   9   5    3.52    1.83
   3   9   6    8.95    1.96
   3   9   6    9.88    2.80
   3   9   7   39.97    4.19
   3   9   7   40.89    5.39
   3   9   8   25.89    4.37
   3   9   8   34.10    3.93
   3   9   9   11.06    2.71
   3   9   9   12.71    2.38
   3   9  10    8.30    1.86
   3  10  -2   83.09    5.32
   3  10  -1   21.23    3.08
   3  10   0   21.37    3.53
   3  10   1    2.90    2.00
   3  10   2  111.55    9.08
   3  10   2  108.60    7.20
   3  10   3   14.17    3.33
   3  10   3   13.99    2.63
   3  10   4   64.82    6.82
   3  10   4   60.50    5.63
   3  10   5    0.42    1.26
   3  10   6   45.19    5.27
   3  10   7   -0.34    0.75
   3  10   7    0.02    1.46
   3  10   8   70.39    5.12
   3  10   8   60.74    6.03
   3  10   9   12.97    2.07
   3  10   9    6.66    1.69
   3  11   0   31.85    3.35
   3  11   1    1.68    1.30
   3  11   2   64.14    5.85
   3  11   3   37.45    3.73
   3  11   3   40.67    4.73
   3  11   4   -0.74    1.18
   3  11   5    2.98    1.59
   3  11   6   13.94    2.70
   3  11   7    7.70    1.94
   3  11   8    1.54    1.16
  -4  10   4   24.09    2.48
   4 -10  -4   23.47    2.40
   4 -10  -3   30.58    3.00
   4 -10  -3   32.99    3.11
   4 -10  -2   25.57    3.08
   4 -10  -2   24.86    2.87
   4 -10  -1   32.12    3.35
  -4  10   1   25.34    2.88
   4 -10  -1   26.38    3.35
   4 -10   0    2.06    1.43
  -4  10   0    2.62    1.22
   4 -10   1   23.17    3.15
   4 -10   2   39.87    3.92
   4 -10   3  129.50    7.28
   4  -9  -6    2.16    0.85
   4  -9  -5    1.36    1.02
  -4   9   5    3.22    1.06
   4  -9  -4   42.73    3.93
   4  -9  -3  150.20    8.77
   4  -9  -3  151.06    8.71
   4  -9  -2   94.66    7.05
   4  -9  -1   17.70    3.29
  -4   9   1   21.61    3.03
   4  -9   0    9.87    2.68
   4  -9   1  171.81   10.51
  -4   9  -2   43.96    4.69
  -4   9  -3   22.46    3.19
  -4   9  -4    4.54    1.54
  -4   9  -5   25.02    2.89
   4  -9   5   30.71    3.02
   4  -8  -7    1.42    0.63
   4  -8  -6    2.19    1.03
   4  -8  -5   58.36    4.85
   4  -8  -4  153.74    8.94
   4  -8  -4  148.96    8.98
   4  -8  -3    8.42    2.17
   4  -8  -3    8.09    2.06
   4  -8  -2   -0.31    1.27
   4  -8  -1   -0.17    1.45
   4  -8   0   11.66    2.73
  -4   8  -1   59.19    5.83
  -4   8  -2   58.75    5.69
  -4   8  -3    0.33    1.11
  -4   8  -4    3.62    1.54
  -4   8  -5   47.62    4.60
   4  -8   5   49.65    4.94
  -4   8  -6   73.33    5.26
   4  -8   6   74.47    5.78
   4  -7  -7   65.85    4.59
   4  -7  -6    1.48    1.08
   4  -7  -5    1.25    1.24
   4  -7  -4   64.64    5.73
   4  -7  -4   66.40    5.81
   4  -7  -3   69.56    6.33
   4  -7  -2   -0.56    1.47
   4  -7  -1    7.61    2.19
  -4   7   0  241.25   13.66
   4  -7   0  269.47   14.35
  -4   7  -1  486.24   21.68
  -4   7  -2  162.64   10.30
   4  -7   3   16.18    2.94
  -4   7  -3   19.88    3.31
  -4   7  -4   43.64    4.79
   4  -7   4   52.90    5.44
  -4   7  -5   39.55    4.40
   4  -7   5   44.02    4.95
  -4   7  -6   80.67    6.04
   4  -7   6   88.64    6.85
   4  -7   7    4.29    1.53
   4  -7   8    4.48    1.36
   4  -6  -8    6.55    1.25
   4  -6  -7   34.59    3.51
   4  -6  -6  119.03    7.32
   4  -6  -6  116.40    7.67
   4  -6  -5  187.96   10.69
   4  -6  -4   -0.63    0.99
   4  -6  -4    2.82    1.51
   4  -6  -3   72.53    6.47
   4  -6  -2   41.94    4.87
   4  -6  -1  109.12    8.40
  -4   6   0  294.46   15.05
  -4   6  -1  477.69   21.08
  -4   6  -2  107.53    7.92
   4  -6   2  103.73    7.83
  -4   6  -3   37.30    4.47
   4  -6   3   43.69    4.90
  -4   6  -4   85.21    6.80
   4  -6   4   76.97    6.66
  -4   6  -5   47.18    4.87
   4  -6   5   48.21    5.12
  -4   6  -6   29.88    3.70
   4  -6   6   37.33    4.39
   4  -6   7   44.18    4.72
   4  -6   8    7.87    1.91
   4  -6   9   31.97    3.47
   4  -5  -8    8.08    1.49
   4  -5  -7    2.60    1.31
   4  -5  -6   37.18    4.00
   4  -5  -6   38.43    4.24
   4  -5  -5  186.42   10.72
   4  -5  -4  448.17   19.42
   4  -5  -4  416.16   19.01
   4  -5  -3    6.13    1.80
   4  -5  -2    0.25    1.22
  -4   5   1  311.27   17.98
  -4   5   0  112.89    9.91
  -4   5  -1   73.54    7.89
  -4   5  -2   22.28    4.45
  -4   5  -3  149.44   11.57
   4  -5   4    2.51    1.23
  -4   5  -4    5.05    1.58
  -4   5  -5  368.18   16.52
   4  -5   5  352.33   16.93
   4  -5   6   99.42    7.51
   4  -5   7   21.63    3.40
   4  -5   8    1.64    1.27
   4  -5   9   30.50    3.73
   4  -5  10   -0.05    0.81
   4  -4  -8    1.67    0.96
   4  -4  -7   46.53    4.35
   4  -4  -6   97.31    7.05
   4  -4  -6   92.83    6.90
   4  -4  -5    0.00    1.02
   4  -4  -4   13.12    2.61
   4  -4  -3   45.38    6.12
   4  -4  -3   49.53    4.93
   4  -4  -2  105.11    9.38
   4  -4  -1  261.27   15.09
  -4   4   1  238.85   14.59
  -4   4   0  327.42   17.82
  -4   4  -1   77.06    7.62
  -4   4  -2    2.65    1.80
  -4   4  -2    2.95    1.90
  -4   4  -3  436.63   23.62
  -4   4  -3  484.79   23.24
   4  -4   3  501.99   22.60
  -4   4  -4  175.44   13.25
   4  -4   4  174.49   12.15
  -4   4  -4  199.22   12.71
   4  -4   5   62.03    5.56
   4  -4   6   55.23    5.27
   4  -4   7  103.36    7.62
   4  -4   8   72.61    6.19
   4  -4   9   40.53    4.43
   4  -4  10   62.80    5.17
   4  -3  -8   69.94    4.69
   4  -3  -7   12.32    2.30
   4  -3  -7    9.84    1.98
   4  -3  -7    9.53    2.08
   4  -3  -6   83.39    6.73
   4  -3  -6   76.01    6.32
   4  -3  -6   79.39    6.34
   4  -3  -5   75.57    6.36
   4  -3  -5   78.76    6.49
   4  -3  -5   67.31    5.96
   4  -3  -4   28.61    3.62
   4  -3  -4   40.17    4.25
   4  -3  -3    7.16    2.60
   4  -3  -2  812.86   34.42
   4  -3  -1  639.89   27.25
  -4   3   0   41.96    5.20
  -4   3  -1   44.44    5.50
  -4   3  -2  529.33   24.71
  -4   3  -3  132.09   10.56
   4  -3   4  325.60   16.77
  -4   3  -4  280.78   17.36
  -4   3  -5    8.31    2.30
  -4   3  -5   13.98    3.37
   4  -3   5    8.05    2.64
  -4   3  -6  126.33    7.94
  -4   3  -6  112.04    7.81
  -4   3  -7   18.96    3.06
  -4   3  -7   21.52    3.08
  -4   3  -8  162.63    9.71
  -4   3  -8  156.98   10.13
   4  -3   9    0.05    0.99
   4  -3  10   -0.73    1.07
   4  -3  11    1.81    1.02
   4  -2  -8   97.32    6.13
   4  -2  -7    8.84    2.02
   4  -2  -6    5.62    1.98
   4  -2  -6    4.47    1.50
   4  -2  -6    4.82    1.70
   4  -2  -5  154.67   10.04
   4  -2  -5  161.17   10.01
   4  -2  -5  158.50    9.57
   4  -2  -4   21.33    3.15
   4  -2  -4   24.02    3.23
   4  -2  -3  274.51   16.10
   4  -2  -2  542.89   25.21
   4  -2  -2  547.78   23.12
   4  -2  -1  569.18   24.92
   4  -2  -1  530.76   23.35
   4  -2   0   20.78    3.66
  -4   2   0   21.65    3.40
  -4   2  -1  388.76   18.56
  -4   2  -2   20.58    3.86
  -4   2  -3  645.36   28.50
  -4   2  -4  192.89   13.58
   4  -2   4  220.87   11.10
   4  -2   4  203.04   12.15
  -4   2  -5  268.14   17.32
   4  -2   5  330.29   16.59
   4  -2   6   37.71    5.19
  -4   2  -7   32.75    3.85
  -4   2  -7   34.74    3.92
  -4   2  -8   22.51    3.31
  -4   2  -8   24.10    3.35
  -4   2  -9  144.78    8.84
  -4   2  -9  138.85    9.37
  -4   2 -10    8.31    2.20
   4  -2  10   11.30    2.27
   4  -2  11   12.09    2.15
   4  -1  -8   13.95    2.20
   4  -1  -7  125.56    8.53
   4  -1  -6   12.93    2.79
   4  -1  -6   11.17    2.52
   4  -1  -5   20.61    3.48
   4  -1  -5   27.53    3.83
   4  -1  -4   43.31    4.75
   4  -1  -4   49.42    5.02
   4  -1  -3  364.78   19.64
   4  -1  -2   30.81    4.49
  -4   1   1  107.06    7.13
   4  -1  -1  113.07    8.74
   4  -1  -1  101.27    7.65
  -4   1   0    5.70    1.83
   4  -1   0    7.33    2.14
   4  -1   0    8.49    1.66
  -4   1  -1  289.61   14.31
   4  -1   1  284.33   12.65
   4  -1   1  262.80   14.33
   4  -1   2   32.01    4.30
   4  -1   2   31.98    3.32
   4  -1   3  623.62   23.61
   4  -1   3  623.30   26.38
   4  -1   4  362.16   15.82
   4  -1   4  336.69   16.46
   4  -1   5  502.94   23.33
   4  -1   5  474.74   21.57
   4  -1   6   72.20    6.91
   4  -1   7  218.83   13.71
  -4   1  -8    1.31    1.17
   4  -1   8    0.47    1.26
  -4   1  -8    1.48    0.82
  -4   1  -9    0.15    1.04
   4  -1   9    0.77    1.50
  -4   1  -9    0.04    0.77
  -4   1 -10    8.89    2.20
   4  -1  10   12.54    2.33
  -4   1 -11   58.63    5.43
   4   0  -8   72.03    5.20
   4   0  -7   47.87    5.14
   4   0  -6   40.52    5.08
   4   0  -5   48.68    5.49
   4   0  -5   51.49    5.36
   4   0  -4   75.46    6.64
   4   0  -4   94.49    7.18
   4   0  -3  671.72   30.31
   4   0  -2  233.34   14.09
   4   0  -1   60.49    6.14
   4   0   0  556.75   24.06
   4   0   0  619.32   25.15
   4   0   0  578.02   22.97
   4   0   1 1666.16   57.86
   4   0   1 1781.80   60.02
   4   0   2  929.52   32.80
   4   0   2  735.56   29.53
   4   0   3   -0.33    0.93
   4   0   3    0.61    1.27
   4   0   4   71.51    5.84
   4   0   4   93.85    7.84
   4   0   5  405.88   19.11
   4   0   5  329.18   16.23
   4   0   6  429.68   20.08
   4   0   7   62.93    6.59
  -4   0  -8  117.05    7.82
   4   0   8  138.74    9.93
  -4   0  -9    3.36    1.53
   4   0   9   -0.01    1.69
  -4   0 -10   23.59    3.40
   4   0  10   23.73    4.51
  -4   0 -11   27.24    3.72
  -4   0 -12    0.86    1.17
   4   1  -8    0.52    0.78
   4   1  -7    4.06    1.89
   4   1  -6   35.01    4.61
   4   1  -5   44.88    5.30
   4   1  -4  169.73   10.92
   4   1  -4  197.89   11.44
   4   1  -3    6.73    2.56
   4   1  -2  142.87   10.74
   4   1  -1   20.17    3.51
   4   1   0  349.35   17.03
   4   1   0  384.76   17.23
   4   1   1    9.49    2.32
   4   1   1    7.00    2.08
   4   1   2  819.04   28.81
   4   1   2  768.90   29.65
   4   1   3  249.13   13.02
   4   1   3  192.23   10.85
   4   1   4   68.94    5.83
   4   1   4   90.83    7.30
   4   1   5    0.00    1.08
   4   1   5    0.91    1.28
   4   1   6  419.83   19.41
   4   1   7   34.96    4.82
  -4  -1  -8    0.45    0.68
   4   1   8   -1.76    1.32
  -4  -1  -9    2.42    1.42
   4   1   9    1.04    1.39
  -4  -1 -10   26.10    3.57
   4   1  10   23.18    4.26
  -4  -1 -11    2.74    1.33
   4   1  11    4.85    2.08
   4   1  11    2.57    1.71
  -4  -1 -12   10.86    2.24
   4   2  -8   27.55    2.64
   4   2  -8   25.63    2.55
   4   2  -7   26.03    3.39
   4   2  -6    3.05    1.67
   4   2  -5  238.18   13.80
   4   2  -4  394.78   19.03
  -4  -2   3  206.55   14.45
   4   2  -3  236.14   15.53
   4   2  -2   20.58    4.19
   4   2  -1    1.84    1.39
   4   2   0 1135.13   44.16
   4   2   0 1337.44   45.76
   4   2   1  574.64   24.19
   4   2   1  676.78   26.36
   4   2   2   93.04    6.07
   4   2   2   74.63    6.84
   4   2   3   33.62    4.34
   4   2   4  403.71   18.20
   4   2   5  542.68   23.11
   4   2   6   49.04    5.35
   4   2   7  192.15   12.43
  -4  -2  -8   -2.33    1.07
   4   2   8    1.65    1.33
   4   2   8   -1.82    1.52
   4   2   9  164.65   11.10
  -4  -2  -9  162.57    9.45
  -4  -2 -10    4.15    1.68
   4   2  10    6.61    2.75
   4   2  10    0.35    1.16
   4   2  11   25.42    4.26
  -4  -2 -11   22.95    3.25
  -4  -2 -12    0.51    0.99
   4   3  -7   -0.06    0.95
   4   3  -7   -1.44    1.26
   4   3  -6    7.04    2.16
   4   3  -5   35.20    4.62
   4   3  -4    0.79    1.37
   4   3  -4    6.53    2.33
   4   3  -3   10.59    2.41
   4   3  -3   12.69    2.86
  -4  -3   2   34.10    5.38
   4   3  -2   30.65    5.06
   4   3  -1  372.36   19.19
   4   3   0  133.28    9.80
   4   3   0  121.58    8.84
   4   3   1 1224.97   44.36
   4   3   1 1112.83   41.09
   4   3   2  362.87   18.57
   4   3   3    3.69    1.84
   4   3   4    2.01    1.38
   4   3   5  675.37   28.09
   4   3   6   21.60    3.66
   4   3   7    1.75    1.60
   4   3   8   87.81    8.07
   4   3   8   85.02    6.91
   4   3   8   90.32    8.79
  -4  -3  -9  237.97   11.88
   4   3   9  231.04   13.43
   4   3   9  231.60   15.45
   4   3  10   37.01    5.10
  -4  -3 -10   36.75    4.06
  -4  -3 -11    0.56    0.74
   4   3  11    1.61    1.52
  -4  -3 -12    0.77    0.82
   4   3  12    3.85    1.61
   4   4  -7    0.14    0.44
   4   4  -7    1.07    0.80
   4   4  -6  116.58    7.37
   4   4  -5   85.65    6.92
   4   4  -5   81.26    6.65
   4   4  -4   57.04    5.83
   4   4  -4   58.88    6.17
   4   4  -3   42.17    4.84
   4   4  -3   36.94    4.87
   4   4  -2   86.73    7.33
   4   4  -2   93.41    6.98
   4   4  -1  392.18   20.53
   4   4   0  408.88   19.66
   4   4   1   28.32    4.73
   4   4   2  244.73   15.04
   4   4   3  202.11   13.70
   4   4   4  131.52   10.62
   4   4   5  115.51    9.71
   4   4   6  162.46   11.86
   4   4   7  109.51    9.81
   4   4   8   33.89    4.13
   4   4   8   41.27    5.87
   4   4   9   10.98    3.50
   4   4   9    8.35    2.24
   4   4  10    6.27    2.47
   4   4  10    4.28    2.08
  -4  -4 -11    0.52    0.75
   4   4  11    1.14    1.73
   4   4  12   38.51    4.61
  -4  -4 -12   46.08    3.79
   4   5  -6   27.28    2.81
   4   5  -5   31.98    3.78
   4   5  -5   35.22    3.97
   4   5  -4   27.57    4.16
   4   5  -3    0.58    1.71
   4   5  -2   60.05    6.31
   4   5  -2   70.55    6.18
   4   5  -1   76.93    6.80
   4   5  -1   87.16    6.81
  -4  -5   0  281.13   16.52
   4   5   1    2.29    1.81
   4   5   2  140.26   11.50
   4   5   3  220.47   15.21
   4   5   4  669.60   31.93
   4   5   5   93.59    9.86
   4   5   6    0.55    1.27
   4   5   7    5.34    2.00
   4   5   7    3.55    1.16
   4   5   8   88.11    6.90
   4   5   8   80.09    8.31
   4   5   9   43.43    5.03
   4   5   9   42.46    6.38
   4   5  10    2.86    1.97
   4   5  10    2.04    1.91
   4   5  11    9.39    2.73
   4   5  12   36.49    4.23
   4   6  -5   22.86    2.80
   4   6  -4    1.83    1.31
   4   6  -3    8.73    2.35
   4   6  -2  334.45   17.36
   4   6  -1  106.33    8.45
   4   6  -1  111.54    8.23
   4   6  -1  116.63    8.37
   4   6   0   14.21    2.77
   4   6   0   22.62    3.47
   4   6   0   16.88    2.95
   4   6   1    9.78    2.27
   4   6   1    7.37    2.05
   4   6   2  253.14   16.86
   4   6   3  158.04   13.09
   4   6   4    1.03    1.47
   4   6   5   83.08    7.88
   4   6   5   81.81    9.86
   4   6   5   73.94    6.27
   4   6   6   88.03    6.39
   4   6   6   86.58    7.31
   4   6   7   21.94    3.19
   4   6   7   27.40    4.77
   4   6   8   21.17    3.30
   4   6   8   21.11    4.18
   4   6   9   18.52    3.26
   4   6   9   23.45    4.80
   4   6  10    1.57    1.90
   4   6  10    0.84    1.85
   4   6  11    1.57    1.72
   4   6  12    4.50    1.43
   4   7  -4   19.42    2.79
   4   7  -4   21.41    2.75
   4   7  -3   71.79    6.34
   4   7  -2   68.88    6.59
   4   7  -1   28.64    4.20
   4   7  -1   27.16    3.88
   4   7  -1   34.01    4.34
   4   7   0   71.18    6.60
   4   7   0   64.38    6.30
   4   7   0   75.54    6.71
   4   7   1    0.65    1.18
   4   7   1    5.51    1.89
   4   7   1    2.65    1.48
   4   7   2    1.82    1.32
   4   7   3  368.74   18.35
   4   7   3  388.80   16.83
   4   7   4   36.16    4.36
   4   7   4   39.98    5.24
   4   7   4   36.49    4.27
   4   7   5    9.96    2.86
   4   7   5    5.43    1.76
   4   7   6   14.13    2.41
   4   7   6   13.43    2.99
   4   7   7  299.11   14.49
   4   7   7  306.04   16.64
   4   7   8   19.45    3.18
   4   7   8   19.95    3.94
   4   7   9   20.93    3.30
   4   7   9   20.85    4.33
   4   7  10   -0.75    1.45
   4   7  10    1.31    1.82
   4   7  11   12.00    2.52
   4   8  -3   51.42    4.62
   4   8  -2   37.95    4.59
   4   8  -2   45.94    4.46
   4   8  -1   14.27    2.97
   4   8  -1   12.01    2.57
   4   8   0    6.00    2.01
   4   8   0    4.88    1.78
   4   8   0    3.91    2.02
   4   8   1   28.22    3.92
   4   8   1   24.75    3.61
   4   8   1   25.64    3.98
   4   8   2  119.38    8.74
   4   8   2  107.75    8.70
   4   8   3  224.59   13.69
   4   8   3  221.43   12.09
   4   8   4   40.73    5.61
   4   8   4   35.15    4.32
   4   8   5  166.46   11.69
   4   8   5  129.64    9.23
   4   8   6    9.10    2.48
   4   8   7   10.58    2.13
   4   8   7    8.91    2.87
   4   8   8   11.86    2.34
   4   8   8   10.62    3.02
   4   8   9    1.35    1.43
   4   8   9    0.66    1.54
   4   8  10   10.77    2.35
   4   8  10    7.30    2.30
   4   8  11   12.59    2.24
   4   9  -2   31.57    3.01
   4   9  -1    1.44    1.18
   4   9  -1    4.20    1.43
   4   9   0   64.27    5.61
   4   9   0   68.57    6.09
   4   9   1   24.40    3.29
   4   9   1   20.63    3.54
   4   9   2   34.11    4.77
   4   9   2   48.39    5.13
   4   9   3    5.94    1.94
   4   9   3    4.28    2.13
   4   9   3    5.25    1.41
   4   9   4   26.24    4.49
   4   9   4   20.53    3.21
   4   9   5   41.06    5.55
   4   9   5   36.62    4.50
   4   9   6   30.10    4.20
   4   9   7    7.66    2.65
   4   9   8   17.49    2.65
   4   9   8   19.42    3.76
   4   9   9    6.22    1.59
   4   9   9    7.49    2.44
   4   9  10   27.60    3.05
   4   9  10   24.77    3.20
   4  10  -1    1.74    0.72
   4  10   0   50.25    4.46
   4  10   1   36.60    4.19
   4  10   2   15.04    3.03
   4  10   3   40.89    4.96
   4  10   3   37.18    3.89
   4  10   4   12.04    2.50
   4  10   4   15.25    3.17
   4  10   4   10.68    2.27
   4  10   5   16.53    2.85
   4  10   6   36.22    4.36
   4  10   7   10.43    2.62
   4  10   8    0.86    1.22
   4  10   9    0.79    1.16
   4  11   1   92.68    5.66
   4  11   2    3.17    1.31
   4  11   3    1.42    1.06
   4  11   4    7.89    1.70
   4  11   5   41.72    3.98
   4  11   6    9.30    2.07
   4  11   7    3.24    1.38
   5 -10  -2   -0.27    0.47
   5 -10  -2   -0.58    0.67
   5 -10  -1   26.03    2.71
   5 -10  -1   28.74    2.64
   5 -10   0   18.52    2.17
   5 -10   0   17.69    2.33
   5 -10   1   64.10    4.59
  -5  10  -1   60.24    4.05
   5 -10   2    1.77    0.87
  -5  10  -2   -0.35    0.55
  -5   9   4   51.17    3.44
   5  -9  -4   55.96    3.79
   5  -9  -3    6.74    1.49
   5  -9  -2    4.88    1.49
   5  -9  -2    7.14    1.84
   5  -9  -1   61.21    5.33
   5  -9   0   73.59    6.10
   5  -9   1    4.86    1.79
   5  -9   2   11.14    2.42
   5  -9   3   34.65    3.78
   5  -9   4   26.85    2.93
   5  -8  -5   23.08    2.25
   5  -8  -5   23.56    2.48
   5  -8  -4    9.87    1.90
   5  -8  -3    0.84    1.06
   5  -8  -3    0.25    0.99
   5  -8  -2   79.52    6.39
   5  -8  -1   29.73    4.14
   5  -8   0  208.00   12.35
   5  -8   1   32.36    4.53
   5  -8   2    0.81    1.32
   5  -8   3   15.90    3.06
  -5   8  -4  187.07   10.38
   5  -8   4  191.82   10.46
   5  -8   4  184.39   10.42
   5  -8   5   13.28    2.39
  -5   8  -5   12.41    2.16
   5  -8   6   -1.72    0.95
   5  -7  -6   41.73    3.26
   5  -7  -5   78.56    5.33
   5  -7  -4    0.38    1.05
   5  -7  -3   15.29    2.57
   5  -7  -3   17.78    3.01
   5  -7  -2  203.89   11.92
   5  -7  -1  207.63   12.52
   5  -7   0    3.93    2.00
   5  -7   1    4.08    2.05
  -5   7  -2   50.91    5.66
   5  -7   2   50.81    5.72
   5  -7   2   54.89    5.53
  -5   7  -3   58.09    5.77
   5  -7   3   51.55    5.50
   5  -7   4   11.24    2.71
  -5   7  -4    6.63    1.87
   5  -7   5   19.30    3.23
  -5   7  -5   20.03    2.95
   5  -7   6   19.49    3.18
   5  -7   7    3.76    1.47
   5  -6  -7    2.21    0.71
   5  -6  -6   12.35    1.98
   5  -6  -6   10.08    1.64
   5  -6  -5  124.06    7.45
   5  -6  -4    0.90    0.94
   5  -6  -3    7.95    1.97
   5  -6  -3    7.17    2.20
   5  -6  -2   11.09    2.78
   5  -6  -1  123.84    9.20
   5  -6   0    5.28    1.89
   5  -6   0    2.36    1.56
   5  -6   1   38.72    5.07
   5  -6   1   42.76    4.80
   5  -6   2    6.92    2.24
  -5   6  -2    8.68    2.76
   5  -6   2    7.77    2.11
  -5   6  -3  412.56   19.00
   5  -6   3  364.61   18.48
  -5   6  -4  403.81   18.50
   5  -6   4  368.44   18.50
   5  -6   5    1.53    1.30
  -5   6  -5   -0.40    1.01
   5  -6   6   10.01    2.52
   5  -6   7   60.64    5.67
   5  -6   8   16.22    2.74
   5  -6   9   10.45    1.97
   5  -5  -7   55.87    3.74
   5  -5  -6   24.31    2.81
   5  -5  -6   27.76    3.01
   5  -5  -5   22.41    3.12
   5  -5  -5   26.80    3.25
   5  -5  -4  117.27    7.72
   5  -5  -3  612.93   24.82
   5  -5  -3  635.25   25.63
   5  -5  -2  144.22    9.73
   5  -5  -2  156.83    9.37
   5  -5  -1   -0.33    0.83
   5  -5  -1    2.08    1.49
   5  -5   0   14.35    2.83
   5  -5   0   14.31    2.93
   5  -5   1  267.32   14.46
   5  -5   1  244.80   13.50
  -5   5  -2  256.81   13.51
   5  -5   2  233.97   13.31
  -5   5  -3   72.65    6.48
   5  -5   3   60.18    6.14
   5  -5   4  391.19   18.94
   5  -5   5  260.97   14.45
   5  -5   6  126.34    9.10
   5  -5   7    3.42    1.86
   5  -5   8   23.65    3.56
   5  -5   9    1.29    1.14
   5  -4  -7   11.82    1.67
   5  -4  -6    3.97    1.29
   5  -4  -6    2.74    1.15
   5  -4  -5   24.45    3.25
   5  -4  -5   23.45    3.06
   5  -4  -4    1.16    1.08
   5  -4  -3  113.66    7.74
   5  -4  -3  128.04    8.26
   5  -4  -2  345.31   16.63
   5  -4  -2  367.48   16.63
   5  -4  -1  114.32    8.16
  -5   4   1  105.28    9.56
   5  -4  -1  121.85    8.05
  -5   4   0    2.97    1.94
   5  -4   0    3.78    2.47
   5  -4   1   31.77    5.36
  -5   4  -1   28.15    4.84
  -5   4  -2  524.76   25.51
  -5   4  -2  433.91   23.88
  -5   4  -3   27.18    5.16
  -5   4  -3   19.42    4.16
   5  -4   4   35.63    4.56
   5  -4   5   -0.97    1.12
   5  -4   6  288.77   15.17
   5  -4   7    2.43    1.69
   5  -4   8   43.80    4.89
   5  -4   9   27.31    3.62
   5  -4  10   22.88    2.99
   5  -3  -7   68.54    4.53
   5  -3  -6   15.62    2.55
   5  -3  -6    9.67    2.04
   5  -3  -5   24.48    3.35
   5  -3  -5   19.16    2.77
   5  -3  -5   16.29    2.82
   5  -3  -4  297.21   14.30
   5  -3  -4  282.52   13.74
   5  -3  -3   41.60    4.30
   5  -3  -3   32.41    3.98
   5  -3  -3   38.26    4.06
   5  -3  -2    6.41    1.70
   5  -3  -2    5.62    1.52
   5  -3  -1   31.37    4.94
   5  -3  -1   31.57    4.68
   5  -3   0  467.06   22.99
  -5   3  -1  104.75    9.11
   5  -3   1   98.60    9.18
  -5   3  -2  182.37   12.85
   5  -3   2  163.44   12.64
  -5   3  -3  244.11   15.91
  -5   3  -4   22.28    4.65
  -5   3  -5   31.58    5.84
  -5   3  -5   27.09    4.82
   5  -3   5   41.98    4.82
   5  -3   6  124.58    8.89
   5  -3   7  131.46    9.21
   5  -3   8    2.60    1.68
   5  -3   9    2.58    1.26
   5  -3  10   37.92    4.08
   5  -3  11   24.91    3.28
   5  -2  -7   32.72    3.24
   5  -2  -6   -0.49    1.04
   5  -2  -6   -0.78    0.99
   5  -2  -5  258.90   12.94
   5  -2  -5  214.17   11.96
   5  -2  -4   84.30    6.70
   5  -2  -4   73.37    6.24
   5  -2  -3   81.78    6.40
   5  -2  -2    6.22    2.46
   5  -2  -1   96.42    8.65
   5  -2  -1   91.05    7.71
  -5   2   0   62.87    6.15
   5  -2   0   52.87    5.98
   5  -2   1 1142.59   46.55
  -5   2  -1 1345.04   47.13
  -5   2  -2  202.42   12.68
   5  -2   2  165.37   12.06
  -5   2  -3   -0.22    1.47
   5  -2   3    0.73    1.42
  -5   2  -4  139.35   11.40
   5  -2   4  129.34   10.66
  -5   2  -5  486.43   25.03
   5  -2   5  447.72   23.58
  -5   2  -6   44.73    6.84
   5  -2   6   52.55    5.31
   5  -2   7   31.06    4.13
   5  -2   8    8.85    2.29
   5  -2   9   96.21    7.27
   5  -2  10   14.49    2.60
   5  -2  11   24.08    2.90
   5  -2  11   19.39    3.09
   5  -1  -7    2.49    1.12
   5  -1  -6  118.44    8.02
   5  -1  -5  247.75   13.11
   5  -1  -5  230.41   12.50
   5  -1  -4   39.09    4.55
   5  -1  -4   42.25    4.64
   5  -1  -3   15.97    2.74
   5  -1  -3   14.74    2.67
   5  -1  -2   81.66    7.95
   5  -1  -1  180.91   12.17
  -5   1   0  350.46   16.16
   5  -1   0  327.42   17.38
  -5   1  -1  320.09   16.03
   5  -1   1  307.00   16.41
  -5   1  -2  305.55   15.96
   5  -1   2  279.30   15.75
   5  -1   3  394.08   19.71
   5  -1   3  369.87   17.36
   5  -1   4  179.75   12.50
   5  -1   4  188.83   11.08
   5  -1   5   81.61    7.21
   5  -1   5   74.71    7.84
   5  -1   6  112.86    9.24
  -5   1  -7   19.84    3.04
   5  -1   7   20.97    3.59
   5  -1   7   26.35    3.60
  -5   1  -8    6.59    1.86
   5  -1   8    8.28    2.10
   5  -1   8    4.27    2.17
  -5   1  -9   10.46    2.42
   5  -1   9    8.78    2.11
  -5   1 -10    6.02    1.89
   5  -1  10   12.35    2.43
   5  -1  11    1.69    1.21
   5   0  -7   -0.11    1.04
   5   0  -6   35.98    4.30
   5   0  -5   87.80    7.22
   5   0  -4  101.34    7.87
   5   0  -4  103.91    7.73
   5   0  -3   17.18    2.93
   5   0  -3   24.15    3.46
   5   0  -2   40.22    5.67
   5   0  -1   68.28    6.97
   5   0   0  801.94   32.64
   5   0   1   21.08    3.18
   5   0   1   24.32    3.86
   5   0   1   21.39    3.62
   5   0   2    1.53    1.23
   5   0   2    1.56    1.21
   5   0   3   77.61    6.83
   5   0   3   95.67    8.09
   5   0   4  285.92   16.08
   5   0   4  274.51   14.49
   5   0   5    8.79    2.54
   5   0   5    8.89    2.63
   5   0   6  126.26    9.79
   5   0   7    2.09    1.44
   5   0   8  138.95   10.05
  -5   0  -8  156.56    9.31
   5   0   9   70.81    7.18
  -5   0  -9   67.51    5.86
  -5   0 -10   20.42    3.15
   5   0  10   26.68    4.49
  -5   0 -11   -1.80    1.26
   5   0  11    2.04    1.84
   5   0  12    9.37    2.10
   5   1  -7   12.64    2.03
   5   1  -6   93.19    6.93
   5   1  -5  158.83   10.27
   5   1  -4    4.34    1.66
   5   1  -4    2.15    1.35
   5   1  -3    4.63    1.81
   5   1  -3    2.47    1.40
   5   1  -2  188.40   13.43
   5   1  -2  195.59   10.92
   5   1  -2  199.90   11.13
   5   1  -1  332.83   18.19
   5   1   0  267.69   14.93
   5   1   1  180.65   11.02
   5   1   1  195.31   11.61
   5   1   2  311.18   14.81
   5   1   2  235.45   13.91
   5   1   3  383.15   18.81
   5   1   4 1297.26   45.53
   5   1   4 1086.98   43.45
   5   1   5   85.85    7.56
   5   1   6    1.19    1.83
   5   1   7    3.28    1.99
   5   1   7    6.56    1.85
   5   1   7    5.70    2.15
   5   1   8  160.37   10.81
  -5  -1  -8  204.05   10.55
   5   1   9   43.87    5.39
  -5  -1  -9   46.88    4.67
  -5  -1 -10    9.85    2.12
   5   1  10   14.15    3.38
   5   1  10    9.50    2.71
  -5  -1 -11    8.80    1.97
   5   1  11    8.50    2.83
   5   1  11    6.79    2.15
   5   1  12    0.95    0.96
   5   2  -7   62.51    4.14
   5   2  -6    4.83    1.57
   5   2  -5    2.59    1.47
   5   2  -4   27.30    4.01
   5   2  -4   33.90    4.28
   5   2  -3  279.92   14.65
   5   2  -2   65.31    5.88
   5   2  -2   68.70    6.09
   5   2  -1  312.79   17.81
   5   2   0    0.61    1.33
   5   2   1   21.76    3.66
   5   2   1   18.56    3.31
   5   2   2    2.34    1.77
   5   2   3  234.70   14.14
   5   2   4   -0.52    1.61
   5   2   5   56.53    6.28
   5   2   6    1.11    1.59
   5   2   7   43.79    5.84
   5   2   7   32.94    3.94
   5   2   7   42.13    5.05
   5   2   8    4.87    1.56
   5   2   8    3.10    1.40
   5   2   8    6.17    2.31
   5   2   9   80.50    7.71
   5   2   9  104.94    8.23
  -5  -2 -10    9.75    2.14
   5   2  10    9.65    2.96
   5   2  10    7.35    2.36
  -5  -2 -11    2.50    1.38
   5   2  11    3.49    1.84
   5   2  11    3.40    1.81
  -5  -2 -12    0.96    0.91
   5   3  -6   19.29    2.56
   5   3  -5   10.88    2.44
   5   3  -4   51.08    5.43
   5   3  -4   55.78    5.61
   5   3  -3   82.95    7.13
   5   3  -3   84.30    7.33
   5   3  -2  377.15   17.76
   5   3  -1  249.07   16.00
   5   3  -1  262.15   12.81
   5   3   0  128.19   10.11
   5   3   1    4.73    1.93
   5   3   2  354.28   18.56
   5   3   3  381.59   20.04
   5   3   4  214.32   14.11
   5   3   5   54.74    6.52
   5   3   6   41.35    5.62
   5   3   7  229.41   13.25
   5   3   7  208.86   12.97
   5   3   7  231.61   11.94
   5   3   8   80.42    7.81
   5   3   8   63.71    6.91
   5   3   8   79.39    6.58
   5   3   9    2.55    1.61
   5   3   9    5.89    2.23
   5   3   9    0.64    1.84
   5   3  10   29.91    4.40
   5   3  10   28.80    4.58
   5   3  11   27.87    4.44
   5   3  12   18.38    3.21
   5   4  -6   57.60    3.74
   5   4  -6   66.93    4.18
   5   4  -5   18.20    2.63
   5   4  -4   12.27    2.43
   5   4  -4   10.04    2.35
   5   4  -3   12.07    2.62
   5   4  -3    9.00    2.54
   5   4  -2  107.69    8.52
   5   4  -1   43.14    4.94
   5   4  -1   38.16    4.29
   5   4   0   90.61    7.23
   5   4   0  101.68    7.17
   5   4   0   95.99    6.94
   5   4   1   69.89    7.48
   5   4   2  332.11   18.54
   5   4   3  234.17   15.08
   5   4   4   29.45    5.09
   5   4   5   95.31    9.56
   5   4   6   29.91    5.37
   5   4   7    4.70    1.81
   5   4   7    6.16    1.69
   5   4   7    4.04    1.94
   5   4   8  146.29   11.01
   5   4   8  134.56    9.03
   5   4   8  147.47   10.81
   5   4   9   17.66    4.10
   5   4   9   16.52    3.09
   5   4   9   10.72    2.88
   5   4  10   -0.01    1.57
   5   4  10    0.73    1.37
   5   4  11   26.73    4.14
   5   4  12   53.65    5.33
   5   5  -5    1.39    0.82
   5   5  -5   -0.47    0.60
   5   5  -4   70.69    5.84
   5   5  -3  131.83    9.26
   5   5  -2   68.89    6.80
   5   5  -1   42.65    5.28
   5   5  -1   52.48    5.18
   5   5   0  116.67    8.10
   5   5   1  283.22   14.43
   5   5   1  293.21   15.27
   5   5   1  330.56   15.33
   5   5   2  100.77    7.74
   5   5   2  116.33    7.99
   5   5   2  116.24   10.36
   5   5   3  222.34   15.22
   5   5   4   26.17    4.95
   5   5   5   11.88    3.59
   5   5   6   53.13    5.83
   5   5   6   49.67    4.72
   5   5   6   46.64    5.06
   5   5   7   39.05    5.22
   5   5   7   42.09    4.47
   5   5   7   38.91    5.01
   5   5   8   23.56    4.19
   5   5   8   17.60    2.93
   5   5   8   14.51    3.35
   5   5   9   15.10    3.64
   5   5   9   12.75    2.72
   5   5  10   84.98    7.24
   5   5  10   95.42    8.79
   5   5  11    1.79    1.55
   5   5  12    1.68    1.36
   5   6  -4   19.11    2.61
   5   6  -3   99.74    7.42
   5   6  -2    0.01    1.61
   5   6  -1    0.68    1.74
   5   6  -1   -0.19    1.49
   5   6   0   -0.40    1.08
   5   6   0    1.53    1.54
   5   6   1  102.67    8.24
   5   6   1   96.80    7.59
   5   6   1  109.00    7.84
   5   6   2   37.40    4.66
   5   6   2   36.69    4.54
   5   6   2   45.91    4.96
   5   6   2   37.99    4.51
   5   6   3   16.90    3.03
   5   6   3   14.73    2.89
   5   6   3   15.17    2.87
   5   6   4    4.11    1.56
   5   6   4    2.10    1.45
   5   6   4    2.91    1.41
   5   6   4    0.37    0.83
   5   6   5  116.19    8.69
   5   6   5  107.56    7.96
   5   6   6  141.77    9.93
   5   6   6  117.30    8.85
   5   6   7   91.83    6.80
   5   6   7   73.27    7.09
   5   6   8    0.81    1.07
   5   6   8    1.62    1.56
   5   6   9    3.91    1.63
   5   6   9    4.18    2.16
   5   6  10    5.31    1.93
   5   6  10    8.08    2.82
   5   6  11   16.86    3.00
   5   6  12    2.98    1.37
   5   7  -3   11.43    2.18
   5   7  -2   21.82    3.57
   5   7  -1   71.17    6.69
   5   7   0   35.73    4.75
   5   7   0   38.94    4.59
   5   7   0   45.15    4.80
   5   7   1  221.99   12.79
   5   7   1  202.04   12.08
   5   7   1  202.31   11.81
   5   7   2   45.18    5.04
   5   7   2   60.39    5.85
   5   7   2   50.33    5.46
   5   7   3   77.82    6.88
   5   7   3   87.47    7.38
   5   7   4    9.82    2.65
   5   7   4    9.68    2.37
   5   7   4   10.43    2.30
   5   7   5  102.37    8.04
   5   7   5  110.76    8.94
   5   7   5   96.64    7.67
   5   7   6   22.62    3.71
   5   7   7   -0.25    0.89
   5   7   7   -0.30    1.38
   5   7   8    0.75    0.91
   5   7   8   -0.29    1.82
   5   7   9   27.13    3.68
   5   7   9   29.24    4.63
   5   7  10   14.23    2.69
   5   7  10   11.82    3.06
   5   7  11    1.55    1.02
   5   8  -2    2.35    1.34
   5   8  -1   26.61    3.62
   5   8   0  127.37    9.07
   5   8   0  147.92    9.12
   5   8   0  158.44    9.09
   5   8   1   24.24    3.54
   5   8   1   22.49    3.59
   5   8   1   25.40    3.68
   5   8   2    2.23    1.25
   5   8   2    4.74    1.58
   5   8   2    4.04    1.80
   5   8   3   94.44    7.53
   5   8   3  105.40    8.30
   5   8   4   12.42    3.14
   5   8   4   11.63    2.48
   5   8   5   -0.01    1.02
   5   8   6   99.57    7.89
   5   8   7   -0.74    1.71
   5   8   8    9.37    1.96
   5   8   8    6.93    2.51
   5   8   9    8.87    1.96
   5   8   9    8.30    2.47
   5   8  10   51.61    4.55
   5   8  10   59.71    5.73
   5   8  11    6.43    1.56
   5   9   0   32.80    3.59
   5   9   0   34.63    3.57
   5   9   1   16.97    2.71
   5   9   1   15.92    2.73
   5   9   2    2.38    1.40
   5   9   2    2.23    1.48
   5   9   3   -0.79    1.55
   5   9   3   -0.06    1.42
   5   9   4   26.24    3.75
   5   9   4   32.56    4.46
   5   9   4   32.18    3.78
   5   9   5   20.64    3.17
   5   9   6   55.14    5.45
   5   9   7   -1.11    1.60
   5   9   8   71.25    6.35
   5   9   9    5.22    1.31
   5   9   9    2.81    1.67
   5   9  10    1.63    0.75
   5   9  10   -0.21    0.90
   5  10   1    5.57    1.44
   5  10   2   24.58    3.13
   5  10   3   74.45    6.01
   5  10   3   75.86    5.51
   5  10   4   14.19    2.37
   5  10   5   10.77    2.15
   5  10   5   11.38    2.14
   5  10   6    6.51    1.83
   5  10   7   22.09    3.13
   5  10   8   13.10    2.44
   5  10   9    7.05    1.59
   6  -9  -2   78.97    4.52
   6  -9  -1   20.60    2.25
   6  -9  -1   21.21    2.45
   6  -9   0    2.15    1.17
   6  -9   1   15.22    2.38
   6  -9   2   69.42    4.91
   6  -9   3    9.81    1.64
   6  -8  -4   21.38    2.04
   6  -8  -3   13.49    1.86
   6  -8  -2   27.43    2.94
   6  -8  -1   15.82    2.67
   6  -8   0   24.65    3.51
   6  -8   1   53.85    5.26
   6  -8   2   57.86    5.36
   6  -8   3   69.56    5.63
   6  -8   4    3.34    1.24
   6  -8   4    3.56    1.37
   6  -8   5   -1.65    0.91
   6  -7  -5    8.84    1.32
   6  -7  -4   33.13    2.97
   6  -7  -3   62.99    4.68
   6  -7  -2   43.02    4.01
   6  -7  -2   41.19    4.36
   6  -7  -1    0.82    1.90
   6  -7   0   33.88    4.51
   6  -7   1  101.99    8.35
   6  -7   1  113.23    7.42
   6  -7   2   60.68    6.08
   6  -7   2   48.90    4.91
   6  -7   3   62.41    5.97
   6  -7   3   59.85    5.61
   6  -7   4    2.15    1.40
   6  -7   4    1.01    0.98
   6  -7   5   10.81    2.33
   6  -7   6   10.43    2.15
   6  -7   7   74.59    5.33
   6  -6  -5   86.82    5.13
   6  -6  -5   90.92    5.12
   6  -6  -4  106.05    6.31
   6  -6  -3   22.31    2.85
   6  -6  -2   72.18    5.63
   6  -6  -2   74.76    6.37
   6  -6  -1    9.20    1.97
   6  -6  -1    8.19    2.40
   6  -6   0  130.96    9.64
   6  -6   0  130.84    8.38
   6  -6   1  189.37   12.12
   6  -6   1  181.19   10.78
   6  -6   2  116.85    9.20
   6  -6   2  118.60    8.61
   6  -6   3   12.41    2.79
   6  -6   3   20.20    3.55
   6  -6   4   78.43    7.08
   6  -6   5   53.89    5.76
   6  -6   6   12.84    2.78
   6  -6   7    1.24    1.52
   6  -6   8    1.01    1.19
   6  -5  -6   14.12    1.63
   6  -5  -5   10.82    1.71
   6  -5  -5   12.84    2.01
   6  -5  -4   38.81    3.95
   6  -5  -4   40.36    3.74
   6  -5  -3    4.36    1.39
   6  -5  -2   11.37    2.33
   6  -5  -2   10.72    2.22
   6  -5  -1    1.27    1.00
   6  -5  -1    1.57    1.26
   6  -5   0   97.15    8.07
   6  -5   0   96.08    7.24
   6  -5   1   11.46    2.54
   6  -5   1   15.06    3.22
   6  -5   2   20.73    3.54
   6  -5   2   22.19    3.84
   6  -5   3   25.02    4.19
   6  -5   3   28.62    4.20
   6  -5   4   18.51    3.56
   6  -5   5   12.71    3.25
   6  -5   6  120.81    9.12
   6  -5   7   93.20    7.62
   6  -5   8   -1.15    1.55
   6  -5   9   13.02    2.31
   6  -5   9   10.33    1.69
   6  -4  -6   12.57    1.69
   6  -4  -5   82.53    5.62
   6  -4  -4   16.54    2.36
   6  -4  -4   11.00    2.22
   6  -4  -3   99.84    6.70
   6  -4  -2  224.21   11.54
   6  -4  -2  230.24   11.37
   6  -4  -2  228.07   11.91
   6  -4  -1  383.09   18.46
   6  -4  -1  425.65   18.30
   6  -4   0  566.42   24.53
   6  -4   0  585.00   23.99
   6  -4   1  185.14   11.52
   6  -4   1  188.30   11.27
   6  -4   2   13.61    2.91
   6  -4   2   22.30    3.54
   6  -4   3   17.98    3.46
   6  -4   4  310.58   16.86
   6  -4   5   34.54    4.97
   6  -4   6   55.93    6.27
   6  -4   7   30.86    4.43
   6  -4   8  166.30   10.46
   6  -4   9   44.47    4.64
   6  -4  10    0.40    0.86
   6  -4  10   -0.22    0.65
   6  -3  -6   45.44    3.39
   6  -3  -5   63.57    4.85
   6  -3  -5   54.12    4.59
   6  -3  -4   10.67    2.13
   6  -3  -4   11.05    2.28
   6  -3  -3   56.72    5.02
   6  -3  -2    9.62    2.15
   6  -3  -2    8.23    1.92
   6  -3  -1  106.58    7.54
   6  -3   0   36.66    4.30
   6  -3   0   39.26    4.45
   6  -3   1   91.10    7.09
   6  -3   1   94.64    7.30
   6  -3   2   25.42    3.78
   6  -3   3    6.51    2.23
   6  -3   4  102.48    8.55
   6  -3   5  145.68   10.53
   6  -3   6    7.66    2.32
   6  -3   7   17.46    3.52
   6  -3   8   34.02    4.54
   6  -3   9   67.64    6.01
   6  -3  10    4.54    1.67
   6  -3  10    2.89    1.31
   6  -2  -6   21.60    2.46
   6  -2  -5    4.79    1.51
   6  -2  -5    5.54    1.63
   6  -2  -4  157.95    9.14
   6  -2  -4  147.13    9.01
   6  -2  -3   12.58    2.38
   6  -2  -3   14.97    2.71
   6  -2  -2  120.40    7.89
   6  -2  -2  131.79    8.46
   6  -2  -1  207.33   11.35
   6  -2   0   98.15    7.19
  -6   2  -1   54.86    6.17
   6  -2   1   55.71    6.52
   6  -2   1   56.29    6.80
  -6   2  -2  287.82   16.39
   6  -2   2  266.76   16.50
  -6   2  -3  411.35   21.52
   6  -2   3  413.16   22.07
  -6   2  -4   62.66    7.54
   6  -2   4   70.55    8.03
   6  -2   4   67.80    6.52
   6  -2   5   67.01    6.14
   6  -2   5   65.54    6.65
   6  -2   6    5.21    1.83
   6  -2   7   54.52    6.03
   6  -2   8    2.31    1.49
   6  -2   9   47.84    5.11
   6  -2  10   12.47    2.44
   6  -2  10    8.19    2.29
   6  -2  11    4.28    1.36
   6  -1  -6   21.27    2.55
   6  -1  -5    0.41    1.01
   6  -1  -4   12.65    2.46
   6  -1  -4   12.16    2.47
   6  -1  -3   10.82    2.42
   6  -1  -3   12.75    2.61
   6  -1  -2  612.11   23.85
   6  -1  -2  572.32   23.93
   6  -1  -1   53.74    5.08
   6  -1   0   -1.69    1.05
   6  -1   0    3.43    1.66
  -6   1  -1    2.02    1.54
   6  -1   1    2.60    1.68
   6  -1   1    0.50    1.13
  -6   1  -2  251.29   14.71
   6  -1   2  255.20   15.25
   6  -1   2  258.42   15.34
  -6   1  -3   83.67    8.12
   6  -1   3   86.64    8.37
  -6   1  -4  374.18   20.67
   6  -1   4  398.96   21.01
  -6   1  -5   40.48    6.31
   6  -1   5   46.51    6.24
   6  -1   6   21.26    3.57
   6  -1   7  116.25    8.85
   6  -1   8  173.13   11.10
   6  -1   9    0.59    0.87
   6  -1  10    2.90    1.68
   6  -1  11   16.75    2.84
   6   0  -6   42.90    3.65
   6   0  -5    0.95    1.12
   6   0  -4   69.70    5.89
   6   0  -4   66.64    5.83
   6   0  -3  215.00   11.51
   6   0  -3  190.94   11.10
   6   0  -2  396.72   17.60
   6   0  -2  387.52   17.65
   6   0  -1    4.96    1.54
   6   0  -1    6.22    1.71
   6   0   0   89.70    8.15
   6   0   1   10.19    2.65
  -6   0  -2  108.64    8.75
   6   0   2  115.50    9.17
   6   0   3  325.10   17.78
   6   0   4    0.35    1.17
   6   0   4    7.01    2.42
   6   0   5   28.46    4.73
   6   0   5   37.61    5.48
   6   0   6  266.48   14.14
   6   0   6  300.50   15.05
   6   0   6  322.08   18.39
   6   0   7   55.98    5.75
   6   0   7   77.99    6.72
   6   0   8    3.54    1.57
   6   0   8    4.99    2.06
   6   0   9   13.96    3.06
   6   0   9   15.70    3.07
   6   0  10    0.14    1.37
   6   0  11    2.06    1.52
   6   0  12    4.10    1.30
   6   1  -6    0.99    0.76
   6   1  -5    0.53    1.07
   6   1  -4   28.47    3.83
   6   1  -3   46.89    4.82
   6   1  -3   41.20    4.68
   6   1  -2   89.52    6.81
   6   1  -2   81.58    6.63
   6   1  -1   33.95    3.90
   6   1  -1   34.51    4.09
   6   1   0   13.37    3.09
   6   1   1   63.05    6.24
   6   1   1   74.32    7.08
   6   1   2  126.07    9.33
   6   1   3  268.23   15.56
   6   1   4   24.93    4.67
   6   1   5  129.30   10.96
   6   1   6   14.28    3.76
   6   1   6    9.47    2.13
   6   1   6   16.31    2.97
   6   1   7  149.94   10.03
   6   1   7  144.55    9.50
   6   1   8    5.17    1.88
   6   1   8    6.02    2.04
   6   1   9    4.20    2.11
   6   1   9    2.04    1.49
   6   1  10    1.02    1.63
   6   1  10    1.96    1.71
   6   1  11   41.89    4.87
   6   1  12   12.08    2.27
   6   2  -6    4.92    1.07
   6   2  -5   10.78    2.06
   6   2  -4   48.85    4.93
   6   2  -3  189.56   10.99
   6   2  -2   39.81    4.43
   6   2  -1    2.12    1.16
   6   2  -1    1.74    1.13
   6   2  -1    2.71    1.33
   6   2   0   55.67    5.15
   6   2   0   65.09    5.62
   6   2   0   56.61    4.94
   6   2   1  305.17   16.51
   6   2   2  126.83    9.88
   6   2   3   33.40    5.17
   6   2   4   15.09    3.86
   6   2   5  240.71   16.01
   6   2   6  154.26   10.26
   6   2   6  175.98   10.16
   6   2   6  183.48   10.60
   6   2   7  122.63    9.26
   6   2   7  141.34    9.11
   6   2   7  142.51    9.61
   6   2   8   41.35    4.77
   6   2   8   29.24    4.36
   6   2   9   28.11    4.07
   6   2   9   25.45    4.17
   6   2  10   12.70    3.00
   6   2  10    7.06    2.24
   6   2  11   24.69    3.88
   6   2  11   15.39    3.08
   6   2  12    5.91    1.57
   6   3  -5   19.13    2.36
   6   3  -4  140.58    8.30
   6   3  -4  129.66    7.84
   6   3  -3    5.75    1.81
   6   3  -3   10.83    2.40
   6   3  -2    5.92    1.80
   6   3  -1  158.34    9.78
   6   3  -1  154.26    9.58
   6   3   0  301.64   14.67
   6   3   0  288.44   14.03
   6   3   0  285.17   13.86
   6   3   1  104.99    7.46
   6   3   1   95.21    6.68
   6   3   1   95.34    6.84
   6   3   2  229.94   14.48
   6   3   3   82.15    8.15
   6   3   4   36.46    5.68
   6   3   5    1.70    2.51
   6   3   5    1.34    1.10
   6   3   6  163.14   10.04
   6   3   6  141.37    9.79
   6   3   6  158.54    9.51
   6   3   6  145.54    9.48
   6   3   7   16.27    2.90
   6   3   7   11.44    2.67
   6   3   7   13.89    2.97
   6   3   8    4.34    1.61
   6   3   8    2.43    1.56
   6   3   8    4.63    2.03
   6   3   9    1.39    1.39
   6   3   9   -0.01    1.28
   6   3  10   36.04    4.84
   6   3  10   33.27    4.45
   6   3  11    0.61    1.34
   6   3  11   -0.51    1.19
   6   3  12   -1.12    1.13
   6   4  -4   48.41    3.97
   6   4  -4   39.46    3.71
   6   4  -3    5.65    1.58
   6   4  -3    9.81    2.29
   6   4  -2   -1.77    1.39
   6   4   0  161.57   10.10
   6   4   0  142.95    9.15
   6   4   1  105.51    7.91
   6   4   1  110.30    7.49
   6   4   1  100.96    7.38
   6   4   2  122.24    8.24
   6   4   2  123.12    8.52
   6   4   2  129.84    8.32
   6   4   3   24.71    3.58
   6   4   3   23.93    3.43
   6   4   4  102.04    7.56
   6   4   4   97.20    7.38
   6   4   5   47.00    5.02
   6   4   5   47.08    5.09
   6   4   5   51.28    5.06
   6   4   6  129.82    9.19
   6   4   6  119.29    8.53
   6   4   7   43.26    5.24
   6   4   7   48.66    4.94
   6   4   7   38.38    4.84
   6   4   8   75.27    7.28
   6   4   8   72.97    6.37
   6   4   8   77.01    7.17
   6   4   9   61.65    6.50
   6   4   9   50.00    5.31
   6   4   9   57.83    6.40
   6   4  10   11.77    2.69
   6   4  10   18.97    3.40
   6   4  11   28.97    4.02
   6   4  12    2.71    1.56
   6   5  -4   35.00    2.98
   6   5  -3    5.15    1.72
   6   5  -2   49.88    5.32
   6   5  -1   55.01    5.86
   6   5   0   20.28    3.58
   6   5   0   23.46    3.44
   6   5   1   90.86    7.31
   6   5   1   67.25    6.11
   6   5   2  300.32   15.40
   6   5   2  313.10   14.88
   6   5   2  277.04   14.61
   6   5   3   58.67    5.82
   6   5   3   58.25    5.52
   6   5   3   58.26    5.45
   6   5   4  101.21    7.90
   6   5   4  114.21    8.13
   6   5   5  154.82   10.00
   6   5   5  169.96   10.53
   6   5   5  160.59   10.08
   6   5   6    3.22    1.54
   6   5   6    5.21    1.72
   6   5   7    1.19    1.09
   6   5   7    0.50    0.82
   6   5   8   49.32    5.67
   6   5   8   40.47    4.59
   6   5   8   34.73    4.80
   6   5   9   29.61    4.30
   6   5   9   19.97    3.29
   6   5   9   22.90    4.07
   6   5  10    0.47    1.50
   6   5  10   -1.03    1.89
   6   5  11    0.28    1.10
   6   5  12    0.07    0.89
   6   6  -3   10.03    1.78
   6   6  -2   23.48    3.37
   6   6  -1   75.52    6.68
   6   6   0   64.12    6.37
   6   6   0   57.83    5.35
   6   6   1   38.67    4.91
   6   6   1   34.73    4.33
   6   6   2    7.78    2.13
   6   6   2    5.20    1.99
   6   6   2    6.08    2.07
   6   6   2    7.90    2.06
   6   6   3  205.37   12.07
   6   6   3  210.01   12.55
   6   6   3  221.55   12.56
   6   6   3  221.34   12.15
   6   6   3  214.39   12.20
   6   6   4   53.27    5.62
   6   6   4   55.56    5.54
   6   6   5   57.48    5.71
   6   6   5   69.04    6.29
   6   6   5   60.32    5.82
   6   6   6   36.21    4.61
   6   6   6   29.51    4.12
   6   6   7   71.05    6.59
   6   6   7   54.30    5.78
   6   6   8    4.76    1.80
   6   6   8    8.97    2.15
   6   6   8    4.02    1.92
   6   6   9    3.56    1.61
   6   6   9    3.38    2.01
   6   6  10   10.77    2.31
   6   6  10   10.46    2.69
   6   6  11   -0.22    1.03
   6   6  12   -0.50    0.74
   6   7  -2   47.46    4.11
   6   7  -1   34.55    4.09
   6   7   0   38.09    4.67
   6   7   0   46.28    4.56
   6   7   1   16.38    2.97
   6   7   1   16.14    3.08
   6   7   2    3.43    1.66
   6   7   2    2.89    1.75
   6   7   2    3.81    1.49
   6   7   3    5.07    1.79
   6   7   3    7.42    2.17
   6   7   4   49.33    5.16
   6   7   5    4.44    1.67
   6   7   5    5.13    1.84
   6   7   6    1.77    1.23
   6   7   6   -0.93    1.25
   6   7   7    7.21    2.06
   6   7   7    4.50    1.86
   6   7   8   62.38    6.12
   6   7   9   13.62    2.44
   6   7   9   12.07    2.95
   6   7  10    6.74    1.78
   6   7  10    7.20    2.35
   6   7  11   -0.92    0.97
   6   8  -1    2.55    1.10
   6   8   0    7.64    1.95
   6   8   1    2.33    1.77
   6   8   1    0.43    1.09
   6   8   1   -0.11    0.77
   6   8   2   86.21    6.72
   6   8   2   85.88    6.58
   6   8   2   82.59    6.36
   6   8   3   23.03    3.41
   6   8   3   28.66    3.87
   6   8   4   68.18    6.04
   6   8   5   12.51    2.56
   6   8   6  122.96    8.03
   6   8   6  101.82    7.74
   6   8   7    4.65    1.92
   6   8   8   18.65    3.24
   6   8   9    2.40    1.47
   6   8  10    4.14    1.18
   6   8  10    8.15    2.10
   6   9   0    2.94    0.97
   6   9   1    8.08    1.58
   6   9   2   42.49    3.88
   6   9   3   64.56    5.21
   6   9   4    0.85    1.22
   6   9   5    1.52    1.39
   6   9   6   40.67    4.22
   6   9   7   10.36    2.20
   6   9   8    0.96    1.11
   6   9   9   17.54    2.66
   6  10   3    7.06    1.50
   6  10   4    1.93    0.99
   6  10   5   11.02    1.89
   6  10   6    0.24    0.83
   6  10   6   -1.68    0.87
   6  10   7    0.14    0.90
   6  10   7    2.32    0.91
   6  10   8    2.74    0.96
   6  10   8    3.43    1.09
   7  -8  -1   17.14    1.91
   7  -8   0   14.43    1.88
   7  -8   1   78.73    5.26
   7  -8   2   -0.05    0.75
   7  -8   3   17.48    2.10
   7  -7  -3   10.30    1.53
   7  -7  -3   12.95    1.55
   7  -7  -2   11.21    1.66
   7  -7  -1   81.63    5.24
   7  -7   0    8.58    2.05
   7  -7   1    4.70    1.30
   7  -7   1    4.63    1.68
   7  -7   2    2.82    1.11
   7  -7   2    0.04    1.11
   7  -7   3  100.30    6.67
   7  -7   3   94.87    6.40
   7  -7   4   30.01    3.37
   7  -7   5   30.90    3.31
   7  -7   6   13.12    2.01
   7  -6  -4   18.56    1.93
   7  -6  -3    1.78    0.77
   7  -6  -3    3.04    1.23
   7  -6  -2   59.34    4.38
   7  -6  -1   39.41    3.71
   7  -6  -1   32.98    3.33
   7  -6   0  136.84    8.76
   7  -6   0  114.40    7.25
   7  -6   1   -0.59    1.04
   7  -6   1   -1.46    1.69
   7  -6   2    6.32    2.00
   7  -6   2   10.34    2.50
   7  -6   3   61.43    5.54
   7  -6   3   42.83    4.75
   7  -6   4  121.12    8.40
   7  -6   5    2.35    1.59
   7  -6   6    4.45    1.73
   7  -6   7    0.32    1.04
   7  -5  -4    0.66    0.78
   7  -5  -3   34.55    3.54
   7  -5  -3   37.29    3.22
   7  -5  -2  222.42   10.55
   7  -5  -1   65.98    5.12
   7  -5  -1   56.55    4.84
   7  -5   0    7.40    1.88
   7  -5   0    9.19    2.33
   7  -5   1   31.83    4.32
   7  -5   1   31.78    3.94
   7  -5   2  104.80    8.08
   7  -5   2  100.24    7.81
   7  -5   3   84.43    7.30
   7  -5   4   52.93    5.90
   7  -5   5   72.57    7.01
   7  -5   6   75.54    7.00
   7  -5   7   57.45    5.55
   7  -5   8   20.12    2.91
   7  -5   9    3.17    1.07
   7  -4  -5    0.97    0.61
   7  -4  -4   28.11    2.92
   7  -4  -3   14.47    2.01
   7  -4  -3   11.37    2.17
   7  -4  -2   82.89    5.60
   7  -4  -1   18.04    2.85
   7  -4  -1   18.29    2.54
   7  -4  -1   19.39    2.66
   7  -4   0   23.16    3.36
   7  -4   1    0.74    1.45
   7  -4   1    0.11    1.23
   7  -4   2    5.84    2.15
   7  -4   2    6.85    1.84
   7  -4   3  170.70   11.37
   7  -4   4   11.37    3.30
   7  -4   5    2.26    1.92
   7  -4   6   12.20    3.11
   7  -4   7   54.10    5.89
   7  -4   8    1.69    1.53
   7  -4   8    0.78    0.80
   7  -4   9   18.10    2.72
   7  -4   9   15.04    2.14
   7  -3  -5    1.67    0.64
   7  -3  -4    6.67    1.33
   7  -3  -4    5.44    1.52
   7  -3  -3   54.65    4.49
   7  -3  -3   55.35    4.94
   7  -3  -2   27.37    3.24
   7  -3  -2   29.80    3.67
   7  -3  -1   58.44    5.24
   7  -3   0   -0.35    1.17
   7  -3   1  363.72   17.19
   7  -3   2  366.03   16.94
   7  -3   2  357.80   17.58
   7  -3   3  363.45   18.41
   7  -3   4  146.43   10.76
   7  -3   5  164.07   11.75
   7  -3   6    5.49    2.35
   7  -3   7  110.76    8.25
   7  -3   7  100.32    8.60
   7  -3   8   21.89    3.73
   7  -3   8   20.13    3.33
   7  -3   9    0.60    1.15
   7  -3   9   -1.28    1.03
   7  -3  10   -2.21    1.02
   7  -3  10    1.12    0.99
   7  -2  -5   12.52    1.74
   7  -2  -4   53.89    4.25
   7  -2  -4   50.14    4.30
   7  -2  -3  188.39    9.72
   7  -2  -3  179.47    9.94
   7  -2  -2   15.36    2.48
   7  -2  -2   12.42    2.46
   7  -2  -1    3.83    1.57
   7  -2   0   54.83    5.16
   7  -2   1  108.44    7.84
   7  -2   2   74.23    6.54
   7  -2   3   12.68    2.93
   7  -2   4    3.52    1.88
   7  -2   5    6.03    2.57
   7  -2   6   59.99    6.21
   7  -2   6   58.91    6.54
   7  -2   7   -0.99    1.37
   7  -2   7    0.91    1.16
   7  -2   8   18.90    3.48
   7  -2   8   18.79    3.30
   7  -2   9    4.97    1.81
   7  -2   9    5.88    1.82
   7  -2  10   21.38    2.87
   7  -2  10   23.17    3.10
   7  -2  11    5.60    1.39
   7  -1  -5   33.40    2.94
   7  -1  -4  142.39    7.92
   7  -1  -3    5.13    1.60
   7  -1  -3    4.70    1.72
   7  -1  -2    5.54    1.85
   7  -1  -2    4.45    1.55
   7  -1  -1   24.77    3.19
   7  -1  -1   23.32    3.31
   7  -1  -1   23.69    3.36
   7  -1   0   47.31    4.67
   7  -1   0   41.40    4.45
   7  -1   1   87.58    6.76
   7  -1   2  191.09   11.10
   7  -1   3    8.71    2.23
   7  -1   4  193.83   11.96
   7  -1   5  182.81   11.23
   7  -1   5  176.89   11.70
   7  -1   6  169.05   11.22
   7  -1   6  182.65   11.98
   7  -1   7   34.58    4.64
   7  -1   7   40.70    5.19
   7  -1   8    3.76    1.65
   7  -1   8    1.35    1.30
   7  -1   9    0.05    1.28
   7  -1  10    8.78    2.17
   7  -1  11    2.71    1.16
   7   0  -5   20.60    2.29
   7   0  -4   14.00    2.35
   7   0  -3    7.49    1.86
   7   0  -3    6.27    1.89
   7   0  -2   14.11    2.53
   7   0  -2   13.07    2.48
   7   0  -1    0.98    1.02
   7   0  -1    0.48    0.84
   7   0   0   87.67    6.52
   7   0   0   84.27    6.55
   7   0   1  630.29   24.20
   7   0   1  582.89   24.25
   7   0   2    3.29    1.40
   7   0   3    7.29    1.94
   7   0   4   31.07    3.89
   7   0   4   33.88    4.23
   7   0   5  106.06    8.19
   7   0   5  128.28    8.92
   7   0   6   10.13    2.54
   7   0   7   42.36    5.13
   7   0   8    5.82    2.20
   7   0   9   27.88    4.19
   7   0  10   12.35    2.87
   7   0  11   13.77    2.52
   7   1  -5   32.93    2.75
   7   1  -4   45.34    3.98
   7   1  -3    6.74    1.82
   7   1  -2    3.11    1.50
   7   1  -2    0.95    1.17
   7   1  -1  172.56    9.82
   7   1  -1  178.77   10.16
   7   1   0  182.36    9.93
   7   1   0  175.99   10.12
   7   1   1  322.55   15.21
   7   1   1  346.72   15.67
   7   1   2   15.71    2.55
   7   1   2    9.50    2.15
   7   1   3  227.70   11.68
   7   1   4   -0.18    0.92
   7   1   5   81.42    6.86
   7   1   6   36.57    4.65
   7   1   7    4.14    1.75
   7   1   7    1.64    1.38
   7   1   8    4.81    1.89
   7   1   8    2.91    1.66
   7   1   9   55.05    5.82
   7   1   9   59.23    5.82
   7   1  10   24.69    3.80
   7   1  11    2.84    1.52
   7   1  12   -0.12    0.67
   7   2  -4   20.81    2.49
   7   2  -3    5.65    1.59
   7   2  -3    5.77    1.54
   7   2  -2   44.82    4.47
   7   2  -1   13.90    2.48
   7   2   0   91.60    6.61
   7   2   0   77.80    6.13
   7   2   0   85.50    6.55
   7   2   1    0.04    0.84
   7   2   1    0.25    1.04
   7   2   2    1.35    1.11
   7   2   2    2.14    1.17
   7   2   3   62.04    5.51
   7   2   3   55.98    5.10
   7   2   4   35.22    4.16
   7   2   4   37.45    4.23
   7   2   5   56.08    5.45
   7   2   6   35.96    4.44
   7   2   6   32.47    4.12
   7   2   7   37.11    4.73
   7   2   7   42.42    4.80
   7   2   8   50.59    5.61
   7   2   8   49.34    5.34
   7   2   9   10.84    2.51
   7   2   9   11.81    2.83
   7   2  10    9.68    2.50
   7   2  10    8.87    2.47
   7   2  11    3.55    1.61
   7   2  12    1.27    0.96
   7   3  -4    1.29    0.63
   7   3  -3    2.13    1.01
   7   3  -3    1.67    0.92
   7   3  -2   76.58    5.83
   7   3  -2   75.75    5.89
   7   3  -1   72.74    5.87
   7   3   0   84.24    6.55
   7   3   0   81.65    6.26
   7   3   1   26.91    3.58
   7   3   1   25.19    3.22
   7   3   1   29.33    3.41
   7   3   1   24.02    3.40
   7   3   2   96.63    7.12
   7   3   2   94.62    6.68
   7   3   2   98.62    7.08
   7   3   3   95.08    7.10
   7   3   3   89.96    6.67
   7   3   3   89.26    6.82
   7   3   4  144.32    9.26
   7   3   4  144.07    9.02
   7   3   5   21.02    3.23
   7   3   5   21.68    3.33
   7   3   6    4.44    1.58
   7   3   6    0.85    1.08
   7   3   6    2.12    1.27
   7   3   7    5.62    1.80
   7   3   7    8.65    2.30
   7   3   7    4.68    1.93
   7   3   7   10.46    2.46
   7   3   8   68.05    6.49
   7   3   8   68.44    6.22
   7   3   9   17.63    3.06
   7   3   9   15.45    3.08
   7   3  10   38.40    4.63
   7   3  10   30.39    4.07
   7   3  11    0.16    1.16
   7   3  11    1.46    1.21
   7   4  -3   11.10    1.79
   7   4  -2   25.56    3.31
   7   4  -1  208.65   11.46
   7   4   0    3.22    1.54
   7   4   1   80.13    6.51
   7   4   1   73.96    6.19
   7   4   2   80.39    6.57
   7   4   2   75.06    5.90
   7   4   2   74.45    6.33
   7   4   3  274.50   14.19
   7   4   3  269.46   13.55
   7   4   3  294.18   14.60
   7   4   4   25.09    3.72
   7   4   4   23.97    3.62
   7   4   4   23.14    3.37
   7   4   5   11.43    2.47
   7   4   5   11.37    2.52
   7   4   6   57.60    5.55
   7   4   6   51.12    5.35
   7   4   6   52.70    5.30
   7   4   7   30.57    4.25
   7   4   7   26.66    3.85
   7   4   8    3.27    1.43
   7   4   8    3.25    1.70
   7   4   8    2.96    1.64
   7   4   9   13.03    2.77
   7   4   9    7.57    2.27
   7   4  10   34.50    4.31
   7   4  10   25.00    3.58
   7   4  11   -0.40    1.13
   7   4  11    0.05    0.92
   7   5  -3   51.81    3.47
   7   5  -2   20.54    2.74
   7   5  -1   31.12    3.88
   7   5   0    0.71    1.31
   7   5   1   25.63    3.68
   7   5   1   27.42    3.67
   7   5   2    3.39    1.71
   7   5   2    1.45    1.14
   7   5   2    2.41    1.29
   7   5   3    6.11    1.76
   7   5   3    8.22    2.37
   7   5   3    7.36    2.04
   7   5   4   93.66    7.52
   7   5   4   84.50    7.11
   7   5   4   81.86    6.64
   7   5   5    2.57    1.17
   7   5   5   -0.22    0.91
   7   5   6   -0.59    1.19
   7   5   6    1.34    1.17
   7   5   7   21.41    3.44
   7   5   7   22.49    3.46
   7   5   8   10.59    2.53
   7   5   8   14.57    2.68
   7   5   8    7.80    2.25
   7   5   9   34.94    4.33
   7   5   9   32.05    3.98
   7   5   9   34.68    4.51
   7   5  10    1.19    1.11
   7   5  10   -0.30    0.97
   7   5  11   27.61    3.27
   7   6  -2   58.00    4.06
   7   6  -1    3.82    1.58
   7   6   0    0.72    1.48
   7   6   1   47.27    5.05
   7   6   1   44.48    4.67
   7   6   2   95.31    7.49
   7   6   2   92.39    7.02
   7   6   3    3.20    1.58
   7   6   3    6.46    2.06
   7   6   3    8.99    2.38
   7   6   3    5.25    1.80
   7   6   4   -0.04    1.27
   7   6   4   -0.17    1.45
   7   6   4   -2.64    1.36
   7   6   5  127.33    8.82
   7   6   5  121.86    8.36
   7   6   6  113.26    8.13
   7   6   6  114.52    8.16
   7   6   7   35.33    4.30
   7   6   7   31.36    4.09
   7   6   8   18.79    3.12
   7   6   8   18.19    3.14
   7   6   9    4.74    1.56
   7   6   9    4.62    1.52
   7   6   9    3.05    1.56
   7   6  10   -0.56    0.85
   7   6  11   19.42    2.50
   7   7  -1    0.31    0.68
   7   7   0   67.20    5.15
   7   7   1   33.71    3.94
   7   7   1   40.22    4.01
   7   7   2   16.75    2.89
   7   7   2   21.64    3.24
   7   7   3   46.76    4.77
   7   7   3   41.42    4.52
   7   7   4   -1.77    1.91
   7   7   5   -0.93    1.65
   7   7   5    0.31    1.00
   7   7   6   42.07    4.47
   7   7   6   45.50    4.67
   7   7   7   24.11    3.32
   7   7   7   20.51    3.29
   7   7   8    8.53    1.92
   7   7   8    5.65    1.95
   7   7   9    0.60    1.30
   7   7  10   16.44    2.15
   7   7  10   19.81    2.83
   7   8   0   38.22    2.98
   7   8   1   68.35    4.76
   7   8   2    7.46    2.04
   7   8   2    4.94    1.37
   7   8   3    4.53    1.63
   7   8   4   14.92    2.58
   7   8   5   10.98    2.34
   7   8   6    0.27    1.27
   7   8   7    0.52    0.93
   7   8   8    6.50    1.71
   7   8   9    2.81    1.31
   7   9   3    4.37    1.42
   7   9   4    3.95    1.31
   7   9   5   35.29    3.41
   7   9   6    7.62    1.65
   7   9   7   18.24    2.45
   7   9   7   16.63    2.14
   7   9   8   -1.72    1.00
   7   9   8   -1.39    0.83
   8  -7   1    2.91    0.80
   8  -7   2   31.62    2.57
   8  -7   3    0.91    0.59
   8  -6  -2   10.42    1.48
   8  -6  -1    1.01    0.72
   8  -6  -1    2.34    0.78
   8  -6   0   29.96    2.75
   8  -6   0   29.97    2.76
   8  -6   1   70.85    4.81
   8  -6   2   46.34    3.99
   8  -6   3    6.15    1.65
   8  -6   4    6.44    1.68
   8  -6   5    1.42    0.88
   8  -6   6   71.09    4.91
   8  -5  -3   63.94    3.85
   8  -5  -2    7.89    1.51
   8  -5  -1    1.04    1.00
   8  -5   0    7.87    1.65
   8  -5   1  102.16    6.68
   8  -5   2   33.79    3.76
   8  -5   3   17.19    2.93
   8  -5   4    0.32    1.40
   8  -5   5   25.52    3.55
   8  -5   6   36.79    4.11
   8  -5   7   30.73    3.44
   8  -5   8    2.25    0.93
   8  -4  -3    3.83    1.04
   8  -4  -2    6.43    1.21
   8  -4  -2    5.86    1.42
   8  -4  -1   20.58    2.38
   8  -4  -1   24.56    3.09
   8  -4   0   66.26    4.77
   8  -4   0   73.35    5.54
   8  -4   1  144.55    8.79
   8  -4   2   35.14    4.27
   8  -4   3    5.32    2.11
   8  -4   4    4.25    1.92
   8  -4   5   35.33    4.81
   8  -4   6   33.02    4.43
   8  -4   7   11.00    2.53
   8  -4   8    3.45    1.41
   8  -3  -3    4.86    1.03
   8  -3  -3    3.72    1.16
   8  -3  -2    4.36    1.15
   8  -3  -2    5.36    1.45
   8  -3  -1   31.99    3.20
   8  -3  -1   29.50    3.51
   8  -3   0  110.38    7.26
   8  -3   0   94.16    6.76
   8  -3   1   25.78    3.49
   8  -3   2   -0.22    1.22
   8  -3   3   56.40    5.80
   8  -3   4    7.43    2.59
   8  -3   5   48.98    5.75
   8  -3   6   10.25    2.80
   8  -3   7   12.04    2.87
   8  -3   8   11.21    2.41
   8  -3   9   16.96    2.40
   8  -3   9   12.66    1.95
   8  -2  -3   25.46    2.59
   8  -2  -3   28.51    2.90
   8  -2  -2   56.76    4.39
   8  -2  -2   59.84    4.72
   8  -2  -1    3.62    1.38
   8  -2  -1    4.36    1.51
   8  -2   0   53.76    4.83
   8  -2   0   54.71    5.00
   8  -2   1   34.58    3.86
   8  -2   1   31.64    3.92
   8  -2   2    2.43    1.48
   8  -2   3   16.51    3.13
   8  -2   4  211.13   12.71
   8  -2   5  179.75   11.77
   8  -2   6  198.61   12.46
   8  -2   7    0.58    1.38
   8  -2   7   -0.53    0.98
   8  -2   8   40.45    4.39
   8  -2   8   44.67    4.81
   8  -2   9    5.87    1.47
   8  -2   9    2.19    1.08
   8  -2  10   22.83    2.56
   8  -1  -4    0.48    0.53
   8  -1  -3    2.79    1.01
   8  -1  -2   20.73    2.69
   8  -1  -2   22.39    2.88
   8  -1  -1  202.02   10.27
   8  -1  -1  211.58   10.69
   8  -1   0   48.87    4.50
   8  -1   0   45.00    4.45
   8  -1   1    2.09    1.33
   8  -1   1    0.77    0.83
   8  -1   1    0.41    0.67
   8  -1   2   16.81    2.80
   8  -1   2   14.62    2.57
   8  -1   3  113.12    8.11
   8  -1   4   79.77    6.88
   8  -1   5    4.75    1.87
   8  -1   6   27.41    4.10
   8  -1   6   29.89    4.16
   8  -1   7    4.91    1.80
   8  -1   7    3.72    1.67
   8  -1   8    6.83    1.90
   8  -1   8    3.66    1.62
   8  -1   9    0.09    1.07
   8  -1  10    4.12    1.53
   8   0  -4    4.52    0.94
   8   0  -3   64.61    4.46
   8   0  -2   35.15    3.57
   8   0  -1  134.89    7.98
   8   0  -1  135.35    8.03
   8   0   0    5.86    1.70
   8   0   0    5.27    1.49
   8   0   1   47.71    4.49
   8   0   1   51.93    4.80
   8   0   2    5.31    1.71
   8   0   2    2.60    0.98
   8   0   3   21.11    3.17
   8   0   4   72.88    6.24
   8   0   5   30.33    3.99
   8   0   5   36.83    4.34
   8   0   6    9.26    2.42
   8   0   7   88.88    7.40
   8   0   8   66.93    6.24
   8   0   9   60.79    5.59
   8   0  10   -0.20    1.03
   8   0  11    2.20    0.90
   8   1  -3   30.07    2.84
   8   1  -2   42.83    3.88
   8   1  -1    1.31    1.00
   8   1   0    0.88    0.87
   8   1   0    0.92    1.04
   8   1   0    1.14    0.95
   8   1   1   32.30    3.65
   8   1   2   31.50    3.76
   8   1   2   32.28    3.74
   8   1   3   35.74    4.08
   8   1   3   36.04    3.93
   8   1   4  276.71   14.17
   8   1   4  308.62   14.38
   8   1   5   26.63    3.79
   8   1   6   41.61    4.84
   8   1   7   15.41    3.05
   8   1   8   19.18    3.31
   8   1   9    1.93    1.55
   8   1  10    6.65    1.90
   8   1  11   -0.61    0.80
   8   2  -3   60.85    3.90
   8   2  -2   49.90    4.00
   8   2  -2   46.83    3.84
   8   2  -1   10.09    1.90
   8   2   0    0.60    0.63
   8   2   0    0.34    0.83
   8   2   1   35.57    3.84
   8   2   1   33.02    3.63
   8   2   2  104.83    7.15
   8   2   3  113.06    7.76
   8   2   3  122.68    7.63
   8   2   4   51.33    5.08
   8   2   4   57.49    5.16
   8   2   5   14.55    2.65
   8   2   5   13.44    2.59
   8   2   6  203.10   11.45
   8   2   6  214.52   11.96
   8   2   7    1.29    0.95
   8   2   7    1.50    1.20
   8   2   8   13.18    2.42
   8   2   8    8.33    2.34
   8   2   9    1.73    1.39
   8   2  10   17.92    2.91
   8   2  11    1.91    1.01
   8   3  -2   19.28    2.17
   8   3  -2   15.55    2.07
   8   3  -1    0.42    0.61
   8   3  -1    1.36    1.18
   8   3   0   21.98    2.85
   8   3   0   19.99    2.64
   8   3   1   56.77    4.99
   8   3   1   59.96    4.80
   8   3   2   20.30    2.98
   8   3   2   20.37    2.73
   8   3   2   14.62    2.67
   8   3   2   17.78    2.64
   8   3   3    5.19    1.83
   8   3   3    4.62    1.61
   8   3   4   10.82    2.49
   8   3   4    9.84    2.15
   8   3   5   10.69    2.43
   8   3   5    8.33    2.17
   8   3   6   17.08    2.85
   8   3   6   17.10    3.01
   8   3   7   22.60    3.27
   8   3   7   24.20    3.53
   8   3   8    1.86    1.36
   8   3   9    9.24    2.24
   8   3  10   21.75    3.14
   8   3  11   21.87    2.65
   8   4  -2    0.36    0.51
   8   4  -1   10.03    1.90
   8   4   0   12.10    2.36
   8   4   1   52.84    4.75
   8   4   2   27.20    3.59
   8   4   2   25.79    3.50
   8   4   3   29.33    3.83
   8   4   3   28.15    3.36
   8   4   3   34.86    4.09
   8   4   4    1.70    1.28
   8   4   4   -0.46    1.09
   8   4   4    1.06    1.06
   8   4   5  108.09    7.56
   8   4   5   92.23    6.88
   8   4   6   24.83    3.49
   8   4   6   23.35    3.43
   8   4   7   39.69    4.27
   8   4   7   36.16    4.24
   8   4   8    0.35    1.09
   8   4   9   11.90    2.32
   8   4   9    9.20    2.22
   8   4  10    0.88    1.14
   8   4  11   10.69    1.75
   8   5  -1    6.42    1.40
   8   5   0   17.81    2.55
   8   5   1   44.62    4.34
   8   5   2   61.33    5.32
   8   5   2   63.07    5.48
   8   5   2   71.51    5.67
   8   5   3   33.95    4.09
   8   5   3   33.00    3.65
   8   5   3   38.08    4.24
   8   5   4   42.13    4.54
   8   5   4   34.94    3.92
   8   5   4   44.18    4.75
   8   5   5   70.41    6.06
   8   5   5   66.61    5.57
   8   5   5   81.85    6.58
   8   5   6   84.28    6.49
   8   5   6   74.36    6.05
   8   5   6   78.56    6.47
   8   5   7    0.14    1.05
   8   5   8   -1.61    1.31
   8   5   9   14.99    2.55
   8   5  10   25.10    2.91
   8   6   0   51.12    3.90
   8   6   1    6.54    1.73
   8   6   2   20.65    2.94
   8   6   2   22.22    2.99
   8   6   3   20.36    2.94
   8   6   3   22.79    3.21
   8   6   4   34.37    4.01
   8   6   4   29.57    3.50
   8   6   4   32.00    3.87
   8   6   5    2.87    1.48
   8   6   5    4.65    1.41
   8   6   5    5.37    1.68
   8   6   6    3.23    1.63
   8   6   6    5.71    1.64
   8   6   6    3.70    1.57
   8   6   7    4.50    1.58
   8   6   7    2.15    1.26
   8   6   8    2.55    1.25
   8   6   8    3.10    1.38
   8   6   9    2.40    1.12
   8   6  10    0.06    0.54
   8   7   1   14.22    1.86
   8   7   2    6.11    1.43
   8   7   3    1.66    1.36
   8   7   3    0.83    0.89
   8   7   4   74.35    5.60
   8   7   5   23.26    3.18
   8   7   6    1.34    1.07
   8   7   6    2.32    1.12
   8   7   7    0.11    1.07
   8   7   7   -0.84    1.14
   8   7   8   63.35    4.78
   8   7   8   67.42    4.76
   8   7   9   42.89    3.44
   8   7   9   52.25    3.68
   8   8   4   11.25    1.89
   8   8   5   12.02    1.91
   8   8   6    2.16    1.04
   8   8   7    2.28    0.99
   8   8   8   -0.96    0.68
   9  -5   1    2.51    0.87
   9  -5   2    8.44    1.59
   9  -5   3   74.95    4.99
   9  -5   4   42.95    3.69
   9  -5   5   33.74    3.14
   9  -5   6    0.76    0.65
   9  -4   0   40.63    2.92
   9  -4   0   51.95    3.58
   9  -4   1    2.91    0.86
   9  -4   1    3.39    1.09
   9  -4   1    3.66    1.17
   9  -4   2    1.06    0.91
   9  -4   3   34.05    3.64
   9  -4   4   80.06    5.95
   9  -4   5   -0.51    1.11
   9  -4   6    4.93    1.60
   9  -4   7    1.12    0.85
   9  -3  -1   18.65    1.95
   9  -3  -1   22.25    2.27
   9  -3   0    1.30    0.80
   9  -3   0    2.30    0.98
   9  -3   1    7.76    1.56
   9  -3   1   10.01    1.95
   9  -3   2   65.81    5.31
   9  -3   3   32.04    3.43
   9  -3   3   26.28    3.44
   9  -3   4  111.01    7.64
   9  -3   5    4.31    1.61
   9  -3   6   77.15    6.04
   9  -3   7   -1.51    1.12
   9  -3   8   15.24    2.01
   9  -2  -1   10.88    1.66
   9  -2  -1   12.69    1.80
   9  -2   0   11.77    1.91
   9  -2   0   12.05    1.89
   9  -2   1   14.97    2.22
   9  -2   1   18.09    2.60
   9  -2   2   62.87    4.80
   9  -2   2   73.61    5.63
   9  -2   3   58.19    4.98
   9  -2   3   60.24    5.31
   9  -2   4    6.39    2.02
   9  -2   5   -0.29    1.16
   9  -2   6   75.45    6.11
   9  -2   7   14.97    2.50
   9  -2   8    0.44    0.74
   9  -1  -2   26.95    2.33
   9  -1  -1   12.08    1.78
   9  -1   0    5.99    1.56
   9  -1   0    4.66    1.31
   9  -1   1   33.20    3.47
   9  -1   2    6.28    1.57
   9  -1   2    7.60    1.69
   9  -1   3   28.94    3.44
   9  -1   3   29.04    3.63
   9  -1   4    2.66    1.34
   9  -1   5   46.20    4.65
   9  -1   6   -1.92    1.24
   9  -1   7  113.38    7.28
   9  -1   8   32.51    3.44
   9  -1   9   16.89    2.04
   9  -1   9   12.09    1.91
   9   0  -2    2.46    0.77
   9   0  -1    0.05    0.70
   9   0   0   18.39    2.40
   9   0   1   66.70    4.68
   9   0   1   64.29    4.90
   9   0   2   89.21    6.04
   9   0   2   94.59    6.29
   9   0   3    7.82    1.78
   9   0   3    8.60    2.00
   9   0   4   -2.51    1.18
   9   0   4    0.02    1.00
   9   0   5   33.16    3.96
   9   0   5   40.60    4.05
   9   0   6   86.13    6.32
   9   0   7   -0.78    1.00
   9   0   8    0.03    1.02
   9   0   9   33.57    3.06
   9   0   9   31.04    3.36
   9   0  10   12.50    1.79
   9   1  -1    6.19    1.25
   9   1   0   60.03    4.39
   9   1   1   31.12    3.09
   9   1   1   31.56    3.27
   9   1   2   87.38    5.98
   9   1   3   10.27    2.13
   9   1   4   72.89    5.74
   9   1   5    5.80    1.73
   9   1   5    2.64    1.20
   9   1   6    5.81    1.79
   9   1   6    5.32    1.57
   9   1   7   12.17    2.31
   9   1   7   14.24    2.59
   9   1   8    0.61    1.03
   9   1   8    0.48    0.94
   9   1   9    1.07    1.15
   9   1  10   25.17    2.68
   9   2  -1    3.83    1.00
   9   2  -1    4.49    1.11
   9   2   0   57.27    4.09
   9   2   1   17.68    2.32
   9   2   1   16.41    2.25
   9   2   2    5.23    1.52
   9   2   2    3.19    1.14
   9   2   3    1.64    1.25
   9   2   4   72.89    5.76
   9   2   4   81.19    5.62
   9   2   5   10.30    2.31
   9   2   5   10.71    2.04
   9   2   6    9.24    2.07
   9   2   6   11.32    2.21
   9   2   7   58.11    4.89
   9   2   7   58.92    5.17
   9   2   8   19.38    2.59
   9   2   8   18.54    2.86
   9   2   9   39.49    3.89
   9   2  10    0.18    0.74
   9   3  -1   72.35    4.11
   9   3   0   32.60    2.67
   9   3   0   34.40    3.11
   9   3   1   32.66    2.93
   9   3   2    0.94    0.76
   9   3   2    1.63    1.07
   9   3   3    6.31    1.69
   9   3   3    9.27    1.66
   9   3   4   20.63    2.96
   9   3   4   21.69    2.77
   9   3   5   48.12    4.50
   9   3   5   44.99    4.19
   9   3   6   19.51    2.86
   9   3   6   15.30    2.57
   9   3   7    7.77    1.87
   9   3   7    6.10    1.77
   9   3   8   20.38    2.57
   9   3   8   13.41    2.35
   9   3   9   41.61    3.89
   9   3  10    0.33    0.68
   9   4   0   13.76    1.80
   9   4   1    0.93    0.92
   9   4   2    0.22    0.84
   9   4   3   35.23    3.61
   9   4   4   32.36    3.64
   9   4   4   33.03    3.34
   9   4   5    2.02    1.12
   9   4   5    1.44    1.01
   9   4   6    5.05    1.54
   9   4   6    6.17    1.69
   9   4   7   11.76    2.08
   9   4   7   11.25    2.17
   9   4   8    9.80    1.97
   9   4   9    3.43    1.24
   9   4  10    0.50    0.62
   9   5   1    0.39    0.61
   9   5   2   49.63    3.93
   9   5   3    4.19    1.21
   9   5   4   21.17    2.75
   9   5   4   19.36    2.48
   9   5   4   24.15    2.87
   9   5   5    8.85    1.92
   9   5   5    5.48    1.40
   9   5   6    1.02    0.91
   9   5   6   -0.80    0.85
   9   5   7    5.82    1.49
   9   5   7    3.81    1.35
   9   5   8   20.80    2.58
   9   5   9    8.63    1.59
   9   6   2    6.70    1.20
   9   6   3   32.30    2.81
   9   6   4    4.51    1.41
   9   6   5   14.47    2.09
   9   6   6   21.05    2.50
   9   6   6   24.48    2.63
   9   6   7   30.37    2.92
   9   6   8   11.47    1.74
   9   6   9    3.03    0.88
   9   7   5    4.49    1.13
  10  -3   3    9.16    1.38
  10  -3   3   12.71    1.73
  10  -3   4    3.14    1.03
  10  -3   4    3.56    0.96
  10  -3   5    8.27    1.44
  10  -3   5    8.01    1.36
  10  -3   6    6.85    1.24
  10  -2   1   21.33    2.03
  10  -2   2   10.25    1.53
  10  -2   3   16.51    1.92
  10  -2   3   21.55    2.41
  10  -2   4   25.17    2.58
  10  -2   4   26.23    2.72
  10  -2   5   13.83    1.92
  10  -2   5   12.27    1.88
  10  -2   6   22.61    2.48
  10  -2   6   24.34    2.39
  10  -2   7   11.98    1.68
  10  -1   1   12.18    1.62
  10  -1   2    7.46    1.46
  10  -1   3   26.07    2.62
  10  -1   4   37.52    3.36
  10  -1   4   32.11    3.05
  10  -1   5   27.09    2.93
  10  -1   5   25.88    2.65
  10  -1   6    0.62    0.98
  10  -1   7    0.30    0.68
  10  -1   8   13.76    1.67
  10   0   1    6.48    1.27
  10   0   2    2.51    0.83
  10   0   2    2.33    0.95
  10   0   3    3.99    1.10
  10   0   3    4.60    1.08
  10   0   4   19.28    2.46
  10   0   5    7.49    1.64
  10   0   6    0.68    0.94
  10   0   7    4.66    1.17
  10   0   8    4.70    1.08
  10   1   1    5.39    1.06
  10   1   2   12.50    1.66
  10   1   2   10.12    1.57
  10   1   3   41.26    3.44
  10   1   3   39.12    3.28
  10   1   4   20.80    2.57
  10   1   5   21.70    2.70
  10   1   6   -0.70    0.94
  10   1   7   12.69    1.92
  10   1   7   12.84    1.80
  10   1   8   17.37    2.00
  10   1   8   16.61    1.95
  10   2   1    2.12    0.74
  10   2   2    3.58    0.93
  10   2   2    2.35    0.74
  10   2   3   50.94    3.78
  10   2   3   44.79    3.34
  10   2   4    9.88    1.52
  10   2   4   12.65    1.97
  10   2   5   10.22    1.83
  10   2   6   19.78    2.43
  10   2   6   16.76    2.10
  10   2   7   36.47    3.22
  10   2   7   39.77    3.31
  10   2   8    0.91    0.64
  10   2   8    2.01    0.85
  10   3   2   18.48    1.99
  10   3   3   16.51    2.02
  10   3   4    4.81    1.28
  10   3   5   17.66    2.23
  10   3   5   15.75    1.96
  10   3   6    6.87    1.46
  10   3   6    6.36    1.32
  10   3   7   32.79    2.94
  10   3   7   36.61    3.11
  10   3   8    0.37    0.48
  10   3   8    1.52    0.71
  10   4   3   21.11    2.05
  10   4   4    0.63    0.63
  10   4   4   -0.90    0.58
  10   4   5    2.42    0.91
  10   4   6   12.75    1.77
  10   4   6    9.22    1.47
  10   4   7    2.61    0.83
  10   4   7    1.56    0.72
  10   4   8   13.43    1.67
  10   5   7    5.39    1.06
   0   0   0    0.00    0.00
TITL OUZIDAN-sb-25d in P-1
REM P-1 (#2 in standard setting)
CELL 1.54184   8.774902   9.940327  10.447483  76.0299  66.5108  85.8429
ZERR    2.00   0.000657   0.000698   0.000799   0.0063   0.0072   0.0059
LATT  1
SFAC C H N Cl Br
UNIT 36.00 24.00 8.00 2.00 2.00
TREF
HKLF 4
END
_computing_structure_solution     'SHELXT 2014/5 (Sheldrick, 2014)'
_computing_structure_solution     'SHELXT 2014/5 (Sheldrick, 2014)'
;
_shelx_hkl_checksum              2281
_shelx_res_file
;
TITL ouzidan-sb-25d_a.res in P-1
REM Old TITL OUZIDAN-sb-25d in P-1 #2
REM SHELXT solution in P-1
REM R1 0.142, Rweak 0.010, Alpha 0.037, Orientation as input
REM Formula found by SHELXT: C19 Br Cl N3
CELL 1.54184 8.7749 9.9403 10.4475 76.03 66.511 85.843
ZERR 2 0.0007 0.0007 0.0008 0.006 0.007 0.006
LATT 1
SFAC C H Br Cl N
UNIT 38 26 2 2 6
EQIV $1 1-X,-Y,1-Z
L.S. 10
PLAN  20
TEMP 20(2)
HTAB C19 Br1_$1
BOND $H
list 4
fmap 2
acta
OMIT 0 -2 3
REM <olex2.extras>
REM <HklSrc "%.\\OUZIDAN-sb-25d.hkl">
REM </olex2.extras>
WGHT    0.067400    0.203700
EXTI    0.001242
FVAR       0.57835
BR1   3    0.209045    0.057581    0.604051    11.00000    0.04231    0.03709 =
         0.05735   -0.00689   -0.01030    0.00609
CL1   4    0.403277    1.297356    0.106199    11.00000    0.07396    0.03837 =
         0.07116   -0.00312   -0.03541    0.00267
N1    5    0.563426    0.364695    0.368371    11.00000    0.03381    0.04255 =
         0.03747   -0.01321   -0.01213    0.01213
N2    5    0.244734    0.606347    0.375688    11.00000    0.03312    0.03757 =
         0.03920   -0.00746   -0.01079    0.00799
N3    5    0.533323    0.610040    0.286913    11.00000    0.03233    0.04097 =
         0.04026   -0.01106   -0.01045    0.00714
C1    1    0.480051    0.241699    0.441461    11.00000    0.04157    0.03678 =
         0.03553   -0.01009   -0.01161    0.01035
AFIX  43
H1    2    0.539167    0.161593    0.454220    11.00000   -1.20000
AFIX   0
C2    1    0.310238    0.234425    0.496440    11.00000    0.04416    0.03249 =
         0.03802   -0.00775   -0.01144    0.00623
C3    1    0.211897    0.349689    0.482252    11.00000    0.03212    0.03915 =
         0.03932   -0.00742   -0.00835    0.00611
AFIX  43
H3    2    0.096442    0.342742    0.520604    11.00000   -1.20000
AFIX   0
C4    1    0.296630    0.473895    0.408053    11.00000    0.03351    0.04107 =
         0.03349   -0.01089   -0.00971    0.01065
C5    1    0.388076    0.680644    0.305822    11.00000    0.03539    0.04002 =
         0.03486   -0.00971   -0.01270    0.00799
C6    1    0.474171    0.480354    0.351937    11.00000    0.03523    0.03725 =
         0.03219   -0.01130   -0.01070    0.01093
C7    1    0.392894    0.831406    0.255742    11.00000    0.03674    0.04029 =
         0.03891   -0.01007   -0.01560    0.00643
C8    1    0.245350    0.904311    0.280711    11.00000    0.03289    0.04406 =
         0.05891   -0.00606   -0.01192    0.00483
AFIX  43
H8    2    0.143775    0.856099    0.328254    11.00000   -1.20000
AFIX   0
C9    1    0.248591    1.047102    0.235623    11.00000    0.04356    0.04726 =
         0.05788   -0.00814   -0.01945    0.01195
AFIX  43
H9    2    0.150011    1.095044    0.253275    11.00000   -1.20000
AFIX   0
C10   1    0.399095    1.117316    0.164460    11.00000    0.05232    0.03581 =
         0.04240   -0.00505   -0.02438    0.00332
C11   1    0.546743    1.048533    0.138864    11.00000    0.04018    0.04747 =
         0.05743   -0.00524   -0.01846   -0.00282
AFIX  43
H11   2    0.647680    1.097726    0.091851    11.00000   -1.20000
AFIX   0
C12   1    0.543126    0.905735    0.183810    11.00000    0.03455    0.04993 =
         0.05097   -0.00602   -0.01534    0.00622
AFIX  43
H12   2    0.642411    0.858788    0.165714    11.00000   -1.20000
AFIX   0
C13   1    0.747418    0.374071    0.310244    11.00000    0.03095    0.05236 =
         0.04203   -0.01860   -0.01229    0.01248
AFIX  23
H13A  2    0.786513    0.311219    0.376804    11.00000   -1.20000
H13B  2    0.782172    0.467515    0.301290    11.00000   -1.20000
AFIX   0
C14   1    0.825415    0.338174    0.165319    11.00000    0.02411    0.04046 =
         0.03929   -0.00944   -0.00741    0.00005
C15   1    0.802950    0.419747    0.047768    11.00000    0.04132    0.05791 =
         0.04790   -0.00835   -0.01828    0.00931
AFIX  43
H15   2    0.738423    0.498150    0.055953    11.00000   -1.20000
AFIX   0
C16   1    0.878082    0.383154   -0.083092    11.00000    0.05197    0.09796 =
         0.03893   -0.00902   -0.01518   -0.00215
AFIX  43
H16   2    0.862804    0.434756   -0.163895    11.00000   -1.20000
AFIX   0
C17   1    0.975272    0.269029   -0.089923    11.00000    0.05564    0.09038 =
         0.04545   -0.02929    0.00075   -0.00489
AFIX  43
H17   2    1.028955    0.242130   -0.176162    11.00000   -1.20000
AFIX   0
C18   1    0.992295    0.195080    0.032020    11.00000    0.05197    0.06469 =
         0.06361   -0.02481   -0.00407    0.01265
AFIX  43
H18   2    1.059359    0.118061    0.025772    11.00000   -1.20000
AFIX   0
C19   1    0.918641    0.226847    0.158825    11.00000    0.03067    0.03393 =
         0.03494   -0.00614   -0.00385    0.00914
AFIX  43
H19   2    0.931871    0.173228    0.239802    11.00000   -1.20000
AFIX   0
HKLF 4
REM  ouzidan-sb-25d_a.res in P-1
REM R1 =  0.0443 for    2637 Fo > 4sig(Fo)  and  0.0517 for all    3076 data
REM    218 parameters refined using      0 restraints
END
WGHT      0.0676      0.2045
REM Highest difference peak  0.644,  deepest hole -0.604,  1-sigma level  0.090
Q1    1   0.8921  0.1929  0.1828  11.00000  0.05    0.64
Q2    1   0.9522  0.2534  0.1275  11.00000  0.05    0.54
Q3    1   0.2685  0.1477  0.5673  11.00000  0.05    0.48
Q4    1   0.3243  0.0572  0.5630  11.00000  0.05    0.42
Q5    1   0.2362  0.0233  0.5124  11.00000  0.05    0.40
Q6    1   0.1546  0.0823  0.5395  11.00000  0.05    0.36
Q7    1   0.0722  0.0643  0.6583  11.00000  0.05    0.36
Q8    1   0.2851  0.0214  0.6847  11.00000  0.05    0.32
Q9    1   0.8680  0.3959  0.1007  11.00000  0.05    0.31
Q10   1   0.1620  0.1002  0.7082  11.00000  0.05    0.30
Q11   1   0.5034  1.0118  0.3431  11.00000  0.05    0.27
Q12   1   0.5932  0.9349  0.3372  11.00000  0.05    0.27
Q13   1   0.1707 -0.0166  0.5883  11.00000  0.05    0.25
Q14   1   0.4231  0.0344  0.6384  11.00000  0.05    0.25
Q15   1   0.3084  0.8624  0.3997  11.00000  0.05    0.24
Q16   1   0.5242  0.4217  0.3616  11.00000  0.05    0.24
Q17   1   0.2243  1.0678  0.1024  11.00000  0.05    0.23
Q18   1   0.0406  1.0968  0.3967  11.00000  0.05    0.23
Q19   1   1.2144  0.2138  0.0592  11.00000  0.05    0.23
Q20   1   1.1900  0.1564  0.0738  11.00000  0.05    0.23
;
_shelx_res_checksum              34512
_shelxl_version_number           2014/6
loop_
_space_group_symop_operation_xyz
'x, y, z'
'-x, -y, -z'
loop_
_atom_site_type_symbol
_atom_site_label
_atom_site_fract_x
_atom_site_fract_y
_atom_site_fract_z
_atom_site_U_iso_or_equiv
_atom_site_adp_type
_atom_site_calc_flag
_atom_site_occupancy
Br Br1 0.20904(4) 0.05758(4) 0.60405(4) 0.04964(18) Uani d 1
Cl Cl1 0.40328(14) 1.29736(10) 0.10620(12) 0.0608(3) Uani d 1
N N1 0.5634(3) 0.3647(3) 0.3684(3) 0.0384(6) Uani d 1
N N2 0.2447(3) 0.6063(3) 0.3757(3) 0.0384(6) Uani d 1
N N3 0.5333(3) 0.6100(3) 0.2869(3) 0.0391(6) Uani d 1
C C1 0.4801(4) 0.2417(3) 0.4415(3) 0.0393(7) Uani d 1
H H1 0.5392 0.1616 0.4542 0.047 Uiso calc 1
C C2 0.3102(4) 0.2344(3) 0.4964(4) 0.0401(7) Uani d 1
C C3 0.2119(4) 0.3497(3) 0.4823(4) 0.0393(7) Uani d 1
H H3 0.0964 0.3427 0.5206 0.047 Uiso calc 1
C C4 0.2966(4) 0.4739(4) 0.4081(3) 0.0373(7) Uani d 1
C C5 0.3881(4) 0.6806(3) 0.3058(3) 0.0373(7) Uani d 1
C C6 0.4742(4) 0.4804(3) 0.3519(3) 0.0357(6) Uani d 1
C C7 0.3929(4) 0.8314(4) 0.2557(4) 0.0385(7) Uani d 1
C C8 0.2453(4) 0.9043(4) 0.2807(4) 0.0486(8) Uani d 1
H H8 0.1438 0.8561 0.3283 0.058 Uiso calc 1
C C9 0.2486(5) 1.0471(4) 0.2356(4) 0.0511(9) Uani d 1
H H9 0.1500 1.0950 0.2533 0.061 Uiso calc 1
C C10 0.3991(5) 1.1173(3) 0.1645(4) 0.0425(7) Uani d 1
C C11 0.5467(4) 1.0485(4) 0.1389(4) 0.0497(9) Uani d 1
H H11 0.6477 1.0977 0.0919 0.060 Uiso calc 1
C C12 0.5431(4) 0.9057(4) 0.1838(4) 0.0470(8) Uani d 1
H H12 0.6424 0.8588 0.1657 0.056 Uiso calc 1
C C13 0.7474(4) 0.3741(4) 0.3102(4) 0.0416(7) Uani d 1
H H13A 0.7865 0.3112 0.3768 0.050 Uiso calc 1
H H13B 0.7822 0.4675 0.3013 0.050 Uiso calc 1
C C14 0.8254(3) 0.3382(3) 0.1653(4) 0.0362(7) Uani d 1
C C15 0.8029(4) 0.4197(4) 0.0478(4) 0.0500(8) Uani d 1
H H15 0.7384 0.4981 0.0560 0.060 Uiso calc 1
C C16 0.8781(5) 0.3832(6) -0.0831(4) 0.0649(12) Uani d 1
H H16 0.8628 0.4348 -0.1639 0.078 Uiso calc 1
C C17 0.9753(6) 0.2690(6) -0.0899(5) 0.0676(12) Uani d 1
H H17 1.0290 0.2421 -0.1762 0.081 Uiso calc 1
C C18 0.9923(5) 0.1951(5) 0.0320(5) 0.0649(12) Uani d 1
H H18 1.0594 0.1181 0.0258 0.078 Uiso calc 1
C C19 0.9186(4) 0.2268(3) 0.1588(3) 0.0369(7) Uani d 1
H H19 0.9319 0.1732 0.2398 0.044 Uiso calc 1
loop_
_atom_site_aniso_label
_atom_site_aniso_U_11
_atom_site_aniso_U_22
_atom_site_aniso_U_33
_atom_site_aniso_U_12
_atom_site_aniso_U_13
_atom_site_aniso_U_23
Br1 0.0423(2) 0.0371(2) 0.0573(3) 0.00609(15) -0.01030(17) -0.00689(16)
Cl1 0.0740(6) 0.0384(5) 0.0712(7) 0.0027(4) -0.0354(5) -0.0031(4)
N1 0.0338(13) 0.0426(15) 0.0375(14) 0.0121(11) -0.0121(11) -0.0132(12)
N2 0.0331(12) 0.0376(14) 0.0392(14) 0.0080(11) -0.0108(11) -0.0075(11)
N3 0.0323(13) 0.0410(15) 0.0403(15) 0.0071(11) -0.0104(11) -0.0111(12)
C1 0.0416(16) 0.0368(16) 0.0355(16) 0.0104(13) -0.0116(14) -0.0101(13)
C2 0.0442(17) 0.0325(15) 0.0380(17) 0.0062(13) -0.0114(14) -0.0078(13)
C3 0.0321(14) 0.0392(17) 0.0393(17) 0.0061(12) -0.0083(13) -0.0074(13)
C4 0.0335(15) 0.0411(17) 0.0335(16) 0.0107(13) -0.0097(13) -0.0109(13)
C5 0.0354(15) 0.0400(17) 0.0349(16) 0.0080(13) -0.0127(13) -0.0097(13)
C6 0.0352(15) 0.0372(16) 0.0322(15) 0.0109(12) -0.0107(13) -0.0113(12)
C7 0.0367(15) 0.0403(17) 0.0389(17) 0.0064(13) -0.0156(13) -0.0101(13)
C8 0.0329(15) 0.0441(19) 0.059(2) 0.0048(14) -0.0119(15) -0.0061(16)
C9 0.0436(18) 0.047(2) 0.058(2) 0.0119(15) -0.0194(17) -0.0081(17)
C10 0.0523(19) 0.0358(17) 0.0424(18) 0.0033(14) -0.0244(16) -0.0051(14)
C11 0.0402(17) 0.047(2) 0.057(2) -0.0028(15) -0.0185(16) -0.0052(17)
C12 0.0346(16) 0.050(2) 0.051(2) 0.0062(14) -0.0153(15) -0.0060(16)
C13 0.0309(15) 0.052(2) 0.0420(18) 0.0125(14) -0.0123(14) -0.0186(15)
C14 0.0241(12) 0.0405(17) 0.0393(17) 0.0001(12) -0.0074(12) -0.0094(13)
C15 0.0413(17) 0.058(2) 0.048(2) 0.0093(16) -0.0183(16) -0.0084(17)
C16 0.052(2) 0.098(3) 0.039(2) -0.002(2) -0.0152(17) -0.009(2)
C17 0.056(2) 0.090(3) 0.045(2) -0.005(2) 0.0007(19) -0.029(2)
C18 0.052(2) 0.065(3) 0.064(3) 0.013(2) -0.004(2) -0.025(2)
C19 0.0307(13) 0.0339(15) 0.0349(16) 0.0091(12) -0.0038(12) -0.0061(12)
loop_
_atom_type_symbol
_atom_type_description
_atom_type_scat_dispersion_real
_atom_type_scat_dispersion_imag
_atom_type_scat_source
C C 0.0181 0.0091 'International Tables Vol C Tables 4.2.6.8 and 6.1.1.4'
H H 0.0000 0.0000 'International Tables Vol C Tables 4.2.6.8 and 6.1.1.4'
Br Br -0.6763 1.2805 'International Tables Vol C Tables 4.2.6.8 and 6.1.1.4'
Cl Cl 0.3639 0.7018 'International Tables Vol C Tables 4.2.6.8 and 6.1.1.4'
N N 0.0311 0.0180 'International Tables Vol C Tables 4.2.6.8 and 6.1.1.4'
loop_
_geom_angle_atom_site_label_1
_geom_angle_atom_site_label_2
_geom_angle_atom_site_label_3
_geom_angle
C1 N1 C13 121.2(3)
C6 N1 C1 118.5(3)
C6 N1 C13 120.3(3)
C5 N2 C4 103.0(3)
C6 N3 C5 100.9(3)
N1 C1 H1 119.6
N1 C1 C2 120.7(3)
C2 C1 H1 119.6
C1 C2 Br1 116.4(3)
C1 C2 C3 123.3(3)
C3 C2 Br1 120.2(3)
C2 C3 H3 122.1
C4 C3 C2 115.8(3)
C4 C3 H3 122.1
N2 C4 C3 132.5(3)
N2 C4 C6 107.1(3)
C3 C4 C6 120.4(3)
N2 C5 N3 117.5(3)
N2 C5 C7 122.3(3)
N3 C5 C7 120.2(3)
N1 C6 C4 121.3(3)
N3 C6 N1 127.2(3)
N3 C6 C4 111.5(3)
C8 C7 C5 120.4(3)
C12 C7 C5 121.1(3)
C12 C7 C8 118.5(3)
C7 C8 H8 119.6
C9 C8 C7 120.8(3)
C9 C8 H8 119.6
C8 C9 H9 120.4
C10 C9 C8 119.2(3)
C10 C9 H9 120.4
C9 C10 Cl1 119.2(3)
C9 C10 C11 121.4(3)
C11 C10 Cl1 119.4(3)
C10 C11 H11 120.4
C10 C11 C12 119.3(3)
C12 C11 H11 120.4
C7 C12 H12 119.6
C11 C12 C7 120.8(3)
C11 C12 H12 119.6
N1 C13 H13A 109.3
N1 C13 H13B 109.3
N1 C13 C14 111.8(3)
H13A C13 H13B 107.9
C14 C13 H13A 109.3
C14 C13 H13B 109.3
C15 C14 C13 121.1(3)
C19 C14 C13 116.0(3)
C19 C14 C15 122.9(3)
C14 C15 H15 120.5
C14 C15 C16 118.9(4)
C16 C15 H15 120.5
C15 C16 H16 121.0
C17 C16 C15 118.1(4)
C17 C16 H16 121.0
C16 C17 H17 120.5
C18 C17 C16 119.0(4)
C18 C17 H17 120.5
C17 C18 H18 118.1
C19 C18 C17 123.8(4)
C19 C18 H18 118.1
C14 C19 C18 117.3(4)
C14 C19 H19 121.4
C18 C19 H19 121.4
loop_
_geom_bond_atom_site_label_1
_geom_bond_atom_site_label_2
_geom_bond_distance
Br1 C2 1.902(3)
Cl1 C10 1.744(3)
N1 C1 1.359(4)
N1 C6 1.359(4)
N1 C13 1.482(4)
N2 C4 1.370(4)
N2 C5 1.343(4)
N3 C5 1.376(4)
N3 C6 1.336(4)
C1 H1 0.9300
C1 C2 1.367(5)
C2 C3 1.399(4)
C3 H3 0.9300
C3 C4 1.375(5)
C4 C6 1.429(4)
C5 C7 1.461(5)
C7 C8 1.398(4)
C7 C12 1.390(5)
C8 H8 0.9300
C8 C9 1.382(5)
C9 H9 0.9300
C9 C10 1.373(5)
C10 C11 1.379(5)
C11 H11 0.9300
C11 C12 1.382(5)
C12 H12 0.9300
C13 H13A 0.9700
C13 H13B 0.9700
C13 C14 1.512(4)
C14 C15 1.376(5)
C14 C19 1.326(4)
C15 H15 0.9300
C15 C16 1.387(6)
C16 H16 0.9300
C16 C17 1.367(7)
C17 H17 0.9300
C17 C18 1.367(7)
C18 H18 0.9300
C18 C19 1.328(5)
C19 H19 0.9300
loop_
_geom_hbond_atom_site_label_D
_geom_hbond_atom_site_label_H
_geom_hbond_atom_site_label_A
_geom_hbond_site_symmetry_A
_geom_hbond_distance_DH
_geom_hbond_distance_HA
_geom_hbond_distance_DA
_geom_hbond_angle_DHA
C19 H19 Br1 2_656 0.93 2.54 3.202(3) 128.4

_cod_database_fobs_code 1546709
