#------------------------------------------------------------------------------
#$Date: 2017-07-25 13:41:59 +0300 (Tue, 25 Jul 2017) $
#$Revision: 199312 $
#$URL: file:///home/coder/svn-repositories/cod/cif/1/54/67/1546716.cif $
#------------------------------------------------------------------------------
#
# This file is available in the Crystallography Open Database (COD),
# http://www.crystallography.net/. The original data for this entry
# were provided by IUCr Journals, http://journals.iucr.org/.
#
# The file may be used within the scientific community so long as
# proper attribution is given to the journal article from which the
# data were obtained.
#
data_1546716
loop_
_publ_author_name
'Olszowy, Aleksandra'
'Siod\/lak, Dawid'
'Zarychta, Bartosz'
_publ_section_title
;
 3,5-Dimethoxyphenyl 4-methylbenzenesulfonate
;
_journal_coeditor_code           BT4054
_journal_issue                   7
_journal_name_full               IUCrData
_journal_page_first              x170980
_journal_paper_doi               10.1107/S2414314617009804
_journal_volume                  2
_journal_year                    2017
_chemical_formula_iupac          'C15 H16 O5 S'
_chemical_formula_moiety         'C15 H16 O5 S'
_chemical_formula_sum            'C15 H16 O5 S'
_chemical_formula_weight         308.34
_chemical_name_systematic
;
3,5-Dimethoxyphenyl 4-methylbenzenesulfonate
;
_space_group_crystal_system      triclinic
_space_group_IT_number           2
_space_group_name_Hall           '-P 1'
_space_group_name_H-M_alt        'P -1'
_symmetry_space_group_name_Hall  '-P 1'
_symmetry_space_group_name_H-M   'P -1'
_atom_sites_solution_hydrogens   geom
_audit_creation_method           SHELXL-2013
_cell_angle_alpha                106.583(2)
_cell_angle_beta                 94.701(2)
_cell_angle_gamma                111.358(2)
_cell_formula_units_Z            2
_cell_length_a                   7.8066(2)
_cell_length_b                   8.9238(2)
_cell_length_c                   11.9303(3)
_cell_measurement_reflns_used    4805
_cell_measurement_temperature    100.0
_cell_measurement_theta_max      25.998
_cell_measurement_theta_min      3.058
_cell_volume                     725.58(4)
_computing_cell_refinement
;
CrysAlisCCD (Oxford Diffraction, 2008)
;
_computing_data_collection
;
CrysAlisCCD (Oxford Diffraction, 2008)
;
_computing_data_reduction
;
CrysAlisRed (Oxford Diffraction, 2008)
;
_computing_molecular_graphics
;
SHELXTL (Sheldrick, 2008)
;
_computing_publication_material
;
SHELXL2014 (Sheldrick, 2015)
;
_computing_structure_refinement
;
SHELXL2014 (Sheldrick, 2015)
;
_computing_structure_solution
;
SHELXS2014 (Sheldrick, 2008)
;
_diffrn_ambient_temperature      100.00(10)
_diffrn_detector_area_resol_mean '1024 x 1024 with blocks 2 x 2'
_diffrn_measured_fraction_theta_full 0.986
_diffrn_measured_fraction_theta_max 0.981
_diffrn_measurement_device_type  'Oxford Diffraction Xcalibur'
_diffrn_measurement_method       \w--scan
_diffrn_radiation_type           MoK\a
_diffrn_radiation_wavelength     0.71073
_diffrn_reflns_av_R_equivalents  0.0132
_diffrn_reflns_limit_h_max       9
_diffrn_reflns_limit_h_min       -8
_diffrn_reflns_limit_k_max       10
_diffrn_reflns_limit_k_min       -10
_diffrn_reflns_limit_l_max       14
_diffrn_reflns_limit_l_min       -14
_diffrn_reflns_number            4805
_diffrn_reflns_theta_full        25.242
_diffrn_reflns_theta_max         25.998
_diffrn_reflns_theta_min         3.058
_diffrn_standards_decay_%        0
_diffrn_standards_interval_count 0
_diffrn_standards_interval_time  0
_diffrn_standards_number         0
_exptl_absorpt_coefficient_mu    0.242
_exptl_absorpt_correction_type   none
_exptl_crystal_colour            colourless
_exptl_crystal_density_diffrn    1.411
_exptl_crystal_density_method    'not measured'
_exptl_crystal_description       irregular
_exptl_crystal_F_000             324
_exptl_crystal_size_max          0.26
_exptl_crystal_size_mid          0.25
_exptl_crystal_size_min          0.24
_refine_diff_density_max         0.376
_refine_diff_density_min         -0.349
_refine_ls_extinction_method     none
_refine_ls_goodness_of_fit_ref   1.051
_refine_ls_hydrogen_treatment    constr
_refine_ls_matrix_type           full
_refine_ls_number_parameters     193
_refine_ls_number_reflns         2795
_refine_ls_number_restraints     0
_refine_ls_restrained_S_all      1.051
_refine_ls_R_factor_all          0.0366
_refine_ls_R_factor_gt           0.0286
_refine_ls_shift/su_max          0.000
_refine_ls_shift/su_mean         0.000
_refine_ls_structure_factor_coef Fsqd
_refine_ls_weighting_details
'w=1/[\s^2^(Fo^2^)+(0.0437P)^2^+0.0255P] where P=(Fo^2^+2Fc^2^)/3'
_refine_ls_weighting_scheme      calc
_refine_ls_wR_factor_gt          0.0749
_refine_ls_wR_factor_ref         0.0768
_reflns_number_gt                2316
_reflns_number_total             2795
_reflns_threshold_expression     'I > 2\s(I)'
_cod_data_source_file            bt4054sup1.cif
_cod_data_source_block           I
_cod_original_cell_volume        725.58(3)
_cod_database_code               1546716
_shelx_space_group_comment
;
The symmetry employed for this shelxl refinement is uniquely defined
by the following loop, which should always be used as a source of
symmetry information in preference to the above space-group names.
They are only intended as comments.
;
_shelx_hkl_file
;
   0   0   2 1088.98    6.01
   0   0   2 1105.12    7.42
   0   0   3    2.99    1.95
   0   0   3    3.82    1.38
   0   0   4    6.35    1.99
   0   0   4    5.59    1.39
   0   0  -4    5.82    0.72
   0   0   5  258.57    4.92
   0   0   5  258.74    5.96
   0   0  -5  265.06    2.90
   0   0   6 1936.97   14.19
   0   0  -6 1886.89    8.24
   0   0   6 1922.10   17.21
   0   0   7  104.86    4.12
   0   0   7  102.27    5.06
   0   0   8  148.72    5.14
   0   0   8  150.42    6.40
   0   0   9   18.14    4.17
   0   0   9   19.74    3.12
   0   0  10    1.69    2.69
   0   0  10   -0.79    3.48
   0   0  11  205.46    8.52
   0   0  12   -0.94    4.23
   0   0  13   -0.30    4.42
   0   0 -13   -1.26    4.32
   0   0 -14   45.10    6.24
   0   0  14   41.78    5.81
   0   1 -15    8.83    4.80
   0  -1  15    9.10    4.79
   0  -1  14   67.53    6.81
   0   1 -14   70.51    6.72
   0   1 -13   -0.76    4.13
   0  -1  13    0.86    4.30
   0   1 -12   96.22    6.41
   0  -1  12   97.60    6.83
   0  -1  11   -1.49    3.67
   0   1 -11    0.41    3.16
   0  -1  10   18.31    4.34
   0   1 -10   17.76    3.70
   0  -1   9    9.48    3.92
   0  -1   9   12.58    2.83
   0  -1   8  564.16    8.59
   0  -1   8  545.79   10.81
   0  -1   7   70.33    4.35
   0  -1   7   76.58    3.33
   0  -1   6  662.10   10.04
   0  -1   6  669.13    7.71
   0  -1   5  192.84    3.83
   0  -1   5  192.74    5.21
   0  -1   4   86.77    3.39
   0   1  -4   83.35    3.07
   0  -1   4   86.31    2.44
   0  -1   3 3212.88   14.94
   0   1  -3 3213.45   13.97
   0   1  -2  721.26    5.50
   0  -1   2  728.68    5.75
   0   1   1  392.56    4.27
   0   1   1  390.62    3.39
   0  -1  -2  383.67    3.63
   0   1   2  371.63    4.74
   0   1   2  373.61    4.92
   0  -1  -3   14.40    1.07
   0   1   3   14.02    1.95
   0   1   3   17.29    1.81
   0   1   4  206.90    4.89
   0   1   4  196.03    4.56
   0  -1  -4  208.07    2.80
   0   1   5  589.37    8.86
   0  -1  -5  606.89    4.83
   0   1   5  588.54    8.28
   0  -1  -6  487.73    4.53
   0   1   6  461.37    8.74
   0   1   6  470.93    8.00
   0   1   7   79.00    4.11
   0   1   7   72.66    4.70
   0   1   8  114.60    5.14
   0   1   8  108.74    5.82
   0   1   9    2.91    2.60
   0   1   9    0.23    3.67
   0   1  10   69.79    4.69
   0   1  10   66.83    5.58
   0   1  11    1.05    4.10
   0   1  12    2.89    4.21
   0   1  13   11.01    4.20
   0   1  14   47.26    6.25
   0   2 -15   13.66    4.84
   0  -2  15   14.87    5.51
   0   2 -14   34.91    5.58
   0  -2  14   34.69    5.55
   0   2 -13   46.50    5.25
   0  -2  13   40.36    5.55
   0   2 -12   10.16    3.82
   0  -2  12   10.44    4.47
   0   2 -11    4.76    3.18
   0  -2  11    4.92    3.70
   0  -2  10  236.98    8.59
   0   2 -10  222.52    7.69
   0   2  -9    8.36    2.96
   0  -2   9   12.25    3.74
   0   2  -8  277.40    7.35
   0  -2   8  273.11    7.86
   0   2  -7   94.10    4.30
   0  -2   7   96.80    4.72
   0   2  -6  105.89    4.06
   0  -2   6  103.24    4.34
   0   2  -5  217.60    5.02
   0  -2   5  223.68    5.40
   0   2  -4  140.88    3.76
   0  -2   4  143.75    3.96
   0  -2   3  687.81    6.85
   0   2  -3  685.23    6.86
   0   2  -2  386.86    4.79
   0  -2   2  388.85    4.08
   0   2  -1    9.28    1.37
   0   2  -1   11.48    1.77
   0   2   0  607.13    6.44
   0   2   0  626.07    6.10
   0   2   1    9.42    1.60
   0   2   1    7.69    1.03
   0   2   1    7.13    1.80
   0   2   2    2.70    1.22
   0   2   2    2.88    1.72
   0   2   3    3.91    1.56
   0   2   3    3.04    1.73
   0  -2  -3    3.88    1.25
   0   2   4    0.89    1.83
   0  -2  -4    0.16    1.18
   0   2   4   -0.32    1.82
   0   2   5  461.91    8.00
   0   2   5  465.72    8.42
   0  -2  -5  477.09    5.46
   0   2   6    8.35    2.91
   0   2   6    7.14    2.66
   0   2   7  322.21    8.18
   0   2   7  319.60    8.16
   0   2   8  193.73    7.29
   0   2   8  188.88    6.80
   0   2   9  273.13    8.78
   0   2   9  266.76    8.25
   0   2  10   49.52    4.63
   0   2  10   47.28    5.10
   0   2  11   85.21    6.28
   0   2  12  203.82    9.30
   0   2  13   60.22    6.34
   0   2  14    5.20    4.78
   0  -3  15   15.64    5.13
   0   3 -15   24.63    5.40
   0  -3  14   61.37    6.66
   0   3 -14   68.87    6.21
   0   3 -13   33.52    4.95
   0  -3  13   34.83    5.32
   0  -3  12    1.56    3.84
   0   3 -12    3.85    3.71
   0  -3  11   23.32    4.27
   0   3 -11   25.12    4.01
   0   3 -10  151.13    6.73
   0  -3  10  156.82    7.20
   0   3  -9  103.89    5.26
   0  -3   9  115.86    5.98
   0   3  -8  105.24    4.94
   0  -3   8  106.45    5.50
   0  -3   7   29.67    3.30
   0   3  -7   30.16    3.05
   0   3  -6   33.01    2.74
   0  -3   6   32.76    2.97
   0   3  -5   82.67    3.43
   0  -3   5   87.03    3.62
   0   3  -4 1479.71   11.94
   0  -3   4 1522.88   11.31
   0   3  -3 2875.56   15.59
   0  -3   3 2851.34   13.04
   0   3  -3 2883.48   14.97
   0  -3   2  365.80    3.55
   0   3  -2  368.47    5.58
   0   3  -2  369.48    5.76
   0   3  -1  363.32    5.93
   0   3  -1  381.53    5.65
   0   3   0  445.90    6.83
   0   3   0  466.25    6.49
   0   3   1  117.65    4.02
   0   3   1  124.90    3.77
   0   3   1  116.84    2.04
   0   3   2    2.75    2.02
   0   3   2    3.94    1.25
   0   3   3   49.28    3.19
   0   3   3   48.80    2.47
   0   3   4  301.17    5.97
   0   3   4  294.45    7.12
   0  -3  -4  302.26    5.46
   0   3   5  907.99   12.87
   0  -3  -5  911.98    9.19
   0   3   5  913.66   11.35
   0   3   6  113.71    5.68
   0   3   6  111.30    4.94
   0   3   7  800.77   12.56
   0   3   7  799.13   13.42
   0   3   8  118.32    5.85
   0   3   8  110.55    5.89
   0   3   9  142.01    6.85
   0   3   9  132.80    6.46
   0   3  10    7.57    3.50
   0   3  10    8.27    3.76
   0   3  11  193.09    8.60
   0   3  11  184.78    8.49
   0  -4  15  148.68    9.10
   0   4 -15  159.51    8.69
   0  -4  14    5.19    4.07
   0   4 -14    4.96    3.94
   0   4 -13  134.61    7.28
   0  -4  13  138.01    7.82
   0   4 -12  155.51    7.29
   0  -4  12  150.23    7.87
   0  -4  11   90.94    6.27
   0   4 -11   90.69    5.73
   0   4 -10  461.61   10.47
   0  -4  10  458.57   11.07
   0  -4   9 1770.43   19.56
   0   4  -9 1763.24   18.80
   0  -4   8   42.09    4.16
   0   4  -8   45.76    3.76
   0   4  -7  908.85   12.03
   0  -4   7  899.84   12.14
   0  -4   6  114.21    4.40
   0   4  -6  111.28    4.39
   0   4  -5  777.43   10.08
   0  -4   5  790.48    9.18
   0   4  -4    5.50    1.83
   0   4  -4    4.92    1.95
   0  -4   4    5.69    1.54
   0   4  -3  136.11    4.31
   0   4  -3  134.48    4.17
   0  -4   3  133.40    2.76
   0   4  -2  194.86    5.09
   0   4  -2  198.97    4.94
   0   4  -1  281.06    5.82
   0   4  -1  266.52    6.10
   0   4   0  154.12    5.03
   0   4   0  161.32    4.72
   0   4   1   88.71    1.70
   0   4   1  101.56    4.04
   0   4   1  102.35    4.43
   0   4   2  896.52   12.15
   0   4   2  936.91    7.24
   0   4   3  154.72    5.77
   0   4   3  157.15    3.88
   0  -4  -4    9.77    2.40
   0   4   4   11.17    2.18
   0   4   4    8.62    3.14
   0   4   5  459.81    8.10
   0   4   5  443.67   10.22
   0  -4  -5  462.65    7.83
   0   4   6  162.70    5.69
   0   4   6  155.55    6.95
   0   4   7    9.80    3.56
   0   4   8  139.82    6.97
   0   4   9   55.26    5.46
   0   4  10   76.11    6.60
   0   4  11    4.84    4.04
   0   5 -15   17.68    4.84
   0  -5  15   19.88    5.09
   0  -5  14   99.20    7.42
   0   5 -14  115.38    7.28
   0  -5  13  219.77    9.42
   0   5 -13  202.99    8.68
   0  -5  12   23.70    4.49
   0   5 -12   21.29    3.87
   0   5 -11   18.84    3.36
   0  -5  11   21.23    3.92
   0   5 -10  253.51    8.07
   0  -5  10  259.90    8.52
   0   5  -9  316.09    8.64
   0  -5   9  332.51    8.89
   0  -5   8  158.09    6.01
   0   5  -8  148.62    5.85
   0  -5   7  123.46    4.99
   0   5  -7  121.35    5.24
   0  -5   6   12.55    2.50
   0   5  -6   11.53    2.67
   0   5  -6    8.87    2.40
   0  -5   5    6.95    1.88
   0   5  -5    4.86    2.26
   0   5  -5    4.41    2.37
   0   5  -4  163.74    5.14
   0  -5   4  161.48    3.49
   0   5  -4  153.25    5.09
   0   5  -3  197.83    5.58
   0   5  -3  199.38    5.80
   0  -5   3  206.60    2.90
   0   5  -2  167.20    5.15
   0   5  -2  174.19    5.55
   0   5  -1   58.67    3.42
   0   5  -1   56.69    3.87
   0   5   0    9.67    2.83
   0   5   0   10.31    2.45
   0   5   1    4.62    2.85
   0   5   1    4.45    2.43
   0   5   2   59.42    4.48
   0   5   3   13.25    3.46
   0  -5  -4   -1.19    2.69
   0   5   4    1.19    3.24
   0   5   5   40.10    4.54
   0   5   6   62.75    5.38
   0   5   7  130.53    7.35
   0   5   8  251.81    9.64
   0   5   9  189.99    9.31
   0   5  10   39.78    5.50
   0   5  11   13.76    5.69
   0  -6  15   31.46    5.63
   0   6 -15   27.94    4.96
   0   6 -14    6.10    3.96
   0  -6  14    1.36    3.86
   0   6 -13    3.95    3.56
   0  -6  13    1.42    3.81
   0  -6  12   78.57    5.92
   0   6 -12   76.54    5.86
   0  -6  11   46.74    4.94
   0   6 -11   44.84    4.74
   0  -6  10   51.97    4.39
   0   6 -10   51.04    4.52
   0  -6   9   16.93    3.38
   0   6  -9   15.18    3.58
   0   6  -8    8.66    2.96
   0   6  -8    8.31    3.00
   0  -6   8   11.91    2.97
   0   6  -7    1.28    2.93
   0   6  -7    2.25    2.62
   0  -6   7    1.35    2.45
   0   6  -6    1.01    2.63
   0   6  -6    0.86    2.62
   0   6  -5  140.28    5.62
   0   6  -5  143.52    5.59
   0   6  -4  291.41    7.53
   0   6  -4  303.72    7.75
   0   6  -3  439.68    9.27
   0   6  -3  434.11    8.90
   0   6  -2   66.71    4.45
   0   6  -2   61.70    4.18
   0   6  -1   53.76    4.06
   0   6  -1   54.75    4.38
   0   6   0  167.73    6.22
   0   6   0  173.40    6.79
   0   6   1  440.84   10.39
   0   6   2  182.59    7.35
   0   6   3    2.53    3.55
   0  -6  -4   72.55    4.63
   0   6   4   74.74    5.63
   0   6   5    7.38    4.12
   0   6   6  187.94    8.58
   0   6   7   83.44    6.67
   0   6   8    0.02    4.14
   0   6   9    9.08    4.89
   0   6  10    1.52    5.41
   0  -7  15    6.42    4.77
   0   7 -15   -5.28    4.23
   0  -7  14    1.04    4.45
   0   7 -14   -1.06    4.01
   0   7 -13  128.08    7.51
   0   7 -12   22.57    4.46
   0   7 -11   42.89    4.77
   0   7 -10   24.22    3.93
   0   7  -9  172.03    7.16
   0   7  -8    4.02    2.95
   0   7  -8    6.07    2.91
   0   7  -7  103.14    5.21
   0   7  -7  103.23    5.41
   0   7  -6   55.35    4.32
   0   7  -6   56.74    4.50
   0   7  -5  402.65    9.48
   0   7  -5  401.02    9.66
   0   7  -4  217.68    7.21
   0   7  -4  217.23    7.41
   0   7  -3  100.74    5.73
   0   7  -3   90.90    5.12
   0   7  -2 1740.75   19.97
   0   7  -2 1686.44   18.93
   0   7  -1  278.88    8.80
   0   7  -1  280.63    8.23
   0   7   0  200.75    7.81
   0   7   0  187.99    7.12
   0   7   1  125.13    6.73
   0   7   2  107.13    6.42
   0  -7  -3   13.06    3.41
   0   7   3   10.53    4.41
   0   7   4   30.21    4.95
   0   7   5   70.08    6.42
   0   7   6   16.70    4.37
   0   7   7   23.40    5.02
   0   7   8   31.25    5.54
   0   8 -14   51.39    6.19
   0   8 -13   14.35    3.79
   0   8 -12   47.75    5.40
   0   8 -11   25.30    4.16
   0   8 -10  264.70    9.34
   0   8  -9   11.87    3.58
   0   8  -8   97.71    6.09
   0   8  -7    9.82    3.26
   0   8  -7   12.03    3.66
   0   8  -6   28.93    4.38
   0   8  -6   28.29    3.98
   0   8  -5    5.92    3.49
   0   8  -5    3.62    2.82
   0   8  -4   44.89    4.29
   0   8  -4   42.84    4.96
   0   8  -3  113.53    6.02
   0   8  -3  119.71    6.32
   0   8  -2   -5.02    3.39
   0   8  -2   -0.65    2.92
   0   8  -1   20.49    4.17
   0   8  -1   20.37    3.92
   0   8   0    0.15    2.85
   0   8   0    0.57    3.88
   0   8   1    9.91    4.10
   0   8   2   -1.45    4.07
   0   8   3   20.19    4.78
   0   8   4  152.33    8.75
   0   8   5  124.91    8.23
   0   8   6  104.96    8.36
   0   9 -13   -1.23    4.35
   0   9 -12   27.62    4.70
   0   9 -11   21.32    4.43
   0   9 -10   -1.97    3.38
   0   9  -9   23.21    4.19
   0   9  -8    2.12    3.23
   0   9  -7    2.01    3.50
   0   9  -7    0.80    3.15
   0   9  -6   38.55    4.74
   0   9  -6   36.09    4.63
   0   9  -5   25.30    4.22
   0   9  -5   25.46    4.53
   0   9  -4    5.90    3.82
   0   9  -4    4.22    4.01
   0   9  -3    3.61    4.01
   0   9  -3    4.08    3.60
   0   9  -2   72.60    6.20
   0   9  -2   56.02    5.25
   0   9  -1   66.90    6.16
   0   9  -1   66.82    5.49
   0   9   0   51.85    6.06
   0   9   1   41.31    5.93
   0   9   2   58.25    6.47
   0  -9  -2   67.80    5.88
   0   9   3  152.69    9.49
   0  10  -8   97.74    6.94
   0  10  -7   -0.68    3.41
   0  10  -6    1.15    3.33
   0  10  -6    3.19    4.25
   0  10  -5   99.73    7.01
   0  10  -5   99.76    6.39
   0  10  -4   91.77    6.86
   0  10  -4   94.71    6.35
   0  10  -3   14.28    4.19
   0  10  -3   13.06    3.76
   0  10  -2   63.02    6.49
   0  10  -2   61.73    5.71
   0  10  -1   12.05    4.79
   0  10   0   37.74    5.96
   0 -10  -1    7.07    4.52
   0  10   1   10.48    4.35
   0  11  -6    3.69    4.55
   0  11  -5   -0.42    4.90
   0  11  -4   45.89    6.20
   0  11  -3   89.34    8.02
   1 -11   0    1.46    4.83
   1 -11   1  150.21    9.27
  -1  11  -2    1.19    5.06
  -1  11  -3    3.66    5.06
  -1  11  -4    9.87    4.96
  -1  11  -5    4.18    4.93
  -1  11  -6    1.98    4.50
  -1  11  -7  154.57    8.80
  -1  10   2   35.46    6.44
   1 -10  -2   30.95    5.31
  -1  10   1    6.78    5.19
   1 -10  -1    5.85    4.31
   1 -10   0    2.57    4.27
  -1  10   0    4.02    4.99
  -1  10  -1   23.21    5.46
  -1  10  -2   10.91    4.51
  -1  10  -3    6.71    4.57
  -1  10  -4   89.86    6.78
  -1  10  -5    1.42    4.35
  -1  10  -6   17.88    4.85
  -1  10  -7   -0.66    3.77
  -1  10  -8    4.44    4.14
  -1   9   5   -9.58    5.64
  -1   9   4    5.61    4.89
  -1   9   3    2.21    4.50
   1  -9  -2    5.24    4.26
  -1   9   2   -0.33    4.46
   1  -9  -1   31.27    5.36
  -1   9   1   27.54    5.12
  -1   9   0  144.05    7.92
  -1   9  -1  100.65    5.66
  -1   9  -1   98.46    6.75
  -1   9  -2  103.62    5.54
  -1   9  -2   83.60    6.38
  -1   9  -3   50.14    5.53
  -1   9  -3   43.31    4.32
  -1   9  -4   22.69    3.50
  -1   9  -4   21.61    4.36
  -1   9  -5    8.14    4.11
  -1   9  -5    9.83    2.99
  -1   9  -6   57.63    5.59
  -1   9  -7   -1.15    3.80
  -1   9  -8    7.87    4.17
  -1   8   7   15.70    4.83
  -1   8   6   11.33    4.33
  -1   8   5   59.89    6.15
  -1   8   4    6.21    3.94
   1  -8  -3   52.46    5.01
  -1   8   3   53.39    5.55
   1  -8  -2    0.09    3.48
  -1   8   2    0.66    3.93
   1  -8  -1   73.10    5.57
  -1   8   1   81.18    6.17
  -1   8   0   11.91    3.89
  -1   8  -1   21.53    3.46
  -1   8  -1   18.53    4.15
  -1   8  -2    0.84    3.53
  -1   8  -2    0.74    2.72
  -1   8  -3  132.62    5.79
  -1   8  -3  133.50    6.65
  -1   8  -4 1063.88   16.69
  -1   8  -4 1080.83   14.99
  -1   8  -5    1.95    3.45
  -1   8  -5   -4.41    2.50
  -1   8  -6  118.49    5.64
  -1   8  -6  127.05    6.48
  -1   8  -7   12.50    3.59
  -1   8  -7    9.66    3.20
  -1   8  -8  255.13    8.46
  -1   8  -8  253.44    7.96
  -1   8  -9   62.92    5.08
  -1   8  -9   60.32    4.84
  -1   8 -10   75.53    5.22
  -1   8 -11    0.36    3.07
  -1   8 -12   10.64    3.59
  -1   8 -13   20.66    4.82
  -1   7   9    3.02    5.10
  -1   7   8  214.32   10.17
  -1   7   7    0.02    4.71
  -1   7   6   65.12    6.20
  -1   7   5   27.68    4.55
   1  -7  -4  126.61    6.23
  -1   7   4  123.36    7.16
   1  -7  -3   16.49    3.56
  -1   7   3   14.70    4.16
  -1   7   2   64.40    5.15
   1  -7  -2   70.40    5.06
  -1   7   1    4.00    3.36
  -1   7   0  435.60    9.42
  -1   7   0  422.54   10.59
  -1   7  -1  642.96   12.62
  -1   7  -1  633.37   10.93
  -1   7  -2  110.34    5.05
  -1   7  -2  110.01    6.15
  -1   7  -3  918.82   14.52
  -1   7  -3  911.89   12.64
  -1   7  -4  130.19    6.18
  -1   7  -4  120.79    5.20
  -1   7  -5   53.10    4.76
  -1   7  -5   58.56    3.82
  -1   7  -6    4.91    2.68
  -1   7  -6    4.94    3.23
  -1   7  -7  132.08    5.49
  -1   7  -7  123.97    5.91
  -1   7  -8  228.14    7.49
  -1   7  -8  230.67    7.34
  -1   7  -9  413.10    9.93
  -1   7 -10  157.51    6.84
   1  -7  10  162.25    6.76
   1  -7  11   61.95    4.95
  -1   7 -11   61.24    4.96
  -1   7 -12   65.60    5.37
   1  -7  12   68.01    5.67
  -1   7 -13    0.14    3.02
   1  -7  13   -0.65    3.46
  -1   7 -14    2.80    3.55
   1  -7  14    2.76    4.02
   1  -7  15   74.83    7.28
  -1   7 -15   70.64    6.65
  -1   6  10    5.50    4.92
  -1   6   9   53.63    6.48
  -1   6   8   -2.99    4.06
  -1   6   7   53.60    5.45
  -1   6   6  176.50    8.09
  -1   6   5   -0.67    3.25
  -1   6   4    1.50    3.34
   1  -6  -4   -0.91    2.70
   1  -6  -3   36.97    3.90
  -1   6   3   30.36    4.33
  -1   6   2  209.37    7.38
   1  -6  -2  206.73    7.00
  -1   6   1    1.45    3.14
  -1   6   0  211.74    7.12
  -1   6   0  220.34    6.20
  -1   6  -1    0.84    3.15
  -1   6  -1    2.17    2.20
  -1   6  -2   86.37    4.99
  -1   6  -2   89.93    4.12
  -1   6  -3    0.49    2.16
  -1   6  -3    3.62    3.00
  -1   6  -4  494.11    8.57
  -1   6  -4  487.59    9.73
   1  -6   5  133.70    3.99
  -1   6  -5  129.18    4.82
  -1   6  -5  138.35    5.56
  -1   6  -6  213.62    6.19
   1  -6   6  210.58    5.54
   1  -6   7  361.76    7.74
  -1   6  -7  354.53    8.05
   1  -6   8  318.45    7.98
  -1   6  -8  309.19    7.96
  -1   6  -9  375.78    9.16
   1  -6   9  383.59    9.32
   1  -6  10   66.10    4.99
  -1   6 -10   61.00    4.45
  -1   6 -11   44.84    4.35
   1  -6  11   37.07    4.41
   1  -6  12   16.64    4.15
  -1   6 -12   16.39    3.90
   1  -6  13    2.38    3.79
  -1   6 -13    3.55    3.35
   1  -6  14   13.77    4.55
  -1   6 -14   14.09    4.20
  -1   6 -15    0.71    4.06
   1  -6  15    1.50    4.76
  -1   5  10   -1.41    4.17
  -1   5   9   -0.72    4.13
  -1   5   8  163.72    7.95
  -1   5   7   41.19    4.97
  -1   5   6  263.10    8.67
   1  -5  -5   48.00    3.75
  -1   5   5   44.35    4.55
  -1   5   4   -0.23    3.33
   1  -5  -4    1.65    2.70
  -1   5   3    1.49    2.85
   1  -5  -3    1.36    2.51
  -1   5   2   51.29    4.07
  -1   5   2   49.86    2.46
   1  -5  -2   53.66    3.87
  -1   5   1   52.92    3.94
  -1   5   0   15.93    2.92
  -1   5   0   17.97    2.34
  -1   5  -1  626.97   10.23
  -1   5  -1  669.55    8.74
  -1   5  -2  394.92    6.67
   1  -5   2  391.88    4.22
  -1   5  -2  393.10    8.02
  -1   5  -3  562.95    9.36
   1  -5   3  587.97    6.02
  -1   5  -3  585.10    8.01
  -1   5  -4  449.55    7.30
   1  -5   4  460.77    6.29
   1  -5   5   16.61    2.21
  -1   5  -5   15.05    2.19
  -1   5  -6   40.64    3.14
   1  -5   6   39.47    3.08
  -1   5  -7   13.93    2.67
   1  -5   7   13.34    2.75
  -1   5  -8  246.82    6.97
   1  -5   8  245.51    7.29
   1  -5   9   12.37    3.61
  -1   5  -9   15.85    3.17
   1  -5  10  134.37    6.55
  -1   5 -10  138.16    6.01
   1  -5  11   62.23    5.37
  -1   5 -11   69.54    5.14
  -1   5 -12   53.67    5.16
   1  -5  12   46.31    5.33
  -1   5 -13  166.03    7.85
   1  -5  13  166.75    8.45
   1  -5  14   43.38    5.82
  -1   5 -14   46.35    5.33
   1  -5  15   55.25    6.98
  -1   5 -15   67.76    6.46
  -1   4  10    0.09    3.54
  -1   4   9   17.88    3.94
  -1   4   9   20.54    4.13
  -1   4   8  391.49   10.50
  -1   4   8  402.03   10.00
  -1   4   7    5.12    3.04
  -1   4   7    2.38    3.08
  -1   4   6  266.48    8.00
  -1   4   6  266.58    7.36
   1  -4  -5   33.35    3.00
  -1   4   5   36.58    3.41
  -1   4   5   33.25    3.78
  -1   4   4   37.18    3.74
   1  -4  -4   39.72    3.03
  -1   4   4   40.55    3.22
   1  -4  -3  389.45    7.13
  -1   4   3  387.02    8.08
   1  -4  -2   16.64    2.47
  -1   4   2   12.85    2.40
  -1   4   1 1324.95   13.58
  -1   4   0   84.84    3.83
  -1   4   0   85.70    3.07
  -1   4  -1  337.81    6.70
  -1   4  -1  343.96    5.39
  -1   4  -2  140.30    4.44
  -1   4  -2  142.29    3.57
   1  -4   2  140.56    2.72
  -1   4  -3  958.16    8.96
   1  -4   3  971.60    8.02
  -1   4  -4  143.75    3.90
   1  -4   4  135.49    3.76
   1  -4   5  812.98    9.54
  -1   4  -5  802.01    9.25
   1  -4   6  141.33    4.71
  -1   4  -6  138.33    4.51
  -1   4  -7  128.60    4.84
   1  -4   7  126.34    5.13
   1  -4   8   26.46    3.55
  -1   4  -8   25.55    3.19
   1  -4   9 1059.68   15.43
  -1   4  -9 1071.64   14.64
  -1   4 -10  566.35   11.40
   1  -4  10  557.87   12.16
  -1   4 -11  247.32    8.45
   1  -4  11  241.44    8.71
   1  -4  12  236.60    9.32
  -1   4 -12  261.15    9.10
  -1   4 -13  334.00   10.75
   1  -4  13  311.85   11.15
   1  -4  14  144.71    8.52
  -1   4 -14  144.11    8.05
  -1   4 -15    1.85    4.04
   1  -4  15    2.36    4.60
  -1   3  13    3.20    4.35
  -1   3  12   33.81    5.19
  -1   3  11  144.29    7.91
  -1   3  10  166.28    7.06
  -1   3  10  181.56    8.06
  -1   3   9 1235.12   16.97
  -1   3   9 1222.53   18.08
  -1   3   8   21.05    3.69
  -1   3   8   20.77    3.83
  -1   3   7  204.88    7.09
  -1   3   7  210.01    6.94
  -1   3   6  872.47   12.32
  -1   3   6  839.54   12.24
   1  -3  -6  861.87    9.49
  -1   3   5  355.06    7.63
   1  -3  -5  376.69    6.30
  -1   3   5  375.50    7.81
   1  -3  -4  300.65    5.62
  -1   3   4  300.58    6.62
  -1   3   3  720.28    9.44
   1  -3  -3  731.75    8.47
  -1   3   2   26.59    2.41
   1  -3  -2   32.02    2.24
  -1   3   1  550.21    7.64
   1  -3  -1  548.89    7.30
  -1   3   0  204.65    4.71
  -1   3   0  212.37    3.68
  -1   3  -1 1053.29    9.76
   1  -3   1 1075.05    6.42
  -1   3  -1 1060.48    7.47
  -1   3  -2  203.33    3.47
   1  -3   2  205.72    3.40
  -1   3  -3  201.07    3.74
   1  -3   3  207.02    4.01
   1  -3   4   87.91    3.20
  -1   3  -4   86.10    2.91
   1  -3   5   37.08    2.76
  -1   3  -5   36.89    2.42
   1  -3   6  579.99    9.13
  -1   3  -6  601.85    8.78
   1  -3   7   93.64    4.56
  -1   3  -7   87.42    4.00
  -1   3  -8  258.48    6.98
   1  -3   8  251.10    7.51
  -1   3  -9   82.57    4.90
   1  -3   9   81.19    5.27
  -1   3 -10  169.23    6.78
   1  -3  10  174.85    7.35
   1  -3  11  220.97    8.59
  -1   3 -11  231.96    8.25
   1  -3  12   30.04    4.64
  -1   3 -12   32.36    4.71
  -1   3 -13    3.17    3.64
   1  -3  13    4.38    4.00
  -1   3 -14   -0.36    4.27
   1  -3  14    2.59    4.11
   1  -3  15    4.98    5.19
  -1   3 -15   11.82    4.98
  -1   2  14    8.65    5.01
  -1   2  13   61.69    6.37
  -1   2  12  162.80    8.46
  -1   2  11   16.72    4.61
  -1   2  10   71.14    5.74
  -1   2   9  154.44    6.06
  -1   2   9  157.48    7.37
  -1   2   8   83.52    4.63
  -1   2   8   81.05    5.68
  -1   2   7  142.70    6.03
  -1   2   7  136.68    5.19
  -1   2   6   63.31    3.54
  -1   2   6   58.42    4.17
   1  -2  -6   63.32    2.71
  -1   2   5   17.37    2.26
   1  -2  -5   20.52    1.82
   1  -2  -4    1.75    1.31
  -1   2   4    1.29    1.74
   1  -2  -3   34.72    1.89
  -1   2   3   34.60    2.29
  -1   2   2 1032.31    8.84
   1  -2  -2 1037.60    8.25
   1  -2  -1 2830.83   13.16
  -1   2   1 2833.77   13.89
   1  -2   0  971.48    7.69
  -1   2   0  978.04    5.46
  -1   2  -1 4522.52   10.73
   1  -2   1 4544.09   13.13
   1  -2   2   96.65    2.72
  -1   2  -2   98.56    2.17
  -1   2  -3   45.08    2.07
   1  -2   3   41.27    2.36
  -1   2  -4    1.37    1.34
   1  -2   4    2.05    1.68
   1  -2   5  457.01    7.53
  -1   2  -5  460.70    6.98
  -1   2  -6   10.27    2.09
   1  -2   6    9.59    2.34
   1  -2   7  554.97    9.93
   1  -2   8  122.69    5.71
  -1   2  -9   55.07    4.36
   1  -2   9   52.33    4.72
  -1   2 -10  341.46    9.36
   1  -2  10  332.33    9.71
   1  -2  11  131.62    6.94
  -1   2 -11  135.87    6.72
  -1   2 -12    1.55    3.50
   1  -2  12    1.80    4.08
  -1   2 -13   -0.34    3.74
   1  -2  13    0.52    4.02
   1  -2  14   29.38    5.47
  -1   2 -14   17.70    5.34
   1  -2  15    1.64    5.59
  -1   2 -15    2.79    4.41
  -1   1  14    0.71    4.98
   1  -1 -14    6.22    5.02
  -1   1  13   -4.65    3.99
   1  -1 -13    1.10    4.38
  -1   1  12   11.23    4.58
  -1   1  11    4.34    4.27
  -1   1  10    6.73    3.77
  -1   1   9   19.05    4.13
  -1   1   9   22.46    3.00
  -1   1   8    1.20    2.39
  -1   1   8    2.17    3.45
  -1   1   7   62.52    3.38
   1  -1  -7   65.99    2.63
  -1   1   7   65.97    4.55
  -1   1   6   50.87    2.81
   1  -1  -6   51.50    2.26
  -1   1   5  430.61    6.23
   1  -1  -5  446.97    5.46
   1  -1  -4  139.56    3.02
  -1   1   4  141.11    3.32
   1  -1  -3   64.15    2.10
  -1   1   3   59.08    2.16
   1  -1  -2 1469.25    8.26
  -1   1   2 1480.18    7.89
  -1   1   1 2241.20    8.84
   1  -1  -1 2229.02    9.43
   1  -1   0  141.09    2.27
   1  -1   0  173.57    2.46
   1  -1   1   64.73    1.52
   1  -1   1   57.45    1.64
   1  -1   2 4087.57   15.19
   1  -1   2 4107.90   10.18
   1  -1   3 1152.46    9.41
   1  -1   3 1141.70    8.90
   1  -1   3 1149.79    5.05
   1  -1   4    0.98    1.70
   1  -1   4    0.17    1.41
   1  -1   5 1645.72   12.98
   1  -1   5 1667.48   14.25
   1  -1   6  179.51    5.59
   1  -1   6  179.08    4.96
   1  -1   7   58.10    3.36
   1  -1   7   53.70    3.89
   1  -1   8   49.77    3.52
   1  -1   8   47.84    4.16
   1  -1   9  133.01    5.57
   1  -1   9  131.93    6.40
   1  -1  10    1.87    3.55
   1  -1  10    0.63    2.48
   1  -1  11   24.94    4.31
   1  -1  11   27.45    3.86
   1  -1  12    5.62    3.99
  -1   1 -13   12.94    4.52
   1  -1  13   12.05    4.79
   1  -1  14   24.84    5.42
  -1   1 -14   26.67    5.48
  -1   0  15   88.82    7.85
   1   0 -14   -0.54    4.60
  -1   0  14   -1.24    4.83
   1   0 -13  153.07    8.07
  -1   0  13  139.83    8.73
   1   0 -12   53.16    5.34
  -1   0  12   49.91    5.98
  -1   0  11    9.93    4.53
   1   0 -11    8.60    3.55
  -1   0  10  100.81    6.32
   1   0 -10  101.25    5.82
  -1   0   9    3.66    3.89
  -1   0   8  107.46    3.86
  -1   0   8  111.32    5.78
  -1   0   7  294.75    7.94
   1   0  -7  306.41    5.01
  -1   0   7  303.38    5.47
  -1   0   6 2076.57   12.27
   1   0  -6 2079.15   12.12
  -1   0   5  206.63    3.56
   1   0  -5  206.57    3.80
  -1   0   4 2204.25    9.17
   1   0  -4 2176.08   13.85
   1   0  -4 2194.47   11.32
   1   0  -3  301.03    4.09
   1   0  -3  296.55    4.68
   1   0  -2 2818.40   11.38
   1   0  -2 2874.63   11.35
   1   0  -1   97.17    1.98
   1   0  -1  180.28    2.34
   1   0   0  270.31    2.88
   1   0   0  263.88    2.84
   1   0   1  373.32    4.23
   1   0   1  384.54    4.00
   1   0   1  372.41    2.97
   1   0   2 6097.52   18.74
   1   0   2 6073.97   19.64
   1   0   3  734.39    7.72
   1   0   3  724.81    7.74
   1   0   4 1480.87   12.26
   1   0   4 1466.60   12.06
   1   0   5    6.38    2.01
   1   0   5    5.36    2.14
   1   0   6  420.94    7.79
   1   0   6  414.76    8.25
   1   0   7  242.59    6.69
   1   0   7  237.56    6.99
   1   0   8  403.71    8.87
   1   0   8  388.69    9.37
   1   0   9    3.13    3.48
   1   0   9    0.95    2.77
   1   0  10   86.73    5.15
   1   0  10   74.00    5.52
   1   0  11   69.21    5.76
   1   0  11   72.76    5.21
   1   0  12    6.20    3.85
   1   0  13  125.81    7.69
   1   0  14    1.52    5.07
   1   1 -15  219.36   10.78
  -1  -1  15  211.62   10.83
  -1  -1  14   34.79    5.81
   1   1 -14   38.01    5.58
  -1  -1  13    3.21    4.39
   1   1 -13    5.06    4.02
  -1  -1  12   12.80    4.45
   1   1 -12   14.53    4.16
   1   1 -11   18.38    3.94
  -1  -1  11   19.56    4.69
   1   1 -10   10.96    3.55
  -1  -1  10   10.35    4.14
   1   1  -9    9.18    3.24
  -1  -1   9   12.88    3.89
  -1  -1   8  575.71    7.12
   1   1  -8  551.61   10.27
   1   1  -8  554.85    7.38
  -1  -1   8  544.42   11.03
   1   1  -7  270.90    6.80
   1   1  -7  274.09    5.08
  -1  -1   7  283.44    7.57
   1   1  -6  173.52    5.09
   1   1  -6  181.05    4.03
   1   1  -5  229.25    4.32
   1   1  -5  234.04    5.28
   1   1  -4   33.23    1.97
   1   1  -4   32.76    2.23
   1   1  -3    3.35    1.57
   1   1  -3    3.23    1.41
   1   1  -2 3049.61   13.27
   1   1  -2 3059.24   13.34
   1   1  -1 4015.51   14.55
   1   1  -1 4018.15   14.63
   1   1  -1 4034.14   11.85
   1   1   0 1699.96    9.85
   1   1   0 1729.06    7.39
   1   1   0 1700.11    9.46
   1   1   1   11.22    1.84
   1   1   1   10.91    1.69
   1   1   1   18.83    1.44
   1   1   2   45.75    2.50
   1   1   2   46.79    2.11
   1   1   3   67.10    3.11
   1   1   3   68.40    2.71
   1   1   4   19.09    2.40
   1   1   4   17.76    2.20
   1   1   5   30.95    2.82
  -1  -1  -5   30.45    0.98
   1   1   5   33.46    2.97
   1   1   6   38.46    3.31
   1   1   6   41.33    3.40
   1   1   7  151.52    5.89
   1   1   7  152.93    6.02
   1   1   8  185.26    6.84
   1   1   8  181.32    6.93
   1   1   9   80.91    5.19
   1   1   9   80.70    5.33
   1   1  10   25.64    3.87
   1   1  10   21.58    4.06
   1   1  11   -1.19    3.52
   1   1  11    1.17    3.13
   1   1  12   15.02    4.53
   1   1  13   -0.55    4.21
   1   1  14    9.15    4.92
  -1  -2  15    1.07    4.92
   1   2 -15    2.54    4.22
   1   2 -14   28.71    5.16
  -1  -2  14   28.28    5.94
   1   2 -13   -0.84    3.77
  -1  -2  13    3.33    4.55
  -1  -2  12    0.55    4.13
   1   2 -12    1.79    3.40
  -1  -2  11    4.24    3.69
   1   2 -11    1.08    3.26
  -1  -2  10  220.46    8.40
   1   2 -10  220.22    7.81
  -1  -2   9   54.27    4.89
   1   2  -9   54.76    4.39
   1   2  -8 1130.74   14.35
  -1  -2   8 1142.41   15.39
   1   2  -7   67.85    3.82
  -1  -2   7   71.87    4.51
   1   2  -6  147.48    4.68
   1   2  -5    9.27    1.93
   1   2  -4   18.58    1.99
   1   2  -4   21.66    1.36
   1   2  -3  123.77    2.58
   1   2  -3  119.62    3.50
   1   2  -2   58.21    2.15
   1   2  -2   56.42    2.59
   1   2  -1  601.61    6.47
   1   2  -1  596.39    7.10
   1   2   0  377.58    3.51
   1   2   0  361.34    5.59
   1   2   0  369.41    5.82
   1   2   1  107.11    2.35
   1   2   1  103.73    3.44
   1   2   1  105.19    3.57
   1   2   2  322.38    6.32
   1   2   2  336.27    4.72
   1   2   3  310.69    6.75
   1   2   3  325.85    5.43
   1   2   4    0.77    2.18
   1   2   4    1.08    1.69
   1   2   5    1.46    2.45
   1   2   5    4.04    2.31
   1   2   6   50.55    3.69
   1   2   6   54.59    4.37
   1   2   7  188.44    6.46
   1   2   7  185.23    6.94
   1   2   8   46.47    4.06
   1   2   8   50.47    4.58
   1   2   9   59.51    4.84
   1   2   9   62.04    5.08
   1   2  10   21.27    4.00
   1   2  10   18.86    3.79
   1   2  11    4.94    3.90
   1   2  11    5.12    3.32
   1   2  12   22.44    4.90
   1   2  12   15.70    3.98
   1   2  13  324.51   11.96
  -1  -3  15    0.19    5.11
   1   3 -15    2.12    4.41
   1   3 -14   -0.47    3.84
  -1  -3  14   -2.85    4.41
   1   3 -13   27.89    4.77
  -1  -3  13   24.32    5.06
   1   3 -12    2.40    3.64
  -1  -3  12    0.72    3.99
   1   3 -11   34.69    4.32
  -1  -3  11   32.74    4.78
  -1  -3  10  890.69   15.48
   1   3 -10  897.98   14.57
  -1  -3   9  464.94   10.82
   1   3  -9  467.52   10.13
   1   3  -8 1384.83   16.06
  -1  -3   8 1414.24   16.81
  -1  -3   7  203.85    6.38
   1   3  -7  198.54    6.07
  -1  -3   6   97.96    4.39
   1   3  -6  103.46    4.23
   1   3  -5   50.37    2.27
   1   3  -5   47.87    3.05
   1   3  -4  544.89    8.11
   1   3  -4  540.20    6.34
   1   3  -3   95.84    3.08
   1   3  -3   92.22    3.53
   1   3  -2  634.46    8.33
   1   3  -2  641.90    7.63
   1   3  -1  302.93    5.69
   1   3  -1  302.96    6.01
   1   3   0  156.31    4.56
   1   3   0  150.25    4.45
   1   3   1 1236.71   12.66
   1   3   1 1263.79   12.62
   1   3   1 1259.82    7.33
   1   3   2    0.90    2.21
   1   3   2    0.41    1.14
   1   3   3  340.30    7.85
   1   3   3  348.96    5.69
   1   3   4    8.57    2.76
   1   3   4   12.87    2.28
   1   3   5    1.67    2.23
   1   3   5    1.87    2.78
   1   3   6   37.64    3.61
   1   3   6   38.78    4.41
   1   3   7 2144.82   20.15
   1   3   7 2146.37   23.09
   1   3   8   64.98    5.32
   1   3   8   63.72    4.63
   1   3   9  272.26    9.67
   1   3   9  274.92    8.91
   1   3  10   97.14    6.70
   1   3  11  331.42   11.49
   1   3  12  190.63    9.56
   1   4 -15  137.77    8.26
  -1  -4  15  135.82    9.04
  -1  -4  14   27.61    5.12
   1   4 -14   33.91    5.07
  -1  -4  13  159.48    8.58
   1   4 -13  155.95    7.77
  -1  -4  12   13.09    4.73
   1   4 -12   10.50    3.73
   1   4 -11 2271.97   24.29
  -1  -4  11 2269.47   25.30
   1   4 -10   13.34    3.52
  -1  -4  10   11.83    3.90
  -1  -4   9    1.47    3.49
   1   4  -9    1.82    3.10
   1   4  -8   44.31    3.87
  -1  -4   8   49.73    4.50
  -1  -4   7   73.92    4.40
   1   4  -7   71.42    3.14
   1   4  -7   70.66    4.19
   1   4  -6   49.71    3.60
  -1  -4   6   54.28    3.55
   1   4  -6   54.49    2.81
   1   4  -5 1440.84   11.98
   1   4  -5 1398.76   14.50
  -1  -4   5 1424.99   12.56
   1   4  -4  608.78    8.15
  -1  -4   4  625.95    7.43
   1   4  -4  614.04    9.40
   1   4  -3  993.42   10.67
  -1  -4   3  954.30    7.57
   1   4  -3 1001.32   11.73
  -1  -4   2   32.63    1.25
   1   4  -2   39.41    2.89
   1   4  -2   41.97    3.08
   1   4  -1  275.62    6.36
   1   4  -1  280.58    6.48
   1   4   0  311.28    7.16
   1   4   0  309.90    7.12
   1   4   1   91.67    4.50
   1   4   1   88.54    2.01
   1   4   1   93.06    4.41
   1   4   2    3.42    1.23
   1   4   2    2.90    2.59
   1   4   3   17.54    1.99
   1   4   3   15.59    3.37
   1   4   4  209.05    7.41
   1   4   5   73.19    5.44
   1   4   6  438.80   11.26
   1   4   7   63.89    5.43
   1   4   8   46.79    5.17
   1   4   9   38.60    5.27
   1   4  10   19.47    4.84
   1   4  11    3.77    4.73
  -1  -5  15    8.53    4.73
   1   5 -15    6.69    4.56
  -1  -5  14   31.72    5.56
   1   5 -14   33.61    4.93
   1   5 -13    7.65    3.86
  -1  -5  13    5.66    4.45
  -1  -5  12    6.99    4.27
   1   5 -12    8.77    3.56
  -1  -5  11  390.84   10.87
   1   5 -11  357.15   10.32
   1   5 -10  461.85   11.07
  -1  -5  10  475.36   11.15
  -1  -5   9   -0.63    3.20
   1   5  -9    0.63    3.17
   1   5  -8   11.84    3.16
  -1  -5   8   12.58    3.42
  -1  -5   7   28.16    3.53
   1   5  -7   27.71    2.96
   1   5  -7   27.74    3.55
   1   5  -6  169.48    5.22
  -1  -5   6  171.22    5.20
   1   5  -6  169.81    6.13
   1   5  -5   67.64    4.24
   1   5  -5   68.62    3.75
  -1  -5   5   68.04    3.21
   1   5  -4    2.64    2.28
   1   5  -4    2.00    2.32
   1   5  -3  230.16    6.24
   1   5  -3  229.63    6.57
   1   5  -2    0.76    2.33
   1   5  -2    0.86    2.35
   1   5  -1  603.73   10.49
   1   5  -1  600.47   10.51
   1   5   0   63.66    4.49
   1   5   0   60.14    4.09
   1   5   1   77.89    4.73
   1   5   1   81.52    5.03
   1   5   2   17.28    3.76
   1   5   3    6.55    3.34
   1   5   4  181.20    7.67
   1   5   5   34.61    4.62
   1   5   6   10.41    4.05
   1   5   7   11.03    4.15
   1   5   8    2.94    4.03
   1   5   9   13.92    4.55
   1   5  10   18.48    5.58
   1   6 -15   10.13    4.54
  -1  -6  15   12.60    5.23
   1   6 -14    1.22    3.90
  -1  -6  14    3.57    4.49
  -1  -6  13   42.04    5.40
   1   6 -13   45.63    5.48
  -1  -6  12   43.32    5.01
   1   6 -12   39.96    4.94
   1   6 -11  138.54    7.14
  -1  -6  11  141.46    6.96
   1   6 -10   46.01    4.57
  -1  -6  10   43.30    4.41
   1   6  -9   63.58    4.88
   1   6  -8   49.96    4.50
   1   6  -7   61.55    3.96
   1   6  -7   53.67    4.50
   1   6  -6  198.29    7.02
   1   6  -6  208.42    6.29
   1   6  -5   -0.63    2.74
   1   6  -5    2.47    2.76
   1   6  -4   45.55    3.92
   1   6  -4   39.91    4.12
   1   6  -3  116.85    5.40
   1   6  -3  114.87    5.61
   1   6  -2  237.00    7.51
   1   6  -2  241.07    7.58
   1   6  -1   31.61    3.73
   1   6  -1   32.99    4.12
   1   6   0   29.26    3.90
   1   6   0   31.54    4.29
   1   6   1  132.63    6.30
   1   6   1  136.20    6.35
   1   6   2   10.93    3.87
   1   6   3  261.60    9.23
   1   6   4  519.25   13.21
   1   6   5  126.30    7.57
   1   6   6   56.68    5.93
   1   6   7  212.81    9.95
   1   6   8   34.54    5.83
   1   7 -14  140.12    8.01
   1   7 -13    7.77    4.06
   1   7 -12   -0.89    3.34
   1   7 -11   -0.26    3.67
   1   7 -10   22.15    4.40
   1   7  -9   14.97    3.83
   1   7  -8   65.68    5.14
   1   7  -7   25.81    3.71
   1   7  -6  272.48    8.62
   1   7  -6  278.74    7.90
   1   7  -5  247.71    7.66
   1   7  -5  230.51    8.06
   1   7  -4  140.79    6.16
   1   7  -4  134.87    6.49
   1   7  -3   48.27    4.35
   1   7  -3   50.05    4.64
   1   7  -2   74.00    5.18
   1   7  -2   73.69    5.35
   1   7  -1   49.74    4.83
   1   7  -1   39.27    4.18
   1   7   0  617.73   13.25
   1   7   0  597.93   12.86
   1   7   1  242.73    9.07
   1   7   2  500.75   13.18
   1   7   3   20.54    4.65
   1   7   4   43.72    5.54
   1   7   5    2.25    4.55
   1   7   6  177.64    9.63
   1   7   7   20.94    6.00
   1   8 -14   86.32    7.22
   1   8 -13   71.05    6.27
   1   8 -12    1.39    3.55
   1   8 -11   71.39    6.41
   1   8 -10   17.75    4.11
   1   8  -9   69.81    5.65
   1   8  -8   58.35    5.38
   1   8  -7    5.77    3.34
   1   8  -6  230.49    7.94
   1   8  -6  212.64    8.29
   1   8  -5   16.77    3.91
   1   8  -5   20.10    3.79
   1   8  -4    5.89    3.56
   1   8  -4   10.36    3.86
   1   8  -3  293.43    9.66
   1   8  -3  295.52    9.65
   1   8  -2  192.34    8.17
   1   8  -2  194.27    8.12
   1   8  -1  144.73    7.41
   1   8  -1  142.55    7.42
   1   8   0    3.64    3.85
   1   8   0    4.11    3.31
   1   8   1   54.26    6.03
   1   8   2    6.85    4.20
   1   8   3   14.71    4.99
   1   8   4   -0.18    4.94
   1   8   5   -7.85    5.28
   1   9 -12   43.80    5.91
   1   9 -11   13.95    4.46
   1   9 -10   66.99    6.03
   1   9  -9   23.89    4.48
   1   9  -8   36.29    4.72
   1   9  -7    1.56    3.32
   1   9  -6    8.11    3.89
   1   9  -5   12.81    3.99
   1   9  -5    8.32    4.09
   1   9  -4   43.76    5.23
   1   9  -4   48.85    5.46
   1   9  -3   76.34    6.39
   1   9  -3   65.15    5.92
   1   9  -2  113.96    7.29
   1   9  -2  103.03    6.96
   1   9  -1   18.92    4.70
   1   9  -1   22.95    4.63
   1   9   0    0.14    4.85
   1   9   1   10.66    5.50
   1   9   2    6.96    5.26
   1  10 -11   62.65    6.68
   1  10 -10  163.60    9.30
   1  10  -9   65.10    6.43
   1  10  -8    0.14    4.29
   1  10  -7   -0.07    3.83
   1  10  -6   49.64    5.42
   1  10  -5    0.46    3.74
   1  10  -5    3.09    4.34
   1  10  -4   -2.10    4.25
   1  10  -4    7.80    3.91
   1  10  -3   76.05    6.82
   1  10  -3   73.96    6.75
   1  10  -2  141.54    8.83
   1  10  -2  122.14    8.14
   1  10  -1   13.99    5.84
  -2  12  -7   14.33    5.42
   2 -11  -1   35.88    5.89
   2 -11   0    0.96    4.71
  -2  11   0    1.98    5.47
  -2  11  -1  187.65   10.14
   2 -11   1  189.21    9.81
   2 -11   2    1.11    4.94
  -2  11  -2    4.24    5.14
  -2  11  -3   70.46    6.93
   2 -11   3   61.33    6.80
   2 -11   4    4.45    4.75
  -2  11  -4    4.62    4.80
  -2  11  -5    7.03    5.10
  -2  11  -6   72.07    6.96
  -2  11  -7   33.67    5.89
  -2  11  -8   -4.89    4.93
   2 -10  -3    0.79    3.93
  -2  10   3   -3.06    4.81
  -2  10   2  118.68    8.32
   2 -10  -2  108.99    7.31
   2 -10  -1   85.19    6.64
  -2  10   1   91.92    7.37
   2 -10   0   88.43    7.06
  -2  10   0   70.82    6.70
   2 -10   1   17.94    5.02
  -2  10  -1   25.67    4.72
  -2  10  -2   63.49    6.49
   2 -10   2   61.16    6.40
  -2  10  -3   60.20    6.11
  -2  10  -4   10.79    4.64
  -2  10  -5  102.96    7.24
  -2  10  -6  176.89    8.60
  -2  10  -7   68.75    6.34
  -2  10  -8    1.29    3.88
  -2  10  -9   24.43    5.36
  -2   9   5  102.56    8.28
  -2   9   4   48.93    5.92
  -2   9   3   53.49    5.89
   2  -9  -3   52.73    5.37
   2  -9  -2   72.29    5.92
  -2   9   2   68.07    6.51
   2  -9  -1   74.93    5.77
  -2   9   1   67.55    6.36
  -2   9   0   51.19    5.70
   2  -9   0   52.86    5.35
  -2   9  -1    4.06    3.92
   2  -9   1    4.81    4.18
  -2   9  -2  102.05    6.51
  -2   9  -3    9.37    4.45
  -2   9  -4  117.81    7.01
  -2   9  -5    9.32    4.45
  -2   9  -6    4.10    3.75
  -2   9  -7   -0.84    3.83
  -2   9  -8   86.18    6.40
  -2   9  -9   14.37    4.34
  -2   8   8   36.00    6.10
  -2   8   7   22.49    5.24
  -2   8   6   30.76    5.23
  -2   8   5    4.87    4.36
  -2   8   4   30.09    5.28
   2  -8  -4   31.81    4.29
   2  -8  -3   47.94    5.07
  -2   8   3   44.02    5.37
  -2   8   2   37.58    5.04
   2  -8  -2   43.98    4.55
  -2   8   1    1.55    3.49
   2  -8  -1    0.90    3.20
  -2   8   0   17.41    4.30
   2  -8   0   24.01    4.16
  -2   8  -1   41.50    4.84
   2  -8   1   49.76    4.96
  -2   8  -2  368.05   10.59
  -2   8  -3    4.18    3.72
  -2   8  -4   26.50    4.32
  -2   8  -5   87.52    5.91
  -2   8  -6  197.37    7.67
  -2   8  -7    5.70    3.75
  -2   7   9   22.87    5.41
  -2   7   8   56.80    6.37
  -2   7   7    2.26    4.12
  -2   7   6    1.58    3.80
   2  -7  -5    2.48    3.04
  -2   7   5    1.70    3.85
  -2   7   4  242.32    9.03
   2  -7  -4  255.11    8.08
   2  -7  -3   86.96    5.35
  -2   7   3   89.01    5.81
  -2   7   2   32.80    4.30
   2  -7  -2   30.70    3.91
  -2   7   1   64.63    5.26
   2  -7  -1   67.61    5.08
  -2   7   0   51.77    4.91
   2  -7   0   51.39    4.86
  -2   7  -1  324.91    9.34
  -2   7  -1  324.31    7.21
   2  -7   1  327.62    9.12
  -2   7  -2 1776.67   20.11
  -2   7  -2 1788.54   15.71
  -2   7  -3 1701.39   19.56
  -2   7  -3 1772.75   15.44
  -2   7  -4  385.78    7.52
  -2   7  -4  379.90    9.69
  -2   7  -5  384.27    9.65
  -2   7  -5  387.66    7.68
  -2   7  -6   96.14    4.28
   2  -7   7  363.59    8.04
  -2   7  -7  360.12    8.07
   2  -7   8    3.74    2.73
  -2   7  -8    5.53    2.50
  -2   7  -9    5.94    2.79
   2  -7   9    6.63    3.23
   2  -7  10    7.75    3.14
  -2   7 -10    8.43    2.88
  -2   7 -11    6.68    2.96
   2  -7  11    5.73    3.69
   2  -7  12   19.42    4.37
   2  -7  13    9.26    4.14
   2  -7  14    3.28    4.16
   2  -7  15   13.16    5.27
  -2   6   9   70.73    5.99
  -2   6   8   42.65    5.28
  -2   6   7    3.56    4.17
  -2   6   6   75.51    5.55
  -2   6   5    8.95    3.42
   2  -6  -5   10.54    2.92
   2  -6  -4  135.14    5.84
  -2   6   4  129.10    6.34
   2  -6  -3   26.65    3.62
  -2   6   3   22.88    3.99
  -2   6   2    7.42    3.36
   2  -6  -2   10.27    3.14
  -2   6   1   25.82    3.73
   2  -6  -1   27.51    3.68
  -2   6   0  573.24   11.05
   2  -6   0  599.42   10.88
  -2   6  -1  981.98   10.48
   2  -6   1  949.66   13.50
  -2   6  -1  944.71   13.74
  -2   6  -2  306.73    5.86
  -2   6  -2  294.50    8.01
  -2   6  -3  216.62    5.05
  -2   6  -3  210.69    6.92
   2  -6   3  222.07    4.64
  -2   6  -4   36.25    2.61
   2  -6   4   40.39    2.63
   2  -6   5  133.46    4.51
  -2   6  -5  131.53    4.37
  -2   6  -6    6.50    2.23
   2  -6   6   11.60    2.62
   2  -6   7   59.80    4.14
  -2   6  -7   55.14    3.58
   2  -6   8  252.31    7.60
  -2   6  -8  260.52    7.02
   2  -6   9   90.46    5.27
  -2   6  -9   90.10    4.79
   2  -6  10  122.56    6.38
  -2   6 -10  131.73    5.92
  -2   6 -11    0.84    2.81
   2  -6  11    0.41    3.64
  -2   6 -12   62.14    5.23
   2  -6  12   60.54    5.83
   2  -6  13   38.52    5.39
  -2   6 -13   44.62    5.04
  -2   6 -14    3.21    3.71
   2  -6  14   -0.77    4.66
  -2   6 -15   -5.49    4.11
   2  -6  15   -3.58    4.33
  -2   5   9   21.64    4.05
  -2   5   8   69.99    5.41
  -2   5   7  126.87    6.42
  -2   5   6  118.91    5.65
  -2   5   6  107.88    5.71
   2  -5  -6  107.71    4.87
   2  -5  -5  166.03    5.72
  -2   5   5  168.01    6.74
  -2   5   4    5.50    3.25
   2  -5  -4    7.99    2.84
  -2   5   3   12.16    3.12
   2  -5  -3   13.04    2.84
  -2   5   2    3.12    2.84
   2  -5  -2    6.16    2.52
  -2   5   1    4.04    2.61
   2  -5  -1    2.83    2.30
  -2   5   0    4.26    2.54
   2  -5   0    4.41    2.38
  -2   5  -1   17.15    2.84
  -2   5  -1   16.17    1.73
   2  -5   1   16.04    2.72
   2  -5   2   22.57    1.87
  -2   5  -2   23.36    1.82
  -2   5  -3   35.90    2.08
   2  -5   3   33.86    2.25
   2  -5   4    2.45    1.64
  -2   5  -4    3.97    1.52
   2  -5   5    5.02    2.13
  -2   5  -5    2.73    1.70
   2  -5   6   13.12    2.55
  -2   5  -6   12.11    2.21
   2  -5   7  103.68    4.95
  -2   5  -7  103.60    4.36
   2  -5   8  158.80    6.45
  -2   5  -8  167.81    5.76
  -2   5  -9    1.39    2.74
   2  -5   9    3.02    3.48
  -2   5 -10  106.62    5.45
   2  -5  10   97.76    6.13
   2  -5  11  189.49    7.98
  -2   5 -11  187.36    7.43
   2  -5  12   -0.12    3.88
  -2   5 -12   -1.30    3.49
  -2   5 -13   18.06    4.39
   2  -5  13   23.05    4.83
  -2   5 -14   22.85    4.86
   2  -5  14   30.76    5.55
  -2   5 -15  343.54   12.05
   2  -5  15  337.68   12.86
  -2   4  11    0.88    4.49
  -2   4  10    3.23    3.54
  -2   4   9    2.04    3.84
  -2   4   9    1.72    3.23
  -2   4   8   12.94    3.62
  -2   4   8    7.18    3.40
  -2   4   7 1246.17   17.05
  -2   4   7 1250.21   16.11
   2  -4  -6    4.48    2.35
  -2   4   6    4.06    2.97
  -2   4   5  260.91    7.29
   2  -4  -5  266.64    6.43
   2  -4  -4  172.41    5.19
  -2   4   4  169.87    5.64
  -2   4   3  229.81    6.18
   2  -4  -3  225.53    5.76
  -2   4   2   29.73    3.01
   2  -4  -2   29.84    2.63
   2  -4  -1 2718.92   18.35
  -2   4   1 2744.48   19.01
   2  -4   0  964.78   10.81
  -2   4   0  953.41   11.08
  -2   4  -1 1539.92    8.78
   2  -4   1 1492.54   13.35
   2  -4   1 1527.55   10.71
  -2   4  -2  412.94    4.63
   2  -4   2  390.21    6.98
   2  -4   2  414.03    5.90
   2  -4   3  121.27    3.62
  -2   4  -3  119.16    2.84
  -2   4  -4  626.98    6.89
   2  -4   4  638.07    8.52
   2  -4   5   34.19    2.87
  -2   4  -5   36.70    2.39
   2  -4   6  182.66    5.74
  -2   4  -6  181.86    4.95
  -2   4  -7  796.92   10.75
   2  -4   7  769.04   11.87
  -2   4  -8    5.87    2.78
   2  -4   8    8.03    3.22
   2  -4   9  116.20    6.09
  -2   4  -9  112.64    5.41
  -2   4 -10  772.11   13.30
   2  -4  10  743.99   14.11
   2  -4  11   96.97    6.20
  -2   4 -11   91.46    5.65
  -2   4 -12  474.69   12.03
   2  -4  12  464.81   12.90
  -2   4 -13   -0.64    3.96
   2  -4  13   -2.21    4.09
  -2   4 -14    3.34    3.74
   2  -4  14   -0.80    4.29
   2  -4  15   88.65    8.16
  -2   4 -15   95.33    7.37
  -2   3  14   -1.28    5.49
  -2   3  13   95.43    7.51
  -2   3  12   20.77    5.10
  -2   3  11   79.37    6.79
  -2   3  10  155.23    7.73
  -2   3   9   11.43    4.10
  -2   3   8   46.14    4.87
  -2   3   8   41.00    3.92
   2  -3  -7 1211.85   12.47
  -2   3   7 1168.95   14.05
  -2   3   6  260.89    6.61
   2  -3  -6  264.86    5.98
  -2   3   5   99.92    4.21
   2  -3  -5  101.80    3.84
  -2   3   4  570.35    8.40
   2  -3  -4  571.40    8.13
  -2   3   3 1191.89   11.66
   2  -3  -3 1178.14   11.27
  -2   3   2 2267.81   15.35
   2  -3  -2 2253.19   15.04
  -2   3   1  254.55    5.27
   2  -3  -1  251.03    5.10
   2  -3   0   24.03    2.15
   2  -3   1  713.71    7.33
   2  -3   1  710.52    8.05
   2  -3   2   -0.01    1.41
  -2   3  -2    0.20    0.69
   2  -3   2    1.08    1.50
   2  -3   3  211.62    4.35
   2  -3   3  213.98    4.76
  -2   3  -3  200.85    3.34
   2  -3   4  126.56    3.42
   2  -3   4  125.09    4.12
  -2   3  -4  120.67    3.23
   2  -3   5   37.78    2.21
   2  -3   5   35.35    2.96
  -2   3  -5   37.63    2.41
   2  -3   6   12.96    2.55
  -2   3  -6   13.62    2.31
   2  -3   6   11.62    1.58
   2  -3   7  257.33    4.41
   2  -3   7  254.89    7.15
  -2   3  -7  250.59    6.40
  -2   3  -8    6.98    2.80
   2  -3   8    5.67    3.22
  -2   3  -9   41.74    4.22
   2  -3   9   43.16    4.47
  -2   3 -10   19.42    3.72
   2  -3  10   20.31    4.06
  -2   3 -11   28.07    4.02
   2  -3  11   24.02    4.41
  -2   3 -12   18.75    3.92
   2  -3  12   16.25    4.72
  -2   3 -13   12.59    4.05
   2  -3  13   15.56    4.58
   2  -3  14  108.31    8.10
  -2   3 -14  109.02    7.31
  -2   3 -15   83.96    7.61
   2  -2 -14    2.66    4.66
  -2   2  14    6.23    5.61
   2  -2 -13   22.30    5.45
  -2   2  13   19.16    5.29
  -2   2  12    1.88    4.75
   2  -2 -12    2.08    3.89
  -2   2  11  182.17    8.63
  -2   2  10   70.62    5.97
  -2   2   9  243.66    8.90
  -2   2   8  113.75    4.63
  -2   2   7  877.39   10.77
   2  -2  -7  891.27   10.31
  -2   2   6  375.11    6.67
   2  -2  -6  377.88    6.61
  -2   2   5  604.53    7.74
   2  -2  -5  596.38    7.81
   2  -2  -4  195.29    4.54
  -2   2   4  194.72    4.28
   2  -2  -3   91.18    3.14
  -2   2   3   94.46    3.05
   2  -2  -2   40.49    2.23
  -2   2   2   41.59    2.26
   2  -2  -1  621.79    6.98
   2  -2   0   88.04    2.91
   2  -2   0   88.83    2.89
   2  -2   1 1625.86   10.18
   2  -2   1 1633.60   10.95
   2  -2   2   74.82    2.45
   2  -2   2   80.45    2.91
   2  -2   3  255.86    3.87
   2  -2   3  255.15    5.17
   2  -2   4    2.12    1.00
   2  -2   4    2.68    1.86
   2  -2   5    2.76    2.13
   2  -2   5    1.43    0.90
   2  -2   6   61.81    1.68
   2  -2   6   65.59    3.89
   2  -2   7    0.59    2.80
   2  -2   8  127.62    5.93
   2  -2   9    0.21    3.50
   2  -2  10   66.31    5.32
   2  -2  11  184.91    8.16
   2  -2  12  112.09    7.24
   2  -2  13   52.94    5.97
  -2   2 -13   58.08    6.12
  -2   2 -14   28.70    5.51
   2  -2  14   29.48    5.85
  -2   1  14   38.65    6.34
   2  -1 -14   48.72    6.49
   2  -1 -13   14.02    4.56
  -2   1  13   16.77    5.61
   2  -1 -12   17.29    4.27
  -2   1  12   18.69    4.97
  -2   1  11    2.20    4.24
   2  -1 -11    1.78    3.69
   2  -1 -10   43.57    4.51
  -2   1  10   45.91    5.42
  -2   1   9   86.31    6.13
   2  -1  -9   90.76    5.40
   2  -1  -8  179.19    4.95
   2  -1  -8  184.74    6.53
   2  -1  -7  170.00    5.77
   2  -1  -7  158.29    4.53
  -2   1   7  170.97    4.26
  -2   1   6   39.84    2.24
   2  -1  -6   39.85    3.09
   2  -1  -6   41.05    2.54
   2  -1  -5  127.60    3.77
  -2   1   5  120.88    2.96
   2  -1  -5  131.07    4.24
  -2   1   4    0.43    1.09
   2  -1  -4    1.88    1.39
   2  -1  -4    0.18    1.33
   2  -1  -3   56.82    2.39
   2  -1  -3   57.99    2.51
  -2   1   3   58.25    1.94
   2  -1  -2  520.22    5.27
   2  -1  -2  502.08    6.15
   2  -1  -1 3886.03   15.81
   2  -1  -1 3836.06   11.17
   2  -1   0  111.76    2.87
   2  -1   0  116.36    1.90
   2  -1   0  113.19    3.14
   2  -1   1  212.78    3.50
   2  -1   1  218.23    4.20
   2  -1   2 1414.24    7.97
   2  -1   2 1446.59   10.95
   2  -1   2 1426.52   11.00
   2  -1   3  528.00    7.31
   2  -1   3  514.80    7.32
   2  -1   3  521.68    4.50
   2  -1   4  896.67   10.41
   2  -1   4  897.06    5.20
   2  -1   4  931.50   10.51
   2  -1   5    7.14    2.24
   2  -1   5    6.40    2.23
   2  -1   6  614.87   10.25
   2  -1   6  599.52    9.74
   2  -1   7   13.23    2.99
   2  -1   7   13.91    3.18
   2  -1   8  480.65   10.57
   2  -1   8  497.83   10.12
   2  -1   9  348.24    9.61
   2  -1   9  329.58    8.86
   2  -1  10  364.38   10.48
   2  -1  10  373.55    9.90
   2  -1  11   11.63    3.91
   2  -1  11   15.23    4.31
   2  -1  12    2.53    3.36
   2  -1  12    4.50    4.06
   2  -1  13   21.37    5.41
   2  -1  14   -0.24    4.85
   2   0 -15   40.19    6.03
  -2   0  15   37.60    6.83
  -2   0  14  157.86    9.52
   2   0 -14  165.78    8.91
   2   0 -13    6.84    4.07
  -2   0  13    8.48    5.10
   2   0 -12  123.88    7.16
  -2   0  12  120.75    7.93
   2   0 -11   77.98    5.63
  -2   0  11   72.65    6.11
   2   0 -10   63.87    5.02
  -2   0  10   74.65    5.95
   2   0  -9  193.18    7.04
   2   0  -8   10.99    2.19
   2   0  -8   10.18    3.12
   2   0  -7  669.18    8.73
  -2   0   7  651.61    6.10
   2   0  -7  636.86   10.29
   2   0  -6  177.44    5.30
   2   0  -6  175.62    4.54
  -2   0   6  173.19    2.74
   2   0  -5  472.83    7.53
  -2   0   5  435.45    3.44
   2   0  -5  452.88    6.77
   2   0  -4  200.77    4.47
   2   0  -4  206.02    4.62
   2   0  -3    1.28    1.53
   2   0  -3    2.00    1.50
   2   0  -2 9985.82   27.45
   2   0  -2 9999.00   24.58
   2   0  -1 4710.73   18.06
   2   0  -1 4784.45   16.00
   2   0  -1 4779.02   14.51
   2   0   0 3040.45   13.62
   2   0   0 3049.96   13.68
   2   0   0 3073.72   14.20
   2   0   0 3065.99   13.04
   2   0   1 6240.50   19.98
   2   0   1 6286.87   18.35
   2   0   1 6229.88   21.78
   2   0   1 6237.63   21.12
   2   0   2 4524.38   20.82
   2   0   2 4547.12   14.56
   2   0   2 4559.86   19.40
   2   0   3 1231.47    6.86
   2   0   3 1201.35   11.05
   2   0   3 1214.48   11.76
   2   0   4  812.29   10.45
   2   0   4  802.79   10.00
   2   0   5  103.86    4.44
   2   0   5  113.82    4.65
   2   0   6   15.79    2.87
   2   0   6   13.23    2.86
   2   0   7    0.05    2.88
   2   0   7    0.83    2.98
   2   0   8  103.74    5.74
   2   0   8   98.31    5.52
   2   0   9    1.53    3.08
   2   0   9    2.07    3.33
   2   0  10  144.65    6.96
   2   0  10  144.36    7.17
   2   0  11    6.18    3.51
   2   0  11    9.23    4.14
   2   0  12   12.03    4.52
   2   0  12   10.84    4.19
   2   0  13   28.38    5.86
   2   0  14   54.12    7.35
  -2  -1  15    0.51    5.85
   2   1 -15    1.16    4.93
  -2  -1  14   97.11    8.18
   2   1 -14   94.89    7.24
   2   1 -13   30.21    5.10
  -2  -1  13   33.73    5.83
   2   1 -12  120.13    7.03
  -2  -1  12  117.72    7.61
   2   1 -11  118.49    6.40
  -2  -1  11  121.63    7.18
   2   1 -10  340.57    9.51
  -2  -1  10  339.51   10.50
   2   1  -9  227.33    7.47
   2   1  -9  236.39    6.01
   2   1  -8  528.24   10.09
   2   1  -8  524.86    8.46
   2   1  -7  326.75    6.53
   2   1  -7  325.56    7.52
   2   1  -6   65.65    3.21
   2   1  -6   64.87    3.57
   2   1  -5  384.17    6.65
   2   1  -5  380.43    6.86
   2   1  -4   35.84    2.36
   2   1  -4   38.83    2.53
   2   1  -3  340.75    5.84
   2   1  -3  334.99    5.67
   2   1  -3  342.66    3.04
   2   1  -2  419.00    6.05
   2   1  -2  430.72    6.32
   2   1  -2  432.00    4.44
   2   1  -1   23.64    1.97
   2   1  -1   24.23    1.95
   2   1  -1   24.89    1.75
   2   1   0  969.99    9.23
   2   1   0  976.86    8.61
   2   1   0  991.17    8.11
   2   1   0  960.71    8.85
   2   1   1   54.30    2.41
   2   1   1   52.38    2.31
   2   1   1   50.37    2.74
   2   1   1   52.24    2.65
   2   1   2   27.97    2.51
   2   1   2   28.23    2.06
   2   1   3   35.60    2.48
   2   1   3   36.42    2.93
   2   1   4    6.97    2.08
   2   1   4    6.94    2.28
   2   1   5   -0.25    2.45
   2   1   5    1.88    2.26
   2   1   6  365.99    8.87
   2   1   6  387.91    8.46
   2   1   7  156.68    6.28
   2   1   7  161.94    6.59
   2   1   8  623.68   12.10
   2   1   8  619.65   12.61
   2   1   9   70.40    5.27
   2   1   9   72.51    5.42
   2   1  10   88.17    6.14
   2   1  10   96.43    6.27
   2   1  11   46.87    5.45
   2   1  11   53.27    5.55
   2   1  12   20.88    5.00
   2   1  12   14.66    4.39
   2   1  13   18.27    4.96
  -2  -2  15   87.35    8.08
   2   2 -15   87.40    7.44
  -2  -2  14   24.37    6.16
   2   2 -14   24.47    4.77
   2   2 -13   34.38    5.03
  -2  -2  13   42.48    5.80
  -2  -2  12  230.08    9.66
   2   2 -12  234.40    8.98
   2   2 -11   26.45    4.15
  -2  -2  11   34.27    5.23
  -2  -2  10  221.45    8.63
   2   2 -10  225.97    7.86
   2   2  -9   17.16    3.41
   2   2  -9   15.37    2.81
   2   2  -8    5.51    2.41
   2   2  -8    5.00    2.78
   2   2  -7   25.49    2.82
   2   2  -7   24.58    2.96
   2   2  -6  163.54    4.95
   2   2  -6  164.26    5.26
   2   2  -5    1.97    0.64
   2   2  -5    1.33    1.99
   2   2  -5    1.78    1.72
   2   2  -4  777.75    9.72
   2   2  -4  746.19    9.65
   2   2  -4  775.05    5.71
   2   2  -3   14.90    2.11
   2   2  -3   12.71    1.41
   2   2  -3   13.50    2.05
   2   2  -2   81.89    3.44
   2   2  -2   78.97    3.34
   2   2  -2   86.19    2.82
   2   2  -1  283.90    5.26
   2   2  -1  280.31    5.81
   2   2   0   84.93    3.51
   2   2   0   89.39    3.51
   2   2   0   92.69    2.69
   2   2   1    4.33    2.08
   2   2   1    4.09    1.29
   2   2   1    4.78    1.94
   2   2   2    1.20    2.09
   2   2   2    0.40    1.89
   2   2   2    0.81    1.50
   2   2   3   95.62    3.54
   2   2   3   86.69    4.31
   2   2   4   14.02    2.34
   2   2   4   13.41    2.96
   2   2   5  280.72    6.96
   2   2   5  276.35    7.95
   2   2   6  402.71    9.98
   2   2   6  404.62    8.73
   2   2   7  334.10    8.62
   2   2   7  332.42    9.60
   2   2   8  180.16    6.93
   2   2   8  173.41    7.62
   2   2   9  192.23    7.62
   2   2   9  187.81    8.32
   2   2  10  114.54    6.75
   2   2  10  118.99    7.00
   2   2  11    4.11    4.36
   2   2  11    3.43    4.09
   2   2  12    3.35    4.82
   2   3 -15   53.12    6.12
  -2  -3  15   52.61    6.52
  -2  -3  14   40.07    5.79
   2   3 -14   49.41    5.53
   2   3 -13   32.04    4.75
  -2  -3  13   31.00    5.57
  -2  -3  12   60.77    5.97
   2   3 -12   64.81    5.33
   2   3 -11   13.69    3.57
  -2  -3  11   14.06    4.46
  -2  -3  10   89.07    6.21
   2   3 -10   90.60    5.41
   2   3  -9   42.12    4.09
  -2  -3   9   41.27    5.00
   2   3  -8    7.77    2.83
   2   3  -7    1.81    2.78
   2   3  -6  897.47    6.89
   2   3  -6  885.60   12.27
   2   3  -5  156.80    3.42
   2   3  -5  154.77    5.19
   2   3  -4    5.04    2.09
   2   3  -4    6.84    1.70
   2   3  -3  181.35    4.31
   2   3  -3  178.48    5.23
   2   3  -2  920.56    9.89
   2   3  -2  935.04   11.37
   2   3  -1  215.12    5.42
   2   3  -1  216.59    5.79
   2   3   0  542.02    9.08
   2   3   0  570.05    9.06
   2   3   1  113.92    4.75
   2   3   1  118.50    3.10
   2   3   1  109.13    4.69
   2   3   2   -0.39    1.44
   2   3   2   -0.14    2.55
   2   3   2    0.52    2.44
   2   3   3  140.06    4.18
   2   3   3  140.64    5.93
   2   3   4  107.08    4.16
   2   3   4  101.44    5.56
   2   3   5 1221.84   13.65
   2   3   5 1217.12   17.15
   2   3   6   10.13    2.89
   2   3   6   10.85    3.51
   2   3   7   48.53    4.08
   2   3   7   55.59    5.21
   2   3   8   14.42    4.19
   2   3   9   12.70    4.31
   2   3  10   33.62    5.57
   2   3  11  113.10    8.11
   2   3  12    3.62    5.16
  -2  -4  15   52.90    7.09
   2   4 -15   54.30    6.41
   2   4 -14   35.86    5.04
  -2  -4  14   31.07    5.86
   2   4 -13    7.48    3.86
  -2  -4  13   17.00    4.93
  -2  -4  12   49.52    5.68
   2   4 -12   41.46    4.92
   2   4 -11  357.98   10.33
  -2  -4  11  366.10   10.98
   2   4 -10   37.22    4.10
  -2  -4  10   28.50    4.21
   2   4  -9 1263.43   17.22
  -2  -4   9 1276.82   17.51
   2   4  -8  539.34   11.07
  -2  -4   8  552.36   11.15
   2   4  -7  434.29    9.67
   2   4  -6   10.55    3.00
   2   4  -6    9.74    1.97
   2   4  -5    9.54    2.69
   2   4  -5   11.77    2.13
   2   4  -4   51.71    3.70
   2   4  -4   51.90    3.18
   2   4  -3  120.32    4.32
   2   4  -3  108.57    4.85
   2   4  -2  118.31    4.58
   2   4  -2  107.88    4.86
   2   4  -1   36.33    3.25
   2   4  -1   35.02    3.45
   2   4   0  176.96    6.25
   2   4   0  187.54    6.32
   2   4   1   69.38    4.68
   2   4   1   68.16    4.51
   2   4   2  125.67    5.97
   2   4   3   39.88    4.35
   2   4   4   39.77    4.67
   2   4   5  322.38    9.97
   2   4   6  306.38   10.12
   2   4   7   42.03    5.37
   2   4   8   39.33    3.74
   2   4   9    5.87    4.62
   2   4  10   61.64    6.67
   2   5 -15   35.79    5.61
  -2  -5  15   43.05    6.66
   2   5 -14   -0.05    3.90
  -2  -5  14    7.81    4.76
   2   5 -13   61.46    5.79
  -2  -5  13   70.69    6.43
   2   5 -12  136.75    7.28
  -2  -5  12  132.86    7.47
  -2  -5  11   39.29    5.06
   2   5 -11   33.64    4.56
   2   5 -10    0.83    3.54
  -2  -5  10    0.06    3.44
   2   5  -9    1.93    2.91
  -2  -5   9    2.28    3.41
   2   5  -8   23.78    3.80
  -2  -5   8   22.19    3.52
   2   5  -7   62.63    4.54
  -2  -5   7   54.48    4.08
   2   5  -6    9.90    2.45
   2   5  -6   10.45    3.20
   2   5  -5   14.77    3.27
   2   5  -5   20.73    2.85
   2   5  -4    1.04    2.78
   2   5  -4   -1.14    2.45
   2   5  -3   -1.22    2.97
   2   5  -3    0.19    2.53
   2   5  -2    7.04    3.07
   2   5  -2    7.04    2.94
   2   5  -1  121.27    5.60
   2   5  -1  120.77    5.83
   2   5   0   21.30    3.74
   2   5   0   21.03    3.67
   2   5   1  173.87    7.11
   2   5   1  164.72    6.83
   2   5   2   13.42    3.40
   2   5   3   65.44    5.42
   2   5   4   49.15    5.37
   2   5   5  111.94    6.94
   2   5   6  136.72    7.78
   2   5   7   29.45    5.20
   2   5   8    4.35    4.69
   2   5   9   18.17    6.02
  -2  -6  15    0.63    4.74
   2   6 -14    1.56    4.39
  -2  -6  14    2.67    4.78
   2   6 -13    4.27    3.85
   2   6 -12   15.04    4.01
   2   6 -11    3.45    3.73
   2   6 -10    1.91    3.62
   2   6  -9   13.56    3.43
   2   6  -8   31.16    3.90
   2   6  -7    4.53    2.93
   2   6  -6    0.89    2.90
   2   6  -5   -1.52    2.86
   2   6  -5    0.31    2.54
   2   6  -4    4.53    3.12
   2   6  -4    3.34    2.81
   2   6  -3  399.22    9.34
   2   6  -3  378.28   10.03
   2   6  -2  377.53    9.52
   2   6  -2  372.22    9.93
   2   6  -1  483.69   11.05
   2   6  -1  454.95   11.21
   2   6   0  104.83    6.01
   2   6   0  100.29    5.96
   2   6   1  118.92    6.67
   2   6   1  103.27    6.13
   2   6   2  387.29   11.26
   2   6   3  100.73    6.86
   2   6   4  129.14    7.85
   2   6   5    1.48    4.47
   2   6   6   37.44    6.06
   2   6   7    0.64    4.48
   2   7 -14   -0.76    4.36
   2   7 -13   77.58    6.48
   2   7 -12  160.91    8.49
   2   7 -11  190.23    8.65
   2   7 -10   16.22    4.25
   2   7  -9   46.01    5.09
   2   7  -8   -0.84    3.29
   2   7  -7   22.08    3.89
   2   7  -6    3.86    3.73
   2   7  -5   -1.11    3.49
   2   7  -5   -0.30    3.00
   2   7  -4 1440.20   18.35
   2   7  -4 1362.42   20.02
   2   7  -3   27.86    4.29
   2   7  -3   39.41    4.35
   2   7  -2  145.44    7.22
   2   7  -2  155.84    7.11
   2   7  -1   59.56    5.23
   2   7  -1   57.86    5.37
   2   7   0  224.32    9.04
   2   7   0  208.56    8.54
   2   7   1  109.08    7.09
   2   7   2  161.99    8.55
   2   7   3  279.56   10.67
   2   7   4  122.05    7.99
   2   7   5   92.16    7.93
   2   8 -13    5.24    4.04
   2   8 -12    9.83    4.33
   2   8 -11    6.21    4.02
   2   8 -10   56.74    6.12
   2   8  -9   61.11    5.79
   2   8  -8   16.96    4.14
   2   8  -7   57.78    5.45
   2   8  -6   -4.74    3.67
   2   8  -5   18.52    4.20
   2   8  -5   20.88    4.11
   2   8  -4   42.43    4.46
   2   8  -4   37.86    4.82
   2   8  -3   52.72    5.32
   2   8  -3   43.62    5.12
   2   8  -2    1.72    4.07
   2   8  -2   -0.06    3.31
   2   8  -1    3.48    4.02
   2   8  -1   -0.42    3.67
   2   8   0   20.58    5.06
   2   8   0   21.45    4.64
   2   8   1   30.22    5.57
   2   8   2   31.55    5.99
   2   8   3   10.91    5.50
   2   9 -11    1.59    4.25
   2   9 -10    5.44    3.78
   2   9  -9    2.15    3.98
   2   9  -8   20.98    4.32
   2   9  -7    7.10    3.96
   2   9  -6   37.05    5.22
   2   9  -5   27.45    5.15
   2   9  -4  102.36    7.09
   2   9  -4   87.89    6.83
   2   9  -3   28.39    5.25
   2   9  -3   29.95    4.71
   2   9  -2   12.50    4.54
   2   9  -2    7.29    4.26
   2   9  -1   18.06    4.98
   2   9  -1   20.46    4.86
   2   9   0   68.21    7.38
   2   9   1   70.35    7.15
   2  10  -7  282.45   11.61
   2  10  -6   73.42    7.37
   2  10  -5    5.14    4.93
   2  10  -4   46.55    6.29
   2  10  -3   19.24    5.27
   2  10  -2    5.82    5.30
   3 -11  -1   58.27    6.60
   3 -11   0    8.12    5.17
  -3  11   0    3.36    5.59
  -3  11  -1  113.25    8.38
   3 -11   1  117.21    8.20
  -3  11  -2  151.28    9.41
   3 -11   2  136.73    8.92
  -3  11  -3   11.24    4.92
   3 -11   3   15.89    5.04
  -3  11  -4   15.79    5.61
   3 -11   4    7.97    4.82
  -3  11  -5   91.27    7.56
   3 -11   5   83.22    7.27
   3 -11   6   14.84    5.04
  -3  11  -6   10.59    5.26
   3 -11   7    5.98    4.69
  -3  11  -7    5.04    4.60
  -3  11  -8  106.72    7.79
   3 -11   8  108.74    7.95
  -3  11  -9    0.02    5.00
   3 -11   9    2.71    4.63
   3 -11  10   26.61    5.61
  -3  10   4   91.74    8.00
  -3  10   3  178.01    9.70
   3 -10  -3  184.37    9.06
  -3  10   2   96.75    7.79
   3 -10  -2  105.76    7.34
  -3  10   1   20.62    5.31
   3 -10  -1   20.14    4.77
  -3  10   0    4.04    4.57
   3 -10   0    8.84    4.18
   3 -10   1    3.31    4.26
  -3  10  -1    5.37    4.46
  -3  10  -2    0.18    4.37
   3 -10   2    4.33    4.35
  -3  10  -3   28.38    5.17
   3 -10   3   26.87    5.03
   3 -10   4   -0.85    4.14
  -3  10  -4    1.55    4.36
  -3  10  -5   13.30    4.63
   3 -10   5   15.07    4.34
   3 -10   6    0.81    4.32
  -3  10  -6   -1.18    4.20
  -3  10  -7   26.60    5.09
   3 -10   7   23.97    4.87
  -3  10  -8   50.53    6.49
   3 -10   8   49.66    5.74
  -3  10  -9  161.00    8.79
   3 -10   9  159.32    8.34
  -3  10 -10   79.67    6.82
   3 -10  10   80.46    6.43
  -3   9   6   21.11    5.67
  -3   9   5   30.62    5.89
  -3   9   4   63.40    6.41
   3  -9  -4   66.69    5.82
   3  -9  -3    5.26    3.47
  -3   9   3    6.57    4.18
  -3   9   2    7.29    4.74
   3  -9  -2    5.63    3.82
   3  -9  -1    0.83    3.48
  -3   9   1    0.34    4.04
  -3   9   0   33.32    5.01
   3  -9   0   32.90    4.87
  -3   9  -1  129.61    7.74
   3  -9   1  133.33    7.14
  -3   9  -2  312.54   10.53
   3  -9   2  309.80   10.17
  -3   9  -3  354.98   11.15
   3  -9   3  351.76   10.82
   3  -9   4  259.45    9.51
  -3   9  -4  266.30    9.87
  -3   9  -5   19.99    4.48
   3  -9   5   19.77    4.42
  -3   9  -6   28.89    4.94
   3  -9   6   24.57    4.35
  -3   9  -7   47.42    5.55
   3  -9   7   47.51    5.17
   3  -9   8   17.82    4.27
   3  -9   9    1.66    3.56
   3  -9  10    1.19    4.04
  -3   8   8    4.08    4.83
  -3   8   7   54.19    6.01
  -3   8   6    0.47    4.23
  -3   8   5   35.72    5.76
   3  -8  -5   29.61    4.23
   3  -8  -4    4.14    3.42
  -3   8   4    3.12    4.01
  -3   8   3   72.00    5.92
   3  -8  -3   75.74    5.60
  -3   8   2    0.41    3.85
   3  -8  -2    3.04    3.58
  -3   8   1   57.44    5.44
   3  -8  -1   55.15    4.92
   3  -8   0   38.99    4.33
  -3   8   0   32.28    4.80
  -3   8  -1  241.47    8.86
   3  -8   1  246.39    8.50
   3  -8   2  520.52   11.84
  -3   8  -2  531.75   12.40
  -3   8  -3  158.13    7.39
   3  -8   3  155.99    7.08
   3  -8   4  550.64   12.20
  -3   8  -4  551.32   12.51
  -3   8  -5   86.91    5.78
   3  -8   5   80.95    5.49
   3  -8   6  392.11   10.44
   3  -8   7   15.37    3.82
   3  -8   8  185.13    7.56
   3  -8   9   38.54    4.63
   3  -8  11    4.84    3.34
   3  -8  12    7.21    3.59
   3  -8  13    0.28    3.90
   3  -8  14   57.69    6.41
  -3   7   8  127.56    7.82
  -3   7   7   27.66    4.56
  -3   7   6   50.84    5.58
  -3   7   5    0.20    3.92
   3  -7  -5    1.44    3.04
  -3   7   4  217.79    8.22
   3  -7  -4  221.46    7.81
   3  -7  -3    7.36    3.35
  -3   7   3    7.61    3.57
   3  -7  -2  107.41    5.78
  -3   7   2  103.76    6.11
  -3   7   1   56.33    5.10
   3  -7  -1   65.12    4.98
  -3   7   0    3.95    3.68
   3  -7   0    7.40    3.62
  -3   7  -1  535.31   11.66
   3  -7   1  550.04   11.34
  -3   7  -2   -0.84    3.57
   3  -7   2    1.13    3.22
  -3   7  -3  583.01   12.01
   3  -7   3  626.15   11.97
   3  -7   4   26.21    3.93
   3  -7   5  118.29    6.02
   3  -7   5  115.41    4.77
   3  -7   6  151.29    5.54
   3  -7   6  138.22    6.29
   3  -7   7  146.90    5.89
   3  -7   7  132.26    5.99
   3  -7   8   99.41    5.37
   3  -7   8  104.74    5.55
   3  -7   9  206.84    7.10
   3  -7   9  199.79    7.50
   3  -7  10  239.16    8.69
   3  -7  11   55.64    5.29
   3  -7  12   40.49    5.07
   3  -7  13   73.56    6.39
   3  -7  14    4.57    4.22
  -3   6   8   44.97    5.00
  -3   6   7   -3.53    3.39
  -3   6   6  145.29    6.87
   3  -6  -6  144.02    6.10
  -3   6   5  132.07    6.46
   3  -6  -5  126.96    5.72
  -3   6   4  129.14    6.34
   3  -6  -4  128.32    5.70
   3  -6  -3   26.00    3.80
  -3   6   3   23.84    3.98
  -3   6   2  105.76    5.66
   3  -6  -2  100.86    5.29
   3  -6  -1   13.70    3.30
  -3   6   1   13.86    3.41
  -3   6   0  348.85    8.89
   3  -6   0  355.25    8.61
  -3   6  -1  117.19    5.72
   3  -6   1  122.46    5.47
   3  -6   2  859.20   10.26
   3  -6   2  848.74   12.52
   3  -6   3   43.90    3.92
   3  -6   3   38.20    2.98
   3  -6   4   56.18    3.41
   3  -6   4   54.20    4.01
   3  -6   5   62.71    3.76
   3  -6   5   62.23    4.11
   3  -6   6   57.24    4.21
   3  -6   6   56.17    4.09
   3  -6   7  133.10    5.45
   3  -6   7  131.74    5.85
   3  -6   8   22.70    3.51
   3  -6   8   21.26    3.10
   3  -6   9  184.13    7.38
   3  -6  10   75.43    5.66
   3  -6  11  250.93    9.46
   3  -6  12    5.37    4.02
   3  -6  13    6.00    4.53
   3  -6  14    3.52    4.46
  -3   5   9    2.03    3.96
  -3   5   8   61.46    5.14
   3  -5  -7    2.39    2.44
  -3   5   7   -0.68    2.65
  -3   5   6  183.73    6.88
   3  -5  -6  183.56    6.40
  -3   5   5  166.18    6.51
   3  -5  -5  179.98    6.25
  -3   5   4   30.14    3.63
   3  -5  -4   34.73    3.53
  -3   5   3  143.37    5.91
   3  -5  -3  145.00    5.45
  -3   5   2   74.52    4.51
   3  -5  -2   72.28    4.28
  -3   5   1  257.88    7.06
   3  -5  -1  248.05    6.66
  -3   5   0   24.10    3.18
   3  -5   0   30.57    3.17
   3  -5   1  126.99    4.92
  -3   5  -2  203.70    3.04
   3  -5   2  194.58    5.75
   3  -5   2  205.13    5.30
   3  -5   3    6.14    2.36
   3  -5   3    7.40    2.03
  -3   5  -3    6.78    1.13
   3  -5   4  101.74    4.35
   3  -5   4  102.11    4.16
  -3   5  -4  103.84    2.89
  -3   5  -5    0.39    1.44
   3  -5   5    0.80    2.26
   3  -5   5   -0.97    2.39
   3  -5   6   20.29    2.87
  -3   5  -6   21.54    2.38
   3  -5   6   19.07    3.26
   3  -5   7   89.07    4.96
   3  -5   7   95.43    4.12
  -3   5  -7   90.04    4.05
  -3   5  -8    2.99    2.52
   3  -5   8    3.38    3.13
   3  -5   9  564.10   12.13
  -3   5  -9  582.74   10.67
  -3   5 -10    2.65    2.89
   3  -5  10    2.98    3.40
  -3   5 -11   43.31    4.40
   3  -5  11   36.79    4.96
  -3   5 -12   54.11    4.97
   3  -5  12   52.47    5.89
   3  -5  13   21.17    5.17
  -3   5 -13   19.83    4.27
   3  -5  14   36.13    6.10
   3  -4 -13   13.53    4.62
  -3   4  13   12.68    5.15
  -3   4  12    5.43    4.63
  -3   4  11    2.05    4.47
  -3   4  10   52.26    6.06
  -3   4   7  183.17    6.52
   3  -4  -7  189.44    6.18
  -3   4   6  406.24    8.78
   3  -4  -6  403.35    8.51
  -3   4   5 1119.47   13.47
   3  -4  -5 1150.71   13.65
  -3   4   4   50.63    3.60
   3  -4  -4   49.71    3.45
  -3   4   3  808.77   11.02
   3  -4  -3  817.16   11.04
  -3   4   2  124.27    4.71
   3  -4  -2  115.21    4.38
  -3   4   1  364.00    7.25
   3  -4  -1  352.04    7.08
   3  -4   0   40.57    2.93
   3  -4   1   10.74    2.24
   3  -4   1   11.19    2.08
   3  -4   2 1142.49   11.76
   3  -4   2 1150.95   11.58
   3  -4   3  303.63    6.35
   3  -4   3  308.48    6.20
  -3   4  -3  280.11    3.55
  -3   4  -4    2.09    1.20
   3  -4   4    4.06    1.88
   3  -4   4    2.76    2.09
  -3   4  -5   27.55    2.20
   3  -4   5   27.63    3.09
   3  -4   5   26.68    2.39
   3  -4   6  223.91    6.74
   3  -4   6  219.74    5.10
  -3   4  -6  232.21    5.42
   3  -4   7   48.77    4.08
   3  -4   7   49.41    2.83
  -3   4  -7   49.51    3.38
   3  -4   8  882.73   14.47
  -3   4  -8  915.47   12.56
   3  -4   9  748.75   14.10
  -3   4  -9  756.37   12.24
  -3   4 -10  135.33    6.20
   3  -4  10  128.96    6.88
   3  -4  11   51.60    5.45
  -3   4 -11   52.94    4.91
  -3   4 -12   59.93    5.47
   3  -4  12   49.81    5.80
   3  -4  13   87.76    6.98
  -3   4 -13   82.33    6.13
  -3   4 -14  610.43   15.10
   3  -4  14  605.20   16.54
  -3   4 -15  111.57    8.12
  -3   3  14    3.99    5.22
  -3   3  13  110.51    8.69
   3  -3 -13  115.02    8.03
   3  -3 -12    1.96    4.00
  -3   3  12   -0.20    4.62
  -3   3  11   45.38    5.79
   3  -3 -11   40.08    4.98
  -3   3  10   72.50    6.45
   3  -3  -8 1541.81   15.98
   3  -3  -7  431.32    8.52
  -3   3   7  424.31    8.13
   3  -3  -6  252.81    6.46
  -3   3   6  255.57    6.15
  -3   3   5    5.95    2.35
   3  -3  -5    6.16    2.21
  -3   3   4  242.36    5.63
   3  -3  -4  239.49    5.88
  -3   3   3  136.47    4.33
   3  -3  -3  127.48    4.37
   3  -3  -2  589.77    8.57
   3  -3  -1 2166.43   15.70
   3  -3  -1 2164.88    8.63
   3  -3   0  868.77    9.73
   3  -3   1 1119.62   10.68
   3  -3   1 1137.75   11.21
   3  -3   2   11.90    1.99
   3  -3   2   11.03    1.74
   3  -3   3   18.34    2.26
   3  -3   3   19.06    1.96
   3  -3   4   22.60    1.93
   3  -3   4   23.24    2.57
   3  -3   5   10.59    1.68
   3  -3   5    9.21    2.55
   3  -3   6   23.88    1.83
   3  -3   6   26.56    3.28
   3  -3   7  186.99    6.87
   3  -3   8  321.86    9.05
   3  -3   9  397.44   10.55
   3  -3  10  107.73    6.45
   3  -3  11   67.70    5.89
   3  -3  12   40.71    5.47
  -3   3 -12   51.24    5.43
  -3   3 -13   22.09    4.62
   3  -3  13   19.64    4.98
  -3   3 -14    3.35    4.33
   3  -3  14    2.68    5.04
  -3   2  14   98.47    8.55
   3  -2 -14  106.66    7.73
   3  -2 -13   17.95    4.53
  -3   2  13   11.09    5.53
   3  -2 -12    2.10    3.93
  -3   2  12    2.10    4.64
  -3   2  11   36.28    5.65
   3  -2 -11   41.85    4.84
   3  -2 -10  128.07    6.57
   3  -2  -9   52.19    4.53
   3  -2  -8  241.28    6.60
   3  -2  -8  236.24    7.40
   3  -2  -7  116.99    4.70
   3  -2  -7  122.55    5.27
  -3   2   6   -0.24    1.80
   3  -2  -6    0.70    2.32
   3  -2  -6    0.52    1.95
  -3   2   5   14.23    1.89
   3  -2  -5   15.73    2.26
   3  -2  -5   15.06    2.23
   3  -2  -4   80.33    3.52
  -3   2   4   84.90    3.03
   3  -2  -4   87.72    3.32
   3  -2  -3  488.65    7.57
  -3   2   3  487.96    6.40
   3  -2  -3  493.38    6.34
   3  -2  -2   46.17    2.69
   3  -2  -2   45.71    1.83
   3  -2  -1 1243.42    6.65
   3  -2  -1 1235.33   11.16
   3  -2   0  101.41    1.67
   3  -2   0   95.70    3.32
   3  -2   0  101.93    3.62
   3  -2   1  769.74    8.26
   3  -2   1  770.14    9.12
   3  -2   2  576.44    8.24
   3  -2   2  565.77    6.84
   3  -2   3    1.44    1.28
   3  -2   3    0.40    1.79
   3  -2   4   21.64    2.61
   3  -2   4   23.60    1.69
   3  -2   5  234.40    3.79
   3  -2   5  223.10    6.35
   3  -2   6  313.93    7.84
   3  -2   7    1.15    3.03
   3  -2   8   54.51    4.83
   3  -2   9    2.22    3.27
   3  -2  10    2.14    3.66
   3  -2  11   57.52    5.62
   3  -2  12    1.10    4.29
   3  -2  13   -0.02    4.36
  -3   2 -14  136.01    8.50
   3  -2  14  121.77    8.68
   3  -1 -14    2.09    4.56
  -3   1  14    7.93    5.49
   3  -1 -13    3.23    4.35
  -3   1  13    0.34    5.05
   3  -1 -12    4.14    3.99
  -3   1  12    4.34    4.58
   3  -1 -11   45.43    4.73
  -3   1  11   49.83    5.92
   3  -1 -10   54.57    4.64
   3  -1  -9  367.90    8.03
   3  -1  -9  367.44    9.41
   3  -1  -8  322.41    7.30
   3  -1  -8  314.14    8.18
   3  -1  -7  302.32    7.43
   3  -1  -7  310.17    7.06
  -3   1   6   13.71    1.45
   3  -1  -6   13.96    2.48
   3  -1  -6   12.45    2.31
   3  -1  -5    0.99    1.84
  -3   1   5    0.43    1.07
   3  -1  -5   -0.13    1.88
   3  -1  -4    0.31    1.57
  -3   1   4    0.53    1.07
   3  -1  -4    1.72    1.58
   3  -1  -3   48.58    2.83
   3  -1  -3   46.52    2.32
   3  -1  -2  398.62    5.14
   3  -1  -2  391.80    6.56
   3  -1  -1   46.00    1.85
   3  -1  -1   44.76    2.61
   3  -1   0 2573.35   11.91
   3  -1   0 2570.75   16.27
   3  -1   0 2543.98   15.06
   3  -1   1  119.42    3.85
   3  -1   1  127.69    3.95
   3  -1   1  135.35    3.07
   3  -1   1  131.84    3.54
   3  -1   2  693.32    7.29
   3  -1   2  690.89    9.01
   3  -1   2  681.17    9.02
   3  -1   3  314.26    6.50
   3  -1   3  329.24    4.84
   3  -1   3  309.45    6.68
   3  -1   4 2106.59   17.61
   3  -1   4 2207.32   11.12
   3  -1   4 2130.62   17.82
   3  -1   5  166.42    5.68
   3  -1   5  162.02    2.82
   3  -1   5  157.18    5.62
   3  -1   6  592.83   10.67
   3  -1   6  562.37   10.51
   3  -1   7  542.48   11.02
   3  -1   7  539.88   10.98
   3  -1   8   99.94    5.69
   3  -1   8  103.76    5.83
   3  -1   9  253.57    8.69
   3  -1   9  252.29    8.60
   3  -1  10  128.80    6.81
   3  -1  10  119.23    6.67
   3  -1  11  100.05    6.81
   3  -1  11  100.33    6.57
   3  -1  12   94.17    7.29
   3  -1  12  102.29    7.19
   3  -1  13    2.83    4.14
   3  -1  13    3.08    4.22
  -3   0  15  133.89    9.58
   3   0 -15  147.42    9.05
   3   0 -14   29.12    5.54
  -3   0  14   28.32    6.27
   3   0 -13   12.55    4.62
  -3   0  13   10.18    4.92
   3   0 -12  410.13   11.82
  -3   0  12  415.52   13.13
   3   0 -11  167.09    7.58
   3   0 -10  211.22    7.71
   3   0  -9  112.67    4.89
   3   0  -9  117.22    5.95
   3   0  -8   43.50    4.05
   3   0  -8   44.20    3.42
   3   0  -7  282.74    6.75
   3   0  -7  278.72    7.23
   3   0  -6  196.51    5.54
   3   0  -6  201.75    5.72
   3   0  -5   90.55    3.87
   3   0  -5   98.38    3.86
   3   0  -4  792.88    9.24
   3   0  -4  774.26    9.94
   3   0  -3   33.73    2.52
   3   0  -3   34.47    2.27
   3   0  -2    1.02    1.35
   3   0  -2    0.37    1.53
   3   0  -1 1495.44   12.36
   3   0  -1 1510.21   11.12
   3   0  -1 1514.18   10.66
   3   0   0  144.81    3.99
   3   0   0  148.58    3.76
   3   0   0  147.12    4.17
   3   0   0  139.10    3.80
   3   0   1  912.66   10.14
   3   0   1  904.15    9.14
   3   0   1  896.97    8.77
   3   0   1  889.37    9.85
   3   0   2   39.49    2.67
   3   0   2   41.22    2.18
   3   0   2   41.04    2.97
   3   0   3   96.82    2.83
   3   0   3   97.68    4.01
   3   0   3   98.59    4.33
   3   0   4 1620.36    9.83
   3   0   4 1570.33   15.29
   3   0   4 1568.79   16.25
   3   0   5 1018.24   13.15
   3   0   5 1030.95   14.12
   3   0   6  776.68   12.32
   3   0   6  778.35   13.08
   3   0   7  228.37    7.41
   3   0   7  223.47    7.82
   3   0   8  538.88   11.81
   3   0   8  537.17   12.00
   3   0   9  172.83    7.47
   3   0   9  184.93    7.97
   3   0  10    4.87    4.24
   3   0  10   -1.31    3.61
   3   0  11   37.87    5.18
   3   0  11   48.32    5.61
   3   0  12   36.05    5.58
   3   0  12   31.24    5.45
   3   0  13    0.57    4.77
   3   0  13    2.94    4.90
  -3  -1  15  116.67    9.58
   3   1 -15  133.90    8.17
  -3  -1  14  148.06    9.16
   3   1 -14  152.20    8.51
  -3  -1  13  181.32    9.51
   3   1 -13  187.39    8.69
   3   1 -12    0.75    3.67
  -3  -1  12    2.83    4.77
   3   1 -11   79.60    5.63
   3   1 -10    6.11    3.08
   3   1 -10    5.18    2.55
   3   1  -9  173.99    5.99
   3   1  -9  179.20    6.85
   3   1  -8  148.28    5.50
   3   1  -8  155.78    6.07
   3   1  -7    1.33    2.32
   3   1  -7   -0.35    2.40
   3   1  -6   67.26    3.75
   3   1  -6   69.43    3.77
   3   1  -5    0.76    1.99
   3   1  -5    0.79    1.99
   3   1  -4  521.52    8.54
   3   1  -4  516.14    8.19
   3   1  -3   12.45    2.16
   3   1  -3   10.57    2.05
   3   1  -3   11.42    1.41
   3   1  -2    0.94    1.71
   3   1  -2    2.64    1.69
   3   1  -2    1.66    1.42
   3   1  -1   52.83    2.89
   3   1  -1   54.79    3.00
   3   1  -1   50.68    2.65
   3   1   0  883.01   10.04
   3   1   0  880.32   10.16
   3   1   0  866.24    9.64
   3   1   0  870.64    9.54
   3   1   1  374.00    6.22
   3   1   1  379.74    7.03
   3   1   1  375.34    6.43
   3   1   1  360.56    7.01
   3   1   2  187.78    5.65
   3   1   2  190.96    5.01
   3   1   2  200.63    5.51
   3   1   2  186.69    4.41
   3   1   3  172.46    5.04
   3   1   3  185.72    6.03
   3   1   4   98.28    4.36
   3   1   4   98.39    4.93
   3   1   5   99.47    4.81
   3   1   5  107.66    5.53
   3   1   6   75.39    4.69
   3   1   6   72.27    5.13
   3   1   7    7.35    3.44
   3   1   7   10.83    3.09
   3   1   8    3.99    3.24
   3   1   8    6.14    3.21
   3   1   9    6.65    4.01
   3   1   9    5.90    3.66
   3   1  10   -3.02    4.02
   3   1  10    3.18    4.19
   3   1  11    3.64    4.08
   3   1  11   -3.54    3.96
   3   1  12   44.52    6.08
   3   1  12   44.39    5.74
   3   1  13   -0.16    5.39
   3   1  13   19.06    5.30
   3   2 -15    5.27    4.80
  -3  -2  15    1.08    5.45
   3   2 -14   -0.30    4.11
  -3  -2  14   -3.54    4.75
   3   2 -13    3.04    3.52
  -3  -2  13    3.24    4.88
  -3  -2  12   91.16    7.07
   3   2 -12  103.69    6.49
   3   2 -11   70.25    5.50
   3   2 -10  498.58   10.26
   3   2 -10  480.30   11.25
   3   2  -9   65.51    4.34
   3   2  -9   67.11    4.85
   3   2  -8  154.28    5.82
   3   2  -8  162.34    6.32
   3   2  -7  100.52    4.99
   3   2  -7  100.89    4.88
   3   2  -6   11.01    2.71
   3   2  -6    8.33    2.63
   3   2  -5    1.83    2.24
   3   2  -5    1.05    0.81
   3   2  -5    1.39    2.12
   3   2  -4   14.72    2.48
   3   2  -4   11.56    2.49
   3   2  -4   12.60    1.50
   3   2  -3   41.19    3.19
   3   2  -3   45.47    3.20
   3   2  -3   41.90    2.38
   3   2  -2    6.43    2.20
   3   2  -2    9.44    1.95
   3   2  -2    7.24    2.20
   3   2  -1  171.28    5.10
   3   2  -1  171.81    5.25
   3   2  -1  175.74    4.91
   3   2   0  715.45   10.34
   3   2   0  727.68   10.11
   3   2   1  588.53    9.72
   3   2   1  594.86    8.19
   3   2   1  586.71    9.72
   3   2   2  112.63    4.03
   3   2   2  110.01    4.97
   3   2   2  111.64    5.15
   3   2   3   22.86    3.43
   3   2   3   19.87    2.63
   3   2   4    9.56    3.30
   3   2   4    8.25    2.51
   3   2   5   13.94    3.50
   3   2   5   14.93    2.92
   3   2   6  298.84    8.11
   3   2   6  299.02    9.33
   3   2   7   -0.43    3.62
   3   2   7    4.23    2.89
   3   2   8   -0.57    4.06
   3   2   8   -0.44    2.66
   3   2   9    5.36    4.18
   3   2   9    9.21    3.77
   3   2  10   62.88    6.61
   3   2  11   78.75    7.04
   3   3 -15    6.57    4.84
  -3  -3  15    6.73    5.84
   3   3 -14   -0.82    4.00
  -3  -3  14   -0.29    4.69
   3   3 -13   17.09    4.17
  -3  -3  13   15.00    5.12
   3   3 -12  235.56    9.08
  -3  -3  12  227.69    9.93
   3   3 -11   22.91    4.24
  -3  -3  11   20.69    4.97
   3   3 -10  118.49    6.22
   3   3  -9   13.31    3.46
   3   3  -8  343.65    9.13
   3   3  -7  764.02   12.62
   3   3  -6   99.95    5.04
   3   3  -5  481.40    9.61
   3   3  -5  497.46    6.40
   3   3  -4   87.32    4.52
   3   3  -4   90.57    3.40
   3   3  -3   -0.21    2.21
   3   3  -3    0.69    2.03
   3   3  -2   -0.71    2.38
   3   3  -2    0.87    2.10
   3   3  -1  115.77    5.08
   3   3  -1  108.93    4.57
   3   3   0  838.63   12.55
   3   3   0  889.38   12.31
   3   3   1   61.56    4.20
   3   3   1   65.38    3.18
   3   3   1   64.26    4.43
   3   3   2  129.25    5.78
   3   3   2  126.54    5.87
   3   3   2  135.15    4.42
   3   3   3    0.64    3.00
   3   3   3    0.68    2.25
   3   3   4   14.75    3.79
   3   3   4   10.61    2.56
   3   3   5  543.43   12.60
   3   3   6  137.50    7.23
   3   3   7  230.88    9.49
   3   3   8  155.29    8.27
   3   3   9  252.88   10.61
   3   3  10   42.37    6.45
   3   4 -15   72.47    6.98
  -3  -4  15   76.06    7.59
   3   4 -14   11.09    4.09
  -3  -4  14   11.04    4.76
   3   4 -13  358.49   11.64
  -3  -4  13  353.59   12.18
  -3  -4  12  220.51    9.80
   3   4 -12  212.32    8.88
   3   4 -11   12.53    4.12
  -3  -4  11   21.81    4.83
   3   4 -10  319.45    9.96
   3   4  -9  226.63    8.17
   3   4  -8  125.50    6.13
   3   4  -7  292.90    8.58
   3   4  -6    2.71    2.92
   3   4  -5   70.08    3.43
   3   4  -5   66.83    4.65
   3   4  -4   89.55    4.06
   3   4  -4   81.39    4.85
   3   4  -3  602.04    9.69
   3   4  -3  562.93   10.98
   3   4  -2  441.51    8.90
   3   4  -2  426.13    9.70
   3   4  -1 1058.52   14.15
   3   4  -1 1044.70   14.89
   3   4   0  127.71    5.96
   3   4   0  129.49    5.90
   3   4   1   16.82    3.66
   3   4   1   14.28    3.46
   3   4   2   35.94    4.34
   3   4   3    6.44    3.61
   3   4   4   47.21    5.07
   3   4   5    3.60    3.89
   3   4   6    3.56    3.92
   3   4   7   44.60    5.81
   3   4   8   25.00    5.29
   3   4   9   -2.50    5.02
  -3  -5  15   -3.13    5.15
   3   5 -14   41.28    5.61
  -3  -5  14   49.30    6.26
  -3  -5  13  114.74    7.68
   3   5 -13  105.77    7.43
   3   5 -12   11.96    4.11
  -3  -5  12   19.55    4.71
   3   5 -11    7.18    3.91
  -3  -5  11    8.38    4.07
   3   5 -10  114.65    6.71
  -3  -5  10  126.74    7.08
   3   5  -9   86.48    5.65
   3   5  -8   39.14    4.45
   3   5  -7    5.74    3.28
   3   5  -6    3.01    2.88
   3   5  -5  213.12    6.15
   3   5  -5  199.77    7.49
   3   5  -4   66.66    4.37
   3   5  -4   57.54    4.97
   3   5  -3  642.45   11.26
   3   5  -3  603.72   12.40
   3   5  -2  108.81    5.58
   3   5  -2  101.78    5.88
   3   5  -1  166.37    6.83
   3   5  -1  167.57    7.04
   3   5   0   85.51    5.60
   3   5   0   92.01    5.70
   3   5   1   12.77    3.70
   3   5   1    4.81    3.26
   3   5   2   24.09    4.42
   3   5   3  187.73    8.34
   3   5   4    0.13    3.89
   3   5   5   10.59    4.30
   3   5   6    7.38    5.01
   3   5   7   -2.26    4.88
   3   6 -14   -2.83    4.16
   3   6 -13    5.47    4.28
   3   6 -12    2.40    4.05
   3   6 -11   20.86    4.77
   3   6 -10   73.05    5.99
   3   6  -9  115.89    6.97
   3   6  -8  109.88    6.57
   3   6  -7    2.20    3.28
   3   6  -6   57.58    5.08
   3   6  -5  163.16    7.44
   3   6  -4   21.98    3.98
   3   6  -4   20.98    3.45
   3   6  -3    1.36    3.37
   3   6  -3   -0.24    3.04
   3   6  -2   14.33    3.76
   3   6  -2   16.94    3.62
   3   6  -1   26.67    4.35
   3   6  -1   25.62    4.45
   3   6   0   -2.54    3.58
   3   6   0   -0.13    3.49
   3   6   1   80.04    6.23
   3   6   1   78.44    6.12
   3   6   2   -0.33    4.15
   3   6   3    1.77    4.16
   3   6   4  112.89    7.92
   3   6   5  396.80   13.31
   3   6   6   75.28    7.78
   3   7 -13   51.43    6.66
   3   7 -12    8.06    3.81
   3   7 -11   41.68    5.15
   3   7 -10   -2.26    3.78
   3   7  -9   28.00    4.83
   3   7  -8   27.59    4.64
   3   7  -7   69.78    5.71
   3   7  -6  243.53    9.40
   3   7  -5   36.46    4.92
   3   7  -4   66.96    5.25
   3   7  -4   57.80    5.65
   3   7  -3   21.30    4.72
   3   7  -3   24.07    4.77
   3   7  -2  255.35    9.39
   3   7  -2  237.00    9.36
   3   7  -1   20.21    4.70
   3   7  -1   17.65    4.21
   3   7   0  183.05    8.74
   3   7   0  165.57    8.33
   3   7   1   29.66    5.64
   3   7   2  196.05    9.73
   3   7   3   85.84    7.57
   3   7   4   94.05    7.78
   3   8 -11    1.79    4.85
   3   8 -10   95.87    7.62
   3   8  -9    9.10    4.34
   3   8  -8   32.01    5.20
   3   8  -7   -1.08    4.16
   3   8  -6  128.64    7.78
   3   8  -5  221.35    9.73
   3   8  -4   16.52    4.42
   3   8  -3    7.60    4.29
   3   8  -3    4.10    3.72
   3   8  -2    1.70    4.16
   3   8  -2    3.48    3.72
   3   8  -1   56.62    6.25
   3   8  -1   48.96    5.62
   3   8   0    2.14    4.61
   3   8   0    5.07    4.63
   3   8   1    7.65    5.46
   3   8   2    1.38    5.04
   3   9  -8   42.84    6.07
   3   9  -7   12.34    4.19
   3   9  -6    9.16    4.02
   3   9  -5    0.74    3.89
   3   9  -4   -4.06    4.13
   3   9  -3    9.32    4.49
   3   9  -2   -1.78    4.87
   3   9  -1   28.65    5.38
   4 -11  -1   -0.76    4.38
  -4  11   1    0.11    4.68
  -4  11   0  155.11    9.80
   4 -11   0  161.37    9.29
  -4  11  -1   62.55    6.89
   4 -11   1   48.63    6.62
  -4  11  -2   44.17    6.61
   4 -11   2   39.36    5.95
  -4  11  -3  144.33    9.10
   4 -11   3  132.41    8.25
  -4  11  -4   88.93    7.83
   4 -11   4   71.80    6.90
   4 -11   5  227.90   10.28
  -4  11  -5  218.67   10.57
   4 -11   6    9.53    4.54
  -4  11  -6   -0.59    4.57
   4 -11   7    6.59    4.53
  -4  11  -7    1.70    4.67
   4 -11   8    0.93    4.28
  -4  11  -8    4.35    5.02
   4 -11   9    5.26    4.13
  -4  11  -9    6.00    5.32
  -4  11 -10   66.27    7.76
  -4  10   4   58.80    7.05
   4 -10  -4   48.29    5.93
  -4  10   3    0.81    4.40
   4 -10  -3   -0.52    4.09
   4 -10  -2    2.59    3.85
  -4  10   2   -1.38    4.72
  -4  10   1   49.61    6.31
   4 -10  -1   52.09    5.58
   4 -10   0  304.83   11.02
  -4  10   0  312.34   11.75
  -4  10  -1  259.24   10.82
   4 -10   1  276.01   10.46
  -4  10  -2  129.32    8.06
   4 -10   2  134.30    7.75
  -4  10  -3  306.76   11.31
   4 -10   3  299.79   10.69
  -4  10  -4   72.66    6.74
   4 -10   4   79.40    6.48
   4 -10   5   24.40    4.91
  -4  10  -5   32.19    6.18
   4 -10   6    4.40    4.03
  -4  10  -6    2.72    4.55
   4 -10   7   19.98    4.37
  -4  10  -7   20.02    5.39
   4 -10   8   23.62    4.84
  -4  10  -8   22.68    4.90
   4 -10   9   55.77    5.46
  -4   9   7   45.60    6.38
  -4   9   6   38.27    6.17
  -4   9   5   92.91    7.19
   4  -9  -5   98.57    6.83
  -4   9   4  104.48    7.46
   4  -9  -4  107.91    6.77
  -4   9   3  135.03    8.22
   4  -9  -3  136.13    7.20
  -4   9   2   78.89    6.55
   4  -9  -2   86.49    6.20
  -4   9   1   44.91    5.70
   4  -9  -1   45.50    4.97
  -4   9   0  205.76    9.29
   4  -9   0  190.23    8.42
  -4   9  -1   39.21    5.35
   4  -9   1   34.16    5.02
  -4   9  -2   54.26    5.85
   4  -9   2   59.79    5.56
  -4   9  -3   10.54    4.71
   4  -9   3   14.99    3.95
  -4   9  -4    3.36    4.44
   4  -9   4    5.54    3.87
   4  -9   5    8.52    3.70
  -4   9  -5    6.42    4.02
   4  -9   6   97.30    6.13
   4  -9   7   13.17    3.97
   4  -9   8   24.65    4.36
   4  -9   9   16.87    3.89
  -4   8   7   17.68    4.91
  -4   8   6  127.90    7.74
   4  -8  -6  131.92    6.89
  -4   8   5   88.22    6.77
   4  -8  -5   84.06    5.97
   4  -8  -4   30.93    4.53
  -4   8   4   23.63    4.76
  -4   8   3   -0.17    3.95
   4  -8  -3    2.02    3.44
   4  -8  -2    4.42    3.56
  -4   8   2    1.73    3.79
   4  -8  -1    9.85    3.58
  -4   8   1    8.64    3.98
  -4   8   0   57.50    5.31
   4  -8   0   61.24    5.00
  -4   8  -1  629.49   13.74
   4  -8   1  622.71   13.06
  -4   8  -2   22.20    4.44
   4  -8   2   19.81    3.97
  -4   8  -3   19.84    4.27
   4  -8   3   20.22    4.10
   4  -8   4    3.85    3.25
   4  -8   5  165.35    6.98
   4  -8   6  132.14    6.44
   4  -8   7    5.05    3.29
   4  -8   8  277.57    8.68
   4  -8   8  273.66    8.69
   4  -8   9   67.02    5.11
   4  -8  10   93.78    6.32
   4  -8  11   52.27    5.14
   4  -8  12  437.56   13.13
   4  -8  13   15.00    5.21
  -4   7   7   59.55    5.71
  -4   7   6    6.54    3.76
   4  -7  -6    5.42    3.40
  -4   7   5   72.15    5.76
   4  -7  -5   76.44    5.36
  -4   7   4   84.20    5.84
   4  -7  -4   93.33    5.71
  -4   7   3   51.86    4.86
   4  -7  -3   56.84    4.64
  -4   7   2   25.47    4.32
   4  -7  -2   26.90    3.81
   4  -7  -1   25.30    3.89
  -4   7   1   27.46    4.47
  -4   7   0  933.39   15.46
   4  -7   0  935.36   14.80
   4  -7   1   11.61    3.67
  -4   7  -1    9.13    4.02
   4  -7   2   27.81    3.93
   4  -7   3  243.71    6.73
   4  -7   3  231.78    7.71
   4  -7   4  460.77   10.36
   4  -7   4  476.74    9.34
   4  -7   5  666.51   11.45
   4  -7   5  641.99   12.00
   4  -7   6   42.91    4.09
   4  -7   6   43.27    3.98
   4  -7   7   77.61    5.00
   4  -7   7   75.69    4.78
   4  -7   8   44.40    4.47
   4  -7   8   38.41    3.71
   4  -7   9  112.23    6.48
   4  -7  10   17.30    4.48
   4  -7  11   22.58    4.65
   4  -7  12   -0.37    4.42
   4  -7  13   31.31    5.35
  -4   6   7  132.18    6.44
   4  -6  -7  137.72    6.34
  -4   6   6  389.02   10.14
   4  -6  -6  388.22    9.87
  -4   6   5   82.87    5.37
   4  -6  -5   94.20    5.24
  -4   6   4  165.73    6.79
   4  -6  -4  166.54    6.61
  -4   6   3   65.75    5.12
   4  -6  -3   65.43    4.68
  -4   6   2  177.07    6.95
   4  -6  -2  175.15    6.54
  -4   6   1   15.92    3.71
   4  -6  -1   17.70    3.27
  -4   6   0   63.07    4.73
   4  -6   0   70.50    4.70
   4  -6   1   17.24    3.51
   4  -6   2   45.41    4.06
   4  -6   2   45.72    3.53
   4  -6   3  208.77    6.64
   4  -6   3  217.29    6.49
   4  -6   4   21.19    3.14
   4  -6   4   22.39    3.44
   4  -6   5   30.21    3.70
   4  -6   5   28.33    3.50
   4  -6   6    1.18    2.72
   4  -6   6   -0.56    2.73
   4  -6   7   15.53    2.80
   4  -6   7   14.27    3.15
   4  -6   8   28.97    3.97
   4  -6   9   17.38    3.84
   4  -6  10  234.05    9.12
   4  -6  11   99.77    6.54
   4  -6  12   34.00    5.04
   4  -6  13   94.68    7.66
   4  -5 -12   22.03    5.39
   4  -5 -11   10.50    4.57
   4  -5  -7  193.16    7.00
  -4   5   6   93.67    5.14
   4  -5  -6   90.15    4.99
  -4   5   5   38.40    4.07
   4  -5  -5   38.37    3.98
  -4   5   4   35.04    3.95
   4  -5  -4   33.92    3.69
  -4   5   3   19.62    3.58
   4  -5  -3   17.88    3.37
  -4   5   2  176.38    6.25
   4  -5  -2  184.38    6.24
   4  -5  -1  207.87    6.44
   4  -5   0  367.16    8.18
   4  -5   1    1.77    2.44
   4  -5   2   85.53    4.33
   4  -5   2  115.49    5.34
   4  -5   3   99.58    4.49
   4  -5   3  109.25    4.73
   4  -5   4   10.37    2.73
   4  -5   4    8.84    2.51
   4  -5   5    3.04    2.91
   4  -5   5    2.05    2.43
   4  -5   6   16.76    3.46
   4  -5   6   18.25    2.85
   4  -5   7    6.29    3.16
   4  -5   7    4.72    2.16
   4  -5   8  282.79    9.05
   4  -5   9  297.56    9.62
   4  -5  10   15.67    4.16
   4  -5  11  216.84    9.15
   4  -5  12   52.73    5.61
   4  -5  13  120.33    8.14
   4  -4 -13   11.36    5.16
  -4   4  13   15.42    6.45
  -4   4  12   31.18    6.36
   4  -4 -12   36.24    5.07
   4  -4 -11    2.35    3.51
   4  -4 -10   11.04    3.80
   4  -4  -9  158.67    7.14
   4  -4  -8  432.13   10.20
   4  -4  -8  442.06    9.93
   4  -4  -7  177.01    6.36
   4  -4  -7  180.93    6.47
  -4   4   6   12.85    3.00
   4  -4  -6   14.47    3.07
  -4   4   5  365.08    7.85
   4  -4  -5  370.01    8.63
   4  -4  -5  360.69    7.33
   4  -4  -4    8.79    2.77
  -4   4   4   11.21    3.03
   4  -4  -4   11.18    2.22
  -4   4   3  856.67   11.47
   4  -4  -3  837.65   11.93
   4  -4  -3  843.66    8.73
   4  -4  -2    1.48    2.17
   4  -4  -2    0.20    1.13
   4  -4  -1  182.73    5.68
   4  -4  -1  166.40    2.37
   4  -4   0  223.88    6.02
   4  -4   1  876.92   11.18
   4  -4   1  891.34   11.65
   4  -4   2  218.03    6.04
   4  -4   2  215.88    5.70
   4  -4   3  937.51   11.11
   4  -4   3  912.16   12.29
   4  -4   4   41.83    3.58
   4  -4   4   43.39    3.02
   4  -4   5  102.42    5.08
   4  -4   5  104.31    3.95
  -4   4  -5  105.95    3.49
   4  -4   6  149.46    4.51
   4  -4   6  146.95    6.14
  -4   4  -6  158.11    4.80
   4  -4   7  106.29    5.77
  -4   4  -7   99.59    4.44
   4  -4   8  486.36   11.48
  -4   4  -8  495.75    9.55
  -4   4  -9   16.48    3.26
   4  -4   9   15.93    3.82
   4  -4  10  282.99   10.02
  -4   4 -10  310.50    8.80
  -4   4 -11    7.90    3.68
   4  -4  11    4.98    3.90
   4  -4  12   64.31    6.31
   4  -4  13    0.62    4.54
   4  -3 -13   25.43    5.38
  -4   3  13   26.34    6.20
   4  -3 -12   33.15    4.92
  -4   3  12   29.98    5.94
   4  -3 -11    4.29    3.86
   4  -3 -10   21.50    4.07
   4  -3  -9  211.34    7.09
   4  -3  -9  203.91    7.47
   4  -3  -8    3.55    2.75
   4  -3  -8    1.86    2.58
   4  -3  -7   84.02    4.62
   4  -3  -7   83.47    4.65
  -4   3   6  777.51    9.91
   4  -3  -6  799.21   11.31
   4  -3  -6  785.13   12.08
   4  -3  -5  638.83   10.65
  -4   3   5  638.10    8.98
   4  -3  -5  639.60    9.26
   4  -3  -4  227.90    6.40
  -4   3   4  238.29    5.73
   4  -3  -4  234.72    5.29
   4  -3  -3    2.47    1.40
   4  -3  -3    3.24    2.15
   4  -3  -2  219.72    5.99
   4  -3  -2  232.32    3.70
   4  -3  -1  767.98   10.42
   4  -3  -1  770.99    5.19
   4  -3   0   67.04    3.52
   4  -3   1  246.32    5.74
   4  -3   1  237.49    6.12
   4  -3   2  306.12    6.19
   4  -3   2  297.35    7.00
   4  -3   3   90.09    4.32
   4  -3   3   86.37    3.51
   4  -3   4    0.55    1.68
   4  -3   4    1.33    2.37
   4  -3   5   10.92    2.99
   4  -3   5    9.97    1.85
   4  -3   6   30.07    3.72
   4  -3   7   95.42    5.62
   4  -3   8   90.73    5.70
   4  -3   9  211.93    8.38
   4  -3  10   16.60    4.17
   4  -3  11   13.91    4.35
   4  -3  12   45.68    5.84
  -4   3 -13    3.70    4.06
   4  -3  13    9.01    5.22
  -4   3 -14   32.12    5.53
  -4   2  14   94.75    8.72
   4  -2 -14   93.47    7.93
  -4   2  13  157.45    9.69
   4  -2 -13  148.13    8.30
   4  -2 -12    3.66    3.85
   4  -2 -11  117.21    6.75
   4  -2 -10  104.73    6.25
   4  -2  -9  352.08    9.40
   4  -2  -9  356.98    8.85
   4  -2  -8   90.75    4.92
   4  -2  -8   96.89    5.14
   4  -2  -7  108.00    5.15
   4  -2  -7  113.76    5.17
   4  -2  -6   21.19    3.10
   4  -2  -6   22.99    2.92
  -4   2   5   75.92    3.06
   4  -2  -5   74.97    3.65
   4  -2  -5   75.09    4.22
  -4   2   4   21.08    2.19
   4  -2  -4   24.65    2.20
   4  -2  -4   24.83    2.72
   4  -2  -3   42.30    2.30
   4  -2  -3   40.80    3.10
   4  -2  -2  101.73    2.85
   4  -2  -2   99.12    4.16
   4  -2  -1   10.69    1.22
   4  -2  -1   12.58    2.18
   4  -2   0  355.86    4.38
   4  -2   0  343.27    6.64
   4  -2   1   61.69    3.50
   4  -2   1   58.18    3.03
   4  -2   2    0.78    1.99
   4  -2   2    0.11    1.58
   4  -2   3   35.98    3.27
   4  -2   3   38.35    2.47
   4  -2   4  219.83    6.57
   4  -2   4  226.13    4.83
   4  -2   5   55.46    4.15
   4  -2   5   60.97    2.73
   4  -2   6  176.82    6.75
   4  -2   7   75.46    5.24
   4  -2   8  305.61    9.36
   4  -2   9  217.62    8.59
   4  -2  10    6.99    4.06
   4  -2  11    1.67    4.44
   4  -2  12    7.08    4.33
   4  -2  13   65.45    6.46
  -4   1  14   63.67    7.67
   4  -1 -14   57.61    6.26
   4  -1 -13   36.11    5.27
  -4   1  13   31.16    6.19
   4  -1 -12   11.61    4.23
   4  -1 -11    1.17    3.46
   4  -1 -10   11.50    3.00
   4  -1 -10    9.20    3.41
   4  -1  -9    8.86    2.80
   4  -1  -9    7.56    3.06
   4  -1  -8   21.46    3.43
   4  -1  -8   24.98    3.51
   4  -1  -7   34.89    3.44
   4  -1  -7   36.70    3.51
   4  -1  -6    0.21    2.22
   4  -1  -6   -0.60    2.31
   4  -1  -5   21.79    2.48
   4  -1  -5   23.77    2.92
   4  -1  -4    4.72    1.65
   4  -1  -4    3.74    2.17
   4  -1  -3   70.00    2.95
   4  -1  -3   68.58    3.67
   4  -1  -2 1292.51   10.58
   4  -1  -2 1254.70   13.33
   4  -1  -1  395.92    5.82
   4  -1  -1  402.43    7.53
   4  -1   0   12.18    2.07
   4  -1   0   14.91    1.71
   4  -1   0   13.85    2.40
   4  -1   1 1235.24   13.51
   4  -1   1 1228.44   10.56
   4  -1   1 1228.29   12.08
   4  -1   1 1199.82   12.66
   4  -1   2  125.98    4.79
   4  -1   2  133.81    4.09
   4  -1   2  133.45    4.85
   4  -1   3   38.62    3.31
   4  -1   3   30.81    2.27
   4  -1   3   31.54    3.27
   4  -1   4  577.82   10.22
   4  -1   4  587.77    7.24
   4  -1   4  570.39   10.52
   4  -1   5  161.13    6.15
   4  -1   5  170.15    6.50
   4  -1   6 1043.52   15.08
   4  -1   6 1086.59   15.84
   4  -1   7  275.13    8.66
   4  -1   7  277.37    8.89
   4  -1   8  104.04    6.14
   4  -1   8  102.77    5.93
   4  -1   9   27.26    4.67
   4  -1   9   28.38    4.39
   4  -1  10  108.61    6.96
   4  -1  10  104.49    6.75
   4  -1  11    0.04    3.83
   4  -1  11    0.45    3.87
   4  -1  12   -1.71    4.51
   4  -1  12    0.00    4.43
   4  -1  13   48.94    6.26
  -4   0  14   89.37    7.98
   4   0 -14   92.42    7.03
  -4   0  13   12.65    5.59
   4   0 -13   13.75    4.60
   4   0 -12   -0.59    3.61
   4   0 -11   27.58    4.18
   4   0 -10   78.42    4.77
   4   0 -10   76.81    5.09
   4   0  -9  903.99   13.67
   4   0  -9  919.20   14.53
   4   0  -8   13.07    2.94
   4   0  -8   10.48    3.01
   4   0  -7   10.70    2.67
   4   0  -7   13.87    2.98
   4   0  -6  132.50    5.36
   4   0  -6  133.00    5.01
   4   0  -5  269.73    7.03
   4   0  -5  285.68    6.62
   4   0  -4   40.12    3.20
   4   0  -4   36.52    2.86
   4   0  -3 2132.92   15.87
   4   0  -3 2093.86   17.62
   4   0  -2 2323.46   16.06
   4   0  -2 2327.95   18.12
   4   0  -1 1494.09   12.91
   4   0  -1 1450.89   13.89
   4   0  -1 1480.80   12.74
   4   0   0  606.82    9.40
   4   0   0  590.62    8.73
   4   0   0  601.27    8.41
   4   0   0  602.28    8.84
   4   0   1  619.79    8.82
   4   0   1  624.79    9.67
   4   0   1  605.65    8.57
   4   0   1  617.97    9.61
   4   0   2  374.58    6.61
   4   0   2  362.67    7.70
   4   0   2  376.97    8.11
   4   0   3 2075.53   18.65
   4   0   3 2160.31   14.92
   4   0   3 2102.58   19.59
   4   0   4  106.67    3.53
   4   0   4   94.59    4.77
   4   0   4  101.17    5.36
   4   0   5   25.70    4.03
   4   0   5   21.78    3.51
   4   0   6  314.06    8.72
   4   0   6  317.38    9.30
   4   0   7  113.09    6.19
   4   0   7  111.36    5.87
   4   0   8  177.83    7.54
   4   0   8  168.29    8.00
   4   0   9   14.57    4.10
   4   0   9   12.26    3.97
   4   0  10   29.36    5.36
   4   0  10   24.16    4.85
   4   0  11   50.75    5.70
   4   0  11   56.95    6.09
   4   0  12   19.21    5.08
   4   0  12   26.12    5.14
   4   1 -15   18.84    5.33
   4   1 -14   46.46    6.18
  -4  -1  14   48.43    7.13
  -4  -1  13   81.52    7.80
   4   1 -13   69.11    6.14
   4   1 -12  176.45    8.21
   4   1 -11  195.47    7.99
   4   1 -11  180.57    6.99
   4   1 -10  130.80    5.97
   4   1 -10  125.11    6.42
   4   1  -9   62.46    4.50
   4   1  -9   53.88    4.49
   4   1  -8   84.16    4.93
   4   1  -8   79.62    5.11
   4   1  -7  227.72    7.17
   4   1  -7  230.69    7.11
   4   1  -6   59.58    4.24
   4   1  -6   61.69    4.04
   4   1  -5    3.69    2.63
   4   1  -5    3.38    2.24
   4   1  -4   63.89    3.96
   4   1  -4   68.57    3.78
   4   1  -3   78.00    4.18
   4   1  -3   74.88    3.86
   4   1  -3   73.92    2.95
   4   1  -2   41.89    3.20
   4   1  -2   42.07    3.06
   4   1  -2   43.28    2.70
   4   1  -1   79.15    3.88
   4   1  -1   73.70    3.84
   4   1  -1   75.95    3.57
   4   1   0    1.42    2.14
   4   1   0    2.43    1.97
   4   1   0    2.56    2.24
   4   1   1   13.07    2.73
   4   1   1   11.69    2.42
   4   1   1   10.83    2.30
   4   1   1   14.04    2.66
   4   1   2    2.81    2.79
   4   1   2   -0.55    2.23
   4   1   2    1.67    2.01
   4   1   2    0.28    2.40
   4   1   3    2.20    2.98
   4   1   3    0.44    2.48
   4   1   4  179.85    6.30
   4   1   4  181.22    7.02
   4   1   5   60.87    4.46
   4   1   5   64.48    5.15
   4   1   6  276.95    8.20
   4   1   6  274.73    9.21
   4   1   7    5.47    3.98
   4   1   7    6.45    3.32
   4   1   8  147.04    7.05
   4   1   8  135.63    7.68
   4   1   9   77.31    6.44
   4   1   9   80.83    5.99
   4   1  10   28.07    5.19
   4   1  10   14.86    4.40
   4   1  11   20.98    5.80
   4   1  11   19.94    4.79
   4   2 -15   35.84    5.58
  -4  -2  14   77.78    7.69
   4   2 -14   70.83    6.44
   4   2 -13    1.19    3.84
  -4  -2  13    2.46    5.34
   4   2 -12   11.13    3.73
   4   2 -11    2.01    3.15
   4   2 -11    2.92    3.00
   4   2 -10   27.24    3.83
   4   2 -10   26.06    3.83
   4   2  -9   77.20    5.03
   4   2  -9   88.96    5.48
   4   2  -8    9.55    3.14
   4   2  -8   10.81    3.07
   4   2  -7   51.62    4.38
   4   2  -7   47.59    4.10
   4   2  -6    3.75    2.70
   4   2  -6    4.39    2.98
   4   2  -5   64.48    4.43
   4   2  -5   73.05    4.36
   4   2  -4   41.23    3.69
   4   2  -4   41.04    3.60
   4   2  -4   40.55    2.53
   4   2  -3   41.05    3.49
   4   2  -3   46.50    3.78
   4   2  -3   45.67    2.96
   4   2  -2  374.66    8.41
   4   2  -2  361.33    8.16
   4   2  -2  371.62    7.28
   4   2  -1  453.37    9.12
   4   2  -1  453.54    9.23
   4   2  -1  464.56    8.60
   4   2   0   57.71    3.87
   4   2   0   49.51    3.82
   4   2   0   60.73    4.18
   4   2   1   19.12    3.32
   4   2   1   16.20    2.71
   4   2   1   18.67    3.17
   4   2   2    9.90    3.37
   4   2   2    7.66    2.46
   4   2   2   10.21    3.03
   4   2   3  232.66    6.65
   4   2   3  237.05    8.10
   4   2   4  132.68    5.46
   4   2   4  128.86    6.50
   4   2   5    4.67    3.59
   4   2   5    2.52    2.70
   4   2   6    2.59    3.34
   4   2   6    3.63    3.08
   4   2   7   59.82    5.02
   4   2   7   64.44    6.18
   4   2   8   62.40    6.18
   4   2   9   52.01    6.10
   4   2  10   27.12    5.75
   4   3 -14   16.03    4.72
  -4  -3  14   15.00    6.07
   4   3 -13   22.54    4.84
  -4  -3  13   23.23    5.85
   4   3 -12    1.09    3.65
   4   3 -11  117.21    6.87
   4   3 -10   16.55    3.96
   4   3  -9    7.92    3.32
   4   3  -8   14.42    3.56
   4   3  -8   16.37    3.34
   4   3  -7  154.64    6.74
   4   3  -7  161.43    6.71
   4   3  -6    1.27    2.99
   4   3  -6   -0.01    3.08
   4   3  -5  596.76   11.86
   4   3  -5  613.40   11.64
   4   3  -4  941.87   14.02
   4   3  -4  969.09   10.86
   4   3  -3  315.31    8.42
   4   3  -3  335.86    7.21
   4   3  -2  681.01   12.09
   4   3  -2  693.08   10.67
   4   3  -1  322.87    8.67
   4   3  -1  358.11    8.44
   4   3   0  163.51    6.57
   4   3   0  170.45    6.46
   4   3   1  287.75    8.62
   4   3   1  298.82    6.91
   4   3   1  308.70    8.73
   4   3   2   79.37    5.32
   4   3   2   91.16    5.67
   4   3   3   98.35    6.05
   4   3   4  524.45   12.71
   4   3   5    5.32    3.87
   4   3   6   37.51    5.27
   4   3   7   15.27    4.62
   4   3   8  123.28    8.01
   4   3   9    6.05    4.67
  -4  -4  15    0.39    5.39
   4   4 -14    2.10    4.49
  -4  -4  14    3.62    4.86
   4   4 -13    6.77    4.05
  -4  -4  13    5.07    4.70
   4   4 -12   35.18    5.08
  -4  -4  12   35.05    5.38
   4   4 -11  197.39    8.81
   4   4 -10   33.06    4.65
   4   4  -9  163.16    7.60
   4   4  -8  340.70   10.03
   4   4  -7  853.07   15.09
   4   4  -6  503.32   11.61
   4   4  -5   76.48    5.19
   4   4  -4    4.60    3.01
   4   4  -4    4.42    2.62
   4   4  -3   55.72    4.77
   4   4  -3   60.20    4.22
   4   4  -2    2.59    3.06
   4   4  -2    1.63    2.95
   4   4  -1  140.81    6.54
   4   4  -1  137.49    6.09
   4   4   0    2.00    3.04
   4   4   0   -0.05    3.06
   4   4   1   80.07    5.54
   4   4   1   90.09    5.71
   4   4   2    6.02    3.62
   4   4   3  138.94    7.43
   4   4   4    9.56    4.43
   4   4   5   -0.47    4.02
   4   4   6   31.84    5.69
   4   4   7   38.30    5.95
  -4  -5  15    4.51    5.06
  -4  -5  14   25.53    5.98
   4   5 -13    1.99    4.38
   4   5 -12    4.59    4.22
   4   5 -11   47.45    5.36
   4   5 -10   61.71    6.47
   4   5  -9   34.81    4.70
   4   5  -8    4.79    3.79
   4   5  -7   10.77    3.68
   4   5  -6   -0.43    3.18
   4   5  -5    1.87    3.27
   4   5  -4   39.21    4.47
   4   5  -3   94.98    6.01
   4   5  -3   86.95    5.16
   4   5  -2   23.94    3.98
   4   5  -2   27.92    3.79
   4   5  -1   92.53    6.13
   4   5  -1  109.91    6.26
   4   5   0   16.28    4.08
   4   5   0   14.29    3.97
   4   5   1   55.48    5.60
   4   5   1   60.28    5.33
   4   5   2   11.82    4.03
   4   5   3   30.65    5.05
   4   5   4    4.35    4.55
   4   5   5    4.75    4.14
   4   5   6   31.19    5.97
   4   6 -13   -2.13    4.52
   4   6 -12    4.60    4.29
   4   6 -11    3.34    3.83
   4   6 -10    0.85    4.17
   4   6  -9    4.48    3.88
   4   6  -8   20.60    4.71
   4   6  -7   10.25    3.96
   4   6  -6   26.25    4.58
   4   6  -5  165.55    8.00
   4   6  -4    1.47    3.64
   4   6  -3   39.01    5.07
   4   6  -3   46.39    4.76
   4   6  -2   12.92    4.38
   4   6  -2    9.81    4.34
   4   6  -1  133.21    7.62
   4   6  -1  146.33    7.62
   4   6   0  170.98    8.49
   4   6   0  204.63    8.83
   4   6   1    4.29    4.46
   4   6   1    7.68    4.36
   4   6   2   47.05    5.42
   4   6   3   15.04    5.10
   4   6   4   82.47    6.26
   4   7 -11  438.24   14.19
   4   7 -10  184.50    9.72
   4   7  -9  113.01    7.71
   4   7  -8    8.17    4.47
   4   7  -7   -0.90    4.43
   4   7  -6  174.13    8.99
   4   7  -5  175.12    8.92
   4   7  -4   16.29    4.59
   4   7  -3   65.42    6.10
   4   7  -2  122.23    7.73
   4   7  -2  128.95    7.59
   4   7  -1   33.30    5.18
   4   7  -1   27.15    4.99
   4   7   0    4.58    4.42
   4   7   0   11.60    4.68
   4   7   1   25.46    5.55
   4   7   2   31.86    5.82
   4   8  -9    9.55    4.05
   4   8  -8   -1.58    4.50
   4   8  -7   -2.32    4.07
   4   8  -6   31.30    5.32
   4   8  -5   17.32    4.91
   4   8  -4   -1.98    4.20
   4   8  -3   18.71    4.94
   4   8  -2   15.68    4.53
   4   8  -2   13.22    4.96
   4   8  -1   10.26    4.88
   4   8   0   -8.69    5.38
  -5  11   1   85.48    8.03
   5 -11  -1   84.81    7.06
   5 -11   0   42.41    6.05
  -5  11   0   41.02    6.93
   5 -11   1   15.82    5.03
  -5  11  -1    7.83    5.54
  -5  11  -2  120.32    8.67
   5 -11   2  116.32    7.99
  -5  11  -3  180.71   10.32
   5 -11   3  168.85    9.12
   5 -11   4    5.51    4.40
  -5  11  -4    8.64    5.06
  -5  11  -5    2.83    4.91
   5 -11   5   -0.26    4.39
  -5  11  -6   16.74    5.88
   5 -11   6   18.81    5.12
  -5  11  -7   72.34    7.98
   5 -11   7   66.97    6.51
   5 -11   8    2.13    4.60
  -5  11  -8   -1.91    5.01
   5 -11   9   59.39    6.29
   5 -10  -5  301.56   11.59
  -5  10   5    2.78    5.76
  -5  10   4  117.41    8.69
   5 -10  -4  118.19    7.75
  -5  10   3   68.58    7.15
   5 -10  -3   63.68    6.22
  -5  10   2  109.00    8.15
   5 -10  -2   75.28    6.37
  -5  10   1   50.78    6.27
   5 -10  -1   45.08    5.32
   5 -10   0   10.76    4.36
  -5  10   0    5.81    4.77
   5 -10   1   26.73    4.99
  -5  10  -1   27.14    5.46
   5 -10   2   19.68    4.90
  -5  10  -2   21.19    5.51
  -5  10  -3   82.17    7.21
   5 -10   3   90.26    6.59
   5 -10   4    4.23    4.18
  -5  10  -4    2.65    4.89
  -5  10  -5   43.07    5.75
   5 -10   5   39.06    5.28
   5 -10   6   14.63    4.11
   5 -10   7   55.80    5.42
   5 -10   8    8.98    4.07
   5  -9  -6   -0.04    3.91
  -5   9   6   -2.19    4.67
  -5   9   5    3.92    4.59
   5  -9  -5    8.47    4.06
  -5   9   4   -5.78    4.63
   5  -9  -4    2.76    3.71
  -5   9   3    8.05    4.70
   5  -9  -3   13.74    4.32
  -5   9   2   10.58    4.47
   5  -9  -2    9.33    3.87
  -5   9   1   59.36    6.15
   5  -9  -1   59.59    5.52
  -5   9   0  143.95    8.06
   5  -9   0  143.20    7.61
  -5   9  -1  132.01    7.91
   5  -9   1  124.47    7.28
  -5   9  -2   91.23    6.94
   5  -9   2   86.04    6.31
  -5   9  -3  136.39    7.73
   5  -9   3  141.54    7.26
   5  -9   4  170.20    7.88
   5  -9   5  163.42    7.69
   5  -9   6   -1.52    3.59
   5  -9   7    2.95    3.43
   5  -9   8    6.92    3.52
  -5   8   6   51.27    5.71
   5  -8  -6   48.09    5.23
  -5   8   5  298.86   10.50
   5  -8  -5  295.01   10.02
  -5   8   4   16.45    4.70
   5  -8  -4   16.84    3.91
  -5   8   3   63.31    6.00
   5  -8  -3   75.29    5.55
  -5   8   2    3.54    4.13
   5  -8  -2    4.50    3.53
  -5   8   1   45.57    5.56
   5  -8  -1   50.61    4.92
  -5   8   0   51.65    5.29
   5  -8   0   43.72    4.54
  -5   8  -1  254.34    9.33
   5  -8   1  248.79    8.76
   5  -8   2  653.78   13.46
   5  -8   3   -0.76    3.22
   5  -8   4   67.22    5.19
   5  -8   5    1.47    3.12
   5  -8   5    2.96    2.61
   5  -8   6   83.50    5.46
   5  -8   6   80.03    5.22
   5  -8   7  599.38   12.39
   5  -8   7  622.96   13.12
   5  -8   8   -0.88    3.20
   5  -8   9   14.94    3.85
   5  -8  10   11.54    4.19
   5  -8  11    5.33    4.15
   5  -8  12   76.29    6.86
   5  -8  13   -7.52    4.54
   5  -7  -7  206.66    8.50
  -5   7   6  339.53   10.47
   5  -7  -6  322.61   10.09
   5  -7  -5    0.67    3.29
  -5   7   5   -0.50    3.42
  -5   7   4   14.34    4.03
   5  -7  -4   10.75    3.48
   5  -7  -3    0.21    2.83
  -5   7   3    1.33    3.50
  -5   7   2   19.97    3.99
   5  -7  -2   23.78    3.82
  -5   7   1    7.73    3.78
   5  -7  -1    7.94    3.23
  -5   7   0  118.82    6.51
   5  -7   0  104.60    5.66
   5  -7   1  155.55    6.60
   5  -7   2   14.15    3.49
   5  -7   3   42.01    4.20
   5  -7   3   50.61    4.23
   5  -7   4  271.46    8.25
   5  -7   4  276.20    8.20
   5  -7   5   86.01    5.17
   5  -7   5   79.45    5.16
   5  -7   6    7.72    2.95
   5  -7   6    8.24    2.98
   5  -7   7  209.20    7.04
   5  -7   7  214.10    8.09
   5  -7   8  305.87    9.78
   5  -7   9  177.39    8.09
   5  -7  10  339.61   11.07
   5  -7  11  273.59   10.56
   5  -7  12   83.88    7.34
   5  -6  -8   48.43    4.76
   5  -6  -7    3.76    3.45
   5  -6  -6   -1.68    3.42
  -5   6   6   -0.01    3.01
  -5   6   5   27.74    3.99
   5  -6  -5   26.15    3.72
   5  -6  -4   -0.23    3.02
  -5   6   4   -0.20    3.20
   5  -6  -3   22.11    3.59
  -5   6   3   24.29    4.10
  -5   6   2  313.37    8.92
   5  -6  -2  286.59    8.53
   5  -6  -1   40.78    4.14
   5  -6   0  227.26    7.42
   5  -6   1    0.73    2.84
   5  -6   2  129.91    5.78
   5  -6   2  132.23    5.89
   5  -6   3  100.17    5.09
   5  -6   3   99.77    5.35
   5  -6   4   36.47    3.74
   5  -6   4   32.71    3.96
   5  -6   5   66.83    4.31
   5  -6   5   65.87    5.05
   5  -6   6   18.55    2.88
   5  -6   6   19.09    3.81
   5  -6   7  273.34    8.94
   5  -6   8  126.19    6.69
   5  -6   9  195.82    8.45
   5  -6  10   16.60    4.24
   5  -6  11   33.78    5.40
   5  -6  12    6.10    4.60
   5  -6  13    3.06    5.38
  -5   5  12    4.64    5.51
   5  -5  -8  225.99    8.06
   5  -5  -7  179.86    7.24
   5  -5  -6   92.51    5.32
   5  -5  -5  124.62    5.96
  -5   5   5  128.63    5.86
  -5   5   4   81.79    4.92
   5  -5  -4   74.12    5.04
   5  -5  -3    5.72    3.01
  -5   5   3    4.99    3.16
   5  -5  -2    2.83    2.98
   5  -5  -1   75.16    4.64
   5  -5   0   58.56    4.14
   5  -5   1    3.09    2.56
   5  -5   2  281.56    7.47
   5  -5   2  278.94    7.96
   5  -5   3  129.79    5.28
   5  -5   3  126.75    5.62
   5  -5   4  299.72    7.40
   5  -5   4  300.40    8.52
   5  -5   5   10.19    2.67
   5  -5   5    9.62    3.36
   5  -5   6   11.72    2.49
   5  -5   6    9.04    3.42
   5  -5   7  100.62    5.90
   5  -5   8  445.71   11.54
   5  -5   9   -1.16    3.30
   5  -5  10   37.01    5.04
   5  -5  11   47.14    5.91
   5  -5  12    9.14    4.61
   5  -5  13  101.23    8.56
   5  -4 -10  328.28   10.14
   5  -4  -9   24.09    3.89
   5  -4  -9   23.81    3.61
   5  -4  -8    9.83    3.09
   5  -4  -8    6.87    3.18
   5  -4  -7   66.04    4.21
   5  -4  -7   66.12    4.67
   5  -4  -6   33.14    3.71
   5  -4  -6   28.47    3.16
   5  -4  -5  366.10    9.16
  -5   4   5  378.77    8.13
   5  -4  -4   31.40    3.65
  -5   4   4   28.71    3.55
   5  -4  -3  601.05   11.03
   5  -4  -2   55.07    4.07
   5  -4  -1   37.73    3.59
   5  -4   0    0.45    2.42
   5  -4   1 1200.94   14.12
   5  -4   1 1170.63   15.12
   5  -4   2   -0.45    2.38
   5  -4   2   -0.49    2.51
   5  -4   3  100.11    4.56
   5  -4   3   94.39    5.14
   5  -4   4    8.59    2.47
   5  -4   4    7.85    3.27
   5  -4   5  338.67    7.14
   5  -4   5  339.06    9.23
   5  -4   6   44.63    4.57
   5  -4   7 1071.16   16.95
   5  -4   8    2.46    3.22
   5  -4   9   -2.01    3.56
   5  -4  10   62.90    5.91
   5  -4  11   67.24    6.41
   5  -4  12  140.13    8.99
   5  -3 -13   23.67    4.97
   5  -3 -12    3.50    3.46
   5  -3 -11  288.02    9.83
   5  -3 -10    5.03    3.35
   5  -3  -9   97.80    5.67
   5  -3  -9   92.97    5.59
   5  -3  -8   60.91    4.29
   5  -3  -8   52.53    4.43
   5  -3  -7  371.36    8.52
   5  -3  -7  365.02    9.51
   5  -3  -6  769.25   11.07
   5  -3  -6  778.03   13.20
   5  -3  -5   64.11    3.51
   5  -3  -5   64.34    4.52
   5  -3  -4   11.73    2.96
   5  -3  -4   16.70    2.17
   5  -3  -3    1.81    1.58
   5  -3  -3    0.99    2.60
   5  -3  -2    3.53    1.25
   5  -3  -2    3.64    2.61
   5  -3  -1  162.09    5.62
   5  -3  -1  172.10    3.14
   5  -3   0  260.95    6.70
   5  -3   0  258.00    3.50
   5  -3   1  765.38   10.90
   5  -3   1  806.57   12.47
   5  -3   2  818.28   11.08
   5  -3   2  813.42   12.75
   5  -3   3  229.12    5.95
   5  -3   3  228.12    7.21
   5  -3   4  125.94    5.93
   5  -3   4  131.79    4.56
   5  -3   5  219.34    7.59
   5  -3   5  217.03    5.48
   5  -3   6   88.47    5.61
   5  -3   7   80.32    5.41
   5  -3   8    4.36    3.50
   5  -3   9   33.95    4.82
   5  -3  10   40.64    5.14
   5  -3  11   14.08    4.78
   5  -3  12   -0.13    4.74
   5  -2 -14   39.94    5.35
   5  -2 -13   59.61    6.10
   5  -2 -12    6.01    4.09
   5  -2 -11  184.37    8.26
   5  -2 -10  111.96    6.04
   5  -2 -10  109.75    6.16
   5  -2  -9    3.04    2.97
   5  -2  -9    3.33    2.70
   5  -2  -8   10.88    2.86
   5  -2  -8   10.61    2.86
   5  -2  -7   53.16    3.87
   5  -2  -7   51.28    4.33
   5  -2  -6   26.87    3.07
   5  -2  -6   27.20    3.68
   5  -2  -5    6.51    2.25
   5  -2  -5    4.83    2.73
   5  -2  -4   80.93    3.53
   5  -2  -4   76.84    4.57
   5  -2  -3   75.89    3.21
   5  -2  -3   75.95    4.41
   5  -2  -2   61.62    2.74
   5  -2  -2   61.17    4.08
   5  -2  -1  853.47    8.42
   5  -2  -1  854.34   11.92
   5  -2   0  828.20    8.22
   5  -2   0  827.73   11.48
   5  -2   1  456.50    6.47
   5  -2   1  457.15    9.41
   5  -2   1  474.70    8.63
   5  -2   2  512.77   10.14
   5  -2   2  537.02    8.90
   5  -2   3  132.33    5.79
   5  -2   3  133.23    4.72
   5  -2   4  209.23    5.46
   5  -2   4  206.86    7.17
   5  -2   5  186.60    7.13
   5  -2   6   88.32    5.66
   5  -2   7   78.68    5.36
   5  -2   8    1.01    3.45
   5  -2   9   34.78    4.92
   5  -2  10    4.19    4.05
   5  -2  11    0.22    4.20
   5  -2  12    0.50    4.92
   5  -1 -14   17.10    5.14
   5  -1 -13   46.24    5.49
   5  -1 -12   16.71    4.15
   5  -1 -11  101.55    6.29
   5  -1 -10    8.18    3.22
   5  -1 -10   10.72    3.49
   5  -1  -9   16.89    3.18
   5  -1  -9   17.51    3.59
   5  -1  -8   18.92    3.24
   5  -1  -8   14.63    3.37
   5  -1  -7  239.71    7.70
   5  -1  -7  244.27    7.12
   5  -1  -6  106.05    5.52
   5  -1  -6  110.03    4.85
   5  -1  -5  113.72    4.65
   5  -1  -5  110.06    5.32
   5  -1  -4   79.18    3.76
   5  -1  -4   77.40    4.55
   5  -1  -3  114.21    4.14
   5  -1  -3  110.56    5.05
   5  -1  -2  344.44    6.49
   5  -1  -2  340.54    7.98
   5  -1  -1  102.19    3.83
   5  -1  -1   97.62    4.58
   5  -1   0  360.41    6.61
   5  -1   0  368.13    7.87
   5  -1   1   81.64    3.63
   5  -1   1   78.16    4.62
   5  -1   1   73.15    3.94
   5  -1   2  565.18   10.68
   5  -1   2  574.72    9.13
   5  -1   2  568.33   10.64
   5  -1   3   35.22    2.97
   5  -1   3   34.73    3.82
   5  -1   3   32.93    3.89
   5  -1   4   67.90    3.42
   5  -1   4   65.88    4.91
   5  -1   4   69.65    4.77
   5  -1   5   77.67    5.07
   5  -1   5   72.33    5.31
   5  -1   6   23.60    4.15
   5  -1   6   28.09    4.06
   5  -1   7  227.30    8.41
   5  -1   7  229.49    8.70
   5  -1   8  187.18    8.11
   5  -1   8  199.09    8.76
   5  -1   9  151.00    7.87
   5  -1   9  169.48    8.81
   5  -1  10  110.27    7.28
   5  -1  10  118.95    7.74
   5  -1  11    7.10    5.04
   5  -1  11   10.65    4.76
   5  -1  12  143.92    8.98
   5   0 -14  260.29   10.91
   5   0 -13   19.85    4.78
   5   0 -12   22.82    4.25
   5   0 -11   35.53    4.26
   5   0 -11   44.21    4.86
   5   0 -10   95.35    5.67
   5   0 -10   93.12    5.86
   5   0  -9   79.07    5.10
   5   0  -9   77.58    5.07
   5   0  -8  491.03   10.97
   5   0  -8  473.33   10.37
   5   0  -7    0.92    2.91
   5   0  -7    2.36    2.76
   5   0  -6   63.00    4.46
   5   0  -6   65.17    4.24
   5   0  -5   85.03    4.95
   5   0  -5   83.99    4.37
   5   0  -4   16.49    2.64
   5   0  -4   19.66    3.12
   5   0  -3  183.17    5.57
   5   0  -3  176.52    6.24
   5   0  -2  318.27    6.98
   5   0  -2  300.79    7.78
   5   0  -1   28.45    2.89
   5   0  -1   27.31    3.09
   5   0  -1   24.33    2.98
   5   0   0  180.10    5.56
   5   0   0  176.99    5.80
   5   0   0  174.99    5.84
   5   0   1   32.74    3.23
   5   0   1   34.15    3.56
   5   0   1   32.54    3.19
   5   0   1   34.31    3.59
   5   0   2  118.81    5.56
   5   0   2  113.90    4.69
   5   0   2  117.23    5.55
   5   0   3   16.22    3.55
   5   0   3   19.78    2.61
   5   0   3   18.20    3.50
   5   0   4   97.51    5.48
   5   0   4  126.69    6.43
   5   0   5  202.62    7.44
   5   0   5  200.60    7.99
   5   0   6  507.51   11.61
   5   0   6  539.53   12.83
   5   0   7  130.49    6.79
   5   0   7  130.82    7.29
   5   0   8   48.87    5.34
   5   0   8   47.17    5.52
   5   0   9  173.08    8.20
   5   0   9  185.36    9.11
   5   0  10    7.62    5.00
   5   0  10    7.00    3.77
   5   0  11   23.45    6.28
   5   0  11   27.68    5.07
   5   1 -14   -2.02    4.27
   5   1 -13    8.70    4.13
   5   1 -12   49.27    5.21
   5   1 -11   14.56    3.60
   5   1 -11   12.70    3.92
   5   1 -10    5.32    3.43
   5   1 -10    6.47    3.56
   5   1  -9    6.57    3.29
   5   1  -9    7.13    3.15
   5   1  -8    7.24    3.15
   5   1  -8    8.91    3.13
   5   1  -7   77.55    5.30
   5   1  -7   79.56    4.88
   5   1  -6   95.62    5.46
   5   1  -6   99.10    5.13
   5   1  -5    1.02    2.91
   5   1  -5    0.43    2.78
   5   1  -4  168.06    6.43
   5   1  -4  167.50    5.95
   5   1  -3  485.60   10.20
   5   1  -3  483.73    9.43
   5   1  -3  476.46    7.83
   5   1  -2  732.75   11.39
   5   1  -2  724.20   11.94
   5   1  -2  722.54   10.20
   5   1  -1  166.35    5.92
   5   1  -1  160.06    5.99
   5   1  -1  166.35    5.62
   5   1   0  106.54    5.00
   5   1   0  102.96    4.97
   5   1   0  106.19    5.22
   5   1   1   79.59    4.41
   5   1   1   92.97    4.93
   5   1   1   85.58    4.81
   5   1   1   85.41    5.16
   5   1   2   15.23    3.67
   5   1   2   16.83    3.05
   5   1   2   19.03    3.41
   5   1   2   16.10    2.96
   5   1   3   -0.93    3.18
   5   1   3    0.04    2.59
   5   1   4    1.45    3.63
   5   1   4    1.49    2.80
   5   1   5   -0.80    3.67
   5   1   5    0.73    3.24
   5   1   6   21.75    4.62
   5   1   6   22.18    4.07
   5   1   7   41.95    4.60
   5   1   7   40.55    5.47
   5   1   8    4.89    4.37
   5   1   8    6.34    3.87
   5   1   9   24.75    5.49
   5   1   9   14.96    4.14
   5   1  10   -2.06    5.00
   5   2 -14    3.39    4.71
  -5  -2  14    7.45    5.48
   5   2 -13    4.00    4.16
   5   2 -12   11.10    4.05
   5   2 -12   12.71    3.99
   5   2 -11   -1.86    3.66
   5   2 -11    1.44    3.32
   5   2 -10   83.20    5.82
   5   2 -10   74.57    5.73
   5   2  -9  206.53    8.06
   5   2  -9  196.12    7.90
   5   2  -8  164.90    7.20
   5   2  -8  170.50    7.15
   5   2  -7  195.98    7.55
   5   2  -7  189.93    7.33
   5   2  -6  135.91    6.48
   5   2  -6  139.97    6.27
   5   2  -5   66.62    4.90
   5   2  -5   70.14    4.90
   5   2  -4   19.26    3.34
   5   2  -4   21.96    3.88
   5   2  -3   54.17    4.64
   5   2  -3   49.37    4.13
   5   2  -3   53.91    3.74
   5   2  -2   75.22    4.89
   5   2  -2   73.83    4.69
   5   2  -2   73.27    4.37
   5   2  -1    2.02    2.64
   5   2  -1    0.35    2.89
   5   2  -1   -0.48    2.70
   5   2   0    3.27    2.87
   5   2   0    6.61    2.97
   5   2   0    3.29    2.78
   5   2   1    4.77    3.16
   5   2   1    5.01    2.88
   5   2   2   83.76    4.65
   5   2   2   87.91    5.67
   5   2   3    1.19    3.42
   5   2   3    2.87    2.75
   5   2   4   39.88    4.09
   5   2   4   44.68    5.04
   5   2   5   26.85    4.73
   5   2   6   53.96    6.11
   5   2   7    6.58    4.31
   5   2   8   43.57    6.22
   5   2   9   -0.73    5.38
   5   3 -14   12.42    4.61
  -5  -3  14   12.32    6.09
   5   3 -13  103.07    7.44
   5   3 -12   75.32    6.58
   5   3 -11   21.48    4.64
   5   3 -10  148.73    7.62
   5   3  -9  173.71    7.83
   5   3  -9  178.32    8.00
   5   3  -8   20.47    3.85
   5   3  -8   21.33    4.06
   5   3  -7  367.70   10.42
   5   3  -7  366.24   10.18
   5   3  -6   64.45    5.14
   5   3  -6   56.56    4.77
   5   3  -5  319.38    9.54
   5   3  -5  311.37    9.10
   5   3  -4   32.28    4.16
   5   3  -3   23.14    3.93
   5   3  -3   30.05    3.38
   5   3  -2  749.26   13.96
   5   3  -2  815.98   12.71
   5   3  -1    3.20    2.88
   5   3  -1    3.90    2.75
   5   3   0   50.63    4.74
   5   3   0   52.91    4.57
   5   3   1   37.41    4.45
   5   3   1   43.62    4.47
   5   3   2  158.58    7.52
   5   3   3  264.10    9.52
   5   3   4  140.00    7.71
   5   3   5  182.23    8.89
   5   3   6   22.19    4.89
   5   3   7   40.21    6.84
  -5  -4  14   78.78    8.11
   5   4 -13  157.04    9.22
   5   4 -12  167.51    9.05
   5   4 -11    2.50    3.94
   5   4 -10    0.60    3.49
   5   4  -9    5.80    3.83
   5   4  -8  169.54    7.95
   5   4  -7    2.08    3.33
   5   4  -6  108.43    6.32
   5   4  -5  385.55   10.84
   5   4  -4  285.43    9.47
   5   4  -3  250.19    8.91
   5   4  -2   51.20    4.97
   5   4  -2   58.84    4.54
   5   4  -1   86.53    5.95
   5   4  -1  113.16    6.10
   5   4   0  186.08    8.17
   5   4   0  194.52    7.96
   5   4   1   48.54    5.32
   5   4   1   54.53    5.47
   5   4   2    3.16    4.05
   5   4   3    5.01    3.84
   5   4   4   11.38    4.92
   5   4   5   40.86    5.97
   5   4   6    8.74    5.46
   5   5 -12  197.21    9.94
   5   5 -11   95.79    7.25
   5   5 -10   62.74    6.13
   5   5  -9   31.99    4.68
   5   5  -8   63.07    5.96
   5   5  -7  110.59    6.88
   5   5  -6   -0.14    3.79
   5   5  -5   24.46    4.40
   5   5  -4   14.71    4.01
   5   5  -3   27.94    4.49
   5   5  -2   60.38    5.76
   5   5  -2   61.05    5.07
   5   5  -1   45.42    5.45
   5   5  -1   42.53    5.03
   5   5   0   61.57    6.07
   5   5   0   62.94    6.02
   5   5   1   -0.94    4.04
   5   5   1    1.23    3.79
   5   5   2   58.84    6.36
   5   5   3    2.87    4.37
   5   5   4   -3.47    4.42
   5   6 -11   28.77    5.62
   5   6 -10   13.05    4.53
   5   6  -9   17.40    4.60
   5   6  -8   77.98    6.76
   5   6  -7   57.35    6.09
   5   6  -6   51.47    5.96
   5   6  -5   20.11    4.76
   5   6  -4    2.16    3.94
   5   6  -3    2.89    3.99
   5   6  -2    2.31    3.91
   5   6  -1   -1.12    4.24
   5   6  -1   -0.02    3.81
   5   6   0   75.29    6.72
   5   6   0   80.65    6.46
   5   6   1    3.80    4.76
   5   6   2   39.02    6.13
   5   7  -9   82.54    7.20
   5   7  -8   -1.91    5.05
   5   7  -7  236.24   11.19
   5   7  -6   13.42    5.31
   5   7  -5   12.81    5.11
   5   7  -4   10.75    5.29
   5   7  -3    4.93    4.97
   5   7  -2   58.79    6.95
   5   7  -1   14.64    4.84
   5   7   0  102.54    8.32
  -6  11   0    2.73    5.11
  -6  11  -1    7.01    5.56
   6 -11   1   15.65    4.94
  -6  11  -2   10.21    5.78
   6 -11   2    5.63    4.70
  -6  11  -3   71.54    7.97
   6 -11   3   69.58    6.86
  -6  11  -4    8.11    6.19
   6 -11   4    7.37    4.42
  -6  11  -5  162.42    9.95
   6 -11   5  158.96    8.74
  -6  11  -6   52.41    7.17
   6 -11   6   47.32    6.10
   6 -11   7   12.99    4.69
   6 -11   8    1.14    4.19
  -6  10   5    0.53    5.35
  -6  10   4    1.55    5.29
   6 -10  -4    0.13    4.30
  -6  10   3   70.85    7.38
   6 -10  -3   74.49    6.80
  -6  10   2  102.46    8.23
   6 -10  -2  107.09    7.60
  -6  10   1   12.21    5.62
   6 -10  -1   11.31    4.67
  -6  10   0   15.89    5.74
   6 -10   0   13.44    4.31
  -6  10  -1  227.14   10.61
   6 -10   1  215.83    9.64
  -6  10  -2   64.88    6.82
   6 -10   2   63.03    6.10
  -6  10  -3  164.74    9.10
   6 -10   3  151.44    8.10
  -6  10  -4  102.95    7.91
   6 -10   4   89.67    6.76
   6 -10   5  105.24    7.05
   6 -10   6   44.13    5.28
   6 -10   7    7.93    3.93
   6  -9  -6   97.14    7.40
  -6   9   5   90.21    7.34
   6  -9  -5   88.48    6.82
   6  -9  -4   17.88    4.54
  -6   9   4   18.89    5.47
  -6   9   3   26.37    5.51
   6  -9  -3   23.34    4.79
  -6   9   2   61.72    6.66
   6  -9  -2   67.12    6.04
  -6   9   1   -0.53    4.61
   6  -9  -1    0.89    3.61
  -6   9   0    3.42    4.44
   6  -9   0    1.34    3.65
  -6   9  -1    9.15    4.68
   6  -9   1    3.63    3.87
  -6   9  -2   58.17    6.04
   6  -9   2   58.33    5.63
   6  -9   3   44.21    5.19
   6  -9   4    2.34    3.83
   6  -9   5   -0.02    3.33
   6  -9   6   21.28    4.19
   6  -9   7   97.57    6.11
   6  -9   9   13.24    4.26
   6  -9  10   31.22    5.32
   6  -9  11  170.29    9.39
   6  -8  -7    3.07    3.99
   6  -8  -6    1.44    3.74
   6  -8  -5   18.68    4.08
  -6   8   5   13.90    4.34
   6  -8  -4   16.32    4.53
  -6   8   4   22.59    5.03
   6  -8  -3   13.82    3.91
  -6   8   3   14.68    4.44
  -6   8   2    3.95    4.09
   6  -8  -2    4.95    3.70
  -6   8   1  391.15   11.73
   6  -8  -1  371.98   10.91
  -6   8   0   71.43    6.01
   6  -8   0   68.44    5.66
   6  -8   1    2.36    3.47
   6  -8   2   32.11    4.45
   6  -8   3    0.57    3.15
   6  -8   4  190.32    7.65
   6  -8   4  178.63    7.51
   6  -8   5   46.68    4.47
   6  -8   5   49.82    4.87
   6  -8   6   23.41    3.89
   6  -8   6   24.08    4.30
   6  -8   7   -1.36    3.10
   6  -8   7   -0.23    3.58
   6  -8   8  153.86    7.88
   6  -8   9  236.56    9.93
   6  -8  10  427.21   13.06
   6  -8  11   -0.68    4.37
   6  -7  -8   21.39    4.52
   6  -7  -7  139.01    7.56
   6  -7  -6  123.31    6.97
   6  -7  -5    3.87    3.50
  -6   7   5    7.47    3.66
  -6   7   4  115.54    6.85
   6  -7  -4  117.05    6.57
   6  -7  -3    5.80    3.65
  -6   7   3    3.09    3.80
  -6   7   2  136.06    7.07
   6  -7  -2  125.70    6.75
  -6   7   1  177.65    7.89
   6  -7  -1  193.62    7.83
   6  -7   0   -0.03    3.17
   6  -7   1  325.28    9.48
   6  -7   2  204.31    7.66
   6  -7   3  101.17    5.60
   6  -7   3   97.49    5.66
   6  -7   4   22.45    3.67
   6  -7   4   22.08    3.65
   6  -7   5  321.43    9.04
   6  -7   5  332.68    9.89
   6  -7   6  286.45    8.50
   6  -7   6  261.04    9.39
   6  -7   7  177.09    8.08
   6  -7   8    4.78    3.79
   6  -7   9    3.33    3.85
   6  -7  10    3.18    4.34
   6  -7  11    1.08    4.22
   6  -6  -8  263.02    9.55
   6  -6  -7   56.97    5.13
   6  -6  -6  171.08    7.63
   6  -6  -5  105.39    6.17
   6  -6  -4  122.53    6.38
  -6   6   4  127.03    6.39
   6  -6  -3   14.06    3.63
  -6   6   3   14.80    3.69
   6  -6  -2   -1.38    2.80
  -6   6   2   -0.44    3.10
   6  -6  -1  137.61    6.44
   6  -6   0   54.15    4.72
   6  -6   1   47.61    4.30
   6  -6   2    3.02    2.98
   6  -6   3    7.04    3.03
   6  -6   3    8.59    3.45
   6  -6   4   -1.34    2.56
   6  -6   4    1.88    2.73
   6  -6   5    6.44    2.58
   6  -6   5   10.84    3.34
   6  -6   6   27.92    3.37
   6  -6   6   19.82    3.79
   6  -6   7   36.60    4.67
   6  -6   8  186.88    8.54
   6  -6   9   33.27    4.84
   6  -6  10   32.72    5.33
   6  -6  11   93.70    7.24
   6  -5  -9    0.33    3.30
   6  -5  -8   53.82    5.06
   6  -5  -7   47.60    4.72
   6  -5  -6  152.98    7.16
   6  -5  -5    4.21    3.28
  -6   5   4    2.46    3.07
   6  -5  -4    0.42    2.84
   6  -5  -3   15.67    3.46
   6  -5  -2   12.78    3.52
   6  -5  -1    9.07    3.06
   6  -5   0   66.06    4.74
   6  -5   1  180.99    6.76
   6  -5   2  265.12    7.76
   6  -5   2  282.84    8.74
   6  -5   3    2.30    2.69
   6  -5   3    3.48    3.19
   6  -5   4    2.93    2.58
   6  -5   4    2.16    2.99
   6  -5   5    8.04    3.24
   6  -5   5    7.10    2.57
   6  -5   6  443.54   11.69
   6  -5   7   99.04    6.43
   6  -5   8    4.74    4.19
   6  -5   9  132.09    7.73
   6  -5  10    1.57    4.06
   6  -5  11   47.25    5.91
   6  -4  -9  127.71    6.95
   6  -4  -8   15.88    4.03
   6  -4  -7    3.65    3.24
   6  -4  -6    2.71    2.87
   6  -4  -5   39.70    4.18
   6  -4  -4  794.46   13.89
   6  -4  -3    2.10    2.80
   6  -4  -2  208.34    7.29
   6  -4  -1  592.52   11.34
   6  -4   0  422.82    9.48
   6  -4   1  949.77   13.68
   6  -4   2  188.44    6.39
   6  -4   2  170.55    7.09
   6  -4   3  799.36   12.14
   6  -4   3  812.58   14.44
   6  -4   4   62.67    4.98
   6  -4   4   61.89    3.98
   6  -4   5  128.61    6.56
   6  -4   6    6.81    3.82
   6  -4   7  245.99    9.33
   6  -4   8    8.38    3.76
   6  -4   9    2.30    3.86
   6  -4  10   70.06    6.49
   6  -4  11   10.11    4.76
   6  -3 -10   33.42    4.56
   6  -3  -9   13.34    3.62
   6  -3  -8  111.51    6.36
   6  -3  -7    1.20    3.11
   6  -3  -6    8.15    3.20
   6  -3  -5  152.59    6.65
   6  -3  -4  738.49   13.28
   6  -3  -3  543.29   11.24
   6  -3  -2   78.62    4.96
   6  -3  -1  445.57    9.81
   6  -3   0  253.91    7.41
   6  -3   1  132.76    6.23
   6  -3   1  138.08    5.69
   6  -3   2   10.11    2.93
   6  -3   2    8.29    3.24
   6  -3   3    5.37    2.72
   6  -3   3    3.48    3.25
   6  -3   4    0.27    2.42
   6  -3   4    0.17    3.18
   6  -3   5  256.86    8.89
   6  -3   6   71.07    5.53
   6  -3   7  127.88    7.18
   6  -3   8   19.67    4.52
   6  -3   9   37.68    5.41
   6  -3  10   38.63    5.77
   6  -3  11    1.35    4.57
   6  -2 -13   76.36    6.15
   6  -2 -12   30.88    4.94
   6  -2 -11   44.18    4.87
   6  -2 -11   41.43    4.95
   6  -2 -10    7.41    3.74
   6  -2 -10    2.77    3.59
   6  -2  -9   61.28    5.15
   6  -2  -9   60.26    4.61
   6  -2  -8   92.90    5.82
   6  -2  -8   96.08    5.25
   6  -2  -7  158.84    6.00
   6  -2  -7  154.95    6.96
   6  -2  -6   95.04    4.65
   6  -2  -6   87.11    5.60
   6  -2  -5   17.51    3.60
   6  -2  -5   21.13    2.77
   6  -2  -4  129.40    4.64
   6  -2  -4  126.57    6.13
   6  -2  -3    0.27    1.90
   6  -2  -3    0.44    3.11
   6  -2  -2    0.41    1.84
   6  -2  -2    1.10    2.86
   6  -2  -1  171.41    4.66
   6  -2  -1  164.80    6.46
   6  -2   0   38.99    3.81
   6  -2   1   28.00    3.88
   6  -2   1   25.69    3.46
   6  -2   2   89.94    5.46
   6  -2   2   89.04    4.68
   6  -2   3   32.34    4.17
   6  -2   3   37.15    3.44
   6  -2   4   68.03    5.09
   6  -2   5   71.68    5.40
   6  -2   6  101.88    6.39
   6  -2   7   10.21    3.95
   6  -2   8    4.11    3.82
   6  -2   9   62.53    6.25
   6  -2  10   95.90    7.34
   6  -2  11   82.44    7.50
   6  -1 -14   -2.57    4.66
   6  -1 -13   14.62    4.37
   6  -1 -12    3.51    3.75
   6  -1 -11    4.20    3.46
   6  -1 -11    3.45    3.45
   6  -1 -10    2.23    3.30
   6  -1 -10    2.28    3.10
   6  -1  -9   23.76    3.99
   6  -1  -9   23.03    3.69
   6  -1  -8    0.96    2.85
   6  -1  -8   -0.79    3.14
   6  -1  -7   22.49    3.19
   6  -1  -7   20.62    3.63
   6  -1  -6    1.39    2.23
   6  -1  -6    0.28    2.97
   6  -1  -5   36.75    3.42
   6  -1  -5   31.40    4.03
   6  -1  -4   47.90    3.63
   6  -1  -4   45.82    4.46
   6  -1  -3 1140.40   13.24
   6  -1  -3 1135.68   16.05
   6  -1  -2   36.01    3.10
   6  -1  -2   39.91    3.87
   6  -1  -1  206.94    5.80
   6  -1  -1  197.78    6.88
   6  -1   0   -0.12    2.66
   6  -1   0    0.44    2.25
   6  -1   1    2.92    2.64
   6  -1   1    0.37    2.91
   6  -1   1    2.27    2.25
   6  -1   2  343.20    9.38
   6  -1   2  357.44    8.30
   6  -1   3    4.70    2.51
   6  -1   3    2.53    3.25
   6  -1   3    3.41    3.38
   6  -1   4   61.69    5.09
   6  -1   4   61.47    5.28
   6  -1   5    6.76    3.80
   6  -1   5    5.29    3.53
   6  -1   6   50.72    5.14
   6  -1   6   53.57    5.56
   6  -1   7  130.68    7.48
   6  -1   7  134.35    9.10
   6  -1   8  679.59   15.47
   6  -1   8  737.12   16.77
   6  -1   9   56.48    5.93
   6  -1   9   54.29    6.18
   6  -1  10    3.93    4.28
   6   0 -14  142.52    8.54
   6   0 -13   32.60    5.45
   6   0 -12    2.75    3.29
   6   0 -12    7.07    4.13
   6   0 -11   60.30    5.55
   6   0 -11   63.71    5.58
   6   0 -10   31.90    4.48
   6   0 -10   34.49    4.32
   6   0  -9  140.55    7.17
   6   0  -9  147.50    6.89
   6   0  -8  582.28   12.97
   6   0  -8  589.72   12.17
   6   0  -7  178.35    7.47
   6   0  -7  188.31    6.95
   6   0  -6  423.62   10.63
   6   0  -6  432.20    9.74
   6   0  -5   16.02    3.04
   6   0  -5   16.58    3.49
   6   0  -4  803.67   12.24
   6   0  -4  807.72   13.89
   6   0  -3   15.28    2.97
   6   0  -3   15.91    3.58
   6   0  -2  103.56    4.92
   6   0  -2   99.54    5.43
   6   0  -1   48.95    3.87
   6   0  -1   48.06    4.09
   6   0   0  144.88    5.68
   6   0   0  147.90    6.08
   6   0   0  145.17    6.06
   6   0   1  428.36    9.21
   6   0   1  425.18    9.30
   6   0   1  425.82   10.15
   6   0   2    0.95    2.39
   6   0   2   -0.53    2.96
   6   0   2    3.37    2.95
   6   0   3   25.03    4.08
   6   0   3   23.36    4.13
   6   0   4   52.02    4.73
   6   0   4   53.31    5.17
   6   0   5   78.98    5.73
   6   0   5   72.66    5.66
   6   0   6    0.45    4.02
   6   0   6   -2.98    3.23
   6   0   7    6.98    4.19
   6   0   7   11.61    4.25
   6   0   8   82.76    6.46
   6   0   8   81.48    6.50
   6   0   9   85.16    6.95
   6   0   9   85.92    7.95
   6   0  10   26.22    4.64
   6   1 -14   52.52    6.34
   6   1 -13   40.00    5.70
   6   1 -12   17.51    4.74
   6   1 -12   14.88    4.27
   6   1 -11   97.00    6.45
   6   1 -11  103.16    6.77
   6   1 -10  316.40   10.47
   6   1 -10  320.29   10.24
   6   1  -9  359.14   10.86
   6   1  -9  366.33   10.54
   6   1  -8  130.64    6.94
   6   1  -8  135.23    6.66
   6   1  -7   66.15    5.22
   6   1  -7   69.22    5.10
   6   1  -6  147.09    6.95
   6   1  -6  132.12    6.21
   6   1  -5   16.12    3.47
   6   1  -5   14.01    3.07
   6   1  -4   15.79    3.43
   6   1  -4   12.58    3.18
   6   1  -3  146.56    6.65
   6   1  -3  156.81    6.28
   6   1  -2   33.52    3.83
   6   1  -2   26.65    3.71
   6   1  -2   33.76    3.44
   6   1  -1   31.52    3.77
   6   1  -1   32.12    3.89
   6   1  -1   39.90    3.94
   6   1   0   24.83    3.59
   6   1   0   29.48    3.59
   6   1   0   29.32    3.77
   6   1   1   12.31    3.77
   6   1   1   12.89    2.99
   6   1   1   10.92    3.13
   6   1   2   26.15    4.06
   6   1   2   25.93    3.35
   6   1   2   24.35    3.61
   6   1   3    6.96    3.64
   6   1   3    4.47    3.16
   6   1   4    5.01    3.80
   6   1   4    2.39    2.83
   6   1   5   15.26    4.34
   6   1   5   13.70    3.55
   6   1   6  109.84    6.60
   6   1   6  131.40    7.84
   6   1   7  105.78    7.64
   6   1   8   67.70    7.59
   6   2 -13    7.29    4.25
   6   2 -13    8.19    4.37
   6   2 -12   45.24    5.49
   6   2 -12   42.62    5.42
   6   2 -11   13.25    4.08
   6   2 -11   19.55    4.65
   6   2 -10   -0.31    3.63
   6   2 -10    3.14    3.74
   6   2  -9    7.94    3.70
   6   2  -9    6.69    3.79
   6   2  -8    5.61    3.41
   6   2  -8    5.31    3.61
   6   2  -7    7.55    3.38
   6   2  -7    7.10    3.68
   6   2  -6   74.87    5.64
   6   2  -6   70.55    5.09
   6   2  -5   52.37    4.83
   6   2  -5   49.38    4.33
   6   2  -4  121.44    6.52
   6   2  -4  126.99    6.26
   6   2  -3   42.59    4.44
   6   2  -3   37.77    4.17
   6   2  -2    0.57    2.86
   6   2  -2    0.69    2.72
   6   2  -2    3.94    2.98
   6   2  -1   67.48    4.95
   6   2  -1   64.68    5.06
   6   2  -1   66.39    4.73
   6   2   0  110.53    6.12
   6   2   0  108.38    6.16
   6   2   1   85.21    5.68
   6   2   1   98.93    6.05
   6   2   2   -0.48    3.58
   6   2   3   39.92    5.28
   6   2   4  159.45    8.37
   6   2   5  197.65    9.46
   6   2   6   50.25    6.40
   6   2   7   27.12    5.68
   6   3 -13   20.76    5.61
   6   3 -12   87.82    7.21
   6   3 -11    0.00    4.02
   6   3 -10   22.11    4.66
   6   3 -10   26.55    4.71
   6   3  -9    6.04    3.93
   6   3  -9    4.29    4.05
   6   3  -8   59.17    5.89
   6   3  -8   58.17    5.60
   6   3  -7  113.20    7.02
   6   3  -7  110.63    6.59
   6   3  -6    7.83    3.92
   6   3  -6    9.48    3.89
   6   3  -5   12.17    4.12
   6   3  -5   15.90    4.01
   6   3  -4  191.50    8.26
   6   3  -3  227.74    8.76
   6   3  -2  293.42    9.80
   6   3  -1  338.28   10.39
   6   3  -1  339.84    9.70
   6   3   0    7.32    3.58
   6   3   0    3.80    3.53
   6   3   1  248.43    9.41
   6   3   1  270.00    9.72
   6   3   2   24.66    4.85
   6   3   3  113.54    7.55
   6   3   4    1.09    4.34
   6   3   5  100.26    7.77
   6   3   6   15.74    5.67
   6   4 -12    7.55    4.27
   6   4 -11   47.76    6.00
   6   4 -10  106.28    7.45
   6   4  -9  134.06    7.88
   6   4  -8   39.73    5.14
   6   4  -7   20.04    4.40
   6   4  -6   84.48    6.29
   6   4  -5  155.08    8.10
   6   4  -4    0.63    3.82
   6   4  -3   22.55    4.57
   6   4  -2   12.23    4.07
   6   4  -1    2.32    3.62
   6   4  -1    1.29    3.57
   6   4   0    1.34    4.04
   6   4   0   -0.19    3.65
   6   4   1   19.98    4.74
   6   4   1   26.47    5.19
   6   4   2    0.60    4.37
   6   4   3   28.65    5.41
   6   4   4  102.90    8.35
   6   5 -11    0.59    4.74
   6   5 -10    6.26    3.91
   6   5  -9   -0.07    4.60
   6   5  -8    4.45    4.27
   6   5  -7    6.72    4.35
   6   5  -6    6.08    4.40
   6   5  -5    3.13    3.89
   6   5  -4   -0.71    4.11
   6   5  -3   10.83    4.60
   6   5  -2    8.51    4.23
   6   5  -1   18.72    5.03
   6   5   0   13.47    4.33
   6   5   0    7.13    4.86
   6   5   1   45.47    6.25
   6   5   2   30.16    5.96
   6   6  -8    8.51    4.11
   6   6  -7   27.64    5.14
   6   6  -6    5.61    4.82
   6   6  -5   58.99    6.63
   6   6  -4    7.37    4.69
   6   6  -3   37.03    5.88
   6   6  -2   15.21    4.88
   6   6   0  110.17    7.73
   7 -11   3  154.51    8.80
   7 -11   4  173.66    9.26
   7 -11   5    6.30    4.48
   7 -11   6    3.17    4.69
   7 -11   7   29.24    5.27
  -7  10   4  113.63    8.28
  -7  10   3   97.85    8.22
   7 -10  -2   30.96    5.70
  -7  10   2   27.82    6.07
  -7  10   1    3.91    4.97
   7 -10  -1    1.56    4.20
  -7  10   0    7.34    5.66
   7 -10   0   13.97    4.74
  -7  10  -1   -2.94    4.40
   7 -10   1    0.74    3.92
  -7  10  -2   13.20    5.16
   7 -10   2    8.75    4.51
   7 -10   3   50.75    5.95
  -7  10  -3   43.30    6.47
   7 -10   4   31.46    5.26
   7 -10   5   63.86    5.81
   7 -10   6   21.91    4.61
   7 -10   7   76.60    6.07
   7  -9  -5    1.78    3.91
   7  -9  -4   16.28    4.78
  -7   9   4   15.44    5.36
   7  -9  -3    1.52    4.30
  -7   9   3   -0.23    4.62
   7  -9  -2    2.11    4.10
  -7   9   2    1.56    4.60
   7  -9  -1   -1.17    4.22
  -7   9   1  -11.73    4.70
   7  -9   0   13.55    4.41
  -7   9   0    8.03    4.93
  -7   9  -1  172.38    8.89
   7  -9   1  171.82    8.42
   7  -9   2  113.64    7.16
   7  -9   3  229.38    9.31
   7  -9   4   43.63    5.01
   7  -9   5  153.97    7.84
   7  -9   6  186.14    8.42
   7  -9   6  188.95    8.52
   7  -9   7   10.00    4.00
   7  -9   8    2.40    3.96
   7  -9   9   34.69    5.68
   7  -9  10    5.90    4.95
   7  -8  -8    4.18    4.17
   7  -8  -7   67.31    6.45
   7  -8  -6   12.18    4.09
   7  -8  -5   70.42    6.40
   7  -8  -4   41.18    5.30
  -7   8   3   90.76    6.81
   7  -8  -3   96.41    6.70
   7  -8  -2   20.23    4.26
  -7   8   2   18.29    4.67
  -7   8   1   45.07    5.52
   7  -8  -1   47.29    5.99
   7  -8   0  559.54   13.70
   7  -8   1   32.09    4.60
   7  -8   2   47.52    5.03
   7  -8   3   14.83    3.98
   7  -8   4   89.97    6.18
   7  -8   4   84.80    6.20
   7  -8   5   77.18    5.42
   7  -8   5   75.34    5.94
   7  -8   6  139.26    6.88
   7  -8   6  130.38    7.30
   7  -8   7    0.28    3.57
   7  -8   8   33.20    4.99
   7  -8   9    4.09    4.12
   7  -8  10   24.76    5.36
   7  -7  -8   42.82    5.43
   7  -7  -7   39.58    5.23
   7  -7  -6  296.84   10.63
   7  -7  -5  179.62    8.26
   7  -7  -4   16.08    4.09
   7  -7  -3    4.46    3.57
  -7   7   3   -0.14    3.27
   7  -7  -2   13.80    4.05
  -7   7   2   16.25    4.94
   7  -7  -1   32.68    4.60
   7  -7   0   27.39    4.14
   7  -7   1    8.55    3.60
   7  -7   2    8.40    3.55
   7  -7   3    5.77    3.40
   7  -7   4   11.48    3.59
   7  -7   4   13.03    3.75
   7  -7   5    4.80    3.24
   7  -7   5    4.14    3.71
   7  -7   6    1.22    3.43
   7  -7   7   12.51    4.42
   7  -7   8  203.51    9.42
   7  -7   9  110.45    7.69
   7  -7  10   89.47    7.58
   7  -6  -9    3.44    3.79
   7  -6  -8   21.73    4.48
   7  -6  -7    4.27    3.19
   7  -6  -6    9.50    4.03
   7  -6  -5   18.29    4.18
   7  -6  -4   61.40    5.38
  -7   6   3    5.46    3.72
   7  -6  -3    6.13    3.31
   7  -6  -2   81.63    5.62
   7  -6  -1   89.51    5.73
   7  -6   0  447.60   11.21
   7  -6   1  325.71    9.56
   7  -6   2  157.15    6.99
   7  -6   3  147.05    6.51
   7  -6   3  152.92    7.51
   7  -6   4   34.20    3.92
   7  -6   4   31.12    4.68
   7  -6   5   51.32    4.40
   7  -6   5   48.94    5.32
   7  -6   6    8.65    3.97
   7  -6   7    0.70    4.05
   7  -6   8    6.19    4.34
   7  -6   9   60.00    6.35
   7  -6  10   53.15    6.26
   7  -5  -9    4.42    3.94
   7  -5  -8    8.77    3.97
   7  -5  -7   71.72    5.97
   7  -5  -6  126.12    7.09
   7  -5  -5   56.88    5.22
   7  -5  -4  180.33    7.91
   7  -5  -3  109.18    6.20
   7  -5  -2   31.49    4.17
   7  -5  -1   29.93    4.12
   7  -5   0  279.46    8.75
   7  -5   1   45.74    4.31
   7  -5   2   57.60    4.45
   7  -5   3    5.15    3.70
   7  -5   3    5.99    2.98
   7  -5   4    3.99    3.57
   7  -5   4    2.78    2.62
   7  -5   5   69.86    5.69
   7  -5   6  190.01    8.68
   7  -5   7   93.78    6.85
   7  -5   8   42.63    5.89
   7  -5   9    0.71    4.22
   7  -5  10   25.13    5.94
   7  -4 -10    2.80    3.53
   7  -4  -9   54.89    5.57
   7  -4  -8    3.10    3.49
   7  -4  -7  241.56    9.16
   7  -4  -6    3.38    3.45
   7  -4  -5  107.20    6.31
   7  -4  -4    3.13    3.04
   7  -4  -3  132.88    6.64
   7  -4  -2  209.94    7.89
   7  -4  -1  436.12   10.69
   7  -4   0  143.70    6.50
   7  -4   1   42.39    4.11
   7  -4   2   39.22    4.59
   7  -4   2   35.45    3.78
   7  -4   3   26.36    3.65
   7  -4   3   24.67    4.46
   7  -4   4    2.71    2.68
   7  -4   4   -0.30    3.34
   7  -4   5  645.76   14.40
   7  -4   6    4.37    4.02
   7  -4   7   48.51    5.79
   7  -4   8  138.91    8.17
   7  -4   9   34.57    5.80
   7  -4  10   25.31    5.54
   7  -3 -11    2.92    3.79
   7  -3 -10  124.90    7.32
   7  -3  -9   68.47    5.89
   7  -3  -8   34.66    4.96
   7  -3  -7    1.72    3.19
   7  -3  -6  115.97    6.74
   7  -3  -5  196.32    8.04
   7  -3  -4   42.38    4.65
   7  -3  -3   34.99    4.24
   7  -3  -2  276.10    8.83
   7  -3  -1  338.11    9.46
   7  -3   0  228.20    7.84
   7  -3   1  126.26    5.88
   7  -3   2  175.83    7.63
   7  -3   2  183.83    6.82
   7  -3   3  250.58    8.94
   7  -3   3  254.62    7.75
   7  -3   4   38.20    4.83
   7  -3   5   23.35    4.51
   7  -3   6   11.35    4.30
   7  -3   7   95.37    7.06
   7  -3   8   73.27    6.85
   7  -3   9   19.29    4.90
   7  -3  10    6.53    4.70
   7  -2 -11   15.09    4.24
   7  -2 -10   51.65    5.31
   7  -2  -9  129.69    7.34
   7  -2  -8  150.83    7.64
   7  -2  -7   81.08    5.98
   7  -2  -6   35.17    4.45
   7  -2  -5  147.90    7.19
   7  -2  -4   43.61    4.69
   7  -2  -3  108.82    5.96
   7  -2  -2   13.36    3.27
   7  -2  -1   35.35    4.00
   7  -2   0  105.16    5.60
   7  -2   1  107.18    5.52
   7  -2   2   87.37    5.89
   7  -2   2   85.50    4.91
   7  -2   3   -0.61    2.45
   7  -2   3   -1.69    3.26
   7  -2   4   60.05    5.31
   7  -2   5    7.95    3.36
   7  -2   6    4.30    3.69
   7  -2   7   10.22    4.32
   7  -2   8   47.88    6.00
   7  -2   9   -3.80    4.49
   7  -1 -12   -0.72    4.00
   7  -1 -11   30.60    5.10
   7  -1 -10  126.88    7.51
   7  -1  -9  291.40   10.26
   7  -1  -9  297.85    9.47
   7  -1  -8   34.66    4.57
   7  -1  -8   40.20    4.35
   7  -1  -7   76.31    5.76
   7  -1  -7   75.29    4.87
   7  -1  -6   21.38    3.97
   7  -1  -5  320.59    9.91
   7  -1  -4   28.58    4.08
   7  -1  -3  293.23    9.03
   7  -1  -2   10.24    3.17
   7  -1  -1   70.54    4.83
   7  -1   0   17.42    3.41
   7  -1   1   30.34    3.72
   7  -1   2   51.04    5.01
   7  -1   2   54.85    4.32
   7  -1   3  246.82    9.18
   7  -1   4    9.94    3.83
   7  -1   5   48.21    5.09
   7  -1   6    4.00    3.93
   7  -1   7    6.09    4.14
   7  -1   8   68.85    6.61
   7  -1   9   76.11    7.13
   7   0 -13  108.94    7.21
   7   0 -12  174.57    9.06
   7   0 -12  165.87    8.59
   7   0 -11  144.56    8.21
   7   0 -11  134.34    7.46
   7   0 -10  143.86    8.00
   7   0 -10  149.76    7.54
   7   0  -9    0.34    3.88
   7   0  -9    1.31    3.70
   7   0  -8  155.06    7.86
   7   0  -8  150.79    6.83
   7   0  -7   18.42    4.12
   7   0  -7   21.16    2.69
   7   0  -6   11.65    3.33
   7   0  -6    9.59    3.90
   7   0  -5   69.10    4.74
   7   0  -5   65.32    5.37
   7   0  -4  446.39   10.12
   7   0  -4  442.20   11.53
   7   0  -3    3.44    2.76
   7   0  -3    7.38    3.15
   7   0  -2   60.03    4.35
   7   0  -2   60.90    4.85
   7   0  -1    2.81    2.80
   7   0  -1    1.63    2.66
   7   0   0    5.07    2.99
   7   0   0    2.86    2.71
   7   0   1    0.18    2.98
   7   0   1   -0.36    3.41
   7   0   1    2.14    3.03
   7   0   2   17.43    4.10
   7   0   2   17.79    3.85
   7   0   3   33.79    4.66
   7   0   3   30.36    4.14
   7   0   4   63.25    5.83
   7   0   4   74.38    5.97
   7   0   5   31.62    5.55
   7   0   5   32.41    4.89
   7   0   6  157.14    8.25
   7   0   6  172.57    9.38
   7   0   7  294.18   10.93
   7   0   7  315.65   12.40
   7   0   8   75.16    6.76
   7   1 -13    2.46    4.44
   7   1 -13   -1.28    4.47
   7   1 -12    2.08    4.07
   7   1 -12    0.17    3.99
   7   1 -11    9.85    4.00
   7   1 -11   14.51    4.63
   7   1 -10   26.08    4.89
   7   1 -10   27.61    4.67
   7   1  -9   88.37    6.74
   7   1  -9   96.09    6.39
   7   1  -8   85.08    6.28
   7   1  -8   87.91    5.92
   7   1  -7   35.88    4.75
   7   1  -7   36.67    4.64
   7   1  -6  182.71    8.42
   7   1  -6  178.48    7.38
   7   1  -5   76.18    6.01
   7   1  -5   72.60    5.15
   7   1  -4   44.05    5.02
   7   1  -4   40.48    4.46
   7   1  -3   19.44    4.13
   7   1  -3   15.26    3.54
   7   1  -2   66.94    5.14
   7   1  -2   66.17    5.11
   7   1  -1  129.78    6.47
   7   1  -1  142.97    6.91
   7   1  -1  149.69    6.75
   7   1   0   65.67    5.09
   7   1   0   72.50    5.24
   7   1   0   72.39    5.27
   7   1   1   31.93    4.56
   7   1   1   28.26    4.35
   7   1   1   32.32    4.08
   7   1   2   24.59    4.48
   7   1   3   19.02    4.54
   7   1   3   15.67    4.09
   7   1   4   12.26    4.43
   7   1   4    8.58    3.98
   7   1   5    2.93    4.28
   7   1   6    2.90    5.02
   7   2 -12   51.76    6.38
   7   2 -12   48.94    5.98
   7   2 -11   64.51    6.61
   7   2 -11   65.26    6.38
   7   2 -10   24.98    4.91
   7   2 -10   26.77    5.01
   7   2  -9   57.77    6.11
   7   2  -9   62.59    5.66
   7   2  -8   66.38    6.12
   7   2  -8   77.02    5.88
   7   2  -7   27.86    4.51
   7   2  -7   26.64    4.69
   7   2  -6   23.50    4.22
   7   2  -6   26.15    4.85
   7   2  -5    9.36    3.40
   7   2  -5   10.54    4.24
   7   2  -4   -0.81    3.25
   7   2  -4   -0.97    3.50
   7   2  -3   14.90    3.75
   7   2  -3   18.09    3.98
   7   2  -2   32.72    4.61
   7   2  -2   32.97    4.52
   7   2  -1   75.24    5.90
   7   2  -1   72.84    5.85
   7   2   0  100.40    6.63
   7   2   0  116.66    6.65
   7   2   1    3.47    3.59
   7   2   1    4.55    3.41
   7   2   2    3.51    4.68
   7   2   3   47.47    5.70
   7   2   4   61.61    6.48
   7   2   5    6.08    5.42
   7   3 -11    2.41    4.18
   7   3 -10    5.22    4.15
   7   3  -9   57.83    6.36
   7   3  -9   61.25    5.69
   7   3  -8    0.20    3.69
   7   3  -8    1.01    4.14
   7   3  -7   57.09    6.19
   7   3  -7   48.38    5.39
   7   3  -6    6.56    3.59
   7   3  -6    8.79    3.59
   7   3  -5   10.77    4.17
   7   3  -4   13.39    3.78
   7   3  -3  344.59   11.06
   7   3  -2    2.61    3.76
   7   3  -1  124.52    7.31
   7   3   0  173.01    8.36
   7   3   0  191.73    8.84
   7   3   1   97.68    7.09
   7   3   2   -0.41    4.89
   7   3   3  468.27   14.35
   7   3   4   93.13    7.71
   7   4 -10   26.65    5.13
   7   4  -9   26.35    5.41
   7   4  -8   14.01    4.60
   7   4  -7   -1.41    3.83
   7   4  -6    4.93    4.27
   7   4  -5    2.51    4.44
   7   4  -4   78.42    6.52
   7   4  -3  222.01    9.84
   7   4  -2  219.53   10.20
   7   4  -1   61.67    6.23
   7   4   0   35.85    5.66
   7   4   1   71.86    7.04
   7   4   2   58.97    7.01
   7   5  -7    5.77    4.48
   7   5  -6    1.30    4.97
   7   5  -5   23.25    5.67
   7   5  -4   15.99    5.44
   7   5  -3   13.66    5.37
   7   5  -2   15.94    5.86
  -8  10   2    6.94    5.73
  -8  10   1  131.07    8.94
  -8  10   0   18.27    6.15
  -8  10  -1  155.23    9.63
   8 -10   1  138.14    8.45
  -8  10  -2  105.55    8.07
   8 -10   2  110.68    7.58
   8 -10   3  148.87    8.46
   8 -10   4   96.64    7.12
   8 -10   5   15.73    4.90
   8 -10   6   90.43    6.99
   8  -9  -3    1.18    4.05
   8  -9  -2    8.21    4.47
  -8   9   2   12.21    5.08
   8  -9  -1   55.11    5.86
  -8   9   1   59.90    6.50
   8  -9   0   12.66    4.62
  -8   9   0   18.19    5.23
   8  -9   1    0.68    4.33
   8  -9   2   -1.56    3.87
   8  -9   3   -3.26    4.31
   8  -9   4   -1.21    3.63
   8  -9   5   39.50    5.21
   8  -9   6   14.25    4.44
   8  -9   7   38.72    6.05
   8  -9   8  121.81    8.40
   8  -8  -5    3.05    4.62
   8  -8  -4   80.18    7.13
   8  -8  -3   13.58    4.31
   8  -8  -2   99.21    7.16
  -8   8   2  106.77    7.35
   8  -8  -1  173.29    8.66
   8  -8   0  234.89    9.80
   8  -8   1   43.46    5.21
   8  -8   2  156.88    8.08
   8  -8   3    3.80    3.61
   8  -8   4   69.16    5.67
   8  -8   5    0.30    3.66
   8  -8   5   -0.66    3.71
   8  -8   6   15.92    4.08
   8  -8   7   -8.16    4.13
   8  -8   8   -0.13    4.42
   8  -7  -7   23.10    5.00
   8  -7  -6   41.13    5.29
   8  -7  -5   49.49    5.65
   8  -7  -4  184.63    8.95
   8  -7  -3    2.87    3.70
   8  -7  -2  261.94    9.98
   8  -7  -1  243.90    9.64
   8  -7   0    9.77    3.93
   8  -7   1    3.48    3.72
   8  -7   2   27.21    4.42
   8  -7   3  165.09    7.66
   8  -7   4   18.40    4.61
   8  -7   4   21.53    4.02
   8  -7   5    0.72    3.95
   8  -7   6    1.39    3.70
   8  -7   7   12.02    4.59
   8  -7   8   32.47    6.02
   8  -6  -8  162.00    8.87
   8  -6  -7  220.09   10.27
   8  -6  -6  204.87    9.60
   8  -6  -5  118.68    7.22
   8  -6  -4  137.24    7.53
   8  -6  -3  225.10    9.28
   8  -6  -2   28.11    4.68
   8  -6  -1   -0.59    3.25
   8  -6   0    3.30    3.25
   8  -6   1    7.61    3.51
   8  -6   2    3.83    3.36
   8  -6   3    1.50    3.27
   8  -6   4   33.15    5.18
   8  -6   4   29.73    4.20
   8  -6   5   35.50    5.16
   8  -6   6   21.09    4.93
   8  -6   7   11.08    4.79
   8  -6   8   10.55    4.87
   8  -5 -10   92.70    7.66
   8  -5  -9   18.84    4.92
   8  -5  -8   72.00    6.82
   8  -5  -7    6.73    3.79
   8  -5  -6   42.24    5.22
   8  -5  -5   88.97    6.51
   8  -5  -4   11.33    4.13
   8  -5  -3   13.37    4.12
   8  -5  -2  214.76    8.71
   8  -5  -1  143.48    7.39
   8  -5   0   50.43    4.81
   8  -5   1    5.15    3.38
   8  -5   2   87.32    5.81
   8  -5   3   45.57    5.55
   8  -5   3   46.43    4.65
   8  -5   4   96.83    6.94
   8  -5   5   61.47    6.32
   8  -5   6   21.53    5.18
   8  -5   7  291.68   11.65
   8  -5   8   43.41    6.45
   8  -4 -11    6.09    4.62
   8  -4 -10   63.57    6.63
   8  -4  -9   29.47    5.01
   8  -4  -8   28.42    5.55
   8  -4  -7    2.22    3.78
   8  -4  -6   12.45    3.98
   8  -4  -5  177.36    8.46
   8  -4  -4    7.21    4.00
   8  -4  -3   40.36    4.90
   8  -4  -2   13.12    3.71
   8  -4  -1   76.10    5.69
   8  -4   0   91.15    5.91
   8  -4   1  515.37   12.19
   8  -4   2   98.60    5.99
   8  -4   3  179.19    8.72
   8  -4   3  194.10    7.63
   8  -4   4   27.79    5.08
   8  -4   5   29.68    4.98
   8  -4   6  162.01    9.14
   8  -4   7   -2.24    4.47
   8  -4   8    4.67    4.85
   8  -3 -11   43.22    6.09
   8  -3 -10   60.90    6.48
   8  -3  -9   10.91    4.43
   8  -3  -8   96.19    7.06
   8  -3  -7  153.00    8.21
   8  -3  -6  154.91    7.93
   8  -3  -5    8.78    3.90
   8  -3  -4   -1.20    3.82
   8  -3  -3  187.39    8.06
   8  -3  -2   39.89    4.44
   8  -3  -1   33.73    4.63
   8  -3   0   18.47    3.80
   8  -3   1   66.73    5.20
   8  -3   2   57.00    4.88
   8  -3   3   -0.24    3.80
   8  -3   4   25.83    4.89
   8  -3   5    9.54    4.26
   8  -3   6   19.55    4.90
   8  -3   7  111.77    8.01
   8  -3   8  126.97    8.46
   8  -2 -11   99.78    7.49
   8  -2 -10   78.36    6.65
   8  -2  -9   42.96    5.41
   8  -2  -8   19.63    3.95
   8  -2  -7    6.02    3.85
   8  -2  -6   11.23    3.84
   8  -2  -5   21.56    4.43
   8  -2  -4   43.37    5.04
   8  -2  -3   16.93    4.10
   8  -2  -2    1.50    3.38
   8  -2  -1   -0.29    2.95
   8  -2   0   32.67    3.88
   8  -2   1   16.25    3.45
   8  -2   2    0.47    3.04
   8  -2   3   17.62    4.33
   8  -2   4   23.81    4.82
   8  -2   5   24.87    4.54
   8  -2   6   73.60    6.87
   8  -2   7  225.40   10.37
   8  -2   8   36.68    6.40
   8  -1 -11   11.85    4.91
   8  -1 -10   15.28    4.74
   8  -1  -9    7.02    4.29
   8  -1  -8   34.23    5.30
   8  -1  -7   30.70    4.94
   8  -1  -6   17.00    4.24
   8  -1  -5  186.30    8.61
   8  -1  -4   80.81    5.98
   8  -1  -3   67.76    5.69
   8  -1  -2   84.78    5.87
   8  -1  -1   65.43    5.23
   8  -1   0  159.64    7.24
   8  -1   1   14.54    3.33
   8  -1   3    6.26    4.06
   8  -1   4   66.72    5.99
   8  -1   5   46.99    5.44
   8  -1   6   88.46    7.44
   8  -1   7    6.06    4.40
   8   0 -11  107.71    7.66
   8   0 -10  187.79    9.47
   8   0  -9   18.91    4.40
   8   0  -8   98.42    7.45
   8   0  -7   37.23    5.20
   8   0  -6  517.67   13.98
   8   0  -5   -0.26    3.81
   8   0  -4    4.56    3.79
   8   0  -3   86.39    6.32
   8   0  -2    6.97    3.70
   8   0  -1   13.10    3.86
   8   0   0    5.18    3.30
   8   0   4    0.74    3.91
   8   0   4   -0.44    4.77
   8   0   5   16.69    4.64
   8   0   5   12.33    5.16
   8   1 -10    6.27    4.00
   8   1 -10    1.99    4.45
   8   1  -9   47.01    5.47
   8   1  -9   40.58    6.24
   8   1  -8  110.93    7.54
   8   1  -8  108.06    6.90
   8   1  -7   19.65    4.92
   8   1  -7   20.15    3.95
   8   1  -6   -0.84    4.07
   8   1  -6    2.81    3.54
   8   1  -5    0.24    3.40
   8   1  -5    1.11    3.75
   8   1  -4   18.62    4.06
   8   1  -4   23.37    4.71
   8   1  -3   -3.92    3.37
   8   1  -3    0.75    3.41
   8   1  -2   18.56    4.38
   8   1  -2   14.52    3.99
   8   1  -1   40.27    4.92
   8   1   0   53.45    5.42
   8   1   1    1.45    4.13
   8   1   2   35.78    5.25
   8   1   3   30.58    5.85
   8   1   4  136.04    9.22
   8   2 -11    0.00    4.78
   8   2 -10    5.48    4.48
   8   2  -9    0.89    4.14
   8   2  -9    6.07    4.85
   8   2  -8    2.46    3.77
   8   2  -8    9.23    4.90
   8   2  -7    3.86    3.84
   8   2  -7   14.52    4.62
   8   2  -6   -0.73    3.30
   8   2  -6    2.84    4.30
   8   2  -5   -1.60    3.77
   8   2  -5   -0.38    4.11
   8   2  -4    6.87    4.16
   8   2  -4    3.41    4.05
   8   2  -3   98.64    6.84
   8   2  -3   92.33    6.87
   8   2  -2   58.66    5.74
   8   2  -2   56.67    5.82
   8   2  -1    8.51    3.93
   8   2   0   19.56    4.21
   8   2   1   33.56    5.25
   8   2   2  334.13   12.38
   8   2   3   20.92    5.17
   8   3  -9   -1.08    4.62
   8   3  -8   28.49    5.13
   8   3  -7    2.65    4.45
   8   3  -6   47.14    5.87
   8   3  -5    2.03    4.00
   8   3  -4   14.02    4.60
   8   3  -3   88.92    6.97
   8   3  -2   78.34    7.00
   8   3  -1  421.23   13.38
   8   3   0   51.82    5.80
   8   4  -6    1.60    4.54
   8   4  -5   18.92    4.67
   8   4  -4   47.49    5.64
   8   4  -3    2.17    4.42
  -9   9   1  105.65    8.01
   9  -9   0    9.90    4.20
   9  -9   1   96.27    7.22
   9  -9   2   23.41    5.02
   9  -9   3  113.06    7.62
   9  -9   4   51.54    5.76
   9  -8  -3   16.83    4.92
   9  -8  -2  451.94   14.06
   9  -8  -1   53.86    6.17
   9  -8   0   22.60    5.03
   9  -8   1    2.44    3.69
   9  -8   2    5.83    3.65
   9  -8   3    2.69    3.77
   9  -8   4   60.96    5.89
   9  -7  -5  151.16    8.79
   9  -7  -4  104.01    7.66
   9  -7  -3   22.32    4.74
   9  -7  -2   88.83    6.93
   9  -7  -1   60.78    6.09
   9  -7   0   16.99    4.41
   9  -7   1   53.52    5.73
   9  -7   2   18.59    4.39
   9  -7   3    2.60    3.81
   9  -7   5    1.15    5.05
   9  -7   6   20.32    5.36
   9  -6  -6   19.70    5.05
   9  -6  -5    0.95    4.12
   9  -6  -4   49.17    6.14
   9  -6  -3   45.43    5.61
   9  -6  -2   98.36    7.09
   9  -6  -1   71.21    6.29
   9  -6   0   75.79    6.13
   9  -6   1  141.34    7.78
   9  -6   2   74.00    6.08
   9  -6   3   76.85    6.20
   9  -6   5   19.55    5.21
   9  -6   6   29.96    5.68
   9  -5  -7   32.59    5.51
   9  -5  -6  126.06    8.26
   9  -5  -5   41.91    5.72
   9  -5  -4   35.93    5.46
   9  -5  -3   45.92    5.53
   9  -5  -2   46.76    5.50
   9  -5  -1   31.06    4.86
   9  -5   0    2.67    3.91
   9  -5   1    9.46    4.08
   9  -5   2   95.09    6.53
   9  -5   4   32.28    5.84
   9  -5   5  158.70    9.49
   9  -5   6   41.06    6.25
   9  -4  -8    0.19    4.35
   9  -4  -7   27.70    5.47
   9  -4  -6   -3.30    4.01
   9  -4  -5    7.86    4.44
   9  -4  -4   -0.02    3.69
   9  -4  -3   -0.53    3.98
   9  -4  -2   55.44    5.70
   9  -4  -1  144.37    7.80
   9  -4   0  299.66   10.53
   9  -4   1    2.19    3.58
   9  -4   2    1.64    3.68
   9  -4   4   55.17    6.62
   9  -4   5   94.10    8.08
   9  -4   6  220.04   10.47
   9  -3  -8   21.63    5.29
   9  -3  -7   -0.83    4.64
   9  -3  -6    5.09    3.71
   9  -3  -5    1.99    4.08
   9  -3  -4   -2.02    3.83
   9  -3  -3   22.22    4.67
   9  -3  -2   -1.06    3.77
   9  -3  -1   61.29    5.68
   9  -3   0  157.30    7.88
   9  -3   1  164.17    7.81
   9  -3   4  117.29    8.34
   9  -3   5  118.86    8.67
   9  -2  -8   73.19    6.85
   9  -2  -7  114.31    8.00
   9  -2  -6   51.21    5.66
   9  -2  -5   17.52    4.41
   9  -2  -4    2.93    3.70
   9  -2  -3    6.94    4.46
   9  -2  -2   15.43    4.31
   9  -2  -1   64.05    5.62
   9  -2   0   44.63    5.18
   9  -2   1   54.98    5.38
   9  -2   5    2.04    4.34
   9  -1  -8   53.03    6.05
   9  -1  -7  134.06    8.49
   9  -1  -6    3.88    4.58
   9  -1  -5   15.94    4.65
   9  -1  -4  275.55   10.85
   9  -1  -3   14.92    3.82
   9  -1  -2   20.38    4.60
   9  -1  -1   40.19    5.22
   9  -1   0    1.08    3.60
   9  -1   5   18.69    5.16
   9   0  -7    2.34    4.71
   9   0  -6   11.96    4.77
   9   0  -5   84.97    7.02
   9   0  -4   45.73    5.42
   9   0  -3  122.39    8.03
   9   0  -2  139.76    7.94
   9   0  -1   60.56    5.77
   9   1  -6   19.75    4.70
   9   1  -5   49.35    5.73
   9   1  -4  100.98    7.47
   9   1  -3  115.52    7.85
   9   1  -2   68.97    6.50
   9   1  -1   71.13    6.36
   9   2  -4   54.79    6.40
  10  -8   2  155.84    8.83
  10  -8   3    5.59    4.67
  10  -7  -1   36.19    6.02
  10  -7   0   74.76    6.92
  10  -7   1   68.75    6.49
  10  -7   2    3.12    4.20
  10  -6  -3    0.03    3.88
  10  -6  -2   25.47    4.90
  10  -6  -1   25.25    5.09
  10  -6   0    8.51    4.26
  10  -6   1    0.81    4.03
  10  -6   2   18.26    4.81
  10  -5  -4   -1.05    4.59
  10  -5  -3   -7.58    4.19
  10  -5  -2   -1.25    4.64
  10  -5  -1   17.11    4.99
  10  -5   0  188.75    9.49
  10  -5   1   10.98    4.91
  10  -4  -4    2.82    3.91
  10  -4  -3    5.84    3.92
  10  -4  -2    1.64    3.96
  10  -4  -1   19.75    4.80
  10  -4   0    0.43    3.85
  10  -4   1  140.13    8.09
  10  -3  -5   92.44    7.48
  10  -3  -4   12.47    4.35
  10  -3  -3   20.95    5.52
  10  -3  -2   28.32    5.56
  10  -3  -1   52.83    6.32
  10  -3   0   18.01    4.57
  10  -2  -4    6.73    4.04
  10  -2  -3   20.11    5.07
  10  -2  -2   38.89    5.85
  10  -2  -1   14.40    4.43
  10  -2   0    3.41    3.92
  10  -1  -3   22.38    5.09
  10  -1  -2  128.88    8.05
  10  -1  -1   37.27    5.51
_computing_structure_solution     'SHELXT 2014/4 (Sheldrick, 2014)'
;
_shelx_hkl_checksum              12291
_shelx_res_file
;
TITL BD146_a.res in P-1
CELL  0.71073   7.8066   8.9238  11.9303  106.583   94.701  111.358
ZERR   2.000   0.0002   0.0002   0.0003    0.002    0.002    0.002
LATT  1
SFAC C H O N S
UNIT 30 32 10 0 2
omit 0 52
omit     1   0   0
omit     0  -4   3
omit    -1   1   0
omit    -4   0   4
omit     1  -5   5
omit     2  -1   5
omit    -2   0   6
conf
acta
htab
EQIV $1 x, y+1, z
HTAB C15 O4_$1
EQIV $2 -x+1, -y+2, -z+1
HTAB C15 O2_$2
L.S. 10
BOND $H
EQIV $3 -x+2,-y+2,-z+1
BIND S1 O1_$3
LIST 6
FMAP 2
MPLA C1 C2 C3 C4 C5 C6
MPLA C8 > C13
PLAN 20
WGHT    0.043700    0.025500
FVAR       0.89355
S1    5    0.730131    0.835948    0.473674    11.00000    0.01689    0.01626 =
         0.01268    0.00373    0.00219    0.00745
O1    3    0.811461    0.968726    0.425775    11.00000    0.02013    0.01565 =
         0.02231    0.00738    0.00224    0.00644
C1    1    0.805482    0.671258    0.418237    11.00000    0.01434    0.01569 =
         0.01240    0.00255   -0.00069    0.00671
C2    1    0.919258    0.681051    0.334706    11.00000    0.01484    0.01592 =
         0.01394    0.00580    0.00060    0.00361
AFIX  43
H2    2    0.967309    0.779377    0.314472    11.00000   -1.20000
AFIX   0
O2    3    0.735666    0.874162    0.598628    11.00000    0.02645    0.02605 =
         0.01242    0.00242    0.00185    0.01393
O3    3    0.507767    0.742293    0.417716    11.00000    0.01570    0.02057 =
         0.01194    0.00564    0.00402    0.00810
C3    1    0.959879    0.541111    0.281975    11.00000    0.01436    0.02137 =
         0.01419    0.00575    0.00369    0.00686
AFIX  43
H3    2    1.034870    0.546050    0.225302    11.00000   -1.20000
AFIX   0
C4    1    0.890638    0.393317    0.312171    11.00000    0.01418    0.01720 =
         0.01598    0.00326   -0.00081    0.00648
O4    3    0.267790    0.298387    0.044626    11.00000    0.03434    0.01721 =
         0.01760    0.00203    0.00016    0.01340
C5    1    0.782743    0.390004    0.399727    11.00000    0.01602    0.01665 =
         0.01892    0.00858    0.00143    0.00479
AFIX  43
H5    2    0.739377    0.293972    0.422915    11.00000   -1.20000
AFIX   0
O5    3    0.322543    0.852679    0.062888    11.00000    0.03292    0.01947 =
         0.01881    0.00974    0.00414    0.01368
C6    1    0.739279    0.527391    0.452581    11.00000    0.01576    0.02017 =
         0.01389    0.00690    0.00400    0.00669
AFIX  43
H6    2    0.666522    0.523630    0.510501    11.00000   -1.20000
AFIX   0
C8    1    0.445941    0.691127    0.292399    11.00000    0.01199    0.02066 =
         0.01213    0.00560    0.00362    0.00668
C7    1    0.932889    0.241457    0.251855    11.00000    0.02420    0.02053 =
         0.02365    0.00665    0.00693    0.01065
AFIX 137
H7A   2    0.895387    0.208361    0.166721    11.00000   -1.50000
H7B   2    0.864861    0.147867    0.277430    11.00000   -1.50000
H7C   2    1.065335    0.271402    0.272992    11.00000   -1.50000
AFIX   0
C9    1    0.398237    0.522989    0.225857    11.00000    0.01664    0.01903 =
         0.01845    0.00974    0.00490    0.01021
AFIX  43
H9    2    0.417271    0.447939    0.260714    11.00000   -1.20000
AFIX   0
C10   1    0.320422    0.468334    0.104479    11.00000    0.01743    0.01617 =
         0.01866    0.00327    0.00481    0.00903
C11   1    0.297676    0.581823    0.052610    11.00000    0.01759    0.02129 =
         0.01286    0.00474    0.00270    0.00888
AFIX  43
H11   2    0.247205    0.544851   -0.028691    11.00000   -1.20000
AFIX   0
C12   1    0.351098    0.752430    0.123280    11.00000    0.01557    0.01994 =
         0.01876    0.01033    0.00679    0.00965
C13   1    0.424174    0.809888    0.245255    11.00000    0.01505    0.01474 =
         0.01796    0.00474    0.00602    0.00676
AFIX  43
H13   2    0.456958    0.922702    0.293053    11.00000   -1.20000
AFIX   0
C14   1    0.178271    0.234150   -0.078985    11.00000    0.03289    0.02187 =
         0.01853   -0.00055   -0.00128    0.01281
AFIX 137
H14A  2    0.262910    0.290470   -0.122478    11.00000   -1.50000
H14B  2    0.066782    0.255652   -0.086811    11.00000   -1.50000
H14C  2    0.145078    0.113239   -0.110576    11.00000   -1.50000
AFIX   0
C15   1    0.382487    1.031402    0.129158    11.00000    0.04401    0.02075 =
         0.02420    0.01116    0.00800    0.01735
AFIX 137
H15A  2    0.363977    1.089604    0.075940    11.00000   -1.50000
H15B  2    0.513354    1.079097    0.166116    11.00000   -1.50000
H15C  2    0.310188    1.044939    0.189705    11.00000   -1.50000
AFIX   0
HKLF 4
REM  BD146_a.res in P-1
REM R1 =  0.0286 for    2316 Fo > 4sig(Fo)  and  0.0366 for all    2795 data
REM    193 parameters refined using      0 restraints
END
WGHT      0.0437      0.0255
REM Instructions for potential hydrogen bonds
HTAB C15 O4_$1
HTAB C15 O2_$2
REM Highest difference peak  0.376,  deepest hole -0.349,  1-sigma level  0.042
Q1    1   0.7758  0.7449  0.4431  11.00000  0.05    0.38
Q2    1   0.4147  0.7382  0.2662  11.00000  0.05    0.20
Q3    1   0.3367  0.7581  0.1855  11.00000  0.05    0.20
Q4    1   0.4703  0.6194  0.2480  11.00000  0.05    0.19
Q5    1   0.3615  0.6776  0.0913  11.00000  0.05    0.19
Q6    1   0.3333  0.7948  0.0968  11.00000  0.05    0.19
Q7    1   0.9009  0.3134  0.2770  11.00000  0.05    0.19
Q8    1   0.3788  0.6006  0.2644  11.00000  0.05    0.19
Q9    1   0.8946  0.4427  0.2726  11.00000  0.05    0.18
Q10   1   0.8071  0.6265  0.4515  11.00000  0.05    0.18
Q11   1   0.2866  0.3925  0.0814  11.00000  0.05    0.18
Q12   1   0.4790  0.7153  0.3577  11.00000  0.05    0.18
Q13   1   0.8209  0.6638  0.3609  11.00000  0.05    0.17
Q14   1   0.9718  0.4823  0.3208  11.00000  0.05    0.17
Q15   1   0.2848  0.6557  0.0998  11.00000  0.05    0.17
Q16   1   0.7248  0.5884  0.4065  11.00000  0.05    0.17
Q17   1   0.2824  0.5214  0.0961  11.00000  0.05    0.17
Q18   1   0.8808  0.6858  0.4024  11.00000  0.05    0.16
Q19   1   0.8845  0.4150  0.3815  11.00000  0.05    0.16
Q20   1   0.3063  0.4858  0.1751  11.00000  0.05    0.16
;
_shelx_res_checksum              23587
_shelxl_version_number           .2013
loop_
_space_group_symop_operation_xyz
'x, y, z'
'-x, -y, -z'
loop_
_atom_site_type_symbol
_atom_site_label
_atom_site_fract_x
_atom_site_fract_y
_atom_site_fract_z
_atom_site_U_iso_or_equiv
_atom_site_adp_type
_atom_site_calc_flag
_atom_site_occupancy
S S1 0.73013(5) 0.83595(4) 0.47367(3) 0.01539(11) Uani d 1
O O1 0.81146(14) 0.96873(12) 0.42577(9) 0.0195(2) Uani d 1
C C1 0.80548(19) 0.67126(18) 0.41824(12) 0.0147(3) Uani d 1
C C2 0.91926(19) 0.68105(18) 0.33471(12) 0.0157(3) Uani d 1
H H2 0.9673 0.7794 0.3145 0.019 Uiso calc 1
O O2 0.73567(14) 0.87416(13) 0.59863(9) 0.0217(2) Uani d 1
O O3 0.50777(13) 0.74229(12) 0.41772(8) 0.0157(2) Uani d 1
C C3 0.95988(19) 0.54111(18) 0.28197(12) 0.0168(3) Uani d 1
H H3 1.0349 0.5460 0.2253 0.020 Uiso calc 1
C C4 0.89064(19) 0.39332(18) 0.31217(12) 0.0166(3) Uani d 1
O O4 0.26779(15) 0.29839(13) 0.04463(9) 0.0234(3) Uani d 1
C C5 0.78274(19) 0.39000(18) 0.39973(12) 0.0173(3) Uani d 1
H H5 0.7394 0.2940 0.4229 0.021 Uiso calc 1
O O5 0.32254(15) 0.85268(13) 0.06289(9) 0.0221(2) Uani d 1
C C6 0.7393(2) 0.52739(18) 0.45258(12) 0.0165(3) Uani d 1
H H6 0.6665 0.5236 0.5105 0.020 Uiso calc 1
C C8 0.44594(18) 0.69113(18) 0.29240(12) 0.0148(3) Uani d 1
C C7 0.9329(2) 0.24146(19) 0.25186(14) 0.0224(3) Uani d 1
H H7A 0.8954 0.2084 0.1667 0.034 Uiso calc 1
H H7B 0.8649 0.1479 0.2774 0.034 Uiso calc 1
H H7C 1.0653 0.2714 0.2730 0.034 Uiso calc 1
C C9 0.39824(19) 0.52299(18) 0.22586(12) 0.0163(3) Uani d 1
H H9 0.4173 0.4479 0.2607 0.020 Uiso calc 1
C C10 0.3204(2) 0.46833(18) 0.10448(13) 0.0173(3) Uani d 1
C C11 0.29768(19) 0.58182(18) 0.05261(12) 0.0172(3) Uani d 1
H H11 0.2472 0.5449 -0.0287 0.021 Uiso calc 1
C C12 0.3511(2) 0.75243(19) 0.12328(13) 0.0163(3) Uani d 1
C C13 0.42417(19) 0.80989(18) 0.24526(12) 0.0157(3) Uani d 1
H H13 0.4570 0.9227 0.2931 0.019 Uiso calc 1
C C14 0.1783(2) 0.2341(2) -0.07898(13) 0.0261(4) Uani d 1
H H14A 0.2629 0.2905 -0.1225 0.039 Uiso calc 1
H H14B 0.0668 0.2557 -0.0868 0.039 Uiso calc 1
H H14C 0.1451 0.1132 -0.1106 0.039 Uiso calc 1
C C15 0.3825(2) 1.0314(2) 0.12916(14) 0.0275(4) Uani d 1
H H15A 0.3640 1.0896 0.0759 0.041 Uiso calc 1
H H15B 0.5134 1.0791 0.1661 0.041 Uiso calc 1
H H15C 0.3102 1.0449 0.1897 0.041 Uiso calc 1
loop_
_atom_site_aniso_label
_atom_site_aniso_U_11
_atom_site_aniso_U_22
_atom_site_aniso_U_33
_atom_site_aniso_U_12
_atom_site_aniso_U_13
_atom_site_aniso_U_23
S1 0.01689(19) 0.01626(19) 0.01268(19) 0.00745(15) 0.00219(13) 0.00373(14)
O1 0.0201(5) 0.0157(5) 0.0223(6) 0.0064(4) 0.0022(4) 0.0074(4)
C1 0.0143(7) 0.0157(7) 0.0124(7) 0.0067(6) -0.0007(5) 0.0026(6)
C2 0.0148(7) 0.0159(7) 0.0139(7) 0.0036(6) 0.0006(6) 0.0058(6)
O2 0.0265(6) 0.0261(6) 0.0124(5) 0.0139(5) 0.0019(4) 0.0024(4)
O3 0.0157(5) 0.0206(5) 0.0119(5) 0.0081(4) 0.0040(4) 0.0056(4)
C3 0.0144(7) 0.0214(8) 0.0142(7) 0.0069(6) 0.0037(6) 0.0057(6)
C4 0.0142(7) 0.0172(7) 0.0160(7) 0.0065(6) -0.0008(6) 0.0033(6)
O4 0.0343(6) 0.0172(6) 0.0176(6) 0.0134(5) 0.0002(5) 0.0020(4)
C5 0.0160(7) 0.0167(7) 0.0189(7) 0.0048(6) 0.0014(6) 0.0086(6)
O5 0.0329(6) 0.0195(6) 0.0188(5) 0.0137(5) 0.0041(5) 0.0097(4)
C6 0.0158(7) 0.0202(8) 0.0139(7) 0.0067(6) 0.0040(6) 0.0069(6)
C8 0.0120(7) 0.0207(8) 0.0121(7) 0.0067(6) 0.0036(5) 0.0056(6)
C7 0.0242(8) 0.0205(8) 0.0237(8) 0.0106(7) 0.0069(7) 0.0066(7)
C9 0.0166(7) 0.0190(7) 0.0185(8) 0.0102(6) 0.0049(6) 0.0097(6)
C10 0.0174(7) 0.0162(7) 0.0187(8) 0.0090(6) 0.0048(6) 0.0033(6)
C11 0.0176(7) 0.0213(8) 0.0129(7) 0.0089(6) 0.0027(6) 0.0047(6)
C12 0.0156(7) 0.0199(8) 0.0188(7) 0.0097(6) 0.0068(6) 0.0103(6)
C13 0.0150(7) 0.0147(7) 0.0180(7) 0.0068(6) 0.0060(6) 0.0047(6)
C14 0.0329(9) 0.0219(8) 0.0185(8) 0.0128(7) -0.0013(7) -0.0006(7)
C15 0.0440(10) 0.0207(8) 0.0242(9) 0.0174(8) 0.0080(7) 0.0112(7)
loop_
_atom_type_symbol
_atom_type_description
_atom_type_scat_dispersion_real
_atom_type_scat_dispersion_imag
_atom_type_scat_source
C C 0.0033 0.0016 'International Tables Vol C Tables 4.2.6.8 and 6.1.1.4'
H H 0.0000 0.0000 'International Tables Vol C Tables 4.2.6.8 and 6.1.1.4'
O O 0.0106 0.0060 'International Tables Vol C Tables 4.2.6.8 and 6.1.1.4'
N N 0.0061 0.0033 'International Tables Vol C Tables 4.2.6.8 and 6.1.1.4'
S S 0.1246 0.1234 'International Tables Vol C Tables 4.2.6.8 and 6.1.1.4'
loop_
_geom_angle_atom_site_label_1
_geom_angle_atom_site_label_2
_geom_angle_atom_site_label_3
_geom_angle_site_symmetry_3
_geom_angle
O2 S1 O1 . 120.88(6)
O2 S1 O3 . 102.37(6)
O1 S1 O3 . 108.43(5)
O2 S1 C1 . 110.89(6)
O1 S1 C1 . 110.05(6)
O3 S1 C1 . 102.28(6)
O2 S1 O1 2_776 80.61(5)
O1 S1 O1 2_776 68.92(5)
O3 S1 O1 2_776 176.85(4)
C1 S1 O1 2_776 77.41(5)
C2 C1 C6 . 121.02(13)
C2 C1 S1 . 119.61(11)
C6 C1 S1 . 119.22(11)
C1 C2 C3 . 118.68(13)
C1 C2 H2 . 120.7
C3 C2 H2 . 120.7
C8 O3 S1 . 118.80(8)
C2 C3 C4 . 121.42(13)
C2 C3 H3 . 119.3
C4 C3 H3 . 119.3
C5 C4 C3 . 118.48(13)
C5 C4 C7 . 120.97(13)
C3 C4 C7 . 120.55(13)
C10 O4 C14 . 117.21(11)
C6 C5 C4 . 120.99(13)
C6 C5 H5 . 119.5
C4 C5 H5 . 119.5
C12 O5 C15 . 117.31(12)
C5 C6 C1 . 119.33(13)
C5 C6 H6 . 120.3
C1 C6 H6 . 120.3
C9 C8 C13 . 123.77(13)
C9 C8 O3 . 117.73(12)
C13 C8 O3 . 118.33(12)
C4 C7 H7A . 109.5
C4 C7 H7B . 109.5
H7A C7 H7B . 109.5
C4 C7 H7C . 109.5
H7A C7 H7C . 109.5
H7B C7 H7C . 109.5
C8 C9 C10 . 117.91(13)
C8 C9 H9 . 121.0
C10 C9 H9 . 121.0
O4 C10 C11 . 124.24(13)
O4 C10 C9 . 115.06(12)
C11 C10 C9 . 120.70(13)
C10 C11 C12 . 119.46(13)
C10 C11 H11 . 120.3
C12 C11 H11 . 120.3
O5 C12 C13 . 124.31(13)
O5 C12 C11 . 114.44(13)
C13 C12 C11 . 121.24(13)
C8 C13 C12 . 116.89(13)
C8 C13 H13 . 121.6
C12 C13 H13 . 121.6
O4 C14 H14A . 109.5
O4 C14 H14B . 109.5
H14A C14 H14B . 109.5
O4 C14 H14C . 109.5
H14A C14 H14C . 109.5
H14B C14 H14C . 109.5
O5 C15 H15A . 109.5
O5 C15 H15B . 109.5
H15A C15 H15B . 109.5
O5 C15 H15C . 109.5
H15A C15 H15C . 109.5
H15B C15 H15C . 109.5
loop_
_geom_bond_atom_site_label_1
_geom_bond_atom_site_label_2
_geom_bond_site_symmetry_2
_geom_bond_distance
S1 O2 . 1.4244(10)
S1 O1 . 1.4254(10)
S1 O3 . 1.6101(10)
S1 C1 . 1.7556(14)
S1 O1 2_776 3.2929(10)
C1 C2 . 1.3885(19)
C1 C6 . 1.3910(19)
C2 C3 . 1.3887(19)
C2 H2 . 0.9300
O3 C8 . 1.4171(15)
C3 C4 . 1.395(2)
C3 H3 . 0.9300
C4 C5 . 1.3947(19)
C4 C7 . 1.5070(19)
O4 C10 . 1.3633(17)
O4 C14 . 1.4313(17)
C5 C6 . 1.383(2)
C5 H5 . 0.9300
O5 C12 . 1.3623(17)
O5 C15 . 1.4366(18)
C6 H6 . 0.9300
C8 C9 . 1.373(2)
C8 C13 . 1.3871(19)
C7 H7A . 0.9600
C7 H7B . 0.9600
C7 H7C . 0.9600
C9 C10 . 1.3931(19)
C9 H9 . 0.9300
C10 C11 . 1.382(2)
C11 C12 . 1.396(2)
C11 H11 . 0.9300
C12 C13 . 1.3896(19)
C13 H13 . 0.9300
C14 H14A . 0.9600
C14 H14B . 0.9600
C14 H14C . 0.9600
C15 H15A . 0.9600
C15 H15B . 0.9600
C15 H15C . 0.9600
loop_
_geom_hbond_atom_site_label_D
_geom_hbond_atom_site_label_H
_geom_hbond_atom_site_label_A
_geom_hbond_site_symmetry_A
_geom_hbond_distance_DH
_geom_hbond_distance_HA
_geom_hbond_distance_DA
_geom_hbond_angle_DHA
C15 H15A O4 1_565 0.96 2.35 3.2051(18) 147.3
C15 H15C O2 2_676 0.96 2.51 3.4063(19) 154.6
loop_
_geom_torsion_atom_site_label_1
_geom_torsion_atom_site_label_2
_geom_torsion_atom_site_label_3
_geom_torsion_atom_site_label_4
_geom_torsion_site_symmetry_1
_geom_torsion
O2 S1 C1 C2 . -139.74(11)
O1 S1 C1 C2 . -3.35(13)
O3 S1 C1 C2 . 111.74(11)
O1 S1 C1 C2 2_776 -65.06(11)
O2 S1 C1 C6 . 44.73(13)
O1 S1 C1 C6 . -178.88(11)
O3 S1 C1 C6 . -63.80(12)
O1 S1 C1 C6 2_776 119.40(11)
C6 C1 C2 C3 . 2.6(2)
S1 C1 C2 C3 . -172.83(10)
O2 S1 O3 C8 . 177.23(9)
O1 S1 O3 C8 . 48.40(11)
C1 S1 O3 C8 . -67.86(10)
C1 C2 C3 C4 . -0.7(2)
C2 C3 C4 C5 . -1.7(2)
C2 C3 C4 C7 . 178.63(13)
C3 C4 C5 C6 . 2.3(2)
C7 C4 C5 C6 . -178.07(13)
C4 C5 C6 C1 . -0.4(2)
C2 C1 C6 C5 . -2.1(2)
S1 C1 C6 C5 . 173.38(11)
S1 O3 C8 C9 . 98.87(13)
S1 O3 C8 C13 . -85.70(13)
C13 C8 C9 C10 . -1.2(2)
O3 C8 C9 C10 . 173.96(11)
C14 O4 C10 C11 . -2.0(2)
C14 O4 C10 C9 . 176.90(13)
C8 C9 C10 O4 . -176.98(12)
C8 C9 C10 C11 . 1.9(2)
O4 C10 C11 C12 . 177.91(12)
C9 C10 C11 C12 . -0.9(2)
C15 O5 C12 C13 . 3.8(2)
C15 O5 C12 C11 . -177.20(12)
C10 C11 C12 O5 . 179.96(12)
C10 C11 C12 C13 . -1.0(2)
C9 C8 C13 C12 . -0.6(2)
O3 C8 C13 C12 . -175.70(11)
O5 C12 C13 C8 . -179.37(13)
C11 C12 C13 C8 . 1.7(2)

_cod_database_fobs_code 1546716
