#------------------------------------------------------------------------------
#$Date: 2017-07-05 08:48:45 +0300 (Wed, 05 Jul 2017) $
#$Revision: 198455 $
#$URL: file:///home/coder/svn-repositories/cod/cif/1/54/64/1546476.cif $
#------------------------------------------------------------------------------
#
# This file is available in the Crystallography Open Database (COD),
# http://www.crystallography.net/. The original data for this entry
# were provided by IUCr Journals, http://journals.iucr.org/.
#
# The file may be used within the scientific community so long as
# proper attribution is given to the journal article from which the
# data were obtained.
#
data_1546476
loop_
_publ_author_name
'Matvienko, Alexander A.'
'Maslennikov, Daniel V.'
'Zakharov, Boris A.'
'Sidelnikov, Anatoly A.'
'Chizhik, Stanislav A.'
'Boldyreva, Elena V.'
_publ_section_title
;
 Structural aspects of displacive transformations: what can optical
 microscopy contribute? Dehydration of Sm~2~(C~2~O~4~)~3~&#x00B7;10H~2~O
 as a case study
;
_journal_issue                   5
_journal_name_full               IUCrJ
_journal_page_first
;
;
_journal_paper_doi               10.1107/S2052252517008624
_journal_volume                  4
_journal_year                    2017
_chemical_formula_sum            'C3 H6 O9 Sm'
_chemical_formula_weight         336.43
_space_group_crystal_system      monoclinic
_space_group_IT_number           14
_space_group_name_Hall           '-P 2ybc'
_space_group_name_H-M_alt        'P 1 21/c 1'
_symmetry_space_group_name_Hall  '-P 2ybc'
_symmetry_space_group_name_H-M   'P 1 21/c 1'
_atom_sites_solution_hydrogens   difmap
_atom_sites_solution_primary     direct
_atom_sites_solution_secondary   difmap
_audit_creation_method           SHELXL-2016/6
_cell_angle_alpha                90
_cell_angle_beta                 90.393(3)
_cell_angle_gamma                90
_cell_formula_units_Z            4
_cell_length_a                   8.4368(3)
_cell_length_b                   9.7963(3)
_cell_length_c                   9.4986(4)
_cell_measurement_reflns_used    1917
_cell_measurement_temperature    293(2)
_cell_measurement_theta_max      28.1986
_cell_measurement_theta_min      2.0746
_cell_volume                     785.04(5)
_computing_structure_refinement  'SHELXL-2016/6 (Sheldrick, 2016)'
_diffrn_ambient_temperature      293(2)
_diffrn_detector_area_resol_mean 10.3457
_diffrn_measured_fraction_theta_full 1.000
_diffrn_measured_fraction_theta_max 1.000
_diffrn_measurement_device_type  'Xcalibur, Ruby, Gemini ultra'
_diffrn_measurement_method       \w-scan
_diffrn_radiation_monochromator  graphite
_diffrn_radiation_source         'Enhance (Mo) X-ray Source'
_diffrn_radiation_wavelength     0.7093
_diffrn_reflns_av_R_equivalents  0.0351
_diffrn_reflns_av_unetI/netI     0.0378
_diffrn_reflns_Laue_measured_fraction_full 1.000
_diffrn_reflns_Laue_measured_fraction_max 1.000
_diffrn_reflns_limit_h_max       9
_diffrn_reflns_limit_h_min       -10
_diffrn_reflns_limit_k_max       10
_diffrn_reflns_limit_k_min       -12
_diffrn_reflns_limit_l_max       11
_diffrn_reflns_limit_l_min       -11
_diffrn_reflns_number            4769
_diffrn_reflns_point_group_measured_fraction_full 1.000
_diffrn_reflns_point_group_measured_fraction_max 1.000
_diffrn_reflns_theta_full        25.187
_diffrn_reflns_theta_max         26.311
_diffrn_reflns_theta_min         2.409
_exptl_absorpt_coefficient_mu    7.506
_exptl_absorpt_correction_T_max  1.00000
_exptl_absorpt_correction_T_min  0.72702
_exptl_absorpt_correction_type   multi-scan
_exptl_absorpt_process_details
;
CrysAlisPro, Agilent Technologies,
Version 1.171.35.21 (release 20-01-2012 CrysAlis171 .NET)
(compiled Jan 23 2012,18:06:46)
Empirical absorption correction using spherical harmonics,
 implemented in SCALE3 ABSPACK scaling algorithm.
;
_exptl_crystal_colour            colourless
_exptl_crystal_density_diffrn    2.846
_exptl_crystal_description       prism
_exptl_crystal_F_000             632
_exptl_crystal_size_max          0.12
_exptl_crystal_size_mid          0.10
_exptl_crystal_size_min          0.01
_refine_diff_density_max         1.456
_refine_diff_density_min         -0.736
_refine_diff_density_rms         0.173
_refine_ls_extinction_method     none
_refine_ls_goodness_of_fit_ref   1.037
_refine_ls_hydrogen_treatment    refxyz
_refine_ls_matrix_type           full
_refine_ls_number_parameters     136
_refine_ls_number_reflns         1595
_refine_ls_number_restraints     6
_refine_ls_restrained_S_all      1.039
_refine_ls_R_factor_all          0.0469
_refine_ls_R_factor_gt           0.0299
_refine_ls_shift/su_max          0.000
_refine_ls_shift/su_mean         0.000
_refine_ls_structure_factor_coef Fsqd
_refine_ls_weighting_details
'w=1/[\s^2^(Fo^2^)+(0.0259P)^2^] where P=(Fo^2^+2Fc^2^)/3'
_refine_ls_weighting_scheme      calc
_refine_ls_wR_factor_gt          0.0590
_refine_ls_wR_factor_ref         0.0659
_reflns_Friedel_coverage         0.000
_reflns_number_gt                1181
_reflns_number_total             1595
_reflns_threshold_expression     'I > 2\s(I)'
_cod_data_source_file            lt5002.cif
_cod_data_source_block           II
_cod_database_code               1546476
_shelx_shelxl_version_number     2016/6
_shelx_space_group_comment
;
The symmetry employed for this shelxl refinement is uniquely defined
by the following loop, which should always be used as a source of
symmetry information in preference to the above space-group names.
They are only intended as comments.
;
_shelx_res_file
;
TITL SAMARIUM(III)_OXALATE_HEXAHYDRATE
    E:\Yandex.Disk\_work_current\_Xray\Matvienko\Smox\dehydrated\test-3.res
    created by SHELXL-2016/6 at 16:54:42 on 08-Dec-2016
CELL  0.70930  8.43681  9.79629  9.49864 90.00000 90.39330 90.00000
ZERR 4  0.00030  0.00030  0.00040  0.00000  0.00310  0.00000
LATT 1
SYMM -X, Y+ 0.50000, -Z+ 0.50000
SFAC C H O SM
UNIT 12 24 36 4
SHEL 50 0.8
L.S. 100
FMAP 2
PLAN 50
ACTA
CONF
BOND
DFIX 0.9 0.05 O7 H7A
DFIX 0.9 0.05 O7 H7B
DFIX 0.9 0.05 O8 H8A
DFIX 0.9 0.05 O8 H8B
DFIX 0.9 0.05 O9 H9A
DFIX 0.9 0.05 O9 H9B
WGHT    0.025900
FVAR       1.02789
C1    1    0.433324    0.519469   -0.054129    11.00000    0.01589    0.02152 =
         0.01678   -0.00119   -0.00070    0.00201
C2    1    0.023815    0.571555    0.523733    11.00000    0.01467    0.02283 =
         0.01371    0.00001   -0.00221   -0.00247
C3    1    0.525738    0.573776    0.483676    11.00000    0.01478    0.01981 =
         0.01383   -0.00235    0.00180    0.00312
O1    3    0.293371    0.521067   -0.008073    11.00000    0.01572    0.03749 =
         0.01762   -0.00143    0.00231    0.00017
O2    3    0.476558    0.545820   -0.176548    11.00000    0.01742    0.03484 =
         0.01357    0.00434    0.00288    0.00492
O3    3    0.125575    0.631595    0.450162    11.00000    0.02583    0.02259 =
         0.02036   -0.00668    0.01018   -0.01118
O4    3   -0.041982    0.621227    0.628784    11.00000    0.01709    0.02280 =
         0.01774   -0.00502    0.00514   -0.00366
O5    3    0.447966    0.636318    0.391990    11.00000    0.02752    0.02346 =
         0.01861    0.00485   -0.00992   -0.00197
O6    3    0.639297    0.621433    0.553890    11.00000    0.01697    0.02216 =
         0.02018    0.00344   -0.00514   -0.00875
O7    3    0.291034    0.744816    0.179541    11.00000    0.03492    0.02194 =
         0.02521    0.01291   -0.01453   -0.00463
H7A   2    0.345404    0.801234    0.227776    11.00000   -1.50000
H7B   2    0.261426    0.777884    0.108290    11.00000   -1.50000
O8    3   -0.013030    0.587334    0.152931    11.00000    0.02168    0.02457 =
         0.04080    0.00723   -0.00915   -0.00291
H8A   2   -0.078941    0.536402    0.119921    11.00000   -1.50000
H8B   2   -0.019373    0.668874    0.134952    11.00000   -1.50000
O9    3    0.204572    0.286451    0.146440    11.00000    0.04870    0.02608 =
         0.03945   -0.01386    0.02818   -0.00715
H9B   2    0.250144    0.240261    0.083197    11.00000   -1.50000
H9A   2    0.162370    0.227235    0.205921    11.00000   -1.50000
SM1   4    0.252426    0.511011    0.250992    11.00000    0.01180    0.01742 =
         0.00945    0.00033    0.00144   -0.00002
HKLF 4




REM  SAMARIUM(III)_OXALATE_HEXAHYDRATE
REM R1 =  0.0299 for    1181 Fo > 4sig(Fo)  and  0.0469 for all    1595 data
REM    136 parameters refined using      6 restraints

END

WGHT      0.0260      0.0000

REM Highest difference peak  1.456,  deepest hole -0.736,  1-sigma level  0.173
Q1    1   0.0095  0.6396  0.2493  11.00000  0.05    1.46
Q2    1   0.5036  0.6330 -0.2486  11.00000  0.05    1.40
Q3    1  -0.0178  0.6368  0.7441  11.00000  0.05    1.33
Q4    1   0.4816  0.6446  0.2426  11.00000  0.05    1.32
Q5    1   0.2465  0.7037  0.2499  11.00000  0.05    0.67
Q6    1   0.2812  0.2541  0.2300  11.00000  0.05    0.59
Q7    1   0.2499  0.2471  0.2595  11.00000  0.05    0.56
Q8    1   0.2167  0.4160  0.1768  11.00000  0.05    0.55
Q9    1   0.1155  0.5024  0.3245  11.00000  0.05    0.54
Q10   1   0.5000  0.5000  0.0000  10.50000  0.05    0.54
Q11   1   0.7022  0.5650  0.6334  11.00000  0.05    0.51
Q12   1   0.3286  0.6167  0.2437  11.00000  0.05    0.51
Q13   1  -0.1210  0.6841  0.1966  11.00000  0.05    0.51
Q14   1   0.1481  0.5161  0.1980  11.00000  0.05    0.49
Q15   1   0.3586  0.5151  0.2983  11.00000  0.05    0.48
Q16   1   0.2575  0.4993  0.0904  11.00000  0.05    0.47
Q17   1   0.3398  0.4004  0.1383  11.00000  0.05    0.46
Q18   1   0.2868  0.7789  0.2477  11.00000  0.05    0.45
Q19   1   0.3523  0.6805  0.0429  11.00000  0.05    0.44
Q20   1   0.1399  0.6958  0.2005  11.00000  0.05    0.44
Q21   1   0.1041  0.4543  0.1276  11.00000  0.05    0.44
Q22   1   0.4269  0.5799  0.3279  11.00000  0.05    0.44
Q23   1   0.2233  0.3829  0.0818  11.00000  0.05    0.43
Q24   1  -0.1578  0.5808  0.6119  11.00000  0.05    0.43
Q25   1   0.5468  0.4765 -0.2155  11.00000  0.05    0.43
Q26   1   0.2175  0.6052  0.1544  11.00000  0.05    0.42
Q27   1   0.1548  0.6524  0.2956  11.00000  0.05    0.42
Q28   1   0.0995  0.6759  0.6691  11.00000  0.05    0.42
Q29   1   0.1915  0.7766  0.2552  11.00000  0.05    0.41
Q30   1   0.2252  0.4975  0.3971  11.00000  0.05    0.40
Q31   1   0.6190  0.5031 -0.1672  11.00000  0.05    0.39
Q32   1   0.2583  0.4242  0.2774  11.00000  0.05    0.39
Q33   1   0.1709  0.6168  0.2831  11.00000  0.05    0.39
Q34   1   0.5541  0.7608  0.2387  11.00000  0.05    0.39
Q35   1   0.3825  0.1793  0.1976  11.00000  0.05    0.39
Q36   1   0.2722  0.7605  0.1533  11.00000  0.05    0.39
Q37   1   0.0000  0.5000  0.5000  10.50000  0.05    0.38
Q38   1   0.2089  0.3182  0.2557  11.00000  0.05    0.38
Q39   1   0.4658  0.7618  0.2800  11.00000  0.05    0.38
Q40   1  -0.0235  0.7098  0.6462  11.00000  0.05    0.37
Q41   1   0.4237  0.2918  0.1471  11.00000  0.05    0.37
Q42   1   0.4590  0.5523 -0.2501  11.00000  0.05    0.36
Q43   1   0.3152  0.5836  0.3744  11.00000  0.05    0.36
Q44   1   0.0559  0.2541  0.2405  11.00000  0.05    0.36
Q45   1   0.0114  0.7634  0.1708  11.00000  0.05    0.35
Q46   1  -0.0708  0.6933  0.4758  11.00000  0.05    0.35
Q47   1   0.1372  0.1748  0.2373  11.00000  0.05    0.35
Q48   1   0.6285  0.5359  0.6282  11.00000  0.05    0.35
Q49   1  -0.1945  0.7022  0.0874  11.00000  0.05    0.34
Q50   1   0.1080  0.5999  0.3704  11.00000  0.05    0.34
;
_shelx_res_checksum              34658
_shelx_hkl_file
;
   0   0   1 22.0780 15.2597   3 0.70615-0.70564 0.70699-0.70701 0.03733 0.03733
   0   0   2 27802.1 384.411   3 0.70629-0.70527 0.70414-0.70418 0.07465 0.07465
   0   0   3 2.96121 31.8426   3 0.70543-0.70389 0.70030-0.70035 0.11198 0.11198
   0   0  -4 30597.7 246.853   5 0.55659-0.55858-0.81662 0.81658-0.14939-0.14939
   0   0   4 31611.6 583.726   3 0.70356-0.70152 0.69544-0.69551 0.14930 0.14930
   0   0  -5-3.59474 7.41220   5 0.34871-0.35120-0.91801 0.91797-0.18674-0.18674
   0   0   5-61.7103 43.5955   3 0.70068-0.69813 0.68956-0.68964 0.18663 0.18663
   0   0   6 13739.9 477.554   3 0.69676-0.69369 0.68264-0.68273 0.22396 0.22396
   0   0   7 19.8655 38.3535   3 0.69177-0.68820 0.67464-0.67475 0.26128 0.26128
   0   0   8 19962.2 685.536   3 0.68569-0.68160 0.66554-0.66567 0.29861 0.29861
   0   0   9 39.0004 61.3097   3 0.67848-0.67388 0.65530-0.65544 0.33593 0.33593
   0   0  10 14518.9 678.079   3 0.67008-0.66497 0.64388-0.64403 0.37326 0.37326
   0   0  11 177.323 98.4978   3 0.66045-0.65483 0.63121-0.63138 0.41059 0.41059
   0  -1   0 78.4941 25.7995   3 0.04386-0.04383-0.03618-0.03618 0.99867-0.99865
   0  -1   0 16.5002 18.0917   5 0.99796-0.99796-0.03619-0.03619 0.05921-0.05922
   0  -1  -1 627.540 46.6701   2 0.11076-0.11131 0.67591-0.74839-0.72748 0.65270
   0   1   1 651.393 46.0699   2 0.03619-0.03564 0.75259-0.68010-0.65678 0.73156
   0  -1   1 711.010 50.8204   3 0.58943-0.58888 0.54459-0.61697 0.60032-0.52566
   0  -1  -1 749.557 56.5370   5 0.99262-0.99311-0.11650 0.04412 0.04047-0.11517
   0  -1   1 654.232 41.6239   5 0.99822-0.99771-0.00662-0.06575 0.06599 0.00869
   0   1   2-0.71293 24.7448   3 0.67288-0.67189 0.69605-0.62372-0.24519 0.39448
   0  -1  -2 31.0138 27.0819   5 0.97508-0.97607-0.22174 0.14934 0.01520-0.16460
   0  -1   2 26.0714 31.7679   3 0.66333-0.66227 0.63495-0.70735 0.39995-0.25063
   0   1   2 42.0820 28.5269   5 0.99702-0.99604 0.03479 0.03761 0.07538 0.07401
   0   1   3 1678.52 120.736   3 0.69655-0.69505 0.70872-0.63640-0.10535 0.32929
   0  -1  -3 1668.59 92.9070   5 0.94043-0.94191-0.33946 0.26705-0.01409-0.21000
   0  -1   3 1601.56 121.763   3 0.67857-0.67701 0.65544-0.72785 0.33547-0.11150
   0  -1   4 531.359 84.9091   3 0.68207-0.67999 0.66034-0.73276 0.31811-0.01949
   0   1   4 475.653 78.3238   3 0.70437-0.70236 0.70928-0.63697-0.01383 0.31242
   0  -1  -4 444.224 53.1615   5 0.88501-0.88700-0.46273 0.39031-0.04607-0.25272
   0  -1  -5 805.509 70.6401   5 0.80504-0.80752-0.58713 0.51470-0.07997-0.29351
   0  -1   5 721.655 106.564   3 0.68140-0.67882 0.65940-0.73184 0.32150 0.05178
   0   1   5 656.172 104.601   3 0.70635-0.70382 0.70563-0.63334 0.05683 0.31642
   0  -1  -6 20.1435 23.4523   5 0.69480-0.69777-0.70918 0.63675-0.11540-0.33277
   0  -1   6 45.3913 39.6998   3 0.67853-0.67543 0.65537-0.72783 0.33570 0.11223
   0   1   6 54.1565 47.9819   3 0.70525-0.70221 0.69974-0.62746 0.11674 0.33116
   0  -1   7 221.553 83.6713   3 0.67407-0.67046 0.64925-0.72172 0.35622 0.16636
   0   1   7 351.414 94.9407   3 0.70206-0.69851 0.69225-0.61999 0.17042 0.35213
   0   1   8 62.6295 53.2345   3 0.69720-0.69315 0.68339-0.61115 0.22017 0.37703
   0  -1   8-21.5985 54.6801   3 0.66826-0.66414 0.64144-0.71393 0.38073 0.21650
   0   1   9 298.011 105.408   3 0.69087-0.68630 0.67325-0.60102 0.26730 0.40455
   0  -1   9 521.193 135.077   3 0.66118-0.65655 0.63215-0.70466 0.40793 0.26395
   0  -1  10 28.3571 54.9365   3 0.65285-0.64771 0.62145-0.69397 0.43702 0.30951
   0   1  10 94.4929 71.7066   3 0.68312-0.67805 0.66184-0.58963 0.31260 0.43391
   0   1  11 425.281 137.692   3 0.67399-0.66840 0.64914-0.57695 0.35656 0.46460
   0  -1  11 162.854 95.6483   3 0.64325-0.63759 0.60935-0.68189 0.46749 0.35370
   0  -2   0 67696.1 651.333   5 0.99640-0.99639-0.07238-0.07238 0.05082-0.05084
   0   2   0 76661.2 692.353   3 0.15080-0.15087 0.07236 0.07236 0.98690-0.98693
   0   2   0 74478.9 542.080   4-0.30187 0.30192 0.07241 0.07241-0.95284 0.95270
   0  -2   0 73916.6 705.548   3 0.00781-0.00774-0.07236-0.07237 0.99739-0.99736
   0  -2   0 66565.2 544.216   4-0.01204 0.01199-0.07241-0.07241-0.99729 0.99744
   0  -2   1 560.951 56.5459   3 0.41067-0.41009 0.34506-0.48980 0.84662-0.77194
   0  -2   1 645.126 65.8498   5 0.99686-0.99635-0.06447-0.08028 0.05266 0.02201
   0  -2  -1 669.160 75.5803   5 0.99300-0.99349-0.11297-0.03180 0.04130-0.11602
   0  -2  -1 649.087 56.5285   4-0.66580 0.66520 0.26979-0.41454-0.70068 0.62613
   0  -2   2 21728.0 380.132   3 0.56564-0.56456 0.51701-0.66177 0.64600-0.49667
   0  -2   2 21123.0 315.419   5 0.99382-0.99282-0.10484-0.03990 0.04322 0.10615
   0  -2  -2 21019.9 407.537   5 0.98412-0.98510-0.17649 0.03171 0.02617-0.17557
   0  -2  -2 21781.8 364.831   2 0.14768-0.14878 0.63300-0.77797-0.75859 0.60903
   0   2   3 534.821 73.1851   3 0.66296-0.66149 0.68940-0.54472-0.28680 0.51073
   0  -2   3 558.561 49.3043   5 0.97489-0.97339-0.22257 0.07784 0.01500 0.20907
   0  -2  -3 595.268 76.6683   5 0.96663-0.96811-0.25626 0.11147 0.00673-0.23083
   0  -2   3 591.569 79.4993   3 0.61911-0.61751 0.57980-0.72457 0.53346-0.30948
   0  -2  -3 625.911 73.4035   2 0.02906-0.03066 0.75924-0.90426-0.64948 0.42518
   0  -2  -4 51034.7 661.890   5 0.93745-0.93943-0.34746 0.20267-0.01613-0.28267
   0   2   4 51501.4 758.426   3 0.68938-0.68741 0.70568-0.56101-0.15768 0.45626
   0  -2   4 52018.2 780.480   3 0.63982-0.63771 0.60509-0.74988 0.47768-0.17905
   0  -2   4 49641.5 336.507   5 0.86874-0.86675-0.49173 0.34701-0.05381 0.35257
   0  -2   5 644.655 105.336   3 0.64786-0.64524 0.61513-0.75994 0.45323-0.07994
   0   2   5 662.088 101.993   3 0.70112-0.69863 0.70974-0.56509-0.06054 0.43377
   0  -2  -5 752.522 86.4021   5 0.89357-0.89605-0.44645 0.30165-0.04176-0.33173
   0  -2   6 19357.2 587.362   3 0.64983-0.64670 0.61762-0.76244 0.44693 0.00101
   0   2   6 19493.8 578.047   3 0.70571-0.70271 0.70805-0.56341 0.01852 0.42936
   0  -2  -6 20251.0 430.852   5 0.83162-0.83459-0.55029 0.40547-0.06973-0.37845
   0  -2   7 787.078 137.005   3 0.64829-0.64465 0.61567-0.76051 0.45187 0.07072
   0  -2  -7 776.894 85.8936   5 0.74718-0.75064-0.65639 0.51157-0.09976-0.42312
   0   2   7 804.346 132.666   3 0.70612-0.70261 0.70302-0.55840 0.08658 0.43595
   0   2   8 18267.1 657.824   3 0.70368-0.69965 0.69570-0.55109 0.14752 0.44967
   0  -2   8 17987.7 660.715   3 0.64434-0.64018 0.61071-0.75557 0.46417 0.13307
   0  -2   9 220.540 89.5076   3 0.63850-0.63383 0.60345-0.74832 0.48154 0.19035
   0   2   9 63.3714 59.3024   3 0.69903-0.69449 0.68655-0.54196 0.20360 0.46824
   0  -2  10 10865.2 590.163   3 0.63102-0.62585 0.59425-0.73914 0.50253 0.24402
   0   2  10 10130.9 563.816   3 0.69251-0.68746 0.67579-0.53121 0.25624 0.49025
   0   2  11 176.923 98.6777   3 0.68429-0.67873 0.66351-0.51895 0.30637 0.51477
   0  -2  11 29.8003 66.7937   3 0.62201-0.61633 0.58330-0.72820 0.52618 0.29503
   0   3   0 15.9918 26.7676   4-0.37158 0.37166 0.10862 0.10862-0.92481 0.92459
   0  -3   0 25.7822 33.7483   4 0.06315-0.06323-0.10862-0.10862-0.99147 0.99169
   0  -3   0 6.08208 43.1706   5 0.99345-0.99344-0.10857-0.10857 0.04234-0.04237
   0  -3   1 7810.64 262.599   5 0.99364-0.99313-0.10669-0.11044 0.04279 0.03188
   0   3   1 7452.59 198.075   4-0.75200 0.75262 0.32125-0.10408-0.58125 0.65573
   0  -3  -1 7407.72 278.846   5 0.99055-0.99103-0.13393-0.08322 0.03634-0.11106
   0   3  -1 7601.72 195.029   4 0.26299-0.26346-0.20210 0.41941-0.94122 0.86630
   0  -3   1 7435.67 229.531   3 0.27631-0.27571 0.20230-0.41941 0.94134-0.86664
   0  -3   2 199.036 49.4649   3 0.45410-0.45298 0.39225-0.60937 0.80287-0.65352
   0  -3   2 195.392 50.3891   5 0.99040-0.98939-0.13513-0.08199 0.03606 0.11330
   0  -3  -2 202.671 61.6314   5 0.98390-0.98487-0.17777-0.03939 0.02586-0.17528
   0  -3  -2 177.694 53.7386   2 0.29410-0.29526 0.42641-0.64380-0.85321 0.70360
   0  -3   3 498.916 77.5751   3 0.53974-0.53811 0.48745-0.70459 0.68976-0.46576
   0  -3  -3 511.008 85.3245   5 0.97170-0.97317-0.23624 0.01908 0.01165-0.23576
   0  -3   3 526.029 66.9840   5 0.97889-0.97739-0.20403-0.01308 0.01951 0.20455
   0  -3  -3 464.289 71.8839   2 0.18435-0.18601 0.58697-0.80442-0.78679 0.56245
   0  -3   4 67.1822 53.3496   3 0.58105-0.57891 0.53483-0.75198 0.61709-0.31844
   0  -3   4 43.7553 26.5963   5 0.94374-0.94173-0.33028 0.11317-0.01177 0.31052
   0   3   4 64.7564 45.4971   3 0.66602-0.66407 0.69150-0.47447-0.27456 0.57312
   0  -3  -4 103.932 47.5734   2 0.10621-0.10838 0.68096-0.89845-0.72347 0.42440
   0  -3  -4 99.9350 54.6632   5 0.95189-0.95386-0.30629 0.08911-0.00572-0.29308
   0  -3   5 77.9650 21.8401   5 0.83247-0.82997-0.54905 0.33196-0.06939 0.44284
   0  -3  -5 47.9276 40.6337   5 0.92224-0.92471-0.38536 0.16818-0.02583-0.34767
   0  -3   5 71.2849 53.5098   3 0.60144-0.59879 0.55872-0.77590 0.57477-0.20147
   0   3   5 22.1943 40.5415   3 0.68893-0.68647 0.70545-0.48844-0.16059 0.53380
   0  -3   6 627.357 115.793   3 0.61104-0.60788 0.57012-0.78731 0.55294-0.10498
   0   3   6 662.180 116.410   3 0.70051-0.69754 0.70968-0.49267-0.06744 0.51531
   0  -3  -6 508.317 91.3015   5 0.88033-0.88330-0.47132 0.25413-0.04835-0.39984
   0   3   7 10.4595 49.7525   3 0.70550-0.70202 0.70835-0.49137 0.01205 0.51047
   0  -3   7 51.7471 39.4036   3 0.61441-0.61073 0.57415-0.79135 0.54495-0.02234
   0  -3  -7-10.9910 37.1911   5 0.82327-0.82673-0.56226 0.34506-0.07304-0.44984
   0  -3   8-28.7595 54.2516   3 0.61375-0.60956 0.57336-0.79057 0.54653 0.05073
   0   3   8 52.8564 55.0328   3 0.70619-0.70220 0.70344-0.48647 0.08231 0.51486
   0  -3   9 103.873 78.0004   3 0.61019-0.60549 0.56910-0.78634 0.55494 0.11697
   0   3   9 68.4345 62.2245   3 0.70376-0.69926 0.69590-0.47895 0.14610 0.52572
   0   3  10 148.365 83.7202   3 0.69886-0.69385 0.68625-0.46931 0.20522 0.54126
   0  -3  10 171.726 102.878   3 0.60433-0.59912 0.56214-0.77939 0.56835 0.17822
   0   3  11 76.4154 87.2559   3 0.69184-0.68631 0.67474-0.45782 0.26086 0.56027
   0  -3  11-51.5957 70.4717   3 0.59651-0.59079 0.55290-0.77016 0.58550 0.23572
   0  -4   0 24157.2 548.506   5 0.98910-0.98908-0.14476-0.14476 0.03377-0.03380
   0   4   0 24877.1 394.803   4-0.44012 0.44022 0.14483 0.14483-0.88950 0.88921
   0  -4   1 2507.26 159.093   3 0.17629-0.17565 0.09851-0.38799 0.98055-0.90584
   0  -4   1 2955.18 189.352   5 0.98897-0.98845-0.14573-0.14378 0.03353 0.04112
   0  -4  -1 2720.21 193.678   5 0.98652-0.98700-0.16205-0.12748 0.02963-0.10436
   0   4  -1 2473.14 131.066   4 0.04845-0.04889-0.10158 0.39132-0.99316 0.91817
   0   4   1 2468.63 127.624   4-0.73538 0.73604 0.31107-0.02149-0.60757 0.68198
   0  -4  -2 42618.3 781.405   5 0.98078-0.98176-0.19457-0.09497 0.02180-0.17123
   0  -4   2 42346.5 683.378   5 0.98542-0.98441-0.16883-0.12067 0.02801 0.12134
   0  -4   2 42755.0 652.119   3 0.34926-0.34811 0.27926-0.56875 0.89671-0.74735
   0  -4   3 2391.76 160.500   5 0.97565-0.97414-0.21921-0.07029 0.01582 0.20823
   0  -4   3 2740.55 182.390   3 0.45282-0.45116 0.39085-0.68036 0.80427-0.58025
   0  -4  -3 2618.43 202.874   5 0.97082-0.97229-0.23984-0.04971 0.01077-0.23489
   0  -4  -3 2886.61 191.339   2 0.29323-0.29494 0.42783-0.71771-0.85280 0.62841
   0  -4  -4 33355.1 659.198   2 0.22049-0.22270 0.53807-0.82800-0.81180 0.51268
   0   4   4 32639.8 665.464   3 0.64106-0.63915 0.67347-0.38407-0.36329 0.66184
   0  -4  -4 31934.9 710.625   5 0.95523-0.95720-0.29577 0.00622-0.00309-0.29572
   0  -4   4 32576.0 547.200   5 0.95254-0.95053-0.30427 0.01479-0.00522 0.30396
   0  -4   4 33904.6 686.520   3 0.51165-0.50947 0.45585-0.74537 0.73155-0.43288
   0  -4   5 703.620 114.020   3 0.54490-0.54221 0.49330-0.78284 0.68148-0.30816
   0   4   5 789.340 123.358   3 0.67371-0.67129 0.69659-0.40721-0.24139 0.61459
   0  -4   5 762.677 126.490   1 0.53108-0.52857-0.78643 0.49649-0.31097 0.68457
   0  -4  -5 671.837 110.943   5 0.93240-0.93487-0.36057 0.07101-0.01947-0.35404
   0  -4   5 643.745 74.8954   5 0.89892-0.89641-0.43587 0.14640-0.03898 0.41241
   0  -4  -6 11258.5 432.653   2 0.12775-0.13097 0.65658-0.94660-0.74213 0.29354
   0  -4   6 10985.3 466.335   3 0.56341-0.56021 0.51445-0.80400 0.65000-0.20203
   0   4   6 11695.2 466.770   3 0.69211-0.68917 0.70697-0.41760-0.13944 0.58730
   0  -4  -6 11771.2 440.428   5 0.90051-0.90347-0.43266 0.14308-0.03813-0.41007
   0   4   7 1993.72 214.199   3 0.70185-0.69840 0.70977-0.42042-0.05177 0.57427
   0  -4  -7 2260.48 212.389   2 0.10325-0.10697 0.68422-0.97430-0.72084 0.19752
   0  -4   7 2192.37 228.360   3 0.57296-0.56926 0.52545-0.81502 0.63257-0.10994
   0  -4  -7 2252.38 201.551   5 0.85743-0.86089-0.51059 0.22101-0.05890-0.46400
   0  -4  -8 11790.1 512.368   2 0.08925-0.09347 0.69937-0.98949-0.70815 0.11010
   0   4   8 11005.9 530.027   3 0.70591-0.70195 0.70767-0.41834 0.02570 0.57146
   0  -4   8 11531.4 558.029   3 0.57667-0.57245 0.52974-0.81932 0.62557-0.02829
   0  -4  -9 1276.74 190.508   2 0.08339-0.08812 0.70557-0.99574-0.70274 0.02995
   0   4   9 1422.17 211.109   3 0.70592-0.70145 0.70210-0.41277 0.09575 0.57606
   0  -4   9 1236.87 204.974   3 0.57625-0.57152 0.52925-0.81885 0.62636 0.04556
   0  -4 -10 8161.85 482.323   2 0.08394-0.08917 0.70499-0.99521-0.70325-0.04427
   0   4  10 7236.49 490.997   3 0.70282-0.69784 0.69382-0.40452 0.16029 0.58617
   0  -4  10 7722.05 518.116   3 0.57270-0.56746 0.52515-0.81476 0.63306 0.11352
   0   4  11 523.837 148.738   3 0.69714-0.69165 0.68329-0.39400 0.22069 0.60043
   0  -4  11 1028.92 203.131   3 0.56659-0.56084 0.51810-0.80773 0.64429 0.17694
   0  -5   0 46.1878 72.0480   5 0.98333-0.98330-0.18095-0.18095 0.02509-0.02514
   0   5   0 32.2308 28.5973   4-0.50738 0.50751 0.18104 0.18104-0.84632 0.84596
   0  -5  -1 5366.60 300.988   5 0.98104-0.98151-0.19323-0.16867 0.02213-0.09687
   0  -5   1 5140.50 280.224   5 0.98285-0.98233-0.18360-0.17829 0.02445 0.05020
   0  -5   1 4870.49 260.451   3 0.09633-0.09566 0.01684-0.37867 0.99584-0.92111
   0   5   1 4848.75 192.549   4-0.73856 0.73924 0.31301 0.04899-0.60268 0.67702
   0   5  -1 5173.47 214.179   4-0.12704 0.12663-0.01598 0.37812-0.99266 0.91759
   0   5  -2 84.9735 37.5463   4 0.22052-0.22148-0.18258 0.54480-0.95630 0.80654
   0  -5   2 6.56449 36.9407   5 0.97897-0.97795-0.20368-0.15821 0.01960 0.12975
   0  -5   2 30.2338 42.6189   3 0.25576-0.25458 0.18082-0.54267 0.95135-0.80197
   0  -5  -2 54.1036 66.6485   5 0.97583-0.97679-0.21841-0.14351 0.01601-0.16544
   0  -5   3 520.779 90.0895   5 0.96971-0.96819-0.24431-0.11756 0.00967 0.21437
   0  -5  -3 636.832 116.688   5 0.96703-0.96849-0.25475-0.10718 0.00710-0.23123
   0  -5   3 642.870 100.860   3 0.36598-0.36429 0.29708-0.65895 0.88430-0.66027
   0  -5   4 57.2914 57.2164   1 0.56730-0.56535-0.68175 0.31935-0.45747 0.75637
   0  -5  -4 100.942 62.2245   5 0.95367-0.95563-0.30074-0.06120-0.00433-0.29449
   0  -5   4 67.7426 49.0052   3 0.43689-0.43468 0.37347-0.73536 0.82113-0.52244
   0  -5   4 64.8142 44.6791   5 0.95078-0.94877-0.30967-0.05219-0.00657 0.30530
   0   5   5-4.13857 44.7846   3 0.65862-0.65623 0.68636-0.32461-0.30340 0.67659
   0  -5  -5 3.14746 41.3163   2 0.25642-0.25918 0.48572-0.84813-0.83370 0.45980
   0  -5   5 31.8819 36.5047   5 0.91328-0.91077-0.40570 0.04384-0.03109 0.40452
   0  -5  -5-14.1666 63.2330   5 0.93455-0.93701-0.35506-0.00688-0.01806-0.35545
   0  -5   5-34.3120 45.0647   3 0.48130-0.47858 0.42214-0.78404 0.77128-0.39795
   0  -5   5 29.8054 58.2926   1 0.54647-0.54399-0.75110 0.38869-0.36599 0.73960
   0  -5  -6 49.5300 47.5404   2 0.21700-0.22027 0.54295-0.90541-0.80951 0.36088
   0  -5   6 47.3112 63.2722   1 0.52147-0.51846-0.80457 0.44215-0.27972 0.72804
   0   5   6 105.493 68.8629   3 0.68266-0.67976 0.70206-0.34033-0.19710 0.64494
   0  -5  -6-27.9009 47.5961   5 0.90829-0.91124-0.41651 0.05456-0.03391-0.41430
   0  -5   6 113.584 62.3045   3 0.50865-0.50542 0.45250-0.81442 0.73570-0.28772
   0  -5  -7 150.978 76.0178   5 0.87323-0.87668-0.48398 0.12201-0.05173-0.47117
   0   5   7 138.270 75.4764   3 0.69668-0.69326 0.70876-0.34704-0.10427 0.62676
   0  -5  -7 130.950 66.4545   2 0.18865-0.19242 0.58134-0.94385-0.78992 0.26655
   0  -5   7 161.738 74.0891   3 0.52488-0.52114 0.47068-0.83261 0.71252-0.18988
   0  -5  -8 151.268 74.7370   2 0.16977-0.17405 0.60569-0.96824-0.77592 0.17782
   0   5   8 123.803 74.3989   3 0.70393-0.70001 0.70946-0.34776-0.02169 0.61883
   0  -5   8 171.275 88.6214   3 0.53357-0.52932 0.48048-0.84243 0.69939-0.10210
   0  -5  -9-11.0681 47.9432   2 0.15905-0.16382 0.61911-0.98171-0.76763 0.09480
   0  -5   9-18.4536 60.6332   3 0.53690-0.53214 0.48425-0.84621 0.69422-0.02228
   0   5   9 107.008 74.9544   3 0.70633-0.70189 0.70591-0.34422 0.05313 0.61866
   0  -5  10 21.3009 81.3332   3 0.53619-0.53092 0.48344-0.84542 0.69533 0.05126
   0   5  10 51.9133 87.5166   3 0.70502-0.70008 0.69909-0.33742 0.12203 0.62441
   0   5  11-104.109 80.6896   3 0.70070-0.69524 0.68961-0.32795 0.18637 0.63473
   0  -5  11 85.5460 86.4276   3 0.53225-0.52647 0.47899-0.84098 0.70142 0.11982
   0  -6   0 12697.0 493.242   5 0.97611-0.97607-0.21714-0.21714 0.01632-0.01638
   0   6   0 13966.9 331.298   4-0.57322 0.57338 0.21724 0.21724-0.79441 0.79397
   0  -6   1 1557.09 168.561   3 0.02827-0.02756-0.05186-0.38234 0.99844-0.92369
   0  -6  -1 1695.93 192.299   5 0.97411-0.97458-0.22601-0.20828 0.01416-0.08890
   0   6   1 1809.39 125.769   4-0.75451 0.75521 0.32280 0.11161-0.57709 0.65135
   0  -6   1 1947.55 192.008   5 0.97527-0.97474-0.22090-0.21337 0.01540 0.05924
   0   6  -1 1778.06 131.088   4-0.27454 0.27415 0.05838 0.37618-0.96184 0.88670
   0   6  -2 14952.6 395.548   4 0.04229-0.04322-0.09863 0.53327-0.99379 0.84396
   0  -6  -2 15290.1 564.252   5 0.96928-0.97024-0.24603-0.18827 0.00925-0.15869
   0  -6   2 15496.3 521.556   5 0.97102-0.96999-0.23904-0.19522 0.01096 0.13837
   0  -6   2 15158.0 493.447   3 0.17261-0.17139 0.09473-0.52895 0.98156-0.83216
   0  -6  -3 4549.18 318.952   5 0.96119-0.96264-0.27594-0.15837 0.00185-0.22599
   0  -6   3 4899.54 288.964   5 0.96183-0.96031-0.27368-0.16058 0.00242 0.22161
   0  -6   3 4875.31 331.271   1 0.58333-0.58193-0.57078 0.13593-0.57341 0.79762
   0  -6   3 4711.47 282.898   3 0.28265-0.28093 0.20894-0.64318 0.93803-0.71399
   0   6  -3 4803.15 239.953   4 0.27527-0.27675-0.20770 0.64241-0.93639 0.71186
   0  -6   4 17862.5 535.001   5 0.94472-0.94270-0.32749-0.10675-0.01106 0.30978
   0  -6   4 18528.0 670.121   1 0.57274-0.57081-0.65544 0.22057-0.48784 0.78675
   0  -6  -4 18353.9 645.264   5 0.94915-0.95110-0.31458-0.11973-0.00781-0.29102
   0  -6   4 19270.1 595.349   3 0.36047-0.35824 0.29121-0.72546 0.88848-0.58978
   0  -6  -5 2905.50 262.645   5 0.93226-0.93471-0.36095-0.07338-0.01956-0.35396
   0  -6   5 2962.98 279.537   1 0.55574-0.55329-0.72446 0.28958-0.40336 0.77698
   0  -6   5 2819.24 240.853   3 0.41341-0.41066 0.34802-0.78228 0.84408-0.47073
   0  -6   5 2995.92 214.207   5 0.91403-0.91151-0.40406-0.03018-0.03067 0.40409
   0   6   5 2739.07 237.760   3 0.64572-0.64335 0.67696-0.24285-0.34839 0.72156
   0  -6   6 19023.4 655.440   3 0.44857-0.44532 0.38621-0.82049 0.80887-0.36087
   0  -6  -6 18255.9 664.635   5 0.90941-0.91236-0.41410-0.02024-0.03328-0.41494
   0   6   6 18461.4 642.195   3 0.67380-0.67093 0.69665-0.26255-0.24099 0.68882
   0  -6  -6 19693.1 646.594   2 0.29192-0.29524 0.42997-0.86486-0.85218 0.40350
   0  -6   6 18491.5 707.405   1 0.53419-0.53121-0.78000 0.34511-0.32151 0.76985
   0  -6   7 3156.87 288.553   3 0.47128-0.46751 0.41110-0.84540 0.78333-0.26067
   0  -6   7 3166.10 314.078   1 0.50939-0.50589-0.82421 0.38930-0.24295 0.76600
   0  -6  -7 3283.47 284.337   2 0.26328-0.26710 0.47526-0.91020-0.83753 0.31411
   0  -6  -7 3265.83 290.973   5 0.87932-0.88276-0.47316 0.03881-0.04884-0.47407
   0   6   7 3155.41 286.421   3 0.69123-0.68785 0.70657-0.27249-0.14550 0.66798
   0  -6  -8 9920.10 509.001   2 0.24253-0.24685 0.50641-0.94140-0.82560 0.22745
   0   6   8 8973.07 509.259   3 0.70120-0.69731 0.70975-0.27568-0.05965 0.65678
   0  -6  -8 9602.85 495.962   5 0.84039-0.84433-0.53728 0.10293-0.06616-0.53145
   0  -6   8 8749.52 507.103   3 0.48515-0.48086 0.42639-0.86070 0.76652-0.16922
   0  -6  -9 1425.76 207.532   2 0.22893-0.23375 0.52612-0.96116-0.81721 0.14433
   0  -6   9 1451.26 225.923   3 0.49254-0.48774 0.43458-0.86890 0.75716-0.08520
   0   6   9 1403.42 223.576   3 0.70571-0.70131 0.70804-0.27399 0.01857 0.65321
   0  -6  10 6137.46 479.518   3 0.49501-0.48970 0.43732-0.87166 0.75397-0.00736
   0   6  10 5295.33 442.257   3 0.70604-0.70112 0.70261-0.26857 0.09079 0.65564
   0   6  11 939.376 211.604   3 0.70296-0.69754 0.69413-0.26011 0.15827 0.66281
   0   7   0 36.0469 30.6689   4-0.63744 0.63763 0.25345 0.25345-0.73244 0.73193
   0  -7   0 36.1233 57.6833   5 0.96740-0.96736-0.25333-0.25333 0.00745-0.00751
   0  -7  -1 257.554 88.4927   5 0.96571-0.96616-0.25971-0.24696 0.00587-0.08063
   0   7  -1 311.700 60.9615   4-0.40265 0.40229 0.12496 0.38202-0.90981 0.83460
   0   7   1 322.961 58.7732   4-0.77833 0.77906 0.33774 0.16909-0.53511 0.60930
   0  -7   1 174.383 79.8100   5 0.96619-0.96566-0.25789-0.24876 0.00632 0.06831
   0  -7  -2 888.030 155.294   5 0.96119-0.96215-0.27592-0.23076 0.00186-0.15131
   0   7  -2 974.070 115.041   4-0.12495 0.12404-0.01701 0.52406-0.99289 0.84298
   0  -7   2 987.030 149.803   5 0.96154-0.96051-0.27470-0.23194 0.00216 0.14716
   0  -7   2 1104.51 154.358   3 0.09764-0.09639 0.01817-0.52475 0.99570-0.84629
   0   7  -3 1839.74 158.409   4 0.11188-0.11333-0.13179 0.63891-0.98396 0.75936
   0  -7   3 1901.12 200.929   3 0.20386-0.20210 0.12694-0.63354 0.97207-0.74801
   0  -7   3 1869.11 200.734   5 0.95221-0.95069-0.30527-0.20136-0.00547 0.22949
   0  -7   3 1686.09 215.253   1 0.58399-0.58262-0.56061 0.05329-0.58263 0.80685
   0  -7  -3 1585.00 208.859   5 0.95360-0.95505-0.30097-0.20572-0.00439-0.21976
   0  -7   4 175.829 83.9777   1 0.57550-0.57360-0.63943 0.13209-0.50536 0.80429
   0  -7   4 223.049 80.6244   5 0.93592-0.93390-0.35150-0.15512-0.01715 0.31587
   0  -7   4 243.855 93.7020   3 0.28461-0.28234 0.21099-0.71761 0.93699-0.63828
   0  -7  -4 420.819 116.286   5 0.94242-0.94437-0.33397-0.17273-0.01270-0.28614
   0   7  -4 188.570 62.6516   4 0.27879-0.28079-0.20930 0.71651-0.93497 0.63567
   0  -7   5 507.453 118.734   3 0.34333-0.34055 0.27296-0.77960 0.90090-0.52754
   0  -7   5 317.770 91.2465   5 0.90863-0.90610-0.41579-0.09083-0.03372 0.40713
   0  -7  -5 298.556 100.062   5 0.92695-0.92940-0.37412-0.13259-0.02294-0.35060
   0  -7   5 285.449 111.590   1 0.56118-0.55876-0.70604 0.19869-0.42749 0.80113
   0   7   6 121.996 70.9183   3 0.66660-0.66376 0.69189-0.18543-0.27219 0.72000
   0  -7  -6-44.6820 67.3988   5 0.90633-0.90927-0.42065-0.08607-0.03499-0.41324
   0  -7   6 138.672 87.4413   1 0.54235-0.53940-0.76149 0.25414-0.35050 0.79885
   0  -7   6 155.289 91.0953   3 0.38481-0.38152 0.31723-0.82387 0.86926-0.42124
   0   7   7-119.391 74.9766   3 0.68642-0.68307 0.70415-0.19771-0.17588 0.69834
   0  -7   7-32.0079 87.1844   1 0.52004-0.51657-0.80706 0.29968-0.27524 0.79830
   0  -7   7 156.098 77.9154   3 0.41332-0.40952 0.34792-0.85458 0.84416-0.32149
   0  -7  -7-3.16230 83.6455   5 0.87948-0.88292-0.47286-0.03386-0.04876-0.47416
   0   7   8 53.1869 69.6861   3 0.69846-0.69460 0.70928-0.20285-0.08827 0.68538
   0  -7  -8 212.315 95.6339   5 0.84512-0.84906-0.53007 0.02334-0.06419-0.53343
   0  -7   8-63.6446 68.1056   3 0.43214-0.42783 0.36831-0.87499 0.82594-0.22862
   0  -7  -8 225.013 92.8700   2 0.30648-0.31085 0.40585-0.91327-0.85877 0.26058
   0   7   9-72.3655 87.5896   3 0.70467-0.70030 0.70911-0.20269-0.00784 0.67961
   0  -7   9 316.990 117.841   3 0.44364-0.43881 0.38082-0.88752 0.81412-0.14214
   0  -7  10 215.634 100.702   3 0.44944-0.44411 0.38716-0.89387 0.80793-0.06131
   0   7  10 66.8358 68.3651   3 0.70634-0.70146 0.70483-0.19843 0.06675 0.67966
   0  -8   0 18670.4 692.386   5 0.95716-0.95712-0.28952-0.28952-0.00153 0.00146
   0  -8  -1 4840.52 362.178   5 0.95578-0.95624-0.29401-0.28504-0.00265-0.07212
   0  -8   1 4548.19 339.043   5 0.95557-0.95503-0.29469-0.28434-0.00282 0.07744
   0  -8   2 9102.01 463.224   3 0.02888-0.02760-0.05124-0.52771 0.99845-0.84903
   0  -8   2 9308.90 475.523   5 0.95050-0.94946-0.31052-0.26850-0.00679 0.15610
   0  -8  -2 9155.52 506.818   5 0.95157-0.95252-0.30727-0.27179-0.00597-0.14349
   0  -8   3 3287.01 289.829   3 0.12951-0.12772 0.05060-0.62956 0.99114-0.76706
   0  -8  -3 3538.02 324.019   5 0.94436-0.94580-0.32853-0.25054-0.01132-0.21283
   0  -8   3 2802.63 295.962   1 0.58408-0.58274-0.55903-0.02076-0.58404 0.80828
   0  -8   3 3549.58 289.962   5 0.94089-0.93936-0.33818-0.24083-0.01377 0.23778
   0  -8   4 7095.87 479.421   1 0.57670-0.57483-0.63168 0.05188-0.51359 0.81253
   0  -8  -4 7486.41 476.826   5 0.93378-0.93573-0.35706-0.22202-0.01857-0.28028
   0  -8   4 8384.89 440.668   5 0.92490-0.92287-0.37906-0.19995-0.02421 0.32291
   0  -8   4 8158.58 458.747   3 0.21040-0.20810 0.13370-0.71268 0.96981-0.67108
   0  -8   5 3605.47 287.202   5 0.89941-0.89688-0.43489-0.14411-0.03872 0.41212
   0  -8   5 3597.97 314.052   3 0.27251-0.26969 0.19831-0.77731 0.94327-0.56989
   0  -8  -5 3421.51 333.460   5 0.91929-0.92173-0.39221-0.18688-0.02760-0.34594
   0  -8   5 3014.46 327.878   1 0.56415-0.56176-0.69481 0.11500-0.44159 0.81524
   0   8   6 9741.78 506.632   3 0.66165-0.65884 0.68849-0.10966-0.29190 0.73969
   0  -8   6 10481.3 548.092   3 0.31867-0.31534 0.24684-0.82585 0.91723-0.46920
   0  -8   6 9628.85 590.017   1 0.54734-0.54442-0.74881 0.16898-0.36932 0.81768
   0  -8  -6 10080.8 574.224   5 0.90017-0.90311-0.43336-0.14574-0.03832-0.40992
   0   8   7 3414.83 321.303   3 0.68285-0.67953 0.70217-0.12336-0.19606 0.71850
   0  -8  -7 3487.85 350.151   5 0.87553-0.87897-0.47992-0.09919-0.05064-0.47229
   0  -8   7 3059.07 348.877   1 0.52706-0.52361-0.79433 0.21449-0.29764 0.82071
   0  -8   7 3666.24 338.289   3 0.35203-0.34819 0.28221-0.86123 0.89471-0.37203
   0  -8  -8 3956.61 373.852   5 0.84430-0.84823-0.53133-0.04779-0.06453-0.53309
   0  -8   8 4785.19 411.317   3 0.37533-0.37098 0.30707-0.88611 0.87698-0.27964
   0   8   8 4204.33 377.550   3 0.69626-0.69243 0.70862-0.12982-0.10783 0.70492
   0   8   9 1706.70 251.403   3 0.70366-0.69932 0.70955-0.13077-0.02616 0.69791
   0  -8   9 1992.43 283.617   3 0.39073-0.38587 0.32358-0.90264 0.86428-0.19229
   0  -9   0-11.6902 59.1584   5 0.94534-0.94530-0.32571-0.32571-0.01061 0.01053
   0  -9  -1 66.9918 79.1986   5 0.94429-0.94474-0.32870-0.32273-0.01137-0.06341
   0  -9   1 59.3488 56.1705   5 0.94335-0.94281-0.33136-0.32005-0.01204 0.08666
   0  -9  -2 149.880 90.2832   5 0.94037-0.94131-0.33962-0.31182-0.01413-0.13534
   0  -9   2 14.5370 69.7910   5 0.93783-0.93679-0.34646-0.30494-0.01587 0.16518
   0  -9   3-37.7928 65.3368   5 0.92785-0.92632-0.37192-0.27947-0.02237 0.24638
   0  -9   3-15.9170 66.3430   3 0.05907-0.05724-0.02087-0.63046 0.99842-0.77433
   0  -9   3 13.7157 59.4619   1 0.58379-0.58248-0.56387-0.08839-0.57970 0.80394
   0  -9  -3 83.1799 77.6120   5 0.93348-0.93493-0.35782-0.29363-0.01877-0.20540
   0  -9   4-27.6678 72.9714   1 0.57687-0.57504-0.63051-0.02176-0.51482 0.81378
   0  -9   4 123.662 78.4812   5 0.91185-0.90982-0.40883-0.24256-0.03191 0.33060
   0  -9   4 155.887 88.4752   3 0.13825-0.13592 0.05953-0.71087 0.98951-0.69077
   0  -9  -4-97.2421 88.6994   5 0.92336-0.92530-0.38273-0.26873-0.02515-0.27370
   0  -9   5 43.3588 62.4955   3 0.20181-0.19897 0.12482-0.77618 0.97276-0.59936
   0  -9  -5-38.0377 95.5639   5 0.90956-0.91200-0.41378-0.23769-0.03320-0.34035
   0  -9   5 113.808 114.478   1 0.56543-0.56306-0.68968 0.03739-0.44790 0.82156
   0  -9   6-4.96358 70.3332   1 0.55006-0.54717-0.74138 0.08909-0.37998 0.82835
   0  -9   6-15.5138 71.8297   3 0.25112-0.24776 0.17598-0.82735 0.95347-0.50542
   0   9   6 269.801 100.149   3 0.65919-0.65642 0.68676-0.03557-0.30126 0.74904
   0  -9  -6 42.0696 75.7944   5 0.89150-0.89443-0.45047-0.20101-0.04282-0.40542
   0  -9   7 254.817 158.312   1 0.53134-0.52792-0.78591 0.13360-0.31184 0.83492
   0  -9  -7 24.9737 92.3287   5 0.86841-0.87185-0.49230-0.15919-0.05396-0.46898
   0  -9   7 95.5369 87.4866   3 0.28827-0.28440 0.21483-0.86622 0.93502-0.41232
   0  -9  -8-165.377 105.993   5 0.83939-0.84332-0.53879-0.11271-0.06657-0.53106
   0  -9   8-20.8343 103.335   1 0.50975-0.50581-0.82367 0.17134-0.24401 0.84180
   0  -9   8 197.870 105.426   3 0.31539-0.31101 0.24338-0.89478 0.91927-0.32192
   0 -10   0 4500.06 386.724   5 0.93188-0.93183-0.36190-0.36190-0.01981 0.01972
   0 -10   1 2902.68 309.603   5 0.92947-0.92892-0.36795-0.35584-0.02136 0.09596
   0 -10  -1 2642.18 308.067   5 0.93118-0.93162-0.36367-0.36014-0.02026-0.05452
   0 -10  -2 4386.51 396.426   5 0.92754-0.92849-0.37268-0.35114-0.02257-0.12691
   0 -10   2 4495.01 377.996   5 0.92347-0.92242-0.38248-0.34131-0.02509 0.17439
   0 -10   3 4178.82 399.633   1 0.58312-0.58184-0.57359-0.15114-0.57083 0.79509
   0 -10  -3 4273.73 397.264   5 0.92095-0.92239-0.38838-0.33545-0.02661-0.19756
   0 -10   3 4293.71 366.552   5 0.91304-0.91150-0.40623-0.31754-0.03123 0.25523
   0 -10   4 4683.70 378.794   5 0.89682-0.89477-0.44007-0.28369-0.04008 0.33877
   0 -10  -4 5132.63 445.098   5 0.91119-0.91312-0.41028-0.31356-0.03228-0.26658
   0 -10   4 4706.08 449.591   1 0.57627-0.57446-0.63455-0.09019-0.51056 0.80953
   0 -10  -5 3835.71 395.211   5 0.89790-0.90033-0.43791-0.28594-0.03951-0.33405
   0 -10   5 3122.32 384.123   1 0.56544-0.56311-0.68960-0.03515-0.44799 0.82166
   0 -10  -6 4070.55 413.115   5 0.88060-0.88352-0.47084-0.25301-0.04822-0.40003
   0 -10   6 3367.73 399.149   1 0.55106-0.54820-0.73856 0.01380-0.38396 0.83235
   0 -10  -7 2843.26 357.118   5 0.85863-0.86205-0.50865-0.21521-0.05837-0.46458
   0 -11   0 37.2090 71.9582   5 0.91670-0.91664-0.39809-0.39809-0.02912 0.02902
   0 -11   1 155.752 104.263   5 0.91384-0.91328-0.40447-0.39170-0.03078 0.10537
   0 -11  -1 41.0874 78.6767   5 0.91636-0.91680-0.39885-0.39734-0.02932-0.04547
   0 -11  -2-66.8704 81.0728   5 0.91303-0.91396-0.40626-0.38994-0.03124-0.11825
   0 -11   2-62.4360 79.6412   5 0.90732-0.90627-0.41855-0.37761-0.03444 0.18373
   0 -11   3-4.03415 90.7911   1 0.58201-0.58076-0.58707-0.21012-0.55821 0.78248
   0 -11  -3 60.2814 98.8441   5 0.90670-0.90813-0.41986-0.37635-0.03478-0.18940
   0 -11   3 34.4366 77.8088   5 0.89638-0.89483-0.44094-0.35521-0.04031 0.26429
   0 -11   4-282.302 140.017   1 0.57496-0.57318-0.64275-0.15446-0.50178 0.80076
   0 -11   4 45.0386 78.1565   5 0.87976-0.87771-0.47236-0.32378-0.04863 0.34731
   0 -11  -4 155.162 112.405   5 0.89724-0.89917-0.43923-0.35699-0.03986-0.25902
   0 -11  -5 192.490 113.410   5 0.88435-0.88677-0.46397-0.33226-0.04640-0.32717
   0 -11   5 294.162 144.859   1 0.56442-0.56212-0.69373-0.10350-0.44293 0.81662
   0 -12   0 1736.15 283.294   5 0.89971-0.89965-0.43428-0.43428-0.03856 0.03845
   0 -12   1 3032.68 359.907   5 0.89637-0.89581-0.44095-0.42760-0.04031 0.11490
   0 -12  -1 3267.55 381.979   5 0.89976-0.90019-0.43419-0.43438-0.03853-0.03627
   0 -12   2 2775.13 336.754   5 0.88930-0.88825-0.45466-0.41388-0.04393 0.19321
   0 -12  -2 3009.41 378.004   5 0.89673-0.89766-0.44024-0.42834-0.04013-0.10937
   0 -12   3 3575.54 413.507   1 0.58036-0.57913-0.60350-0.26616-0.54231 0.76659
   0 -12   3 3780.88 392.619   5 0.87776-0.87621-0.47595-0.39258-0.04959 0.27356
  -1   0  11-3.76520 55.5108   3 0.63911-0.71758 0.60421-0.60434 0.47976 0.34083
  -1   0  10 454.605 132.689   3 0.64872-0.72770 0.61622-0.61633 0.45049 0.29545
  -1   0   9 56.7161 57.7959   3 0.65701-0.73650 0.62677-0.62687 0.42285 0.24844
  -1   0   8 485.611 120.371   3 0.66399-0.74399 0.63582-0.63590 0.39744 0.19920
  -1   0   7 30.7542 65.2121   3 0.66961-0.75012 0.64324-0.64331 0.37522 0.14676
  -1   0   6 379.851 87.9958   3 0.67372-0.75474 0.64877-0.64883 0.35776 0.08958
   1   0  -5 7.60612 10.0322   5-0.15653 0.23810-0.96058 0.96053-0.23086-0.14205
   1   0  -5 27.5044 18.3293   5 0.98385-0.90228-0.17803 0.17798 0.02580-0.39871
  -1   0   5 54.2515 41.9778   3 0.67594-0.75747 0.65180-0.65184 0.34781 0.02488
  -1   0   4 8070.88 298.410   3 0.67529-0.75734 0.65092-0.65094 0.35073-0.05270
   1   0  -4 7603.45 147.725   5-0.25584 0.33790-0.93874 0.93870-0.23263-0.06559
  -1   0   3 44.4531 37.7656   3 0.66885-0.75141 0.64223-0.64224 0.37832-0.15494
   1   0  -3 19.1408 15.9437   5-0.28111 0.36367-0.93151 0.93148-0.23269 0.00917
  -1   0   2 318.753 49.8746   3 0.64531-0.72837 0.61193-0.61192 0.46120-0.31247
   1   0  -2 299.375 32.6756   5-0.23943 0.32249-0.94307 0.94304-0.23250 0.08367
   1   0  -1 52.4631 21.5848   3 0.59580-0.51222 0.55207-0.55209 0.58701-0.66108
  -1   0   1 54.5087 25.2531   4-0.68093 0.59739 0.27860-0.27871-0.68243 0.75651
  -1   0   1 16.4530 14.9551   5-0.28150 0.19794-0.93139 0.93141-0.23269 0.30683
   1   0  -1 26.1728 18.8902   5-0.12965 0.21321-0.96474 0.96473-0.22999 0.15585
  -1   0   1 65.9446 23.7761   3 0.53888-0.62246 0.48648-0.48646 0.69111-0.61704
  -1   0   0 577.822 43.1476   5-0.04203-0.04203-0.97331 0.97332-0.22598 0.22543
  -1   0   0 658.176 63.8223   4-0.04204-0.04204-0.05782 0.05779-0.99766 0.99705
   1   0   1 26.4807 19.6890   5 0.25317-0.16862-0.94627 0.94627-0.19970 0.27496
  -1   0  -1 32.7315 20.2217   5 0.11490-0.19945-0.96981 0.96980-0.21450 0.13925
   1   0   2 81.0685 31.5033   3 0.66567-0.58055 0.69126-0.69133-0.27600 0.42588
  -1   0  -2 71.0950 27.8926   1 0.55800-0.64317-0.71712 0.71711-0.41312 0.26311
   1   0   2 76.2510 26.1422   5 0.47145-0.38640-0.86550 0.86552-0.16637 0.31632
  -1   0  -2 70.9776 24.6004   5 0.19181-0.27686-0.95915 0.95914-0.20683 0.05688
  -1   0  -3 18.1251 21.1779   5 0.20523-0.29077-0.95668 0.95665-0.20535-0.01929
   1   0   3 8.15914 19.1423   5 0.66882-0.58328-0.73256 0.73258-0.12252 0.34716
   1   0   3 7.93813 31.8633   3 0.69316-0.60754 0.70743-0.70751-0.13192 0.35646
  -1   0  -4 969.800 65.3045   5 0.16882-0.25486-0.96297 0.96294-0.20927-0.09007
   1   0   4 940.050 108.905   3 0.70300-0.61687 0.70969-0.70979-0.03625 0.33543
  -1   0  -5 34.0274 22.0962   5 0.08898-0.17552-0.97206 0.97202-0.21678-0.15725
   1   0   5 60.3182 56.8042   3 0.70616-0.61951 0.70697-0.70709 0.03759 0.33624
   1   0   6 999.273 139.716   3 0.70581-0.61866 0.70165-0.70178 0.09992 0.34857
  -1   0  -6 966.469 64.6062   5-0.03652-0.05052-0.97360 0.97355-0.22567-0.22305
   1   0   7 62.9902 61.8318   3 0.70316-0.61549 0.69454-0.69469 0.15547 0.36767
   1   0   8 166.407 70.1927   3 0.69870-0.61052 0.68597-0.68613 0.20673 0.39107
   1   0   9 145.525 75.6115   3 0.69268-0.60399 0.67605-0.67622 0.25508 0.41737
   1   0  10 11.7229 50.5125   3 0.68519-0.59599 0.66482-0.66501 0.30139 0.44571
   1   0  11 190.775 92.0996   3 0.67629-0.58658 0.65228-0.65249 0.34621 0.47553
  -1   1  11 9224.83 573.741   3 0.65507-0.73357 0.62427-0.55204 0.42956 0.39102
  -1  -1  11 9435.28 579.950   3 0.61965-0.69809 0.58045-0.65294 0.53212 0.28849
  -1  -1  10 112.647 90.6444   3 0.62859-0.70754 0.59129-0.66377 0.50906 0.23690
  -1   1  10 101.150 74.1823   3 0.66487-0.74389 0.63698-0.56473 0.39406 0.35187
  -1   1   9 17106.8 677.656   3 0.67344-0.75297 0.64840-0.57614 0.35896 0.31232
  -1  -1   9 16499.4 676.087   3 0.63597-0.71543 0.60033-0.67280 0.48878 0.18252
  -1  -1   8 51.7020 46.6526   3 0.64165-0.72162 0.60736-0.67981 0.47229 0.12437
  -1   1   8 6.62032 49.7961   3 0.68083-0.76087 0.65860-0.58632 0.32439 0.27224
  -1  -1   7 21791.3 670.557   3 0.64534-0.72582 0.61197-0.68441 0.46109 0.06092
  -1   1   7 22031.7 656.150   3 0.68709-0.76764 0.66759-0.59530 0.29059 0.23138
  -1  -1   6 349.236 88.6931   3 0.64647-0.72746 0.61338-0.68580 0.45759-0.01024
  -1   1   6 274.949 77.4600   3 0.69226-0.77332 0.67540-0.60309 0.25796 0.18937
   1  -1  -6 211.784 41.4324   5 0.94854-0.86747-0.31638 0.24394-0.00826-0.43936
  -1   1   5 25266.2 579.754   3 0.69637-0.77794 0.68199-0.60966 0.22720 0.14547
  -1  -1   5 25486.9 606.275   3 0.64379-0.72529 0.61003-0.68243 0.46585-0.09315
   1  -1  -5 24531.6 416.045   5 0.99336-0.91179-0.10947 0.03704 0.04213-0.41505
  -1  -1   4 1550.74 137.118   3 0.63446-0.71647 0.59847-0.67086 0.49304-0.19500
   1  -1  -4 1643.00 107.110   5 0.99256-0.91049 0.09063-0.16305 0.08786-0.38608
  -1   1   4 1571.45 131.386   3 0.69942-0.78150 0.68725-0.61491 0.19974 0.09827
   1   1  -3 38606.0 294.539   5 0.67434-0.59178-0.72774 0.80009-0.12104-0.10248
  -1  -1   3 37293.2 578.118   3 0.61117-0.69370 0.57028-0.64265 0.55263-0.32924
  -1  -1   3 36989.4 284.832   5-0.15928 0.07672-0.96011 0.88776-0.23095 0.45446
  -1   1   3 36981.9 535.641   3 0.70135-0.78394 0.69085-0.61850 0.17899 0.04438
  -1   1   2 3074.28 126.531   3 0.70166-0.78476 0.69145-0.61908 0.17535-0.02663
   1   1  -2 3279.91 97.4338   5 0.62824-0.54518-0.76591 0.83827-0.13291-0.01591
  -1  -1   2 3088.94 94.9856   5 0.25500-0.33805-0.94583 0.87347-0.19948 0.34830
  -1  -1   2 3084.77 146.466   3 0.55219-0.63523 0.50161-0.57397 0.66941-0.52067
  -1   1   1 51657.2 351.446   3 0.69429-0.77790 0.67860-0.60621 0.24346-0.16940
  -1  -1   1 51410.6 509.689   3 0.38785-0.47140 0.32049-0.39283 0.86672-0.79262
  -1   1   1 51897.3 548.301   4-0.59565 0.51213 0.22977-0.15746-0.77419 0.84820
   1   1  -1 52989.4 404.473   4-0.71653 0.80009 0.29969-0.22717-0.63531 0.56115
   1   1  -1 54368.0 421.887   5 0.64128-0.55773-0.75559 0.82795-0.12966 0.05553
  -1  -1   1 51765.5 417.768   5 0.48714-0.57070-0.85733 0.78496-0.16343 0.23755
   1  -1  -1 54335.4 364.908   3 0.70440-0.62079 0.70926-0.78165-0.01329-0.06077
  -1  -1   0 564.605 50.4034   5 0.60280-0.68685-0.78503 0.71266-0.13902 0.13845
  -1   1   0 693.020 57.8420   2 0.29412-0.37818 0.42638-0.35401-0.85321 0.85269
  -1  -1   0 472.257 67.6907   3-0.00224-0.08182-0.08240 0.01008 0.99657-0.99714
  -1   1   0 551.594 72.8355   4-0.09894 0.01488-0.02989 0.10227-0.99531 0.99462
  -1  -1   0 582.715 38.1398   1 0.55440-0.63855-0.72864 0.65613-0.39769 0.39711
   1   1   0 574.698 37.6236   1 0.58172-0.49757-0.59017 0.66267-0.55526 0.55584
  -1  -1  -1 71027.3 565.666   5 0.65046-0.73501-0.74811 0.67573-0.12732 0.05206
  -1   1  -1 75876.2 461.300   3 0.68066-0.76529 0.70089-0.62847-0.20768 0.13244
   1  -1   1 71096.1 455.718   3 0.70551-0.62088 0.70834-0.78076 0.01232 0.06292
   1  -1   2 208.143 31.6437   5-0.20073 0.28579-0.95213 0.87976-0.23194 0.38188
  -1  -1  -2 249.587 43.2860   5 0.65647-0.74151-0.74311 0.67072-0.12577-0.02419
   1  -1   2 224.869 46.6696   1 0.57679-0.49165-0.63107 0.55861-0.51424 0.66426
   1  -1   2 263.639 47.7438   3 0.70635-0.62121 0.70534-0.77777 0.06052 0.08938
   1  -1   3 33095.8 527.858   3 0.70576-0.62011 0.70146-0.77391 0.10172 0.12283
   1  -1   3 33870.9 334.689   5 0.11074-0.02519-0.97021 0.89785-0.21488 0.43951
   1   1   3 32584.4 545.170   3 0.65253-0.56694 0.68198-0.60970-0.32537 0.54988
  -1  -1  -3 32996.3 428.651   5 0.63347-0.71902-0.76181 0.68941-0.13162-0.09304
   1  -1   3 33013.3 509.065   1 0.53176-0.44609-0.78505 0.71258-0.31325 0.53799
   1  -1   4 217.943 29.0074   5 0.45567-0.36962-0.87337 0.80102-0.16924 0.46857
   1   1   4 290.904 68.3203   3 0.68354-0.59744 0.70257-0.63030-0.19229 0.49145
   1  -1   4 268.216 63.8271   3 0.70406-0.61790 0.69660-0.76907 0.14106 0.15814
  -1  -1  -4 308.420 50.3774   5 0.58681-0.67285-0.79640 0.72399-0.14270-0.15664
   1  -1   5 39230.5 347.503   5 0.77164-0.68510-0.62870 0.55636-0.09176 0.46578
   1  -1   5 39670.3 743.581   3 0.70130-0.61462 0.69074-0.76322 0.17964 0.19421
   1   1   5 39026.8 745.727   3 0.69816-0.61155 0.70920-0.63695-0.09111 0.46493
  -1  -1  -5 39794.7 509.316   5 0.51777-0.60430-0.84031 0.76789-0.15745-0.21659
   1   1   6 1085.55 142.140   3 0.70464-0.61751 0.70913-0.63689-0.00860 0.45708
  -1  -1  -6 1039.50 85.5135   5 0.42472-0.51175-0.88781 0.81538-0.17465-0.27408
   1  -1   6 978.578 135.512   3 0.69747-0.61029 0.68385-0.75634 0.21783 0.23067
   1   1   7 23350.2 693.935   3 0.70635-0.61872 0.70520-0.63298 0.06229 0.46083
   1  -1   7 23394.7 687.166   3 0.69257-0.60487 0.67588-0.74839 0.25580 0.26735
   1   1   8 16.6674 53.4718   3 0.70487-0.61672 0.69865-0.62645 0.12557 0.47221
   1  -1   8-32.9542 55.5215   3 0.68657-0.59836 0.66682-0.73935 0.29364 0.30417
   1  -1   9 10805.0 547.942   3 0.67942-0.59070 0.65662-0.72916 0.33138 0.34108
   1   1   9 12183.6 579.543   3 0.70095-0.61230 0.69008-0.61789 0.18359 0.48884
   1  -1  10-51.7048 60.6646   3 0.67109-0.58186 0.64523-0.71778 0.36905 0.37806
   1   1  10-49.5818 67.0085   3 0.69503-0.60586 0.67978-0.60761 0.23788 0.50921
   1  -1  11 11532.3 647.890   3 0.66152-0.57178 0.63260-0.70517 0.40668 0.41508
   1   1  11 10006.6 602.841   3 0.68730-0.59762 0.66789-0.59574 0.28940 0.53233
  -1  -2  11 342.591 121.248   3 0.59645-0.67486 0.55284-0.69770 0.58561 0.23502
  -1   2  11 205.601 130.393   3 0.66782-0.74636 0.64087-0.49627 0.38248 0.43808
  -1  -2  10 120.900 84.7608   3 0.60426-0.68318 0.56206-0.70690 0.56850 0.17747
  -1   2  10-46.7640 67.1704   3 0.67741-0.75646 0.65383-0.50922 0.34097 0.40494
  -1  -2   9 125.772 87.1381   3 0.61009-0.68952 0.56899-0.71382 0.55516 0.11616
  -1   2   9 189.375 92.1189   3 0.68569-0.76524 0.66554-0.52091 0.29864 0.37262
  -1   2   8 33.0617 53.1605   3 0.69266-0.77273 0.67603-0.53138 0.25517 0.34144
  -1  -2   8 20.6447 62.6392   3 0.61362-0.69356 0.57321-0.71803 0.54682 0.04985
   1  -2  -7 751.899 88.8930   5 0.91576-0.83518-0.40020 0.25536-0.02967-0.49265
  -1   2   7 652.623 116.382   3 0.69834-0.77892 0.68534-0.54068 0.21006 0.31190
  -1  -2   7 555.889 118.401   3 0.61424-0.69469 0.57395-0.71875 0.54534-0.02332
  -1   2   6 244.010 74.2498   3 0.70266-0.78375 0.69349-0.54881 0.16247 0.28483
  -1  -2   6 242.338 75.1958   3 0.61081-0.69177 0.56985-0.71464 0.55348-0.10611
   1  -2  -6 238.711 53.4425   5 0.96791-0.88682-0.25138 0.10656 0.00793-0.45555
  -1   2   5 31.0884 45.1577   3 0.70547-0.78706 0.70042-0.55573 0.11092 0.26174
   1  -2  -5 56.0580 41.0326   5 0.99339-0.91181-0.10920-0.03562 0.04219-0.41512
  -1  -2   5 19.6586 42.8691   3 0.60111-0.68258 0.55833-0.70310 0.57551-0.20280
   1   2  -4 191.820 29.6774   5 0.99669-0.91463-0.06764 0.21236 0.05193-0.35013
  -1  -2   4 192.862 25.7255   5 0.22310-0.30516-0.95308 0.80836-0.20331 0.50151
  -1   2   4 175.702 53.6863   3 0.70633-0.78844 0.70596-0.56126 0.05237 0.24563
  -1  -2   4 179.754 59.1359   3 0.58055-0.66253 0.53424-0.67900 0.61808-0.32001
   1  -2  -4 198.132 51.9418   5 0.99749-0.91541 0.02443-0.16924 0.07305-0.37128
  -1  -2   3 582.653 50.9848   5 0.54854-0.63109-0.82174 0.67701-0.15111 0.37461
   1  -2  -3 605.601 84.7940   2 0.03118 0.05132 0.75727-0.90222-0.65166 0.42794
  -1  -2   3 484.592 77.4107   3 0.53904-0.62153 0.48666-0.63140 0.69086-0.46745
  -1   2   3 570.754 74.2257   3 0.70402-0.78664 0.70943-0.56471-0.02017 0.24352
   1   2  -3 588.661 52.4662   5 0.95743-0.87487-0.28864 0.43337-0.00131-0.22220
  -1   2   2 4321.74 149.233   3 0.69378-0.77691 0.70768-0.56295-0.12735 0.27604
  -1  -2   2 4293.33 188.650   3 0.45373-0.53673 0.39184-0.53657 0.80328-0.65452
  -1  -2   2 4529.83 146.249   5 0.70565-0.78870-0.69890 0.55417-0.11231 0.26112
  -1   2   2 4214.41 190.716   4-0.75707 0.67413 0.32439-0.17974-0.57280 0.72144
  -1   2   1 113.283 46.1148   4-0.55756 0.47408 0.20856-0.06383-0.80773 0.88166
  -1  -2   1 78.7634 37.0817   1 0.56741-0.65106-0.68129 0.53630-0.45801 0.53216
  -1  -2   1 90.6125 45.8844   3 0.27999-0.36351 0.20615-0.35086 0.93943-0.86532
  -1  -2   1 86.5573 35.7990   5 0.78260-0.86614-0.61558 0.47084-0.08801 0.16213
  -1   2   0 1402.15 120.803   4-0.16320 0.07917 0.00204 0.14276-0.98776 0.98700
  -1  -2   0 1282.24 96.8419   5 0.81691-0.90096-0.57112 0.42637-0.07550 0.07492
  -1  -2  -1 109.617 44.8925   5 0.82580-0.91034-0.55868 0.41391-0.07205-0.00322
   1  -2   1 109.591 26.8449   3 0.58397-0.49931 0.53823-0.68301 0.61133-0.53607
  -1   2  -1 77.2678 38.5160   4 0.27446-0.35904-0.20733 0.35221-0.93672 0.86126
  -1   2  -1 82.4052 23.9459   3 0.68655-0.77122 0.66680-0.52201 0.29373-0.36899
   1   2   1 91.6964 29.1906   2 0.32474-0.24002 0.37450-0.22953-0.86615 0.94154
  -1  -2  -2 2324.45 141.311   5 0.81701-0.90205-0.57098 0.42621-0.07546-0.07450
  -1  -2  -2 2409.58 106.314   2 0.22280-0.30802 0.53481-0.67984-0.81330 0.66317
   1  -2   2 2198.27 118.032   3 0.66082-0.57564 0.63168-0.77648 0.40927-0.25936
  -1  -2  -3 11.5403 26.7214   2 0.05091-0.13663 0.73848-0.88355-0.67155 0.44669
  -1  -2  -3 21.5423 36.9611   5 0.79369-0.87923-0.60179 0.45701-0.08410-0.14056
   1  -2   3 25.2316 39.6152   3 0.67696-0.59127 0.65320-0.79802 0.34311-0.11854
   1  -2   3 68.5335 47.7179   1 0.56994-0.48430-0.66967 0.52473-0.47166 0.69641
   1  -2   4 1739.10 147.401   1 0.53658-0.45041-0.77482 0.62987-0.32982 0.62928
   1   2   4 1872.92 158.586   3 0.65441-0.56834 0.68334-0.53871-0.31874 0.61790
   1  -2   4 1741.93 145.780   3 0.68084-0.59465 0.65861-0.80344 0.32433-0.02512
  -1  -2  -4 1664.95 123.251   5 0.75660-0.84264-0.64598 0.50118-0.09673-0.20262
   1  -2   5 289.630 34.7813   5 0.25606-0.16951-0.94556 0.80084-0.19935 0.57336
   1   2   5 329.230 85.4809   3 0.68193-0.59535 0.70164-0.55703-0.20099 0.57480
  -1  -2  -5 391.518 66.3207   5 0.70516-0.79169-0.69937 0.55457-0.11245-0.26160
   1  -2   5 410.532 86.4254   3 0.68039-0.59368 0.65797-0.80281 0.32662 0.04724
  -1  -2  -6 18.1944 26.5067   5 0.63774-0.72476-0.75843 0.61362-0.13055-0.31819
   1  -2   6 85.9747 57.1515   3 0.67762-0.59040 0.65412-0.79898 0.33999 0.10852
   1   2   6 28.7615 38.0138   3 0.69671-0.60961 0.70877-0.56417-0.10405 0.55251
  -1  -2  -7 880.732 96.8150   5 0.55151-0.63904-0.81986 0.67504-0.15048-0.37296
   1  -2   7 900.119 144.138   3 0.67323-0.58550 0.64812-0.79299 0.35987 0.16330
   1   2   7 596.343 118.289   3 0.70396-0.61636 0.70945-0.56487-0.02114 0.54425
   1  -2   8 192.121 87.8102   3 0.66747-0.57923 0.64040-0.78529 0.38389 0.21393
   1   2   8 196.211 88.6496   3 0.70632-0.61821 0.70599-0.56142 0.05206 0.54570
   1  -2   9 151.172 98.1675   3 0.66042-0.57167 0.63117-0.77607 0.41070 0.26177
   1   2   9 235.121 92.1622   3 0.70518-0.61656 0.69954-0.55499 0.11837 0.55404
   1   2  10-55.9335 64.9000   3 0.70130-0.61216 0.69074-0.54620 0.17965 0.56741
   1  -2  10 159.065 89.8249   3 0.65211-0.56285 0.62051-0.76543 0.43948 0.30764
   1   2  11 427.929 142.438   3 0.69512-0.60547 0.67993-0.53541 0.23717 0.58455
   1  -2  11 323.283 126.149   3 0.64251-0.55274 0.60844-0.75337 0.46970 0.35208
   1  -3 -12 220.752 107.723   2 0.03644 0.04149 0.75235-0.97018-0.65703-0.23934
  -1   3  11 9055.26 572.524   3 0.67775-0.75631 0.65429-0.43733 0.33940 0.48115
  -1  -3  11 9405.65 602.159   3 0.56939-0.64777 0.52133-0.73856 0.63918 0.18146
   1  -3 -11 10139.5 583.229   2 0.02310 0.05533 0.76471-0.98249-0.64331-0.17833
  -1   3  10 836.290 174.657   3 0.68680-0.76588 0.66716-0.45018 0.29230 0.45360
  -1  -3  10 970.971 192.473   3 0.57562-0.65450 0.52852-0.74573 0.62756 0.11843
  -1  -3   9 10888.3 572.948   3 0.57935-0.65874 0.53285-0.75004 0.62041 0.05093
  -1   3   9 12402.4 582.349   3 0.69431-0.77390 0.67864-0.46164 0.24328 0.42797
  -1  -3   8 332.653 98.4353   3 0.58003-0.65993 0.53364-0.75081 0.61909-0.02241
  -1   3   8 271.527 93.9185   3 0.70022-0.78032 0.68870-0.47169 0.19162 0.40497
  -1  -3   7 20921.9 692.049   3 0.57671-0.65712 0.52978-0.74695 0.62549-0.10346
   1  -3  -7 20698.2 530.845   5 0.93645-0.85586-0.35011 0.13290-0.01680-0.50553
  -1   3   7 19331.3 622.347   3 0.70433-0.78494 0.69726-0.48024 0.13621 0.38574
  -1   3   6 325.039 82.5340   3 0.70628-0.78740 0.70410-0.48706 0.07519 0.37210
   1  -3  -6 282.794 75.8845   5 0.97206-0.89097-0.23475 0.01755 0.01202-0.45965
   1  -3  -6 235.017 72.7028   2 0.02738 0.05357 0.76079-0.97833-0.64774 0.19977
  -1  -3   6 396.795 101.955   3 0.56772-0.64865 0.51941-0.73655 0.64224-0.19486
  -1   3   5 22103.6 553.193   3 0.70526-0.78689 0.70864-0.49158 0.00536 0.36728
  -1  -3   5 21500.5 602.131   3 0.55008-0.63152 0.49920-0.71634 0.67295-0.30022
   1  -3  -5 21210.9 543.709   5 0.99144-0.90986-0.12675-0.09044 0.03805-0.41098
  -1  -3   5 21530.4 285.862   5 0.38274-0.46429-0.90538 0.68830-0.18153 0.55442
  -1  -3   4 4212.11 241.820   3 0.51823-0.60018 0.46322-0.68034 0.72221-0.42414
   1  -3  -4 4302.87 240.428   5 0.99813-0.91605-0.02750-0.18968 0.06121-0.35945
  -1   3   4 4514.19 223.861   3 0.69937-0.78152 0.70949-0.49241-0.07940 0.37738
  -1  -3   4 4417.73 152.582   5 0.64052-0.72258-0.75620 0.53910-0.12985 0.42804
   1  -3  -3 46339.0 721.045   2 0.16149-0.07903 0.61608-0.83347-0.76953 0.54576
   1  -3  -3 45249.2 734.144   5 0.99531-0.91273 0.06141-0.27858 0.08136-0.30491
  -1  -3   3 46318.9 543.410   5 0.76789-0.85043-0.63310 0.41599-0.09302 0.31651
  -1  -3   3 46529.9 735.567   3 0.46182-0.54428 0.40071-0.61781 0.79425-0.57083
  -1   3   3 46742.0 622.493   3 0.68360-0.76625 0.70260-0.48551-0.19199 0.41533
  -1  -3   2 9294.24 316.659   1 0.56376-0.64692-0.69633 0.47886-0.43971 0.58858
  -1  -3   2 9250.74 264.557   5 0.83452-0.91757-0.54604 0.32892-0.06856 0.21737
   1  -3  -2 9622.53 321.806   2 0.25173-0.16877 0.49277-0.71011-0.83102 0.68198
  -1   3   2 8647.41 293.719   4-0.73430 0.65139 0.31041-0.09335-0.60923 0.75779
  -1  -3   2 8913.01 301.987   3 0.36273-0.44570 0.29361-0.51069 0.88678-0.73801
  -1  -3   1 20156.2 417.491   1 0.58384-0.66753-0.56303 0.34558-0.58045 0.65461
  -1   3   1 18337.5 413.591   4-0.55002 0.46656 0.20439 0.01275-0.81391 0.88777
  -1  -3   1 19550.3 450.319   3 0.19794-0.28142 0.12082-0.33789 0.97404-0.89991
  -1  -3   1 20332.1 417.862   5 0.86846-0.95200-0.49222 0.27509-0.05394 0.12805
  -1   3   0 2134.73 154.582   4-0.23018 0.14617 0.03577 0.18144-0.97418 0.97335
  -1  -3   0 2182.97 146.140   5 0.88291-0.96695-0.46661 0.24948-0.04710 0.04651
  -1   3   0 2277.73 100.513   3 0.32085-0.40504 0.24915-0.03202 0.91586-0.91648
  -1   3  -1 39425.9 585.772   4 0.13908-0.22363-0.14462 0.36191-0.97847 0.90294
  -1  -3  -1 40551.3 635.085   5 0.88423-0.96876-0.46419 0.24705-0.04645-0.02883
   1  -3   1 38770.5 425.889   3 0.37737-0.29267 0.30925-0.52640 0.87534-0.80007
   1  -3   2 2151.04 122.753   3 0.55010-0.46489 0.49923-0.71639 0.67291-0.52299
  -1  -3  -2 1998.35 150.635   5 0.87522-0.96025-0.48048 0.26333-0.05079-0.09918
   1  -3   3 51529.6 684.647   3 0.60978-0.52406 0.56862-0.78580 0.55589-0.33131
   1  -3   3 50677.2 804.642   1 0.58181-0.49619-0.58930 0.37189-0.55609 0.78085
  -1  -3  -3 52239.1 780.401   5 0.85678-0.94231-0.51165 0.29449-0.05918-0.16549
  -1  -3  -3 52739.0 649.267   2 0.23679-0.32256 0.51480-0.73230-0.82211 0.59721
   1  -3   4 65.3982 39.7506   3 0.63325-0.54702 0.59699-0.81418 0.49640-0.19717
   1  -3   4 43.8973 40.7833   1 0.56163-0.47550-0.70439 0.48696-0.42959 0.72906
  -1  -3  -4 164.584 61.8245   5 0.82874-0.91477-0.55447 0.33729-0.07089-0.22848
  -1  -3  -4 126.717 42.6681   2 0.13643-0.22270 0.64643-0.86399-0.74940 0.44976
   1  -3   5 22836.5 581.531   3 0.64271-0.55597 0.60868-0.82589 0.46911-0.09522
   1  -3   5 23362.0 384.485   5 0.99292-0.90637 0.08725-0.30435 0.08711 0.28690
  -1  -3  -5 23489.9 540.191   5 0.79023-0.87675-0.60615 0.38897-0.08533-0.28873
   1   3   5 24476.8 627.098   3 0.66213-0.57558 0.68882-0.47184-0.29005 0.66384
   1  -3   5 22705.9 608.025   1 0.53251-0.44585-0.78351 0.56607-0.31580 0.68998
  -1  -3  -5 22750.3 500.862   2 0.07314-0.15991 0.71623-0.93383-0.69310 0.31873
   1  -3   6 1611.14 175.371   3 0.64549-0.55824 0.61216-0.82939 0.46062-0.01209
   1   3   6 1912.66 193.089   3 0.68493-0.59787 0.70334-0.48638-0.18451 0.63295
   1  -3   6 1896.36 98.1866   5 0.99161-0.90455-0.12540-0.09169 0.03837 0.41033
  -1  -3  -6 1962.33 161.232   5 0.73985-0.82687-0.66428 0.44709-0.10206-0.34669
   1  -3   7 21510.2 674.420   3 0.64444-0.55668 0.61085-0.82809 0.46385 0.05934
  -1  -3  -7 22377.7 527.568   5 0.67559-0.76311-0.72663 0.50944-0.12070-0.40275
   1   3   7 21990.3 693.674   3 0.69793-0.61036 0.70914-0.49219-0.09325 0.61635
   1   3   8 2742.48 267.526   3 0.70444-0.61636 0.70924-0.49231-0.01250 0.61025
   1  -3   8 2228.73 237.073   3 0.64080-0.55253 0.60631-0.82357 0.47479 0.12304
   1   3   9 9748.02 539.524   3 0.70635-0.61776 0.70534-0.48842 0.06047 0.61193
   1  -3   9 9103.76 506.006   3 0.63516-0.54638 0.59934-0.81661 0.49106 0.18142
   1   3  10 249.513 90.4718   3 0.70477-0.61567 0.69839-0.48149 0.12760 0.61945
   1  -3  10 105.097 70.2770   3 0.62781-0.53851 0.59033-0.80762 0.51115 0.23599
   1   3  11 7706.23 538.339   3 0.70035-0.61073 0.68894-0.47205 0.19026 0.63145
   1  -3  11 6635.79 491.982   3 0.61887-0.52906 0.57951-0.79681 0.53405 0.28774
  -1  -4  11 113.437 87.9610   3 0.53843-0.61677 0.48597-0.77557 0.69182 0.12884
   1  -4 -11 296.048 115.836   2 0.08576-0.00738 0.70308-0.99329-0.70493-0.11675
  -1   4  11 269.003 116.821   3 0.68525-0.76385 0.66490-0.37557 0.30108 0.51945
   1  -4 -10 7.19095 54.1232   2 0.08029-0.00140 0.70882-0.99899-0.69984-0.04711
  -1   4  10 168.355 81.7314   3 0.69354-0.77265 0.67740-0.38806 0.24896 0.49693
  -1  -4  10-133.110 83.5558   3 0.54270-0.62155 0.49081-0.78039 0.68502 0.06098
   1  -4  -9 101.730 74.8633   2 0.07958-0.00019 0.70957-0.99968-0.69917 0.02695
  -1  -4   9 49.6594 64.5472   3 0.54388-0.62324 0.49215-0.78171 0.68312-0.01177
  -1   4   9 142.666 76.7218   3 0.69999-0.77961 0.68828-0.39892 0.19401 0.47722
  -1   4   8 108.302 75.8699   3 0.70438-0.78452 0.69740-0.40802 0.13522 0.46136
   1  -4  -8 243.986 90.5522   2 0.08466-0.00478 0.70423-0.99430-0.70392 0.10643
  -1  -4   8 136.116 64.5149   3 0.54121-0.62108 0.48912-0.77867 0.68741-0.09071
   1  -4  -7 54.0745 55.4634   5 0.94304-0.86245-0.33222 0.04263-0.01226-0.51008
  -1  -4   7 189.413 84.2161   3 0.53344-0.61383 0.48034-0.76986 0.69959-0.17754
  -1   4   7 26.0632 48.1690   3 0.70632-0.78696 0.70446-0.41507 0.07104 0.45088
   1  -4  -7 104.716 58.3469   2 0.09698-0.01659 0.69107-0.98108-0.71520 0.19245
   1  -4  -6 131.775 62.7167   5 0.97119-0.89010-0.23831-0.05127 0.01114-0.45879
   1  -4  -6 203.403 72.2615   2 0.11840-0.03750 0.66731-0.95727-0.73414 0.28612
  -1  -4   6 175.934 71.2523   3 0.51854-0.59944 0.46357-0.75309 0.72177-0.27437
  -1   4   6 175.328 73.7897   3 0.70499-0.78614 0.70888-0.41947-0.00098 0.44826
  -1   4   5 758.619 111.178   3 0.69881-0.78048 0.70936-0.41994-0.08494 0.45756
   1  -4  -5 702.654 112.914   2 0.15139-0.06999 0.62850-0.91842-0.76157 0.38828
  -1  -4   5 803.215 75.4915   5 0.64784-0.72939-0.75027 0.46080-0.12800 0.50087
  -1  -4   5 714.562 121.396   3 0.49313-0.57453 0.43523-0.72473 0.75640-0.38366
   1  -4  -5 734.849 119.058   5 0.98810-0.90651-0.15172-0.13786 0.03211-0.40505
  -1   4   4 17.2509 32.1477   3 0.68433-0.76650 0.70301-0.41357-0.18792 0.48589
  -1  -4   4 30.8481 28.0383   5 0.77117-0.85322-0.62925 0.33978-0.09191 0.39010
  -1  -4   4 39.0252 42.6861   3 0.45158-0.53350 0.38950-0.67898 0.80562-0.50753
   1  -4  -4-30.9848 45.2651   5 0.99633-0.91424-0.07351-0.21606 0.05056-0.34881
  -1   4   3 28.5513 34.3560   3 0.65331-0.73600 0.68255-0.39310-0.32264 0.54596
  -1  -4   3 43.5837 51.1106   3 0.38500-0.46743 0.31743-0.60690 0.86910-0.64566
  -1  -4   3 31.7560 37.2264   5 0.83963-0.92217-0.53843 0.24895-0.06648 0.28996
   1  -4  -3 25.8830 47.8071   5 0.99820-0.91562-0.00486-0.28469 0.06639-0.28995
   1  -4  -2 2791.68 201.635   5 0.99594-0.91285 0.05291-0.34246 0.07946-0.22832
  -1   4   2 2572.22 171.758   4-0.72573 0.64284 0.30522-0.01574-0.62204 0.77053
  -1  -4   2 2855.46 192.649   3 0.28119-0.36413 0.20741-0.49686 0.93880-0.79002
  -1  -4   2 2832.73 177.617   5 0.87795-0.96099-0.47562 0.18613-0.04950 0.19829
  -1  -4   2 2908.66 200.145   1 0.57709-0.66028-0.62904 0.33911-0.51636 0.66524
   1  -4  -1 86.1271 53.1548   5 0.99168-0.90810 0.09834-0.38787 0.08956-0.16373
  -1  -4   1 94.3553 59.6409   3 0.13024-0.21369 0.05135-0.34078 0.99101-0.91687
  -1   4   1 110.428 53.9421   4-0.56161 0.47818 0.21080 0.07876-0.80434 0.87814
  -1  -4   1 20.2886 41.5662   5 0.89818-0.98172-0.43736 0.14786-0.03937 0.11347
   1   4  -1 48.6353 16.9952   4 0.05760 0.02605-0.10597 0.39573-0.99214 0.91777
   1  -4   0 1547.87 141.288   5 0.98746-0.90338 0.12972-0.41925 0.09645-0.09593
  -1  -4   0 1835.35 153.053   5 0.90656-0.99060-0.42016 0.13064-0.03486 0.03426
  -1   4   0 1859.62 150.921   4-0.29809 0.21411 0.07047 0.21916-0.95415 0.95324
   1  -4   1 2845.51 141.910   3 0.22321-0.13848 0.14697-0.43648 0.96509-0.88980
  -1  -4  -1 3134.10 112.469   4-0.54659 0.46186 0.20250-0.49211-0.81668 0.74165
  -1  -4  -1 3378.08 215.617   5 0.90625-0.99078-0.42082 0.13129-0.03503-0.04026
  -1   4  -1 3045.19 186.135   4 0.01517-0.09969-0.08558 0.37528-0.99599 0.92039
  -1  -4  -2 1708.12 158.956   5 0.89861-0.98364-0.43650 0.14697-0.03914-0.11084
   1  -4   2 1799.35 122.977   3 0.42250-0.33726 0.35785-0.64738 0.83545-0.68551
  -1   4  -2 1699.46 140.573   4 0.27459-0.35967-0.20739 0.49717-0.93666 0.78636
  -1  -4  -3 35.7645 49.5296   5 0.88395-0.96947-0.46471 0.17517-0.04659-0.17809
   1  -4   3 18.0457 34.3339   5 0.98951-0.90395 0.11542-0.40492 0.09332 0.13129
   1  -4   3 23.0779 36.0344   3 0.51926-0.43351 0.46438-0.75392 0.72074-0.49614
  -1  -4  -4 26.6293 37.2873   2 0.26332-0.34964 0.47520-0.76518-0.83755 0.53786
   1  -4   4 44.2539 40.5245   3 0.56640-0.48014 0.51789-0.80745 0.64463-0.34539
   1  -4   4 14.4550 46.5153   1 0.57334-0.48723-0.65214 0.36225-0.49150 0.79099
   1  -4   4-2.48729 32.2942   5 0.99532-0.90926 0.06121-0.35070 0.08131 0.21799
  -1  -4  -4 11.1474 51.2654   5 0.86191-0.94794-0.50324 0.21369-0.05691-0.24246
   1  -4   5 567.174 97.7001   3 0.59008-0.50330 0.54535-0.83493 0.59898-0.22509
   1   4   5 613.724 115.223   3 0.64243-0.55592 0.67450-0.38516-0.35897 0.73275
   1  -4   5 579.802 112.740   1 0.55170-0.46507-0.73669 0.44679-0.38658 0.76077
  -1  -4  -5 481.618 96.0449   5 0.83171-0.91823-0.55016 0.26060-0.06970-0.30437
   1  -4   5 723.814 86.9954   5 0.99808-0.91152-0.03077-0.25871 0.06046 0.31354
  -1  -4  -5 565.489 90.9846   2 0.19735-0.28417 0.56980-0.85983-0.79611 0.42169
   1  -4   6 252.713 84.8067   1 0.52437-0.43721-0.79935 0.50943-0.28895 0.73785
   1   4   6 241.263 86.1809   3 0.67187-0.58485 0.69540-0.40607-0.24966 0.69809
  -1  -4  -6 231.938 74.1213   5 0.79217-0.87918-0.60371 0.31414-0.08464-0.36412
   1  -4   6 201.840 74.2744   3 0.60165-0.51437 0.55897-0.84856 0.57432-0.12577
   1   4   7 180.609 78.3749   3 0.69005-0.60251 0.70600-0.41669-0.15340 0.67648
  -1  -4  -7 1.72664 40.9739   5 0.74174-0.82925-0.66226 0.37268-0.10147-0.42199
  -1  -4  -7 82.0532 56.1618   2 0.12120-0.20903 0.66411-0.95425-0.73655 0.21266
   1  -4   7 123.608 67.0394   3 0.60627-0.51847 0.56444-0.85404 0.56397-0.04077
  -1  -4  -8 19.9143 37.3746   2 0.10404-0.19238 0.68335-0.97353-0.72154 0.12292
   1  -4   8 203.553 86.8297   3 0.60643-0.51812 0.56463-0.85425 0.56361 0.03424
   1   4   8 42.0110 71.3929   3 0.70051-0.61247 0.70968-0.42038-0.06743 0.66516
   1   4   9 30.8425 58.6851   3 0.70545-0.61689 0.70842-0.41914 0.01055 0.66183
  -1  -4  -9 109.925 61.6543   2 0.09639-0.18523 0.69170-0.98193-0.71467 0.04132
   1  -4   9 85.1808 70.4624   3 0.60341-0.51460 0.56106-0.85069 0.57040 0.10211
   1  -4  10 262.283 119.586   3 0.59793-0.50860 0.55457-0.84422 0.58244 0.16471
   1   4  10 685.069 163.971   3 0.70619-0.61712 0.70344-0.41417 0.08231 0.66472
   1   4  11 24.5572 125.014   3 0.70357-0.61399 0.69546-0.40620 0.14922 0.67247
   1  -4  11 287.260 112.764   3 0.59034-0.50050 0.54566-0.83533 0.59845 0.22336
   1  -5 -11 7350.46 516.367   2 0.14765-0.06932 0.63304-0.99568-0.75857-0.06316
  -1   5  11 7872.71 546.963   3 0.69074-0.76937 0.67305-0.31136 0.26814 0.55238
   1  -5 -10 605.836 154.347   2 0.14594-0.06710 0.63510-0.99770-0.75718 0.01019
  -1   5  10 523.937 141.795   3 0.69817-0.77731 0.68504-0.32333 0.21167 0.53420
  -1  -5  10 713.680 174.279   3 0.50565-0.58447 0.44915-0.81109 0.73982 0.00620
  -1  -5   9 10981.7 600.268   3 0.50399-0.58332 0.44730-0.80923 0.74207-0.07070
  -1   5   9 9834.90 543.087   3 0.70341-0.78306 0.69510-0.33338 0.15170 0.51952
   1  -5  -9 10730.4 560.215   2 0.14932-0.06998 0.63102-0.99356-0.75991 0.08765
   1  -5  -8 195.796 80.9705   2 0.15871-0.07887 0.61952-0.98202-0.76737 0.16983
  -1   5   8 184.278 84.0678   3 0.70611-0.78628 0.70298-0.34124 0.08703 0.50954
  -1  -5   8 222.518 88.6820   3 0.49770-0.57754 0.44031-0.80222 0.75045-0.15373
   1  -5  -7 14183.9 571.760   2 0.17514-0.09479 0.59886-0.96131-0.77997 0.25717
   1  -5  -7 14511.9 559.141   5 0.94340-0.86280-0.33122-0.03075-0.01200-0.51034
  -1   5   7 14524.3 568.842   3 0.70563-0.78631 0.70818-0.34642 0.01589 0.50602
  -1  -5   7 13273.1 587.568   3 0.48535-0.56570 0.42661-0.78851 0.76627-0.24421
   1  -5  -6 4449.18 303.504   2 0.20016-0.11931 0.56603-0.92843-0.79808 0.35001
   1  -5  -6 4244.41 303.216   5 0.96765-0.88655-0.25235-0.10961 0.00769-0.45534
  -1   5   6 4247.85 286.839   3 0.70079-0.78197 0.70971-0.34794-0.06437 0.51163
  -1  -5   6 4016.50 302.111   3 0.46471-0.54558 0.40388-0.76576 0.79096-0.34355
  -1   5   5 10574.3 408.362   3 0.68935-0.77105 0.70567-0.34388-0.15789 0.53050
  -1  -5   5 11207.4 472.527   3 0.43241-0.51379 0.36861-0.73047 0.82567-0.45291
   1  -5  -5 11470.5 487.976   5 0.98341-0.90181-0.18049-0.18146 0.02520-0.39816
  -1  -5   5 11423.8 340.188   5 0.74426-0.82581-0.65955 0.29770-0.10068 0.47355
   1  -5  -5 10396.9 444.377   2 0.23470-0.15335 0.51782-0.88018-0.82083 0.44749
  -1  -5   5 11146.7 493.087   1 0.52376-0.60540-0.80046 0.43801-0.28701 0.66003
  -1   5   4 2844.62 196.770   3 0.66688-0.74908 0.69208-0.33028-0.27105 0.56901
  -1  -5   4 2799.22 227.216   3 0.38344-0.46532 0.31576-0.67760 0.87039-0.57228
  -1  -5   4 2550.39 175.458   5 0.82115-0.90319-0.56524 0.20339-0.07387 0.37204
  -1  -5   4 2830.59 241.065   1 0.54789-0.63006-0.74733 0.38490-0.37147 0.66978
   1  -5  -4 2632.09 231.432   5 0.99262-0.91053-0.11649-0.24545 0.04047-0.33874
   1  -5  -4 2621.03 220.750   2 0.27989-0.19804 0.44933-0.81163-0.84629 0.54769
  -1  -5   3 29032.8 725.462   1 0.56820-0.65089-0.67777 0.31535-0.46219 0.68580
   1  -5  -3 28096.2 719.916   5 0.99703-0.91444-0.06127-0.30066 0.05341-0.27698
  -1  -5   3 28249.5 679.714   3 0.31099-0.39339 0.23874-0.60057 0.92196-0.69851
  -1  -5   3 28360.5 617.119   5 0.86689-0.94943-0.49490 0.13303-0.05466 0.27814
  -1  -5   2 4432.44 265.603   3 0.20781-0.29072 0.13102-0.49284 0.97072-0.82191
   1  -5  -2 3889.32 266.361   5 0.99824-0.91515-0.01586-0.34607 0.06388-0.21275
   1   5  -2 4045.22 152.229   4 0.32759-0.24447-0.23140 0.59365-0.91336 0.76422
  -1  -5   2 3987.36 239.366   5 0.89376-0.97680-0.44608 0.08420-0.04166 0.19045
  -1   5   2 3989.47 228.181   4-0.72856 0.64570 0.30693 0.05496-0.61786 0.76628
  -1  -5   1 19905.1 590.296   3 0.07097-0.15439-0.00885-0.35295 0.99790-0.92375
   1  -5  -1 20748.9 585.519   5 0.99770-0.91412 0.01861-0.38052 0.07173-0.14591
  -1   5   1 21397.9 500.090   4-0.58535 0.50194 0.22401 0.13796-0.78365 0.85737
  -1  -5   1 20938.8 553.937   5 0.90840-0.99193-0.41626 0.05438-0.03384 0.10793
   1   5  -1 18637.4 265.965   4-0.29994 0.38361 0.07142 0.29076-0.95351 0.87907
  -1   5   0 5679.39 263.297   4-0.36609 0.28214 0.10575 0.25629-0.92729 0.92632
   1  -5   0 5851.34 303.631   5 0.99670-0.91262 0.04078-0.40269 0.07673-0.07622
  -1  -5   0 5779.71 301.346   5 0.91446-0.99849-0.40310 0.04121-0.03042 0.02982
  -1   5  -1 30275.6 627.955   4-0.09929 0.01479-0.02972 0.39183-0.99529 0.91961
  -1  -5  -1 30999.3 420.236   4-0.28960 0.20484 0.06611-0.42814-0.95701 0.88206
  -1  -5  -1 30670.9 708.359   5 0.91385-0.99838-0.40444 0.04254-0.03077-0.04453
   1  -5   1 32155.3 689.083   5 0.99620-0.91162 0.04907-0.41097 0.07859-0.00339
   1  -5   1 30139.7 563.153   3 0.11173-0.02696 0.03248-0.39436 0.99394-0.91864
   1  -5   2 2491.37 190.695   5 0.99666-0.91159 0.04146-0.40335 0.07689 0.07302
   1  -5   2 2472.01 159.694   3 0.30367-0.21839 0.23102-0.59291 0.92632-0.77637
  -1   5  -2 2524.44 178.817   4 0.14515-0.23019-0.14747 0.50966-0.97711 0.82674
  -1  -5  -2 2568.79 214.298   5 0.90742-0.99244-0.41835 0.05644-0.03439-0.11560
   1  -5   3 26429.8 559.579   3 0.42044-0.33465 0.35562-0.71753 0.83743-0.61283
   1  -5   3 25572.8 591.834   5 0.99781-0.91224 0.01529-0.37717 0.07098 0.15362
  -1  -5  -3 25090.3 675.551   5 0.89529-0.98081-0.44309 0.08117-0.04087-0.18381
  -1   5  -3 26189.8 602.039   4 0.32463-0.41022-0.23006 0.59233-0.91477 0.68970
   1  -5   4 4730.20 261.113   3 0.48750-0.40120 0.42899-0.79091 0.76358-0.46432
   1  -5   4 4763.16 319.334   1 0.57878-0.49270-0.61669 0.25433-0.52911 0.82861
  -1  -5  -4 4990.84 313.419   5 0.87713-0.96315-0.47708 0.11514-0.04989-0.24950
   1  -5   4 4623.73 248.242   5 0.99803-0.91196-0.03322-0.32865 0.05989 0.23940
   1  -5   5 13459.5 475.242   3 0.52588-0.43907 0.47181-0.83375 0.71104-0.33713
   1  -5   5 13643.2 556.221   1 0.56257-0.47596-0.70092 0.33855-0.43397 0.80818
  -1  -5  -5 13288.6 515.640   5 0.85227-0.93879-0.51889 0.15695-0.06114-0.31293
   1  -5   5 14486.8 431.315   5 0.99332-0.90676-0.10986-0.25200 0.04204 0.33195
  -1  -5  -6 31.8128 49.3908   5 0.81975-0.90676-0.56720 0.20525-0.07441-0.37436
   1   5   6 79.1068 66.1544   3 0.65946-0.57247 0.68695-0.32526-0.30026 0.74868
   1  -5   6 56.9556 42.5347   3 0.54769-0.46037 0.49648-0.85844 0.67691-0.22834
   1  -5   6 28.4217 53.4515   1 0.54006-0.45293-0.76693 0.40454-0.34219 0.79110
  -1  -5  -6 67.9040 52.4389   2 0.24781-0.33519 0.49861-0.86113-0.82874 0.37954
   1  -5   7 14211.5 572.468   3 0.55943-0.47160 0.50988-0.87185 0.65701-0.13380
   1   5   7 14826.8 608.942   3 0.68180-0.59430 0.70156-0.33989-0.20169 0.72476
  -1  -5  -7 14471.0 539.853   5 0.77831-0.86582-0.62077 0.25881-0.08949-0.43398
  -1  -5  -7 15417.6 532.243   2 0.21432-0.30220 0.54668-0.90924-0.80773 0.28380
   1  -5   7 13521.6 598.087   1 0.51342-0.42576-0.81800 0.45560-0.25493 0.77856
   1  -5   8 2803.48 277.767   3 0.56462-0.47629 0.51584-0.87783 0.64783-0.04996
   1   5   8 2517.34 271.013   3 0.69569-0.60767 0.70842-0.34675-0.11254 0.71025
  -1  -5  -8 2632.96 240.522   2 0.19187-0.28025 0.57709-0.93970-0.79223 0.19357
   1   5   9 8034.24 510.561   3 0.70335-0.61482 0.70963-0.34798-0.03108 0.70345
   1  -5   9 8396.15 507.930   3 0.56524-0.47639 0.51655-0.87855 0.64673 0.02579
   1   5  10 889.544 192.885   3 0.70625-0.61721 0.70654-0.34491 0.04416 0.70286
   1  -5  10 1410.70 227.659   3 0.56241-0.47304 0.51329-0.87531 0.65178 0.09539
   1  -5  11 6120.99 489.058   3 0.55679-0.46692 0.50686-0.86889 0.66159 0.16024
   1   5  11 6366.22 512.725   3 0.70534-0.61579 0.70001-0.33840 0.11442 0.70725
  -1   6  11 264.244 100.382   3 0.69460-0.77327 0.67910-0.24505 0.24109 0.57942
  -1  -6  10 8.38038 86.8638   3 0.46469-0.54348 0.40386-0.83816 0.79099-0.04495
  -1   6  10-50.7253 61.4591   3 0.70118-0.78036 0.69052-0.25645 0.18098 0.56487
   1  -6 -10 30.0944 77.9076   2 0.20856-0.12977 0.55462-0.98965-0.80386 0.05681
   1  -6  -9-56.7340 68.2217   2 0.21467-0.13539 0.54618-0.98117-0.80797 0.13565
  -1   6   9-28.2294 61.4713   3 0.70524-0.78492 0.69971-0.26563 0.11693 0.55427
  -1  -6   9 125.701 85.2866   3 0.46005-0.53935 0.39876-0.83305 0.79626-0.12488
   1  -6  -8-56.9208 65.4649   2 0.22660-0.14681 0.52943-0.96436-0.81574 0.21816
  -1  -6   8-15.1030 68.8031   3 0.45010-0.52991 0.38788-0.82216 0.80722-0.21049
  -1   6   8-24.5897 56.7539   3 0.70629-0.78649 0.70630-0.27220 0.04767 0.54888
   1  -6  -7 108.833 71.6484   2 0.24503-0.16474 0.50273-0.93761-0.82709 0.30425
  -1   6   7 139.862 75.6482   3 0.70351-0.78422 0.70959-0.27547-0.02859 0.55048
   1  -6  -7 289.427 88.4893   5 0.94014-0.85953-0.34025-0.09410-0.01429-0.50806
  -1  -6   7 168.050 93.4731   3 0.43333-0.51365 0.36961-0.80387 0.82474-0.30266
   1  -6  -6 139.704 75.8610   5 0.96215-0.88105-0.27256-0.16178 0.00269-0.45035
  -1  -6   6 76.5306 69.3456   1 0.51337-0.59451-0.81808 0.38316-0.25478 0.70252
   1  -6  -6 109.129 63.1912   2 0.27066-0.18986 0.46385-0.89869-0.84151 0.39340
  -1   6   6 195.423 81.5015   3 0.69545-0.77667 0.70833-0.27420-0.11441 0.56165
  -1  -6   6 169.666 83.9320   3 0.40754-0.48837 0.34168-0.77592 0.84949-0.40206
  -1  -6   5 720.641 108.056   5 0.78536-0.86690-0.61220 0.17797-0.08705 0.45990
   1  -6  -5 798.352 151.662   5 0.97733-0.89573-0.21149-0.22284 0.01770-0.39066
  -1   6   5 656.674 112.297   3 0.67954-0.76127 0.70022-0.26607-0.21342 0.58601
   1  -6  -5 910.205 150.674   2 0.30393-0.22263 0.41013-0.84492-0.85766 0.48428
  -1  -6   5 652.131 135.743   1 0.53696-0.61863-0.77398 0.33907-0.33116 0.70419
  -1  -6   5 835.735 144.027   3 0.36963-0.45097 0.30097-0.73520 0.88148-0.50870
  -1  -6   4 199.071 86.0473   3 0.31551-0.39737 0.24351-0.67772 0.91919-0.62107
  -1   6   4 166.258 63.0817   3 0.65105-0.73329 0.68090-0.24673-0.33052 0.62846
  -1  -6   4 208.056 73.2484   5 0.84143-0.92347-0.53571 0.10147-0.06573 0.36389
  -1  -6   4 203.258 80.7990   1 0.55759-0.63978-0.71849 0.28359-0.41132 0.70965
   1  -6  -4 233.084 93.2944   5 0.98720-0.90510-0.15773-0.27659 0.03067-0.32894
  -1  -6   3 212.744 81.5836   3 0.24049-0.32286 0.16491-0.59911 0.95811-0.73464
   1  -6  -3 162.731 75.8966   5 0.99310-0.91050-0.11204-0.32227 0.04152-0.26510
   1   6  -3 153.449 44.2192   4 0.36627-0.28367-0.24870 0.68344-0.89367 0.66975
  -1  -6   3 122.746 57.1036   5 0.87644-0.95897-0.47831 0.04406-0.05022 0.27369
  -1  -6   3 224.599 88.2825   1 0.57387-0.65659-0.64915 0.21427-0.49480 0.71841
   1  -6  -2 372.797 100.594   5 0.99622-0.91313-0.07523-0.35907 0.05016-0.19904
  -1   6   2 351.946 78.3122   4-0.74003 0.65720 0.31390 0.12041-0.60040 0.74875
   1   6  -2 270.530 45.6160   4 0.04300 0.04014-0.09897 0.53364-0.99372 0.84450
  -1  -6   2 222.621 81.8709   1 0.58382-0.66707-0.56338 0.12851-0.58014 0.72904
  -1  -6   2 404.104 101.681   5 0.89779-0.98082-0.43813 0.00388-0.03957 0.18835
  -1  -6   2 256.904 88.5088   3 0.14079-0.22366 0.06212-0.49630 0.98901-0.84019
   1   6  -1 140.513 26.2533   4-0.52263 0.60633 0.18935 0.24524-0.83521 0.76070
   1  -6  -1 250.655 91.7302   5 0.99760-0.91401-0.04824-0.38606 0.05643-0.13062
  -1   6   1 119.761 51.1484   4-0.61692 0.53353 0.24177 0.19261-0.75364 0.82729
  -1  -6   1 184.255 80.3967   3 0.01693-0.10032-0.06323-0.37094 0.99796-0.92380
  -1  -6   1 96.2876 62.6912   5 0.90976-0.99328-0.41336-0.02090-0.03309 0.10717
  -1   6   0 444.475 78.4774   4-0.43371 0.34978 0.14142 0.29304-0.89315 0.89210
   1  -6   0 470.706 103.217   5 0.99805-0.91397-0.03211-0.40218 0.06015-0.05964
  -1  -6   0 442.116 105.278   5 0.91481-0.99883-0.40233-0.03194-0.03022 0.02961
   1  -6   1 450.459 86.4562   3 0.02478 0.06002-0.05536-0.37888 0.99832-0.92300
  -1   6  -1 462.925 91.1511   4-0.20615 0.12167 0.02362 0.41092-0.97974 0.90399
  -1  -6  -1 573.028 113.682   5 0.91428-0.99880-0.40351-0.03078-0.03053-0.04478
   1  -6   1 461.587 106.957   5 0.99812-0.91354-0.02810-0.40618 0.06107 0.01413
  -1   6  -2 254.540 73.2550   4 0.01882-0.10385-0.08734 0.52195-0.99575 0.84530
  -1  -6  -2 342.394 97.3724   5 0.90876-0.99378-0.41549-0.01880-0.03364-0.11636
   1  -6   2 286.930 86.3844   5 0.99792-0.91284-0.03776-0.39651 0.05885 0.09105
   1  -6   2 292.608 69.2517   3 0.19928-0.11398 0.12221-0.55647 0.97360-0.82363
   1  -6   3 351.090 78.0722   3 0.32254-0.23673 0.25094-0.68521 0.91478-0.69016
   1  -6   3 441.275 96.7197   5 0.99694-0.91136-0.06305-0.37121 0.05299 0.17159
  -1   6  -3 374.137 84.5951   4 0.20132-0.28689-0.17369 0.60837-0.96232 0.73717
  -1  -6  -3 332.779 105.594   5 0.89835-0.98387-0.43701 0.00271-0.03927-0.18542
  -1   6  -4 61.5063 51.3318   4 0.33221-0.41833-0.23347 0.66823-0.91113 0.61128
   1  -6   4 58.2839 53.8859   5 0.99365-0.90757-0.10664-0.32761 0.04280 0.25649
   1  -6   4 2.09382 52.9704   1 0.58128-0.49523-0.59478 0.15995-0.55083 0.85034
   1  -6   4 76.4679 48.2795   3 0.40293-0.31660 0.33670-0.77099 0.85364-0.55437
  -1  -6  -4 31.9723 64.0155   5 0.88277-0.96878-0.46688 0.03257-0.04717-0.25222
   1  -6   5 199.813 72.5090   5 0.98484-0.89826-0.17232-0.26192 0.02717 0.34681
  -1  -6  -5 319.001 109.127   5 0.86145-0.94796-0.50400 0.06968-0.05711-0.31697
   1  -6   5 194.856 70.7649   3 0.45389-0.36705 0.39202-0.82632 0.80310-0.42917
   1  -6   5 378.870 121.161   1 0.56866-0.48208-0.67570 0.24085-0.46463 0.83885
  -1  -6  -6 183.765 78.2256   5 0.83362-0.92063-0.54736 0.11303-0.06893-0.37985
   1  -6   6 153.254 80.6367   3 0.48575-0.39840 0.42706-0.86137 0.76577-0.31720
   1  -6   6 312.308 111.127   1 0.54988-0.46278-0.74188 0.30702-0.37927 0.82820
   1   6   6 156.642 76.4996   3 0.64895-0.56199 0.67936-0.24530-0.33764 0.78604
  -1  -6  -7 146.565 90.7460   5 0.79824-0.88574-0.59598 0.16164-0.08246-0.44101
   1  -6   7 53.4450 66.8096   1 0.52661-0.43899-0.79518 0.36031-0.29619 0.81983
  -1  -6  -7 154.222 71.4527   2 0.29314-0.38107 0.42798-0.86298-0.85276 0.32878
   1  -6   7 89.4135 71.3536   3 0.50511-0.41725 0.44856-0.88289 0.74054-0.21731
   1   6   7 19.9285 53.9267   3 0.67429-0.58682 0.69697-0.26292-0.23872 0.76177
   1   6   8-126.680 86.3865   3 0.69086-0.60287 0.70639-0.27236-0.14802 0.74572
  -1  -6  -8 75.8999 72.7417   5 0.75399-0.84199-0.64889 0.21454-0.09758-0.50059
   1  -6   8 68.8836 66.6123   3 0.51603-0.42766 0.46075-0.89510 0.72537-0.12749
   1   6   9-41.2001 63.4533   3 0.70079-0.61229 0.70971-0.27570-0.06440 0.73675
   1  -6   9-112.586 80.1632   3 0.52094-0.43206 0.46626-0.90063 0.71830-0.04577
   1   6  10 136.571 97.1034   3 0.70555-0.61654 0.70830-0.27430 0.01329 0.73371
   1  -6  10 11.5689 60.6128   3 0.52137-0.43197 0.46674-0.90112 0.71768 0.02950
  -1   7  10 1199.54 212.503   3 0.70303-0.78224 0.69427-0.18784 0.15729 0.58855
  -1  -7  10 951.296 201.280   3 0.42011-0.49886 0.35526-0.86193 0.83775-0.09170
  -1   7   9 5750.92 434.321   3 0.70605-0.78577 0.70268-0.19622 0.09009 0.58110
  -1  -7   9 6094.32 478.647   3 0.41250-0.49176 0.34703-0.85369 0.84492-0.17353
   1  -7  -9 6575.37 478.425   2 0.27449-0.19525 0.45786-0.96528-0.84352 0.17116
  -1   7   8 1805.41 236.424   3 0.70568-0.78591 0.70810-0.20163 0.01747 0.57907
   1  -7  -8 1749.10 237.190   2 0.28755-0.20781 0.43706-0.94443-0.85009 0.25246
  -1  -7   8 1562.98 238.635   3 0.39905-0.47882 0.33253-0.83916 0.85708-0.26034
   1  -7  -8 1962.03 247.686   5 0.90640-0.82628-0.42051-0.08624-0.03495-0.56211
  -1  -7   7 9383.34 540.151   3 0.37826-0.45854 0.31020-0.81683 0.87462-0.35253
  -1   7   7 9595.93 500.069   3 0.70097-0.78171 0.70973-0.20324-0.06226 0.58415
   1  -7  -7 8996.69 504.410   2 0.30621-0.22597 0.40630-0.91362-0.85865 0.33576
   1  -7  -7 10151.4 546.077   5 0.93428-0.85367-0.35576-0.15097-0.01824-0.50412
  -1   7   6 5477.60 351.608   3 0.69036-0.77161 0.70616-0.19966-0.15135 0.59858
  -1  -7   6 5204.78 386.246   3 0.34809-0.42889 0.27802-0.78463 0.89754-0.45010
   1  -7  -6 5261.59 391.804   5 0.95494-0.87383-0.29671-0.21001-0.00332-0.44434
  -1  -7   6 4538.14 382.529   1 0.52412-0.60530-0.79980 0.29241-0.28816 0.73591
  -1   7   5 13374.9 510.375   3 0.67118-0.75294 0.69495-0.18844-0.25272 0.62530
  -1  -7   5 12656.8 606.095   1 0.54524-0.62694-0.75428 0.24690-0.36130 0.73434
   1  -7  -5 13369.6 609.933   5 0.96981-0.88820-0.24390-0.26281 0.00977-0.38275
  -1  -7   5 13762.6 598.370   3 0.30593-0.38724 0.23341-0.74000 0.92499-0.55220
  -1  -7   5 13462.8 496.359   5 0.80266-0.88420-0.59024 0.08363-0.08085 0.45370
   1  -7  -4 3804.42 323.491   5 0.98013-0.89803-0.19789-0.30882 0.02100-0.31928
  -1  -7   4 3312.26 290.795   3 0.24870-0.33052 0.17346-0.68003 0.95455-0.65641
  -1  -7   4 3484.45 267.700   5 0.84784-0.92987-0.52586 0.01924-0.06304 0.36120
  -1  -7   4 3964.33 332.072   1 0.56310-0.64532-0.69890 0.19153-0.43651 0.73484
  -1  -7   3 12189.8 502.370   5 0.87709-0.95961-0.47716-0.02947-0.04991 0.27337
   1  -7  -3 11574.0 550.716   5 0.98696-0.90435-0.15930-0.34739 0.03029-0.25388
  -1  -7   3 11837.6 551.007   1 0.57662-0.65937-0.63222 0.12487-0.51302 0.73665
  -1  -7   3 11221.6 516.595   3 0.17341-0.25575 0.09556-0.60212 0.98134-0.75785
  -1   7   2 2736.98 202.309   4-0.75779 0.67498 0.32484 0.18188-0.57159 0.71986
   1  -7  -2 2579.89 258.529   5 0.99119-0.90809-0.12882-0.37787 0.03756-0.18645
  -1  -7   2 1967.28 221.866   3 0.07859-0.16143-0.00114-0.50540 0.99742-0.84859
  -1  -7   2 2327.69 225.855   5 0.89548-0.97850-0.44272-0.06392-0.04078 0.18954
  -1   7   1 13249.3 426.061   4-0.65350 0.57014 0.26267 0.24413-0.71483 0.78841
   1  -7  -1 13263.8 559.435   5 0.99359-0.91000-0.10719-0.39948 0.04267-0.11686
  -1  -7   1 12628.6 524.064   5 0.90606-0.98958-0.42121-0.08544-0.03513 0.10921
  -1   7   0 5279.38 262.678   4-0.50060 0.41670 0.17736 0.32952-0.85110 0.84997
   1  -7   0 4641.80 324.537   5 0.99470-0.91060-0.09529-0.41138 0.04547-0.04497
  -1  -7   0 4389.03 319.481   5 0.91068-0.99470-0.41138-0.09528-0.03257 0.03195
  -1   7  -1 17597.1 507.776   4-0.30689 0.22244 0.07500 0.43194-0.95107 0.87525
  -1  -7  -1 16785.1 624.204   5 0.91035-0.99486-0.41209-0.09457-0.03276-0.04256
   1  -7   1 16901.9 607.901   5 0.99480-0.91021-0.09411-0.41255 0.04574 0.02945
  -1  -7  -2 2344.72 242.827   5 0.90555-0.99056-0.42229-0.08438-0.03542-0.11459
   1  -7   2 2239.93 221.319   5 0.99382-0.90873-0.10486-0.40179 0.04322 0.10667
  -1   7  -2 2544.83 211.568   4-0.10346 0.01846-0.02766 0.53468-0.99495 0.84443
   1  -7   2 2174.09 197.904   3 0.10783-0.02249 0.02852-0.53514 0.99447-0.84448
  -1   7  -3 11791.4 452.120   4 0.07569-0.16124-0.11461 0.62170-0.98982 0.76460
  -1  -7  -3 11008.9 535.380   5 0.89635-0.98186-0.44100-0.06569-0.04032-0.18438
   1  -7   3 12116.7 456.412   3 0.22960-0.14375 0.15359-0.66023 0.96259-0.73796
   1  -7   3 10954.8 474.709   5 0.99116-0.90558-0.12906-0.37758 0.03750 0.18708
  -1   7  -4 5543.99 326.430   4 0.21492-0.30101-0.17999 0.68716-0.95811 0.65819
   1  -7   4 5045.90 388.272   1 0.58234-0.49632-0.58336 0.07606-0.56173 0.86125
   1  -7   4 5425.51 321.746   3 0.31712-0.23076 0.24521-0.75186 0.91820-0.61891
  -1  -7  -4 4648.44 360.262   5 0.88254-0.96855-0.46729-0.03940-0.04728-0.25212
   1  -7   4 4974.76 318.189   5 0.98545-0.89937-0.16867-0.33796 0.02805 0.27123
  -1  -7  -5 14196.1 632.584   5 0.86367-0.95017-0.50032-0.00638-0.05612-0.31797
   1  -7   5 15671.0 551.226   5 0.97403-0.88745-0.22636-0.28026 0.01407 0.35990
   1  -7   5 14226.2 667.361   1 0.57196-0.48541-0.65958 0.15227-0.48319 0.85742
  -1   7  -5 17238.1 605.867   4 0.31556-0.40220-0.22598 0.73322-0.91901 0.54440
   1  -7   5 15870.3 579.679   3 0.37742-0.29055 0.30931-0.81598 0.87530-0.50136
   1  -7   6 1186.77 175.137   3 0.41802-0.33063 0.35300-0.85968 0.83974-0.39115
  -1  -7  -6 1100.48 186.172   5 0.83908-0.92608-0.53926 0.03255-0.06670-0.38208
   1   7   6 1041.32 176.135   3 0.64107-0.55414 0.67347-0.16705-0.36328 0.81166
   1  -7   6 1260.25 215.013   1 0.55588-0.46881-0.72401 0.21669-0.40396 0.85290
   1  -7   7 7014.86 427.480   3 0.44470-0.35681 0.38198-0.88868 0.81300-0.28975
   1  -7   7 7082.74 493.518   1 0.53532-0.44772-0.77758 0.27024-0.32543 0.84908
  -1  -7  -7 7956.94 480.801   5 0.80790-0.89540-0.58333 0.07661-0.07891-0.44457
   1   7   7 7199.38 464.461   3 0.66825-0.58081 0.69301-0.18660-0.26531 0.78834
   1  -7   8 2595.73 274.658   3 0.46148-0.37307 0.40033-0.90704 0.79465-0.19675
  -1  -7  -8 2642.91 280.267   5 0.76904-0.85704-0.63175 0.12502-0.09263-0.50555
   1   7   8 2500.12 289.969   3 0.68669-0.59874 0.70430-0.19791-0.17427 0.77196
   1  -7   8 2704.94 318.755   1 0.51124-0.42312-0.82140 0.31405-0.24843 0.84679
   1   7   9 4954.07 429.885   3 0.69833-0.60987 0.70924-0.20287-0.08954 0.76188
   1  -7   9 5131.63 415.347   3 0.47102-0.38210 0.41081-0.91754 0.78364-0.11109
   1  -7  10 2143.29 285.366   3 0.47507-0.38564 0.41527-0.92201 0.77883-0.03163
   1   7  10 1813.76 272.035   3 0.70455-0.61558 0.70918-0.20282-0.01027 0.75727
  -1  -8   9-51.6025 73.8714   3 0.36177-0.44100 0.29259-0.87160 0.88751-0.21610
  -1  -8   8 105.691 86.9501   3 0.34511-0.42486 0.27485-0.85386 0.89965-0.30289
   1  -8  -8-80.2263 86.2788   5 0.90021-0.82009-0.43326-0.14586-0.03829-0.55878
  -1  -8   7-116.140 87.4712   1 0.50932-0.59000-0.82431 0.24444-0.24274 0.76522
   1  -8  -7 17.4223 65.7711   5 0.92630-0.84568-0.37571-0.20341-0.02335-0.49903
  -1  -8   7 155.615 92.6649   3 0.32084-0.40110 0.24914-0.82813 0.91586-0.39375
  -1  -8   6-41.8544 71.6335   1 0.53108-0.61228-0.78643 0.20657-0.31097 0.75874
  -1   8   6-3.99759 52.5862   3 0.68642-0.76770 0.70415-0.12529-0.17591 0.62313
  -1  -8   6 59.5220 74.1367   3 0.28720-0.36796 0.21371-0.79268 0.93560-0.48814
   1  -8  -6 123.662 59.7367   5 0.94609-0.86498-0.32355-0.25555-0.01007-0.43761
  -1  -8   5 43.2904 85.5316   3 0.24209-0.32337 0.16658-0.74553 0.95743-0.58463
   1  -8  -5 67.7240 76.1298   5 0.96080-0.87919-0.27726-0.30183 0.00152-0.37451
  -1  -8   5 19.6090 75.5130   1 0.55019-0.63191-0.74103 0.16118-0.38048 0.75354
  -1   8   5 110.803 59.8095   3 0.66531-0.74710 0.69101-0.11214-0.27746 0.65002
  -1  -8   4 499.160 130.131   3 0.18336-0.26515 0.10580-0.68474 0.97854-0.68039
   1  -8  -4 435.647 138.677   5 0.97144-0.88933-0.23732-0.34177 0.01139-0.30968
  -1  -8   4 265.803 98.3242   5 0.84641-0.92843-0.52808-0.05092-0.06365 0.36179
  -1  -8   4 521.288 151.105   1 0.56601-0.64826-0.68728 0.10745-0.45081 0.74916
  -1  -8   3 13.3383 60.0537   3 0.10936-0.19166 0.03008-0.60900 0.99426-0.77076
   1  -8  -3 43.5745 67.8622   5 0.97885-0.89624-0.20423-0.37484 0.01946-0.24306
  -1  -8   3 222.218 110.279   1 0.57774-0.66052-0.62445 0.04463-0.52114 0.74478
  -1  -8   3 6.08560 61.9289   5 0.87233-0.95485-0.48554-0.09346-0.05215 0.27560
   1  -8  -2 272.881 119.433   5 0.98375-0.90065-0.17859-0.40048 0.02566-0.17456
  -1   8   2 156.840 61.6557   4-0.77990 0.69711 0.33873 0.24041-0.53218 0.68038
  -1  -8   2 180.114 80.7405   5 0.88905-0.97207-0.45515-0.12387-0.04406 0.19282
  -1  -8   2 251.221 98.8861   3 0.02000-0.10281-0.06015-0.51876 0.99812-0.84927
  -1   8   1 114.037 47.2291   4-0.69315 0.60982 0.28578 0.29343-0.66696 0.74046
   1  -8  -1 64.7701 80.0949   5 0.98669-0.90309-0.16101-0.41805 0.02989-0.10409
  -1  -8   1 33.2024 67.8356   5 0.89892-0.98244-0.43587-0.14316-0.03898 0.11304
  -1  -8   0 117.836 83.1835   5 0.90340-0.98741-0.42676-0.15228-0.03659 0.03595
  -1   8   0 94.4189 57.3532   4-0.56650 0.48262 0.21351 0.36578-0.80021 0.79901
   1  -8   0 45.3108 61.3510   5 0.98803-0.90393-0.15220-0.42685 0.03199-0.03150
  -1   8  -1 171.654 68.0789   4-0.40263 0.31821 0.12495 0.45442-0.90982 0.83393
   1  -8   1 2.09987 55.7625   5 0.98792-0.90332-0.15300-0.42604 0.03180 0.04338
  -1  -8  -1 168.369 92.3608   5 0.90332-0.98783-0.42692-0.15213-0.03663-0.03870
   1  -8   2 46.0147 67.9412   5 0.98615-0.90106-0.16437-0.41466 0.02908 0.12080
  -1   8  -2 135.239 68.4331   4-0.22152 0.13655 0.03138 0.54805-0.97627 0.82568
   1  -8   2 94.5396 65.8354   3 0.02642 0.05895-0.05372-0.52527 0.99838-0.84838
  -1  -8  -2 60.9702 61.3745   5 0.89909-0.98410-0.43553-0.14352-0.03889-0.11113
   1  -8   3 111.518 77.4241   5 0.98213-0.89654-0.18751-0.39151 0.02351 0.20106
   1  -8   3 65.8754 60.0994   3 0.14261-0.05673 0.06398-0.64298 0.98864-0.76399
  -1  -8  -3 97.5298 77.3021   5 0.89079-0.97630-0.45182-0.12724-0.04318-0.18154
  -1  -8  -4 214.414 108.117   5 0.87826-0.96426-0.47505-0.10402-0.04935-0.25006
   1  -8   4 335.412 103.212   3 0.23259-0.14620 0.15670-0.73572 0.96139-0.66209
   1  -8   4 108.243 73.6613   5 0.97459-0.88850-0.22392-0.35509 0.01467 0.28460
   1  -8   4 152.301 90.6333   1 0.58262-0.49663-0.57997 0.00021-0.56491 0.86444
   1  -8   5 157.321 80.7350   5 0.96129-0.87470-0.27559-0.30341 0.00194 0.37202
   1  -8   5 141.927 103.515   1 0.57354-0.48703-0.65101 0.07123-0.49275 0.86700
   1  -8   5 221.072 85.4593   3 0.29895-0.21204 0.22605-0.80509 0.92905-0.55510
  -1  -8  -5 64.7690 82.7911   5 0.86113-0.94763-0.50454-0.07454-0.05726-0.31684
  -1  -8  -6 110.172 94.9699   5 0.83884-0.92584-0.53961-0.03948-0.06680-0.38200
   1  -8   6 192.322 88.2473   3 0.34643-0.25901 0.27625-0.85530 0.89873-0.45012
   1  -8   6 92.1993 106.727   1 0.55932-0.47228-0.71261 0.13282-0.41903 0.86798
   1  -8   7 370.895 124.041   3 0.37955-0.29163 0.31159-0.89065 0.87358-0.35032
  -1  -8  -7 358.772 129.949   5 0.81067-0.89817-0.57962 0.00052-0.07787-0.44562
   1   8   7 143.477 154.012   3 0.66409-0.57668 0.69018-0.11141-0.28234 0.80536
   1  -8   7 474.511 167.752   1 0.54083-0.45326-0.76514 0.18533-0.34495 0.86861
  -1  -8  -8-7.56444 76.7815   5 0.77568-0.86367-0.62392 0.04481-0.09039-0.50780
   1  -8   8-119.577 75.4361   3 0.40189-0.31346 0.33559-0.91467 0.85457-0.25666
   1  -8   8 95.7512 103.632   1 0.51879-0.43070-0.80920 0.22938-0.27134 0.86972
   1   8   8-11.2635 68.4586   3 0.68363-0.59571 0.70262-0.12386-0.19181 0.78948
   1  -8   9 107.714 75.6726   3 0.41605-0.32711 0.35088-0.92997 0.84160-0.16903
   1   8   9 291.459 121.792   3 0.69639-0.60796 0.70866-0.12992-0.10675 0.77907
   1  -9  -8 3185.77 358.928   5 0.89150-0.81137-0.45046-0.20104-0.04282-0.55426
  -1  -9   8 3754.50 392.796   3 0.28880-0.36851 0.21539-0.86676 0.93473-0.33795
  -1  -9   7 4869.15 438.254   3 0.26168-0.34190 0.18699-0.83835 0.94858-0.42645
  -1  -9   7 3935.77 419.477   1 0.51499-0.59569-0.81549 0.16315-0.25968 0.78217
   1  -9  -7 4205.04 401.581   5 0.91638-0.83575-0.39882-0.25267-0.02931-0.49307
  -1  -9   6 1308.34 240.845   1 0.53523-0.61646-0.77776 0.12543-0.32512 0.77290
  -1  -9   6 1214.23 226.134   3 0.22544-0.30617 0.14928-0.80061 0.96423-0.51676
   1  -9  -6 1209.90 222.878   5 0.93561-0.85449-0.35231-0.29918-0.01736-0.43033
  -1  -9   5 6007.69 482.974   1 0.55279-0.63455-0.73351 0.08119-0.39101 0.76408
   1  -9  -5 6201.26 469.634   5 0.95024-0.86862-0.31131-0.34017-0.00698-0.36601
  -1  -9   5 6677.40 494.062   3 0.17853-0.25977 0.10082-0.75214 0.97993-0.60711
  -1  -9   4 3635.34 367.219   1 0.56718-0.64946-0.68228 0.02997-0.45683 0.75519
  -1  -9   4 3573.75 317.704   5 0.83980-0.92182-0.53817-0.11321-0.06641 0.36454
  -1  -9   4 3512.81 354.864   3 0.11957-0.20132 0.04046-0.69177 0.99279-0.69462
   1  -9  -4 3792.19 364.563   5 0.96110-0.87898-0.27624-0.37523 0.00178-0.30008
  -1  -9   3 6336.11 458.321   3 0.04786-0.13013-0.03216-0.61913 0.99865-0.77513
   1  -9  -3 6184.76 456.814   5 0.96889-0.88628-0.24755-0.40391 0.00887-0.23248
  -1  -9   3 6187.09 420.816   5 0.86374-0.94626-0.50019-0.15119-0.05609 0.27953
  -1  -9   3 6330.58 464.064   1 0.57784-0.66065-0.62377-0.02852-0.52185 0.74550
   1  -9  -2 3646.60 343.884   5 0.97418-0.89107-0.22572-0.42573 0.01423-0.16314
  -1  -9   2 3865.08 346.718   1 0.58415-0.66748-0.55794-0.09434-0.58501 0.73396
  -1  -9   2 4036.60 343.829   5 0.87953-0.96254-0.47278-0.17862-0.04874 0.19749
  -1  -9   1 9914.58 538.423   5 0.88907-0.97258-0.45511-0.19630-0.04405 0.11810
   1  -9  -1 9334.15 537.965   5 0.97737-0.89377-0.21129-0.44015 0.01775-0.09196
  -1  -9   0 7240.15 466.687   5 0.89358-0.97759-0.44643-0.20498-0.04175 0.04112
   1  -9   0 7436.81 472.656   5 0.97872-0.89462-0.20485-0.44658 0.01931-0.01883
   1  -9   1 10093.6 542.509   5 0.97826-0.89366-0.20710-0.44432 0.01877 0.05641
  -1  -9  -1 10300.5 568.896   5 0.89378-0.97829-0.44604-0.20539-0.04165-0.03368
  -1  -9  -2 3647.82 347.344   5 0.89004-0.97504-0.45326-0.19817-0.04356-0.10647
   1  -9   2 3551.86 318.427   5 0.97573-0.89064-0.21883-0.43258 0.01591 0.13396
   1  -9   3 5386.36 385.693   5 0.97053-0.88494-0.24101-0.41039 0.01048 0.21408
  -1  -9  -3 5436.67 432.814   5 0.88244-0.96794-0.46747-0.18397-0.04733-0.17739
  -1  -9  -4 3156.91 339.634   5 0.87087-0.95686-0.48808-0.16337-0.05283-0.24659
   1  -9   4 3132.17 291.952   5 0.96150-0.87541-0.27483-0.37656 0.00213 0.29713
   1  -9   4 3149.06 352.271   1 0.58239-0.49643-0.58279-0.06944-0.56226 0.86181
  -1  -9  -5 4922.31 432.511   5 0.85501-0.94151-0.51451-0.13696-0.05995-0.31416
   1  -9   5 4560.81 434.777   1 0.57397-0.48748-0.64859-0.00366-0.49541 0.86967
   1  -9   6 2719.64 354.019   1 0.56097-0.47396-0.70681 0.05454-0.42651 0.87547
  -1  -9  -6 3060.48 345.796   5 0.83441-0.92140-0.54620-0.10527-0.06861-0.38020
  -1  -9  -7 3907.90 386.056   5 0.80844-0.89592-0.58262-0.06886-0.07871-0.44479
   1   9   7 3203.45 335.746   3 0.66199-0.57461 0.68872-0.03759-0.29060 0.81361
   1  -9   7 4150.05 438.305   1 0.54398-0.45644-0.75747 0.10520-0.35656 0.88023
   1   9   8 782.331 177.167   3 0.68191-0.59402 0.70163-0.05051-0.20111 0.79877
  -1  -9  -8 1083.29 208.258   5 0.77627-0.86425-0.62322-0.02827-0.09019-0.50801
   1  -9   8 1111.26 250.604   1 0.52355-0.43549-0.80085 0.14856-0.28632 0.88471
  -1 -10   7 397.778 147.145   3 0.20119-0.28138 0.12418-0.84790 0.97297-0.45083
   1 -10  -7 299.565 145.705   5 0.90459-0.82396-0.42429-0.29959-0.03594-0.48645
  -1 -10   6 117.153 107.319   1 0.53723-0.61849-0.77339 0.04859-0.33209 0.77989
   1 -10  -6 182.596 106.920   5 0.92347-0.84234-0.38247-0.34139-0.02509-0.42261
  -1 -10   6-131.262 96.7560   3 0.16319-0.24389 0.08506-0.80877 0.98399-0.53651
   1 -10  -5 680.960 181.552   5 0.93806-0.85643-0.34585-0.37800-0.01572-0.35729
  -1 -10   5 335.684 140.699   1 0.55365-0.63543-0.73094 0.00615-0.39455 0.76763
  -1 -10   5 509.824 159.485   3 0.11545-0.19666 0.03627-0.75996 0.99341-0.62057
  -1 -10   4 10.5204 84.1867   3 0.05721-0.13893-0.02274-0.70093 0.99848-0.70029
   1 -10  -4 155.168 96.6943   5 0.94908-0.86696-0.31480-0.40905-0.00786-0.29045
  -1 -10   4-11.5617 74.6135   5 0.82931-0.91132-0.55365-0.17011-0.07066 0.36879
  -1 -10   4-170.473 113.069   1 0.56709-0.64940-0.68269-0.04208-0.45634 0.75471
   1 -10  -3-176.606 105.330   5 0.95711-0.87449-0.28969-0.43414-0.00157-0.22204
  -1 -10   3-44.4001 83.2766   1 0.57715-0.65999-0.62861-0.09615-0.51682 0.74048
  -1 -10   3 68.0830 84.4356   5 0.85209-0.93460-0.51917-0.20460-0.06122 0.28465
  -1 -10   2 19.1379 73.9777   5 0.86740-0.95041-0.49402-0.22975-0.05443 0.20317
  -1 -10   2 54.1897 72.5630   1 0.58346-0.66682-0.56888-0.15586-0.57515 0.72410
   1 -10  -2-5.54577 80.9938   5 0.96261-0.87949-0.27096-0.45287 0.00309-0.15201
  -1 -10   1 76.2634 83.7028   5 0.87686-0.96037-0.47755-0.24623-0.05001 0.12406
   1 -10  -1 12.4029 77.3329   5 0.96588-0.88227-0.25905-0.46477 0.00604-0.08026
  -1 -10   0 19.2708 69.1746   5 0.88153-0.96553-0.46915-0.25465-0.04777 0.04712
   1 -10   0 167.324 103.979   5 0.96710-0.88299-0.25448-0.46933 0.00717-0.00670
  -1 -10  -1 48.9252 107.718   5 0.88203-0.96653-0.46822-0.25558-0.04753-0.02782
   1 -10   1 0.38926 82.7834   5 0.96621-0.88160-0.25783-0.46597 0.00634 0.06883
   1 -10   2 131.782 82.5098   5 0.96294-0.87784-0.26978-0.45401 0.00338 0.14648
  -1 -10  -2 109.352 92.0092   5 0.87872-0.96372-0.47423-0.24958-0.04913-0.10091
  -1 -10  -3 2.71432 95.1934   5 0.87169-0.95718-0.48666-0.23717-0.05245-0.17228
   1 -10   3-43.6001 65.6611   5 0.95667-0.87107-0.29112-0.43266-0.00193 0.22648
   1 -10   4 265.573 130.808   1 0.58170-0.49577-0.59045-0.13426-0.55500 0.85456
   1 -10   4 319.757 106.720   5 0.94634-0.86025-0.32283-0.40094-0.00988 0.30913
  -1 -10  -4 87.4412 82.3264   5 0.86085-0.94684-0.50499-0.21884-0.05738-0.24204
   1 -10   5 452.605 154.531   1 0.57351-0.48706-0.65117-0.07355-0.49257 0.86684
  -1 -10  -5 548.038 176.486   5 0.84596-0.93245-0.52877-0.19507-0.06383-0.31029
   1 -10   6 95.3883 107.159   1 0.56126-0.47428-0.70577-0.01897-0.42784 0.87682
  -1 -10  -6 420.674 146.832   5 0.82662-0.91360-0.55751-0.16634-0.07173-0.37709
  -1 -10  -7 335.157 161.357   5 0.80227-0.88975-0.59076-0.13310-0.08099-0.44252
   1 -11  -5 3936.56 418.145   5 0.92418-0.84255-0.38078-0.41545-0.02465-0.34836
  -1 -11   5 3705.57 423.287   1 0.55311-0.63492-0.73257-0.06469-0.39231 0.76540
  -1 -11   4 4964.90 478.563   1 0.56595-0.64829-0.68751-0.10973-0.45053 0.74892
   1 -11  -4 4941.00 457.944   5 0.93532-0.85319-0.35309-0.44314-0.01756-0.28076
  -1 -11   4 4751.55 414.307   5 0.81557-0.89758-0.57296-0.22317-0.07601 0.37413
  -1 -11   3 4737.70 451.703   1 0.57576-0.65863-0.63777-0.15945-0.50713 0.73080
   1 -11  -3 5701.56 486.230   5 0.94349-0.86087-0.33097-0.46525-0.01194-0.21168
  -1 -11   3 4812.52 421.966   5 0.83775-0.92026-0.54124-0.25491-0.06725 0.29067
  -1 -11   2 2947.37 337.322   5 0.85291-0.93591-0.51788-0.27828-0.06087 0.20960
   1 -11  -2 3407.75 373.264   5 0.94908-0.86596-0.31479-0.48142-0.00786-0.14107
  -1 -11   2 2992.43 347.109   1 0.58231-0.66571-0.58366-0.21356-0.56145 0.71041
  -1 -11   1 3486.99 362.684   5 0.86246-0.94596-0.50233-0.29383-0.05666 0.13070
   1 -11  -1 3847.88 393.704   5 0.95232-0.86870-0.30495-0.49125-0.00539-0.06885
  -1 -11   0 2279.44 306.263   5 0.86736-0.95136-0.49409-0.30208-0.05444 0.05379
   1 -11   0 2934.64 336.287   5 0.95330-0.86919-0.30189-0.49430-0.00462 0.00508
   1 -11   1 2625.39 317.861   5 0.95194-0.86733-0.30611-0.49006-0.00568 0.08083
  -1 -11  -1 2740.67 331.012   5 0.86819-0.95269-0.49267-0.30351-0.05406-0.02129
  -1 -11  -2 2755.94 347.048   5 0.86528-0.95027-0.49762-0.29858-0.05539-0.09465
   1 -11   2 2965.55 327.514   5 0.94793-0.86282-0.31819-0.47797-0.00872 0.15857
   1 -11   3 3360.49 343.313   5 0.94067-0.85506-0.33881-0.45735-0.01393 0.23847
  -1 -11  -3 3722.25 405.574   5 0.85873-0.94422-0.50848-0.28772-0.05832-0.16642
   1 -11   4 2810.63 370.442   1 0.58053-0.49463-0.60190-0.19527-0.54388 0.84346
   1 -11   4 3084.49 328.228   5 0.92914-0.84303-0.36877-0.42738-0.02157 0.32080
  -1 -11  -4 3019.53 373.289   5 0.84848-0.93447-0.52485-0.27136-0.06277-0.23667
   1 -11   5 2069.52 334.691   1 0.57229-0.48587-0.65781-0.13937-0.48518 0.85946
  -1 -11  -5 2290.15 329.280   5 0.83434-0.92082-0.54631-0.24991-0.06864-0.30549
  -1 -12   3 35.0782 82.9545   5 0.82089-0.90339-0.56560-0.30293-0.07397 0.29738
  -1 -12   3 133.482 119.347   1 0.57366-0.65656-0.65036-0.21934-0.49347 0.71716
  -1 -12   2 121.553 109.527   1 0.58059-0.66401-0.60138-0.26831-0.54440 0.69338
   1 -12  -2 26.7501 75.8666   5 0.93359-0.85046-0.35756-0.51103-0.01870-0.13024
  -1 -12   2 103.136 98.4026   5 0.83612-0.91912-0.54367-0.32487-0.06791 0.21664
  -1 -12   1-148.706 116.386   5 0.84591-0.92940-0.52885-0.33969-0.06386 0.13788
   1 -12  -1 256.429 122.956   5 0.93670-0.85308-0.34945-0.51913-0.01663-0.05761
  -1 -12   0 17.7584 103.559   5 0.85112-0.93511-0.52071-0.34785-0.06164 0.06097
   1 -12   0-24.7983 87.3246   5 0.93739-0.85327-0.34764-0.52093-0.01617 0.01662
   1 -12   1 69.5787 94.5191   5 0.93551-0.85090-0.35257-0.51599-0.01743 0.09257
  -1 -12  -1 157.678 112.946   5 0.85230-0.93679-0.51884-0.34973-0.06113-0.01423
   1 -12   2 483.148 148.476   5 0.93076-0.84564-0.36474-0.50381-0.02053 0.17037
  -1 -12  -2-167.793 124.758   5 0.84977-0.93475-0.52284-0.34573-0.06222-0.08784
   1 -12   3 190.917 108.098   5 0.92251-0.83690-0.38472-0.48382-0.02567 0.25020
  -2   0  11 40.5479 70.0025   3 0.61149-0.77405 0.57066-0.57075 0.55189 0.26813
  -2   0  10 10351.4 568.833   3 0.62019-0.78326 0.58110-0.58118 0.53077 0.21460
  -2   0   9 9.04236 57.2484   3 0.62718-0.79076 0.58956-0.58962 0.51282 0.15789
  -2   0   8 14602.9 585.846   3 0.63224-0.79634 0.59575-0.59580 0.49918 0.09688
  -2   0   7 78.6558 57.8966   3 0.63499-0.79959 0.59912-0.59915 0.49155 0.02986
  -2   0   6 25816.1 663.956   3 0.63460-0.79971 0.59864-0.59866 0.49265-0.04589
  -2   0   5-15.8736 40.7742   3 0.62938-0.79501 0.59225-0.59225 0.50695-0.13484
  -2   0   4 39796.5 672.808   3 0.61555-0.78168 0.57552-0.57550 0.54220-0.24474
  -2   0   3-8.65004 29.1565   3 0.58354-0.75019 0.53773-0.53770 0.61219-0.38938
  -2   0   2 54995.1 608.327   3 0.50646-0.67362 0.45006-0.45002 0.73871-0.59056
  -2   0   2 55273.3 672.037   4-0.71529 0.54821 0.29894-0.29915-0.63705 0.78522
  -2   0   2 54116.9 540.567   5-0.35554 0.18842-0.90603 0.90606-0.23193 0.38020
  -2   0   1 35.9391 28.7085   3 0.30950-0.47717 0.23716-0.23710 0.92286-0.84936
  -2   0   1 7.71398 40.8784   4-0.48337 0.31574 0.16803-0.16816-0.86279 0.93626
  -2   0   1-1.75489 26.2218   5-0.20323 0.03561-0.95159 0.95161-0.23199 0.30556
  -2   0   0 20942.2 480.693   4-0.08408-0.08409-0.03721 0.03715-0.99632 0.99508
  -2   0   0 22897.1 362.767   5-0.08406-0.08406-0.97015 0.97016-0.22812 0.22700
   2   0   0 23460.1 283.327   2 0.08409 0.08414 0.70484-0.70472-0.70338 0.70451
  -2   0  -1-0.86804 28.7163   5-0.00181-0.16680-0.97472 0.97472-0.22357 0.14776
  -2   0  -1 29.3684 17.3858   2 0.27308-0.44181 0.46007-0.46023-0.84279 0.76692
  -2   0  -1 38.6863 46.5181   4 0.30843-0.47715-0.22276 0.22277-0.92226 0.84633
  -2   0  -2 43455.5 528.978   5 0.04438-0.21349-0.97437 0.97437-0.22035 0.06984
   2   0   2 44338.5 391.503   1 0.56982-0.40053-0.67025 0.67030-0.47099 0.62159
  -2   0  -3 3.40451 24.1633   5 0.05748-0.22709-0.97390 0.97388-0.21934-0.00586
   2   0   3 22.4610 33.9891   3 0.65524-0.48553 0.68394-0.68406-0.31577 0.54088
   2   0   4 52690.8 789.862   3 0.68438-0.51416 0.70304-0.70317-0.18763 0.48739
  -2   0  -4 54156.4 618.219   5 0.04057-0.21067-0.97448 0.97446-0.22063-0.07927
   2   0   5-7.11364 41.9399   3 0.69839-0.52765 0.70926-0.70941-0.08900 0.46341
  -2   0  -5-3.64154 24.2143   5-0.00435-0.16624-0.97467 0.97464-0.22373-0.15086
   2   0   6 24407.4 657.001   3 0.70467-0.53343 0.70911-0.70928-0.00790 0.45697
  -2   0  -6 24253.4 419.129   5-0.07714-0.09396-0.97079 0.97075-0.22780-0.22149
   2   0   7 26.8066 51.2333   3 0.70635-0.53460 0.70521-0.70539 0.06217 0.46155
   2   0   8 14233.2 589.476   3 0.70489-0.53263 0.69873-0.69893 0.12494 0.47343
   2   0   9 13.6883 59.6482   3 0.70104-0.52826 0.69024-0.69045 0.18265 0.49037
   2   0  10 9309.38 546.077   3 0.69517-0.52188 0.68002-0.68025 0.23674 0.51093
   2   0  11 224.984 98.7141   3 0.68751-0.51371 0.66821-0.66845 0.28815 0.53417
  -2   1  11 128.705 100.827   3 0.62953-0.79212 0.59243-0.52016 0.50656 0.31345
  -2  -1  11 44.7462 91.6493   3 0.59017-0.75270 0.54546-0.61792 0.59879 0.22124
  -2   1  10 249.363 96.1027   3 0.63904-0.80215 0.60413-0.53184 0.47996 0.26540
  -2  -1  10 153.668 106.103   3 0.59769-0.76073 0.55430-0.62674 0.58295 0.16243
  -2   1   9 281.608 93.6151   3 0.64712-0.81073 0.61420-0.54190 0.45555 0.21515
  -2  -1   9 438.066 126.671   3 0.60310-0.76665 0.56069-0.63312 0.57109 0.09964
  -2  -1   8 434.514 115.423   3 0.60602-0.77007 0.56414-0.63655 0.56454 0.03154
  -2   1   8 457.195 118.826   3 0.65370-0.81783 0.62254-0.55022 0.43417 0.16188
  -2   1   7 158.340 74.7873   3 0.65865-0.82328 0.62887-0.55654 0.41709 0.10431
  -2  -1   7 140.492 69.5347   3 0.60572-0.77029 0.56379-0.63618 0.56522-0.04379
   2  -1  -6 64.4893 33.5895   5 0.98987-0.82473 0.11279-0.18524 0.09274-0.53980
  -2   1   6 58.9174 42.9787   3 0.66159-0.82674 0.63269-0.56034 0.40641 0.04033
  -2  -1   6 69.3597 52.9379   3 0.60088-0.76597 0.55806-0.63044 0.57600-0.12923
  -2   1   5-5.05513 39.3585   3 0.66175-0.82741 0.63289-0.56053 0.40584-0.03375
  -2  -1   5 2.32935 44.9290   3 0.58898-0.75457 0.54407-0.61644 0.60124-0.22911
  -2   1   4 1207.51 119.621   3 0.65712-0.82329 0.62691-0.55453 0.42246-0.12502
  -2  -1   4 1244.09 130.870   3 0.56483-0.73093 0.51608-0.58843 0.64746-0.34999
  -2  -1   3 2116.01 150.111   3 0.51734-0.68395 0.46222-0.53455 0.72350-0.50068
  -2   1   3 1918.61 126.822   3 0.64195-0.80863 0.60774-0.53535 0.47137-0.24858
  -2   1   3 2170.24 159.856   4-0.78787 0.62137 0.34383-0.27170-0.51683 0.73962
  -2  -1   3 1946.39 101.428   5-0.13977-0.02685-0.96326 0.89092-0.23034 0.45329
  -2  -1   2 1038.27 79.1420   5 0.05949-0.22660-0.97381 0.90146-0.21919 0.36745
  -2   1   2 1030.27 109.917   4-0.66812 0.50107 0.27114-0.19893-0.69794 0.84603
  -2  -1   2 1093.07 91.2489   4-0.78146 0.61436 0.33973-0.41235-0.52922 0.67746
  -2  -1   2 1205.44 107.657   3 0.42263-0.58976 0.35800-0.43032 0.83532-0.68715
  -2   1   2 1061.65 81.9382   3 0.59493-0.76212 0.55105-0.47864 0.58884-0.44071
  -2  -1   1 1089.36 84.8302   5 0.20494-0.37255-0.95673 0.88437-0.20538 0.27895
  -2   1   1 1154.94 67.0678   3 0.40840-0.57610 0.34261-0.27018 0.84870-0.77521
  -2  -1   1 1233.70 109.805   3 0.23936-0.40700 0.16374-0.23604 0.95859-0.88507
   2  -1  -1 1094.26 62.0668   3 0.60805-0.44035 0.56656-0.63898 0.55989-0.63338
  -2  -1   1 1226.43 87.4053   4-0.56356 0.39591 0.21188-0.28443-0.80270 0.87624
  -2   1   1 1131.34 117.923   4-0.44568 0.27808 0.14780-0.07552-0.88626 0.95966
   2  -1  -1 1110.73 88.2195   2 0.09620 0.07147 0.69191-0.76428-0.71449 0.64085
  -2  -1   0 400.895 59.0720   5 0.30211-0.47021-0.93309 0.86072-0.19336 0.19223
   2  -1   0 442.680 49.5546   3 0.11518 0.05303 0.03599-0.10843 0.99345-0.99228
  -2  -1   0 323.302 66.7787   4-0.08357-0.08463-0.03746-0.03501-0.99635 0.99519
   2  -1   0 395.421 54.3297   2 0.28774-0.11957 0.43675-0.50907-0.85018 0.85127
  -2   1   0 429.841 93.9099   4-0.11014-0.05801-0.02435 0.09671-0.99437 0.99307
  -2  -1  -1 1499.25 104.414   5 0.35918-0.52779-0.91427 0.84190-0.18517 0.10935
  -2   1  -1 1709.23 135.443   4 0.22707-0.39576-0.18560 0.25803-0.95414 0.87814
  -2   1  -2 2624.82 130.101   5-0.35158 0.18247-0.90755 0.97992-0.23201 0.08151
   2  -1   2 2587.91 129.484   3 0.67523-0.50599 0.69756-0.77003-0.23439 0.38486
  -2  -1  -2 2660.23 142.014   5 0.38379-0.55289-0.90497 0.83258-0.18136 0.03085
  -2  -1  -3 4475.95 136.874   1 0.54165-0.71150-0.76318 0.69068-0.34794 0.12264
  -2   1  -3 4068.73 162.065   5-0.33432 0.16472-0.91395 0.98631-0.23230 0.00711
  -2  -1  -3 4212.01 180.403   5 0.38169-0.55129-0.90579 0.83340-0.18169-0.04352
   2  -1   3 4386.11 196.044   3 0.69647-0.52673 0.70869-0.78118-0.10602 0.33114
   2  -1   3 4012.58 177.308   1 0.56742-0.39763-0.68122 0.60878-0.45809 0.68342
   2  -1   4 881.812 105.654   3 0.70414-0.53388 0.70938-0.78188-0.01805 0.31782
  -2   1  -4 1054.58 85.1719   5-0.34622 0.17611-0.90957 0.98193-0.23211-0.06778
   2  -1   4 1130.93 109.219   1 0.52220-0.35189-0.80327 0.73082-0.28204 0.58207
   2   1   4 1019.17 121.679   3 0.65233-0.48214 0.68183-0.60961-0.32608 0.62583
  -2  -1  -4 1036.25 92.9604   5 0.35666-0.52676-0.91519 0.84278-0.18555-0.11436
   2   1   5 45.1047 49.6120   3 0.68027-0.50957 0.70066-0.62845-0.20969 0.58409
   2  -1   5 50.2131 42.6273   3 0.70632-0.53555 0.70604-0.77855 0.05135 0.32308
  -2  -1  -5 28.9283 30.1096   5 0.31061-0.48121-0.93052 0.85811-0.19219-0.18241
   2  -1   6 670.979 113.459   3 0.70547-0.53419 0.70043-0.77296 0.11083 0.33825
   2   1   6 678.493 120.419   3 0.69561-0.52440 0.70839-0.63619-0.11313 0.56218
  -2  -1  -6 785.644 87.5762   5 0.24380-0.41489-0.94850 0.87607-0.20085-0.24844
   2   1   7 1584.74 189.780   3 0.70341-0.53169 0.70962-0.63743-0.03017 0.55387
   2  -1   7 1313.56 173.002   3 0.70252-0.53073 0.69319-0.76573 0.16443 0.35930
  -2  -1  -7 1493.85 117.834   5 0.15462-0.32620-0.96506 0.89262-0.21071-0.31328
   2   1   8 129.220 77.2847   3 0.70624-0.53401 0.70660-0.63444 0.04330 0.55505
   2  -1   8 78.1463 54.3766   3 0.69788-0.52558 0.68454-0.75710 0.21427 0.38411
   2   1   9 389.276 116.957   3 0.70550-0.53275 0.70053-0.62838 0.10996 0.56305
   2  -1   9 375.730 107.855   3 0.69173-0.51892 0.67458-0.74716 0.26156 0.41147
   2  -1  10 177.240 86.8524   3 0.68416-0.51084 0.66333-0.73592 0.30706 0.44063
   2   1  10 14.4335 84.9861   3 0.70196-0.52871 0.69205-0.61992 0.17161 0.57604
   2   1  11 109.511 78.7874   3 0.69609-0.52232 0.68152-0.60940 0.22951 0.59280
   2  -1  11 197.133 126.899   3 0.67518-0.50135 0.65077-0.72338 0.35124 0.47110
  -2  -2  11 61.5869 72.6302   3 0.56546-0.72796 0.51681-0.66163 0.64632 0.17373
  -2   2  11 95.5311 84.1461   3 0.64449-0.80711 0.61090-0.46627 0.46372 0.35627
  -2   2  10 8485.02 511.553   3 0.65446-0.81759 0.62350-0.47885 0.43163 0.31371
  -2  -2  10 8819.90 544.085   3 0.57146-0.73446 0.52371-0.66852 0.63537 0.11003
  -2  -2   9 1213.13 196.601   3 0.57486-0.73838 0.52765-0.67244 0.62899 0.04175
  -2   2   9 1168.73 182.861   3 0.66313-0.82678 0.63470-0.49003 0.40068 0.27001
  -2  -2   8 19065.3 704.733   3 0.57509-0.73911 0.52791-0.67269 0.62857-0.03247
  -2   2   8 18635.8 656.735   3 0.67055-0.83471 0.64451-0.49983 0.37130 0.22473
  -2   2   7-51.7388 50.8698   3 0.67672-0.84139 0.65288-0.50818 0.34420 0.17719
  -2  -2   7 114.336 66.5597   3 0.57112-0.73566 0.52333-0.66809 0.63599-0.11455
   2  -2  -7 136.141 50.6733   5 0.99340-0.82876-0.10912-0.03572 0.04221-0.56397
   2  -2  -6 36846.9 669.230   5 0.99604-0.83090 0.05142-0.19625 0.07912-0.52619
  -2  -2   6 37612.4 854.016   3 0.56121-0.72626 0.51192-0.65667 0.65390-0.20711
  -2   2   6 36832.6 775.723   3 0.68160-0.84677 0.65967-0.51496 0.32052 0.12621
  -2   2   5 72.8113 48.9753   3 0.68501-0.85070 0.66456-0.51983 0.30239 0.06969
  -2  -2   5 77.4640 46.8747   3 0.54221-0.70777 0.49025-0.63498 0.68582-0.31368
  -2  -2   5 51.8645 20.8743   5-0.27092 0.10530-0.93451 0.78981-0.23269 0.60502
  -2  -2   4 37303.2 718.496   3 0.50838-0.67445 0.45220-0.59692 0.73608-0.43859
  -2  -2   4 38836.9 451.997   5 0.03673-0.20285-0.97458 0.82986-0.22091 0.51855
  -2   2   4 38351.8 629.961   3 0.68649-0.85269 0.66671-0.52196 0.29409 0.00334
  -2  -2   3 5770.09 187.849   5 0.25438-0.42099-0.94598 0.80126-0.19955 0.42250
  -2   2   3 5713.97 274.031   4-0.76251 0.59604 0.32778-0.18323-0.56353 0.78625
  -2  -2   3 5618.03 258.551   3 0.44925-0.61583 0.38695-0.53165 0.80814-0.58531
  -2   2   3 5735.86 209.578   3 0.68439-0.85110 0.66366-0.51890 0.30582-0.08304
  -2  -2   2 32376.7 587.452   3 0.34726-0.51435 0.27714-0.42182 0.89813-0.74995
  -2   2   2 31897.3 619.476   4-0.64010 0.47307 0.25497-0.11035-0.72959 0.87761
  -2  -2   2 32213.4 466.003   5 0.40251-0.56962-0.89739 0.75266-0.17836 0.32661
  -2   2   2 32042.3 396.875   3 0.67113-0.83835 0.64528-0.50051 0.36888-0.22075
  -2  -2   1 1036.94 92.6659   5 0.49875-0.66635-0.85105 0.70631-0.16120 0.23476
  -2  -2   1 1068.33 120.445   3 0.18216-0.34977 0.10456-0.24923 0.97889-0.90536
  -2  -2   1 897.964 62.5366   4-0.70413 0.53645 0.29229-0.43725-0.65244 0.72605
  -2   2   1 887.184 45.3139   3 0.57000-0.73773 0.52203-0.37724 0.63807-0.56460
  -2   2   1 658.341 100.438   4-0.43582 0.26824 0.14254 0.00216-0.89196 0.96528
   2   2  -1 1017.89 84.0537   4-0.33122 0.49890 0.08759 0.05738-0.94195 0.86834
   2  -2  -1 914.169 45.4492   3 0.68447-0.51674 0.70309-0.84788-0.18711 0.11364
   2   2   0 16417.4 249.353   4 0.35721-0.18898-0.24466 0.38955-0.89849 0.89958
  -2  -2   0 17240.9 325.468   4-0.13701-0.03121-0.01102-0.13387-0.99147 0.99039
  -2   2   0 16511.4 490.195   4-0.15022-0.01790-0.00444 0.14921-0.98971 0.98833
  -2  -2   0 16063.7 265.682   1 0.53101-0.69931-0.78657 0.64157-0.31073 0.30957
  -2  -2   0 16006.4 365.748   5 0.55674-0.72484-0.81653 0.67178-0.14936 0.14822
   2  -2   1 4491.74 117.791   3 0.70446-0.53571 0.69759-0.84241 0.13378-0.05794
  -2   2  -1 4540.93 230.301   4 0.14400-0.31266-0.14693 0.29177-0.97737 0.90130
  -2  -2  -1 4375.39 106.687   1 0.58323-0.75206-0.57209 0.42710-0.57221 0.49634
  -2  -2  -1 4669.67 201.054   5 0.58616-0.75476-0.79685 0.65209-0.14285 0.06702
  -2  -2  -2 27178.6 502.614   5 0.59346-0.76255-0.79173 0.64697-0.14118-0.00934
  -2   2  -2 26391.3 558.748   4 0.36599-0.53520-0.24857 0.39349-0.89382 0.74305
   2  -2   2 26211.2 393.190   3 0.70493-0.53566 0.69883-0.84366 0.12414 0.02634
  -2  -2  -3 58.4211 37.9786   5 0.58257-0.75216-0.79934 0.65456-0.14367-0.08155
   2  -2   3 10.4647 32.6437   1 0.58379-0.41403-0.56392 0.41902-0.57965 0.80499
  -2  -2  -3 39.3277 21.1552   2 0.12915-0.29899 0.65495-0.80008-0.74332 0.51789
   2  -2   3 56.1063 32.2115   3 0.70386-0.53409 0.69614-0.84099 0.14443 0.08071
  -2  -2  -4 40397.1 652.836   5 0.55566-0.72575-0.81721 0.67243-0.14959-0.15033
   2  -2   4 39558.2 687.067   1 0.56080-0.39051-0.70742 0.56250-0.42572 0.72577
   2  -2   4 40939.5 680.269   3 0.70185-0.53157 0.69183-0.83670 0.17298 0.12681
  -2  -2  -5 1825.71 143.814   5 0.51358-0.68416-0.84273 0.69793-0.15829-0.21632
   2   2   5 1913.50 182.570   3 0.65731-0.48664 0.68542-0.54085-0.30826 0.68264
   2  -2   5 1831.96 160.675   1 0.52535-0.35453-0.79755 0.65261-0.29209 0.66685
   2  -2   5 2062.12 173.995   3 0.69888-0.52808 0.68629-0.83117 0.20500 0.16944
  -2  -2  -6 24474.3 525.353   5 0.45608-0.62717-0.87317 0.72837-0.16917-0.28013
   2   2   6 23784.6 679.134   3 0.68163-0.51045 0.70147-0.55690-0.20258 0.65162
   2  -2   6 24067.6 641.333   3 0.69491-0.52360 0.67959-0.82449 0.23879 0.21031
  -2  -2  -7 516.445 82.2820   5 0.38190-0.55348-0.90571 0.76090-0.18166-0.34233
   2   2   7 687.604 132.763   3 0.69591-0.52422 0.70850-0.56395-0.11071 0.63439
   2  -2   7 421.157 103.420   3 0.68989-0.51807 0.67176-0.81667 0.27361 0.25014
   2   2   8 20947.4 737.567   3 0.70348-0.53127 0.70960-0.56507-0.02914 0.62748
   2  -2   8 20415.2 701.449   3 0.68378-0.51145 0.66279-0.80771 0.30909 0.28931
   2   2   9-15.5600 51.9097   3 0.70626-0.53355 0.70651-0.56199 0.04470 0.62829
   2  -2   9 9.02462 65.1661   3 0.67655-0.50371 0.65264-0.79758 0.34501 0.32804
   2   2  10 9070.30 554.741   3 0.70540-0.53218 0.70022-0.55572 0.11267 0.63497
   2  -2  10 9681.63 561.510   3 0.66813-0.49478 0.64128-0.78624 0.38124 0.36647
   2  -2  11 321.941 124.469   3 0.65848-0.48461 0.62865-0.77362 0.41770 0.40466
   2   2  11 656.102 165.043   3 0.70159-0.52786 0.69132-0.54684 0.17614 0.64616
   2  -3 -11 102.925 74.4375   2 0.02982 0.13272 0.75854-0.97626-0.65026-0.17081
  -2   3  11 207.230 95.0117   3 0.65661-0.81927 0.62625-0.40925 0.42424 0.39573
  -2  -3  11 68.4182 78.5393   3 0.53732-0.69978 0.48472-0.70190 0.69357 0.12650
  -2  -3  10 305.670 116.556   3 0.54149-0.70446 0.48944-0.70661 0.68697 0.05845
  -2   3  10 242.932 100.906   3 0.66672-0.82989 0.63941-0.42240 0.38685 0.35847
  -2   3   9 165.649 79.5690   3 0.67556-0.83923 0.65128-0.43425 0.34955 0.32113
  -2  -3   9 108.743 77.6813   3 0.54255-0.70603 0.49064-0.70780 0.68527-0.01451
  -2  -3   8 185.951 106.283   3 0.53972-0.70371 0.48743-0.70457 0.68979-0.09368
  -2   3   8 239.538 89.4863   3 0.68317-0.84736 0.66191-0.44486 0.31235 0.28367
  -2  -3   7-7.03773 48.6250   3 0.53175-0.69625 0.47842-0.69555 0.70219-0.18073
  -2   3   7 3.24974 41.8703   3 0.68962-0.85432 0.67135-0.45429 0.27531 0.24606
   2  -3  -7 149.159 70.2200   2 0.02282 0.14173 0.76496-0.98249-0.64302 0.12088
   2  -3  -7-22.3477 45.1576   5 0.99162-0.82697-0.12527-0.09195 0.03840-0.56016
  -2   3   6 41.2441 40.1295   3 0.69494-0.86015 0.67965-0.46258 0.23850 0.20822
   2  -3  -6 257.247 82.1342   2 0.03706 0.12799 0.75176-0.96924-0.65766 0.21026
  -2  -3   6 45.8027 62.4617   3 0.51658-0.68160 0.46137-0.67849 0.72458-0.27777
   2  -3  -6 38.1405 52.4983   5 0.99815-0.83300-0.00030-0.21691 0.06743-0.51451
  -2  -3   5 233.807 41.1479   5 0.14119-0.30680-0.96684 0.74976-0.21203 0.58436
  -2  -3   5 250.810 82.1706   3 0.49085-0.65637 0.43270-0.64980 0.75933-0.38717
  -2   3   5 185.131 58.8539   3 0.69919-0.86491 0.68683-0.46974 0.20206 0.17001
   2  -3  -5 177.088 71.1494   2 0.06173 0.10383 0.72779-0.94522-0.68216 0.30948
   2  -3  -5 119.481 50.8368   5 0.98977-0.82413 0.11353-0.33073 0.09291-0.46529
  -2  -3   4 661.933 105.211   3 0.44899-0.61503 0.38667-0.60375 0.80842-0.51091
  -2   3   4 421.566 70.5840   3 0.70238-0.86861 0.69290-0.47579 0.16627 0.13114
  -2  -3   4 622.475 69.5003   5 0.36326-0.52937-0.91278 0.69569-0.18455 0.48218
  -2  -3   3 1576.05 153.257   3 0.38237-0.54892 0.31461-0.53167 0.87127-0.64842
  -2   3   3 1308.31 143.900   4-0.74676 0.58031 0.31802-0.10107-0.58976 0.81240
  -2  -3   3 1491.53 111.519   5 0.50803-0.67463-0.84588 0.62878-0.15939 0.38233
  -2   3   3 1570.38 111.216   3 0.70456-0.87130 0.69784-0.48072 0.13185 0.09091
  -2  -3   2 56.0306 33.5448   5 0.60165-0.76875-0.78586 0.56875-0.13928 0.28753
  -2  -3   2 46.2267 45.8597   3 0.27946-0.44652 0.20559-0.42264 0.93971-0.79151
  -2   3   2 72.1888 26.1618   3 0.70578-0.87304 0.70153-0.48439 0.10108 0.04703
  -2  -3   2 41.6604 45.7380   1 0.51809-0.68537-0.81037 0.59287-0.26919 0.41747
  -2   3   2 62.9702 59.2982   4-0.62817 0.46117 0.24816-0.03112-0.74219 0.89014
  -2  -3   1 223.999 55.2306   1 0.54982-0.71763-0.74205 0.52456-0.37903 0.45259
  -2   3   1 146.491 64.2275   4-0.44431 0.27677 0.14707 0.07004-0.88707 0.96032
  -2  -3   1 251.800 73.5663   3 0.13157-0.29914 0.05270-0.26974 0.99077-0.91722
  -2  -3   1 241.876 55.1283   5 0.66008-0.82768-0.74006 0.52295-0.12483 0.19838
   2   3  -1 210.840 35.8997   4-0.24789 0.41559 0.04477 0.17261-0.96958 0.89590
  -2   3   1 160.190 20.8275   3 0.70609-0.87386 0.70287-0.48571 0.08817-0.01471
  -2  -3   0 744.288 91.0515   5 0.69341-0.86151-0.71048 0.49335-0.11579 0.11465
  -2   3   0 623.753 111.235   4-0.19868 0.03059 0.01985 0.19733-0.98131 0.97986
  -2  -3   0 769.305 75.9651   1 0.57817-0.74650-0.62129 0.40382-0.52440 0.52325
  -2   3  -1 419.462 38.6001   3 0.70121-0.87000 0.70975-0.49256-0.05956-0.01629
   2  -3   1 391.158 37.3223   3 0.51773-0.34894 0.46266-0.67985 0.72294-0.64709
  -2   3  -1 362.911 82.0894   4 0.06038-0.22902-0.10730 0.32456-0.99181 0.91567
  -2  -3  -1 360.279 69.9408   5 0.70801-0.87660-0.69662 0.47949-0.11163 0.03579
  -2   3  -2 967.995 120.732   4 0.27337-0.44256-0.20684 0.42417-0.93715 0.78631
  -2  -3  -2 872.333 104.987   5 0.70773-0.87682-0.69689 0.47974-0.11171-0.03883
   2  -3   2 894.177 74.7989   3 0.63703-0.46774 0.60164-0.81884 0.48575-0.33525
  -2  -3  -3 4036.02 222.580   5 0.69476-0.86434-0.70922 0.49207-0.11541-0.10982
   2  -3   3 4215.39 195.008   3 0.66355-0.49374 0.63524-0.85246 0.39910-0.17395
  -2  -3  -4 22.1944 26.0545   2 0.20343-0.37382 0.56160-0.77921-0.80035 0.50015
   2  -3   4 53.4407 46.8749   1 0.57613-0.40587-0.63545 0.41806-0.50961 0.80967
   2  -3   4 9.04655 32.7383   3 0.67133-0.50101 0.64554-0.86278 0.36806-0.06825
  -2  -3  -4 68.3737 46.2074   5 0.67010-0.84019-0.73145 0.51429-0.12218-0.17775
  -2  -3  -5 363.905 60.4467   2 0.11500-0.28589 0.67115-0.88881-0.73119 0.35625
  -2  -3  -5 431.827 83.4043   5 0.63396-0.80454-0.76143 0.54426-0.13150-0.24312
   2  -3   5 416.928 84.5626   3 0.67267-0.50184 0.64735-0.86460 0.36232 0.01214
   2  -3   5 466.164 94.8057   1 0.55200-0.38121-0.73584 0.51844-0.38776 0.76253
   2   3   6 141.623 75.1754   3 0.66572-0.49457 0.69129-0.47437-0.27580 0.72482
  -2  -3  -6 17.1433 30.0936   2 0.06484-0.23623 0.72467-0.94238-0.68516 0.23549
  -2  -3  -6 140.150 51.7251   5 0.58585-0.75692-0.79707 0.57989-0.14292-0.30639
   2  -3   6-96.6864 52.8888   3 0.67085-0.49951 0.64491-0.86217 0.37006 0.07905
   2  -3   6 41.0584 50.9594   1 0.52053-0.34922-0.80621 0.58880-0.27676 0.72625
  -2  -3  -7 300.181 74.5553   5 0.52465-0.69622-0.83629 0.61910-0.15606-0.36794
   2  -3   7 299.739 83.5863   3 0.66699-0.49514 0.63977-0.85704 0.38579 0.13797
   2   3   7 168.529 73.9961   3 0.68595-0.51429 0.70390-0.48699-0.17867 0.70234
   2  -3   8 64.5534 59.3007   3 0.66153-0.48917 0.63261-0.84990 0.40664 0.19177
   2   3   8 22.8766 54.3875   3 0.69811-0.52594 0.70919-0.49229-0.09156 0.68989
  -2  -3  -8 243.676 81.7492   2 0.02719-0.19959 0.76096-0.97877-0.64755 0.04842
   2   3   9 45.4905 70.5225   3 0.70445-0.53177 0.70924-0.49236-0.01236 0.68534
   2  -3   9 31.5776 80.1844   3 0.65466-0.48178 0.62375-0.84106 0.43095 0.24211
   2   3  10 209.240 103.253   3 0.70635-0.53316 0.70533-0.48847 0.06061 0.68702
   2  -3  10 56.9161 71.0609   3 0.64643-0.47304 0.61333-0.83066 0.45772 0.29000
   2   3  11-64.0708 75.0599   3 0.70472-0.53102 0.69826-0.48141 0.12866 0.69362
   2  -3  11 220.234 106.652   3 0.63685-0.46295 0.60141-0.81875 0.48629 0.33608
   2  -4 -11 639.927 161.688   2 0.08812 0.07437 0.70058-0.99073-0.70711-0.11401
  -2   4  11 690.579 174.187   3 0.66619-0.82888 0.63871-0.34935 0.38894 0.43103
  -2  -4  11 797.387 194.478   3 0.50576-0.66819 0.44928-0.73884 0.73966 0.08042
  -2  -4  10 9349.00 586.516   3 0.50789-0.67083 0.45166-0.74119 0.73675 0.00868
   2  -4 -10 9017.56 554.145   2 0.08321 0.07978 0.70576-0.99587-0.70257-0.04382
  -2   4  10 9375.41 546.055   3 0.67620-0.83940 0.65216-0.36278 0.34661 0.39870
   2  -4  -9 527.089 134.560   2 0.08278 0.08072 0.70622-0.99628-0.70216 0.03051
  -2   4   9 505.085 123.123   3 0.68483-0.84854 0.66430-0.37490 0.30338 0.36727
  -2  -4   9 587.242 148.052   3 0.50638-0.66983 0.44997-0.73949 0.73882-0.06805
  -2  -4   8 15834.7 673.601   3 0.50030-0.66426 0.44320-0.73271 0.74701-0.15088
   2  -4  -8 15977.5 657.426   2 0.08771 0.07629 0.70100-0.99101-0.70674 0.10982
  -2   4   8 16272.6 620.475   3 0.69212-0.85634 0.67518-0.38577 0.25892 0.33709
   2  -4  -7 1047.34 150.503   5 0.98851-0.82385-0.14895-0.14065 0.03277-0.55454
   2  -4  -7 1009.22 162.850   2 0.09922 0.06528 0.68863-0.97859-0.71722 0.19503
  -2   4   7 945.128 140.519   3 0.69806-0.86279 0.68485-0.39542 0.21265 0.30870
  -2  -4   7 841.355 153.493   3 0.48826-0.65273 0.42984-0.71933 0.76261-0.24114
  -2  -4   6 14896.2 578.123   3 0.46808-0.63307 0.40758-0.69706 0.78707-0.34025
  -2   4   6 15213.1 503.803   3 0.70258-0.86782 0.69331-0.40386 0.16365 0.28305
   2  -4  -6 15404.7 538.197   5 0.99763-0.83248-0.04721-0.24238 0.05667-0.50375
   2  -4  -6 15066.5 568.212   2 0.11883 0.04618 0.66682-0.95673-0.73451 0.28706
   2  -4  -5 683.836 117.590   2 0.14852 0.01699 0.63198-0.92184-0.75927 0.38655
  -2   4   5 802.595 109.475   3 0.70549-0.87124 0.70050-0.41104 0.11024 0.26181
  -2  -4   5 989.833 92.1938   5 0.40333-0.56894-0.89704 0.60758-0.17822 0.55054
   2  -4  -5 868.895 131.036   5 0.99644-0.83079 0.04525-0.33482 0.07774-0.45013
  -2  -4   5 791.572 134.443   3 0.43648-0.60197 0.37303-0.66249 0.82155-0.44938
  -2  -4   4 17721.0 565.017   3 0.38859-0.55460 0.32128-0.61073 0.86609-0.56858
  -2  -4   4 18202.1 415.160   5 0.54930-0.71541-0.82126 0.53179-0.15095 0.44857
   2  -4  -4 17943.9 548.751   2 0.19017-0.02416 0.57934-0.86915-0.79101 0.49302
   2  -4  -4 17100.8 532.347   5 0.98775-0.82160 0.12781-0.41738 0.09604-0.39373
  -2   4   4 17946.2 440.710   3 0.70630-0.87257 0.70620-0.41673 0.04905 0.24834
  -2   4   3 2531.80 207.191   4-0.74005 0.57362 0.31391-0.02454-0.60037 0.82294
  -2  -4   3 2909.08 174.076   5 0.64421-0.81081-0.75322 0.46374-0.12892 0.35185
  -2   4   3 2870.31 151.733   3 0.70357-0.87034 0.70958-0.42009-0.02770 0.25045
  -2  -4   3 2845.88 217.756   3 0.31790-0.48442 0.24603-0.53546 0.91771-0.69485
  -2  -4   2 32913.6 598.916   5 0.70544-0.87254-0.69910 0.40961-0.11237 0.26060
  -2  -4   2 33984.8 659.977   1 0.54904-0.71635-0.74421 0.45424-0.37595 0.52424
  -2   4   2 32728.3 416.186   3 0.69171-0.85900 0.70679-0.41728-0.14221 0.29030
  -2   4   2 32413.7 709.073   4-0.62892 0.46195 0.24859 0.04086-0.74141 0.88929
  -2  -4   2 32479.5 721.036   3 0.21752-0.38455 0.14107-0.43048 0.96723-0.81902
  -2   4   1 2770.73 117.201   3 0.06066-0.22845-0.01926 0.30878 0.99837-0.92493
  -2  -4   1 2741.81 176.130   1 0.57195-0.73978-0.65964 0.36968-0.48313 0.55670
  -2  -4   1 2618.87 177.624   5 0.74333-0.91092-0.66056 0.37106-0.10097 0.17451
  -2   4   1 2760.89 206.082   4-0.46520 0.29768 0.15825 0.13127-0.87445 0.94763
  -2  -4   1 2459.91 222.450   3 0.08470-0.25224 0.00505-0.29445 0.99695-0.92339
  -2   4   0 64401.7 412.102   3 0.57489-0.74320 0.52768-0.23815 0.62894-0.63015
  -2  -4   0 66490.8 910.258   5 0.76424-0.93233-0.63731 0.34780-0.09423 0.09308
  -2   4   0 66802.8 1034.72   4-0.25238 0.08431 0.04706 0.24254-0.96835 0.96683
  -2   4  -1 6077.83 312.237   4-0.02309-0.14552-0.06705 0.35672-0.99756 0.92134
   2  -4   1 6219.45 167.054   3 0.27198-0.10316 0.19776-0.48731 0.94354-0.86767
  -2  -4  -1 6546.64 300.227   5 0.77209-0.94068-0.62817 0.33866-0.09161 0.01576
  -2  -4  -2 29133.8 641.734   5 0.76920-0.93828-0.63156 0.34204-0.09258-0.05796
  -2   4  -2 30046.4 661.584   4 0.17857-0.34773-0.16311 0.45286-0.96881 0.81789
   2  -4   2 28765.7 441.316   3 0.50030-0.33097 0.44320-0.73276 0.74701-0.59649
   2  -4   3 876.021 94.0577   3 0.58057-0.41072 0.53426-0.82384 0.61804-0.39287
  -2   4  -3 962.729 129.466   4 0.33015-0.49985-0.23255 0.52237-0.91213 0.68651
  -2  -4  -3 847.486 119.820   5 0.75678-0.92636-0.64577 0.35624-0.09667-0.12856
   2  -4   4 19196.1 478.712   3 0.61313-0.44278 0.57262-0.86222 0.54800-0.24818
   2  -4   4 18808.2 587.542   1 0.58203-0.41180-0.58687 0.29702-0.55840 0.85848
  -2  -4  -4 18196.6 531.980   5 0.73530-0.90538-0.66909 0.37954-0.10347-0.19646
   2  -4   5 2234.29 213.496   1 0.56589-0.39514-0.68775 0.39787-0.45025 0.82503
  -2  -4  -5 1945.76 180.235   5 0.70466-0.87524-0.69985 0.41030-0.11259-0.26203
   2  -4   5 2171.31 183.532   3 0.62724-0.45637 0.58963-0.87925 0.51267-0.13819
  -2  -4  -5 2316.52 166.087   2 0.25418-0.42512 0.48909-0.77918-0.83243 0.45744
  -2  -4  -6 12913.1 462.620   5 0.66432-0.83539-0.73645 0.44689-0.12371-0.32561
   2   4   6 13069.7 540.418   3 0.65014-0.47903 0.68024-0.39095-0.33361 0.78261
  -2  -4  -6 13098.4 403.596   2 0.19494-0.36638 0.57301-0.86315-0.79442 0.34470
   2  -4   6 12144.2 467.547   3 0.63264-0.46127 0.59624-0.88586 0.49809-0.04897
   2  -4   6 12333.8 507.824   1 0.54128-0.37001-0.76405 0.47416-0.34662 0.79612
   2  -4   7 841.319 141.131   3 0.63317-0.46129 0.59689-0.88653 0.49662 0.02716
   2  -4   7 896.777 148.505   1 0.51160-0.33979-0.82085 0.53095-0.24949 0.77369
  -2  -4  -7 1049.74 138.954   5 0.61329-0.78486-0.77730 0.48773-0.13653-0.38748
   2   4   7 797.753 148.419   3 0.67527-0.50365 0.69759-0.40831-0.23417 0.75783
   2  -4   8 19896.4 701.041   3 0.63053-0.45813 0.59365-0.88331 0.50385 0.09457
   2   4   8 17975.2 712.493   3 0.69149-0.51935 0.70668-0.41742-0.14375 0.74206
   2   4   9 722.597 166.799   3 0.70109-0.52845 0.70974-0.42049-0.06087 0.73383
   2  -4   9 891.452 168.657   3 0.62553-0.45262 0.58756-0.87723 0.51714 0.15594
   2   4  10 6920.01 503.180   3 0.70563-0.53247 0.70818-0.41895 0.01582 0.73179
   2  -4  10 6712.56 465.971   3 0.61858-0.44516 0.57916-0.86885 0.53477 0.21296
   2   4  11 274.031 119.554   3 0.70610-0.53243 0.70293-0.41372 0.08750 0.73477
   2  -4  11 644.844 159.239   3 0.60989-0.43596 0.56875-0.85845 0.55564 0.26675
   2  -5 -11 74.3982 91.0816   2 0.14584 0.01660 0.63521-0.99780-0.75711-0.06405
  -2   5  11 45.4720 58.4174   3 0.67354-0.83626 0.64854-0.28681 0.35851 0.46143
  -2  -5  10 91.5413 90.1811   3 0.47083-0.63374 0.41060-0.77251 0.78386-0.03841
  -2   5  10 321.389 114.068   3 0.68329-0.84652 0.66207-0.30033 0.31174 0.43356
   2  -5 -10 120.653 79.4614   2 0.14420 0.01875 0.63720-0.99974-0.75577 0.00934
   2  -5  -9 175.594 100.605   2 0.14723 0.01622 0.63354-0.99603-0.75823 0.08653
  -2  -5   9 9.88560 47.9462   3 0.46664-0.63006 0.40600-0.76788 0.78874-0.11795
  -2   5   9 117.398 88.8066   3 0.69148-0.85522 0.67419-0.31243 0.26324 0.40740
   2  -5  -8 526.881 127.837   2 0.15586 0.00809 0.62303-0.98547-0.76512 0.16816
  -2   5   8 587.261 132.233   3 0.69809-0.86234 0.68491-0.32313 0.21235 0.38364
  -2  -5   8 539.480 141.388   3 0.45731-0.62124 0.39576-0.75763 0.79932-0.20318
   2  -5  -7 16.0744 72.0587   5 0.98407-0.81941-0.17675-0.18523 0.02611-0.54789
  -2   5   7-35.4269 49.8600   3 0.70298-0.86774 0.69416-0.33237 0.15804 0.36330
   2  -5  -7-83.8337 69.5335   2 0.17078-0.00633 0.60441-0.96680-0.77668 0.25445
  -2  -5   7 110.568 75.8099   3 0.44137-0.60581 0.37835-0.74021 0.81650-0.29501
   2  -5  -6 27.2861 65.9720   5 0.99503-0.82987-0.09139-0.27057 0.04638-0.49347
  -2   5   6-14.7353 37.3829   3 0.70585-0.87112 0.70179-0.33998 0.09863 0.34806
   2  -5  -6 14.2194 50.0872   2 0.19338-0.02842 0.57509-0.93744-0.79330 0.34580
  -2  -5   6 62.0988 60.7770   3 0.41670-0.58165 0.35157-0.71341 0.84099-0.39416
   2  -5  -5-13.7452 39.9310   2 0.22454-0.05908 0.53236-0.89466-0.81442 0.44165
  -2  -5   5 49.0381 38.8448   5 0.54797-0.71357-0.82210 0.46025-0.15123 0.52354
  -2   5   5-5.50873 35.3027   3 0.70604-0.87182 0.70736-0.34554 0.03116 0.34087
   2  -5  -5-13.1050 55.0628   5 0.99824-0.83258-0.01421-0.34775 0.06426-0.43665
  -2  -5   5-104.533 68.3323   3 0.38032-0.54579 0.31242-0.67424 0.87295-0.50076
  -2   5   4 804.393 99.8046   3 0.70200-0.86829 0.70977-0.34793-0.04992 0.34730
  -2  -5   4 654.430 119.815   3 0.32831-0.49428 0.25703-0.61884 0.91106-0.61353
   2  -5  -4 721.738 130.166   5 0.99584-0.82969 0.05429-0.41624 0.07976-0.37747
  -2  -5   4 806.895 131.342   1 0.51920-0.68548-0.80851 0.44604-0.27261 0.57033
  -2  -5   4 765.917 101.495   5 0.64905-0.81515-0.74927 0.38742-0.12769 0.42530
   2  -5  -4 626.802 117.999   2 0.26518-0.09921 0.47235-0.83459-0.83856 0.54053
  -2  -5   3 378.882 78.9465   5 0.71590-0.88250-0.68888 0.32702-0.10932 0.33224
  -2   5   3 447.248 101.146   4-0.74119 0.57479 0.31461 0.04718-0.59858 0.82109
  -2  -5   3 380.046 101.032   3 0.25609-0.42257 0.18116-0.54295 0.95120-0.72832
   2  -5  -3 639.555 116.808   2 0.31516-0.14869 0.39111-0.75331-0.86240 0.63910
  -2   5   3 548.894 74.7715   3 0.68963-0.85644 0.70580-0.34395-0.15612 0.37885
   2  -5  -3 472.945 105.050   5 0.98977-0.82312 0.11353-0.47547 0.09291-0.31591
  -2  -5   3 523.459 103.818   1 0.54311-0.70992-0.75964 0.39719-0.35331 0.57632
  -2   5   2 7.57062 25.9306   3 0.65598-0.82330 0.68448-0.32261-0.31310 0.46118
  -2  -5   2-0.69885 45.1318   3 0.15995-0.32694 0.08174-0.44352 0.98478-0.83656
  -2  -5   2 9.97779 41.7459   5 0.75952-0.92661-0.64269 0.28082-0.09578 0.24401
   2   5  -2 20.7577 17.1109   4-0.66319 0.83040 0.26827 0.09401-0.70373 0.55520
  -2   5   2 44.2595 53.8409   4-0.63940 0.47245 0.25457 0.10729-0.73035 0.87815
  -2  -5   1 74.0961 57.1527   3 0.04008-0.20759-0.03999-0.32178 0.99866-0.92508
  -2   5   1 51.2859 53.4971   4-0.49462 0.32713 0.17411 0.18782-0.85522 0.92833
  -2  -5   1 70.9166 52.1883   5 0.78656-0.95415-0.61071 0.24883-0.08662 0.16016
  -2  -5   1 155.919 57.5526   1 0.57985-0.74772-0.60792 0.24549-0.53793 0.61152
  -2   5   0 1095.41 147.286   4-0.30943 0.14139 0.07631 0.28570-0.95016 0.94857
  -2  -5   0 1043.62 134.198   5 0.80119-0.96928-0.59216 0.23027-0.08138 0.08022
   2  -5   1-0.92405 26.9586   3 0.10568 0.06317 0.02633-0.38824 0.99475-0.91887
  -2   5  -1 31.7194 50.3605   4-0.10601-0.06258-0.02640 0.38848-0.99474 0.91845
  -2  -5  -1 6.87995 9.18171   4-0.51260 0.34375 0.18388-0.54594-0.84258 0.76701
  -2  -5  -1 16.8524 44.2697   5 0.80597-0.97455-0.58589 0.22399-0.07963 0.00377
  -2  -5  -2 219.084 75.2197   5 0.80238-0.97146-0.59061 0.22870-0.08095-0.06960
  -2   5  -2 295.529 73.9656   4 0.08284-0.25197-0.11801 0.48017-0.98880 0.83781
   2  -5   2 146.024 41.1967   3 0.35117-0.18181 0.28130-0.64323 0.89533-0.74480
  -2  -5  -3 100.574 64.0365   5 0.79117-0.96075-0.60497 0.24305-0.08500-0.14025
   2  -5   3 28.9351 29.4187   3 0.47323-0.30336 0.41325-0.77519 0.78102-0.55584
  -2   5  -3 46.8843 51.4407   4 0.23509-0.40477-0.18929 0.55153-0.95141 0.72572
   2  -5   4 34.3801 51.8614   1 0.58422-0.41402-0.55662 0.19429-0.58619 0.88628
  -2   5  -4 30.5097 44.9552   4 0.34694-0.51716-0.24007 0.60239-0.90380 0.60342
   2  -5   4 24.1255 42.6521   3 0.53379-0.36341 0.48073-0.84269 0.69905-0.39922
  -2  -5  -4 45.0427 52.2239   5 0.77254-0.94262-0.62764 0.26572-0.09145-0.20849
   2  -5   5 56.1211 45.2819   3 0.56503-0.39414 0.51631-0.87829 0.64709-0.27261
   2  -5   5 19.9800 56.5647   1 0.57313-0.40241-0.65328 0.29094-0.49024 0.86503
  -2  -5  -5 31.6074 68.2159   5 0.74631-0.91688-0.65734 0.29540-0.10003-0.27460
   2  -5   6 82.7008 69.7625   1 0.55377-0.38252-0.73057 0.36822-0.39505 0.84455
   2  -5   6 230.606 74.7085   3 0.58116-0.40975 0.53495-0.89694 0.61688-0.16774
  -2  -5  -6 51.4695 69.0274   5 0.71193-0.88299-0.69280 0.33086-0.11049-0.33884
   2   5   7 397.903 118.672   3 0.66521-0.49361 0.69095-0.32930-0.27786 0.80151
   2  -5   7 461.347 103.833   3 0.58866-0.41674 0.54370-0.90570 0.60189-0.07810
   2  -5   7 146.073 82.4678   1 0.52868-0.35691-0.79119 0.42883-0.30299 0.82721
  -2  -5  -7 355.806 87.6983   5 0.66854-0.84011-0.73281 0.37085-0.12259-0.40143
   2   5   8 108.757 76.2511   3 0.68468-0.51258 0.70321-0.34158-0.18592 0.78422
   2  -5   8 213.966 98.7615   3 0.59071-0.41829 0.54610-0.90812 0.59767 0.00077
   2  -5   9 144.305 94.4022   3 0.58898-0.41604 0.54407-0.90610 0.60124 0.07185
   2   5   9 287.806 123.363   3 0.69708-0.52447 0.70889-0.34728-0.10080 0.77375
   2   5  10 198.511 109.074   3 0.70394-0.53081 0.70946-0.34787-0.02152 0.76912
   2  -5  10 414.406 126.865   3 0.58435-0.41090 0.53866-0.90072 0.61059 0.13716
   2  -5  11-64.7246 86.6555   3 0.57733-0.40337 0.53051-0.89258 0.62429 0.19811
   2  -6 -11 1591.75 254.828   2 0.20194-0.03955 0.56362-0.99864-0.79932-0.02189
  -2  -6  10 6278.54 510.752   3 0.43053-0.59341 0.36656-0.80083 0.82756-0.08210
   2  -6 -10 5736.22 473.547   2 0.20283-0.03994 0.56242-0.99739-0.79994 0.05346
  -2   6  10 5346.31 428.683   3 0.68838-0.85164 0.66949-0.23538 0.28296 0.46231
   2  -6  -9 319.468 115.006   2 0.20830-0.04490 0.55497-0.98989-0.80368 0.13194
  -2   6   9 169.448 85.9689   3 0.69603-0.85981 0.68143-0.24730 0.22995 0.44068
  -2  -6   9 425.970 137.990   3 0.42368-0.58706 0.35913-0.79338 0.83430-0.16350
  -2  -6   8 11458.0 616.521   3 0.41122-0.57512 0.34565-0.77989 0.84611-0.24995
  -2   6   8 11944.0 553.512   3 0.70180-0.86608 0.69172-0.25758 0.17367 0.42231
   2  -6  -8 11144.9 586.370   2 0.21901-0.05511 0.54014-0.97502-0.81083 0.21382
  -2  -6   7 2522.07 281.580   3 0.39173-0.55614 0.32466-0.75888 0.86343-0.34192
  -2   6   7 3129.59 267.642   3 0.70540-0.87019 0.70021-0.26605 0.11278 0.40854
   2  -6  -7 2760.89 281.396   2 0.23582-0.07142 0.51620-0.95103-0.82152 0.29924
   2  -6  -7 2915.43 286.762   5 0.97826-0.81360-0.20707-0.22729 0.01877-0.54057
  -2  -6   6 8576.66 488.927   3 0.36325-0.52817 0.29417-0.72837 0.88638-0.43953
  -2   6   6 9303.71 424.000   3 0.70626-0.87157 0.70648-0.27230 0.04516 0.40151
   2  -6  -6 8736.62 482.794   2 0.25916-0.09425 0.48155-0.91633-0.83525 0.38770
   2  -6  -6 10025.9 509.433   5 0.99056-0.82539-0.13390-0.30045 0.03635-0.48345
  -2   6   5 3814.68 247.194   3 0.70324-0.86906 0.70965-0.27547-0.03274 0.40476
   2  -6  -5 3468.66 291.385   2 0.28954-0.12413 0.43384-0.86856-0.85105 0.47823
  -2  -6   5 3415.17 294.292   1 0.51138-0.67717-0.82118 0.38623-0.24884 0.62128
   2  -6  -5 3288.64 287.669   5 0.99666-0.83100-0.06811-0.36623 0.05182-0.42422
  -2  -6   5 3665.01 228.325   5 0.62737-0.79296-0.76659 0.33236-0.13312 0.50542
  -2  -6   5 4021.37 324.474   3 0.32326-0.48869 0.25169-0.68588 0.91433-0.54213
   2  -6  -4 18692.2 653.001   2 0.32694-0.16102 0.37063-0.80531-0.86697 0.56888
  -2  -6   4 18002.2 634.362   1 0.53426-0.70058-0.77983 0.34490-0.32178 0.61952
  -2   6   4 19471.6 501.744   3 0.69382-0.86015 0.70770-0.27350-0.12706 0.42443
   2  -6  -4 18190.0 652.550   5 0.99823-0.83208-0.01016-0.42417 0.06518-0.36290
  -2  -6   4 18130.3 662.707   3 0.26874-0.43469 0.19438-0.62855 0.94515-0.64760
  -2  -6   4 18502.5 526.921   5 0.70289-0.86899-0.70154 0.26731-0.11310 0.41071
  -2  -6   3 1629.89 201.914   3 0.19675-0.36321 0.11960-0.55376 0.97442-0.75153
   2  -6  -3 1363.10 181.551   5 0.99678-0.83012 0.03946-0.47378 0.07644-0.29945
  -2   6   3 1364.69 165.511   4-0.74882 0.58245 0.31929 0.11491-0.58643 0.80886
  -2  -6   3 1399.59 156.304   5 0.75384-0.92043-0.64906 0.21482-0.09763 0.32054
  -2   6   3 1525.38 129.577   3 0.67206-0.83890 0.69553-0.26131-0.24883 0.47155
  -2  -6   3 1470.65 181.155   1 0.55474-0.72158-0.72759 0.29267-0.39911 0.62214
  -2   6   2 15519.9 531.049   4-0.65721 0.49029 0.26481 0.16947-0.71062 0.85836
   2  -6  -2 14972.2 565.461   5 0.99364-0.82649 0.08020-0.51451 0.08554-0.23387
  -2  -6   2 14520.1 594.927   3 0.10561-0.27257 0.02626-0.46041 0.99475-0.84651
  -2  -6   2 15624.2 523.505   5 0.78754-0.95463-0.60950 0.17525-0.08628 0.23450
  -2  -6   2 15409.4 548.075   1 0.57155-0.73892-0.66169 0.22678-0.48080 0.62911
  -2   6   1 3900.89 258.146   4-0.52998 0.36251 0.19337 0.24098-0.82967 0.90271
   2  -6  -1 4103.63 290.721   5 0.99005-0.82240 0.11142-0.54572 0.09244-0.16607
  -2  -6   1 3799.05 268.650   5 0.80858-0.97617-0.58242 0.14816-0.07865 0.15218
  -2   6   0 22535.9 619.734   4-0.36860 0.20059 0.10706 0.32737-0.92617 0.92450
  -2  -6   0 21383.2 646.665   5 0.81986-0.98794-0.56704 0.13277-0.07437 0.07319
  -2   6  -1 3930.40 273.346   4-0.18814 0.01958 0.01455 0.41995-0.98340 0.90703
  -2  -6  -1 4718.91 312.843   5 0.82319-0.99176-0.56238 0.12810-0.07307-0.00279
   2  -6   2 11410.8 341.670   3 0.21745-0.04806 0.14100-0.57529 0.96726-0.81671
  -2   6  -2 11110.9 467.337   4-0.01298-0.15613-0.07196 0.50654-0.99732 0.84626
  -2  -6  -2 11222.0 491.234   5 0.81959-0.98867-0.56741 0.13313-0.07447-0.07609
   2  -6   3 6559.32 283.637   3 0.35913-0.18922 0.28977-0.72408 0.88949-0.66429
   2  -6   3 6055.03 331.825   5 0.98836-0.81873 0.12363-0.55789 0.09512 0.13003
  -2   6  -3 6092.20 342.283   4 0.13685-0.30650-0.14357 0.57822-0.97895 0.75319
  -2  -6  -3 5425.17 348.339   5 0.80958-0.97915-0.58108 0.14679-0.07828-0.14698
   2  -6   4 17758.8 506.785   3 0.44198-0.27156 0.37902-0.81334 0.81586-0.51601
   2  -6   4 16950.8 542.538   5 0.99246-0.82232 0.09157-0.52583 0.08806 0.21178
  -2   6  -4 17622.2 608.860   4 0.25373-0.42393-0.19786 0.63258-0.94472 0.64426
  -2  -6  -4 16540.6 611.987   5 0.79325-0.96331-0.60235 0.16805-0.08426-0.21569
   2  -6   5 2772.27 219.911   3 0.49027-0.31934 0.43206-0.86640 0.76007-0.38557
   2  -6   5 2908.74 288.033   1 0.57687-0.40618-0.63051 0.19570-0.51483 0.88964
  -2   6  -5 2660.80 253.457   4 0.33974-0.51049-0.23685 0.67165-0.90743 0.53227
   2  -6   5 2905.67 224.358   5 0.99671-0.82608 0.04059-0.47484 0.07669 0.29785
  -2  -6  -5 2765.58 258.513   5 0.77037-0.94093-0.63020 0.19588-0.09219-0.28246
   2  -6   6 8631.94 414.680   3 0.51846-0.34702 0.46347-0.89783 0.72189-0.27274
  -2  -6  -6 7944.44 435.953   5 0.74046-0.91152-0.66363 0.22931-0.10187-0.34747
   2  -6   6 8385.56 496.990   1 0.56121-0.38999-0.70594 0.27112-0.42761 0.87714
   2  -6   7 423.616 108.801   3 0.53443-0.36248 0.48145-0.91583 0.69806-0.17425
   2   6   7 524.707 133.257   3 0.65664-0.48508 0.68495-0.25094-0.31071 0.83434
  -2  -6  -7 446.167 117.011   5 0.70277-0.87433-0.70166 0.26733-0.11314-0.41089
   2  -6   7 436.314 123.663   1 0.53981-0.36806-0.76751 0.33268-0.34128 0.86552
   2  -6   8 12182.7 628.094   1 0.51414-0.34186-0.81686 0.38202-0.25710 0.85604
   2   6   8 11305.2 607.616   3 0.67851-0.50644 0.69960-0.26561-0.21857 0.81684
  -2  -6  -8 11810.1 532.545   5 0.65625-0.82831-0.74329 0.30895-0.12583-0.47290
   2  -6   8 11710.4 559.317   3 0.54252-0.37006 0.49060-0.92499 0.68532-0.08686
   2  -6   9 992.456 179.865   3 0.54514-0.37217 0.49358-0.92798 0.68108-0.00797
   2   6   9 1829.20 263.616   3 0.69310-0.52052 0.70740-0.27343-0.13235 0.80528
   2  -6  10 5714.00 445.246   3 0.54371-0.37023 0.49196-0.92638 0.68340 0.06436
   2   6  10 5941.71 492.766   3 0.70188-0.52878 0.70977-0.27581-0.05145 0.79903
   2  -7 -10-138.627 90.6893   2 0.25758-0.09474 0.48395-0.99135-0.83436 0.08783
  -2  -7   9 161.975 93.4645   3 0.37784-0.54120 0.30976-0.81638 0.87496-0.20414
   2  -7  -9 30.8566 64.0069   2 0.26469-0.10134 0.47310-0.98046-0.83830 0.16650
  -2  -7   8 113.128 87.4768   3 0.36252-0.52639 0.29339-0.79999 0.88694-0.29077
   2  -7  -8 135.474 88.2085   2 0.27663-0.11277 0.45450-0.96181-0.84463 0.24756
  -2  -7   7 123.227 82.6606   3 0.33994-0.50431 0.26936-0.77595 0.90325-0.38174
   2  -7  -7 124.351 77.1399   2 0.29379-0.12943 0.42692-0.93418-0.85306 0.33073
   2  -7  -7 199.137 101.391   5 0.97101-0.80634-0.23906-0.26768 0.01096-0.53276
   2  -7  -6-127.577 77.2126   2 0.31643-0.15157 0.38893-0.89613-0.86292 0.41532
  -2  -7   6 2.59404 56.0586   3 0.30839-0.47328 0.23600-0.74257 0.92353-0.47666
   2  -7  -6 8.47177 63.3358   5 0.98433-0.81916-0.17531-0.33142 0.02645-0.47356
  -2  -7   5 262.313 77.1018   5 0.67116-0.83675-0.73053 0.22393-0.12189 0.49418
  -2   7   5 224.779 72.3722   3 0.69925-0.86510 0.70946-0.20291-0.08066 0.45267
  -2  -7   5 265.945 98.5565   1 0.52311-0.68893-0.80164 0.29423-0.28492 0.65738
  -2  -7   5 512.552 136.398   3 0.26585-0.43125 0.19135-0.69791 0.94657-0.57435
   2  -7  -5 272.743 111.979   5 0.99242-0.82676-0.11833-0.38839 0.04004-0.41245
  -2  -7   4 159.051 73.6792   5 0.73153-0.89761-0.67303 0.16642-0.10463 0.40222
   2  -7  -4 329.466 117.487   5 0.99664-0.83047-0.06852-0.43819 0.05172-0.34944
  -2  -7   4 317.473 110.656   3 0.21016-0.37607 0.13345-0.63999 0.96989-0.67233
  -2   7   4 287.328 75.8586   3 0.68532-0.85168 0.70355-0.19699-0.18233 0.47968
  -2  -7   4 280.455 106.141   1 0.54359-0.70993-0.75845 0.25105-0.35509 0.65283
  -2   7   3 351.651 95.9140   4-0.76160 0.59525 0.32721 0.17941-0.56510 0.78746
  -2  -7   3 259.655 106.619   3 0.13956-0.30598 0.06087-0.56739 0.98926-0.76635
  -2  -7   3 365.423 100.998   5 0.77300-0.93958-0.62710 0.12048-0.09130 0.31420
  -2  -7   3 256.567 95.8317   1 0.56125-0.72812-0.70579 0.19840-0.42780 0.65084
   2  -7  -3 284.210 104.887   5 0.99815-0.83149-0.02632-0.48038 0.06148-0.28451
  -2   7   3 273.595 70.4148   3 0.65697-0.82384 0.68518-0.17860-0.30951 0.53221
  -2  -7   2 137.819 80.3724   3 0.05367-0.22060-0.02631-0.48020 0.99856-0.85030
  -2   7   2 140.313 68.7477   4-0.68047 0.51357 0.27833 0.22836-0.68300 0.83066
   2  -7  -2 27.1203 56.8200   5 0.99801-0.83085 0.00777-0.51446 0.06927-0.21760
  -2  -7   2 28.1241 58.9535   1 0.57508-0.74247-0.64204 0.13467-0.50254 0.65087
  -2  -7   2 63.1604 71.7614   5 0.80083-0.96791-0.59264 0.08601-0.08152 0.22973
  -2  -7   1 80.3898 53.2721   5 0.81836-0.98594-0.56912 0.06248-0.07495 0.14846
  -2   7   1 19.8945 36.0781   4-0.56947 0.40202 0.21515 0.29161-0.79766 0.87062
  -2  -7   1-47.9818 54.7031   1 0.58368-0.75160-0.56566 0.05830-0.57808 0.65169
   2  -7  -1-6.87860 58.7609   5 0.99710-0.82945 0.03320-0.53988 0.07503-0.14866
  -2   7   0 252.813 68.1769   4-0.42906 0.26107 0.13894 0.36790-0.89576 0.89402
   2  -7   0 101.525 70.8069   5 0.99618-0.82803 0.04930-0.55598 0.07865-0.07759
  -2  -7   0 143.880 72.3549   5 0.82777-0.99584-0.55586 0.04922-0.07127 0.07009
  -2   7  -1 63.3379 60.4251   4-0.26934 0.10080 0.05572 0.45120-0.96343 0.88699
   2  -7   1 87.1236 69.5537   5 0.99577-0.82712 0.05530-0.56196 0.07999-0.00424
  -2  -7  -1 44.7123 57.8351   5 0.83040-0.99897-0.55206 0.04541-0.07022-0.00565
   2  -7   2 544.185 115.595   5 0.99612-0.82698 0.05020-0.55685 0.07885 0.07160
   2  -7   2 663.634 103.241   3 0.10333 0.06610 0.02395-0.53060 0.99504-0.84448
  -2  -7  -2 678.302 137.576   5 0.82705-0.99611-0.55690 0.05023-0.07156-0.07901
  -2   7  -2 711.241 141.062   4-0.10834-0.06074-0.02524 0.53223-0.99453 0.84340
   2  -7   3 83.1990 75.9118   5 0.99713-0.82749 0.03273-0.53938 0.07492 0.15022
  -2  -7  -3 15.4582 62.3356   5 0.81807-0.98764-0.56953 0.06285-0.07506-0.15021
  -2   7  -3 41.3753 52.4656   4 0.03654-0.20616-0.09587 0.60294-0.99433 0.76850
   2  -7   3 162.487 59.1243   3 0.24848-0.07854 0.17323-0.67990 0.95464-0.72943
  -2   7  -4 172.654 78.5969   4 0.15576-0.32593-0.15245 0.65959-0.97463 0.67410
   2  -7   4 126.240 67.5958   5 0.99813-0.82799 0.00120-0.50784 0.06777 0.23206
  -2  -7  -4 163.323 83.2440   5 0.80352-0.97358-0.58912 0.08244-0.08053-0.21943
   2  -7   4 257.636 69.8179   3 0.34514-0.17470 0.27489-0.78158 0.89963-0.59977
   2  -7   5 34.9869 80.0482   1 0.57871-0.40804-0.61723 0.10995-0.52856 0.90338
  -2   7  -5 299.114 112.215   4 0.24797-0.41869-0.19521 0.70243-0.94684 0.57161
   2  -7   5 200.232 85.7720   5 0.99765-0.82701-0.04679-0.45983 0.05676 0.31777
   2  -7   5 143.016 62.7590   3 0.40744-0.23648 0.34158-0.84828 0.84957-0.47506
  -2  -7  -5 81.5707 74.3481   5 0.78318-0.95374-0.61487 0.10817-0.08781-0.28685
   2  -7   6 116.846 99.4011   1 0.56552-0.39433-0.68929 0.18200-0.44837 0.89790
  -2   7  -6 105.626 74.7867   4 0.31635-0.48762-0.22633 0.73362-0.91865 0.46872
  -2  -7  -6 241.184 106.997   5 0.75662-0.92768-0.64596 0.13925-0.09673-0.35262
   2  -7   6 124.834 66.7188   3 0.44713-0.27566 0.38464-0.89136 0.81041-0.36125
   2  -7   7 198.441 116.161   1 0.54690-0.37518-0.74997 0.24267-0.36763 0.89187
   2   7   7 168.614 89.4371   3 0.65010-0.47857 0.68021-0.17384-0.33376 0.85737
  -2   7  -7 183.477 92.9139   4 0.36542-0.53723-0.24832 0.75569-0.89412 0.36950
  -2  -7  -7 132.140 81.0745   5 0.72318-0.89474-0.68159 0.17488-0.10716-0.41689
   2  -7   7 268.672 90.3552   3 0.47196-0.29998 0.41185-0.91858 0.78253-0.25871
  -2  -7  -8-42.9607 63.6268   5 0.68196-0.85401-0.72095 0.21423-0.11897-0.47977
   2  -7   8-220.361 109.136   1 0.52394-0.35170-0.80013 0.29281-0.28758 0.88654
   2   7   8-81.3349 81.3589   3 0.67351-0.50147 0.69646-0.19011-0.24230 0.84056
   2  -7   8 21.4581 56.2204   3 0.48674-0.31425 0.42816-0.93491 0.76453-0.16605
   2   7   9 110.052 88.2376   3 0.68967-0.51712 0.70582-0.19948-0.15586 0.82877
   2  -7   9-66.2312 73.7441   3 0.49443-0.32142 0.43667-0.94344 0.75472-0.08160
   2  -7  10-56.4832 71.1424   3 0.49684-0.32333 0.43936-0.94614 0.75157-0.00379
  -2  -8   9 2151.19 323.472   3 0.32946-0.49279 0.25826-0.83724 0.91030-0.23946
   2  -8  -9 2250.25 303.638   2 0.31616-0.15286 0.38939-0.96918-0.86281 0.19096
  -2  -8   8 4809.85 443.736   3 0.31161-0.47545 0.23939-0.81836 0.92159-0.32540
   2  -8  -8 5170.87 424.382   5 0.94226-0.77808-0.33440-0.24473-0.01281-0.58370
  -2  -8   7 1299.60 232.968   3 0.28646-0.45081 0.21294-0.79189 0.93600-0.41446
   2  -8  -7 1394.64 226.992   5 0.96225-0.79758-0.27220-0.30692 0.00278-0.52459
  -2  -8   6 4818.48 421.055   3 0.25259-0.41745 0.17752-0.75645 0.95280-0.50592
   2  -8  -6 4837.46 404.851   5 0.97637-0.81119-0.21595-0.36316 0.01661-0.46373
  -2  -8   6 4395.37 396.361   1 0.50981-0.67514-0.82357 0.24367-0.24420 0.69137
  -2  -8   5 1941.01 267.286   3 0.20846-0.37382 0.13169-0.71061 0.97049-0.59826
  -2  -8   5 1886.56 254.235   1 0.53062-0.69647-0.78736 0.20748-0.30943 0.68189
   2  -8  -5 2270.60 278.320   5 0.98589-0.82022-0.16598-0.41312 0.02869-0.40112
  -2  -8   4 9832.88 548.917   1 0.54910-0.71547-0.74406 0.16419-0.37616 0.67392
  -2  -8   4 9385.86 561.614   3 0.15261-0.31849 0.07421-0.65312 0.98650-0.68892
  -2  -8   4 10222.5 484.538   5 0.74521-0.91129-0.65853 0.07954-0.10038 0.39797
   2  -8  -4 10185.8 565.160   5 0.99193-0.82576-0.12263-0.45646 0.03902-0.33675
  -2  -8   3 4783.73 342.725   5 0.78078-0.94735-0.61779 0.03879-0.08864 0.31153
  -2  -8   3 4222.85 381.141   3 0.08417-0.25056 0.00451-0.58339 0.99699-0.77407
  -2   8   3 4682.66 314.899   4-0.77831 0.61199 0.33772 0.24131-0.53515 0.75744
  -2  -8   3 4210.00 352.044   1 0.56466-0.73156-0.69280 0.11294-0.44407 0.66712
   2  -8  -3 4031.54 356.930   5 0.99543-0.82877-0.08630-0.49278 0.04757-0.27061
  -2  -8   2 8588.65 509.105   3 0.00350-0.17040-0.07667-0.50220 0.99707-0.84879
  -2   8   2 9441.38 426.187   4-0.70767 0.54080 0.29439 0.28472-0.64763 0.79522
   2  -8  -2 8446.17 499.279   5 0.99722-0.83005-0.05743-0.52165 0.05430-0.20264
  -2  -8   2 8240.65 454.389   5 0.80497-0.97204-0.58722 0.00821-0.08000 0.22820
  -2  -8   2 8223.41 474.366   1 0.57654-0.74397-0.63273 0.05288-0.51249 0.66083
   2  -8  -1 5765.58 404.740   5 0.99796-0.83030-0.03651-0.54255 0.05913-0.13278
  -2   8   1 5666.49 322.058   4-0.61175 0.44433 0.23884 0.34034-0.75876 0.83165
  -2  -8   1 4968.13 354.111   1 0.58383-0.75178-0.56323-0.01660-0.58027 0.65390
  -2  -8   1 5254.96 372.887   5 0.82038-0.98795-0.56632-0.01270-0.07417 0.14767
  -2  -8   0 12876.0 590.169   5 0.82871-0.99678-0.55451-0.02452-0.07090 0.06971
  -2   8   0 12990.9 479.557   4-0.49018 0.32222 0.17171 0.40755-0.85824 0.85643
   2  -8   0 12445.4 586.500   5 0.99818-0.83002-0.02414-0.55492 0.06198-0.06093
   2  -8   1 4716.13 353.732   5 0.99821-0.82956-0.02099-0.55805 0.06270 0.01304
  -2   8  -1 5545.81 330.337   4-0.34952 0.18101 0.09710 0.48223-0.93450 0.85799
  -2  -8  -1 5760.68 405.178   5 0.83104-0.99961-0.55113-0.02791-0.06997-0.00592
   2  -8   2 8989.69 484.544   5 0.99813-0.82898-0.02793-0.55111 0.06111 0.08932
  -2  -8  -2 8806.18 511.083   5 0.82801-0.99707-0.55552-0.02353-0.07118-0.07940
  -2   8  -2 9761.17 467.480   4-0.20293 0.03387 0.02199 0.55741-0.98043 0.82922
  -2  -8  -3 3137.88 314.389   5 0.81989-0.98945-0.56700-0.01206-0.07435-0.15092
   2  -8   3 2620.88 262.840   5 0.99768-0.82803-0.04601-0.53301 0.05694 0.16819
  -2   8  -3 3170.90 287.586   4-0.06503-0.10457-0.04657 0.62605-0.99720 0.77129
  -2   8  -4 14505.2 616.719   4 0.05402-0.22416-0.10425 0.68381-0.99255 0.69195
  -2  -8  -4 12441.0 623.360   5 0.80673-0.97679-0.58489 0.00582-0.07934-0.22062
   2  -8   4 13833.8 580.121   5 0.99613-0.82598-0.07664-0.50237 0.04983 0.25000
   2  -8   5 2803.85 263.157   5 0.99203-0.82140-0.12173-0.45728 0.03923 0.33528
  -2  -8  -5 2600.08 294.406   5 0.78833-0.95888-0.60852 0.02945-0.08600-0.28866
  -2   8  -5 2558.38 266.318   4 0.15041-0.32110-0.14994 0.72957-0.97590 0.60060
   2  -8   5 2685.03 324.995   1 0.57942-0.40879-0.61153 0.03178-0.53433 0.90916
   2  -8   6 3788.78 393.041   1 0.56781-0.39665-0.67951 0.09975-0.46014 0.90968
  -2   8  -6 4081.94 352.820   4 0.22497-0.39621-0.18463 0.76434-0.95484 0.50484
  -2  -8  -6 4070.54 356.461   5 0.76429-0.93534-0.63725 0.05816-0.09421-0.35514
   2  -8   7 1956.53 295.789   1 0.55120-0.37951-0.73816 0.15839-0.38452 0.90878
   2   8   7 1535.83 243.773   3 0.64585-0.47435 0.67706-0.09832-0.34796 0.87156
  -2  -8  -7 1999.57 265.459   5 0.73406-0.90561-0.67039 0.09130-0.10385-0.42020
   2  -8   8 3259.53 381.262   1 0.53037-0.35816-0.78786 0.20807-0.30860 0.90756
   2   8   8 3172.97 359.994   3 0.67002-0.49801 0.69419-0.11547-0.25776 0.85601
  -2  -8  -8 3292.60 331.948   5 0.69683-0.86888-0.70728 0.12818-0.11483-0.48392
   2   8   9 1074.32 213.907   3 0.68713-0.51461 0.70453-0.12582-0.17169 0.84459
  -2  -9   8 72.7866 88.8690   3 0.25885-0.42265 0.18404-0.83537 0.94991-0.35371
   2  -9  -8-210.741 113.783   5 0.93189-0.76771-0.36188-0.28963-0.01980-0.57671
  -2  -9   7 18.9979 77.4805   3 0.23167-0.39598 0.15575-0.80706 0.96176-0.44021
   2  -9  -7-62.5147 85.9951   5 0.95192-0.78724-0.30618-0.34532-0.00570-0.51612
  -2  -9   6 186.931 101.469   3 0.19618-0.36100 0.11901-0.77031 0.97460-0.52771
  -2  -9   6-168.387 109.985   1 0.51574-0.68109-0.81427 0.16191-0.26197 0.70916
   2  -9  -6-81.8235 82.1051   5 0.96668-0.80150-0.25606-0.39543 0.00678-0.45390
  -2  -9   5-8.28919 64.0652   3 0.15126-0.31659 0.07283-0.72412 0.98680-0.61456
  -2  -9   5 41.0106 72.0546   1 0.53506-0.70094-0.77813 0.12578-0.32453 0.69701
   2  -9  -5-68.9612 83.6820   5 0.97727-0.81159-0.21178-0.43970 0.01763-0.39006
  -2  -9   4 68.0754 85.4730   1 0.55198-0.71839-0.73588 0.08354-0.38771 0.68548
  -2  -9   4 139.025 83.1980   3 0.09603-0.26187 0.01653-0.66780 0.99587-0.69828
   2  -9  -4 76.0401 89.6565   5 0.98461-0.81843-0.17367-0.47780 0.02685-0.32458
  -2  -9   4 50.1025 76.1783   5 0.74921-0.91529-0.65416 0.00279-0.09911 0.39669
  -2  -9   3 687.411 167.972   3 0.03023-0.19658-0.04989-0.60136 0.99849-0.77555
  -2  -9   3 440.846 132.746   1 0.56606-0.73299-0.68705 0.03472-0.45109 0.67415
   2  -9  -3 302.272 117.664   5 0.98947-0.82280-0.14208-0.50938 0.03440-0.25745
  -2  -9   3 393.933 118.861   5 0.78099-0.94756-0.61753-0.03385-0.08857 0.31145
  -2  -9   2 281.852 103.244   5 0.80288-0.96995-0.58996-0.06143-0.08077 0.22896
  -2  -9   2 425.578 133.349   1 0.57676-0.74422-0.63128-0.02103-0.51401 0.66236
   2  -9  -2 433.880 148.811   5 0.99252-0.82536-0.11740-0.53405 0.04026-0.18861
  -2  -9   1 99.7703 86.1060   5 0.81698-0.98455-0.57103-0.08037-0.07548 0.14897
  -2  -9   1-39.5592 70.2188   1 0.58349-0.75147-0.56847-0.08383-0.57553 0.64916
   2  -9  -1 45.1127 69.2966   5 0.99427-0.82661-0.10007-0.55137 0.04434-0.11800
  -2  -9   0 203.392 101.806   5 0.82471-0.99278-0.56022-0.09119-0.07248 0.07128
   2  -9   0 10.3865 74.6768   5 0.99509-0.82693-0.09061-0.56082 0.04656-0.04552
   2  -9   1 24.8944 61.7239   5 0.99517-0.82651-0.08963-0.56180 0.04679 0.02894
  -2  -9  -1-26.8345 78.9882   5 0.82696-0.99552-0.55702-0.09440-0.07159-0.00430
   2  -9   2 72.0931 77.0623   5 0.99447-0.82532-0.09785-0.55356 0.04486 0.10556
  -2  -9  -2 68.5481 83.5325   5 0.82427-0.99333-0.56085-0.09058-0.07265-0.07794
   2  -9   3 152.964 91.8816   5 0.99265-0.82300-0.11619-0.53521 0.04054 0.18458
  -2  -9  -3 197.767 104.873   5 0.81687-0.98643-0.57118-0.08026-0.07552-0.14976
   2  -9   4 49.4428 77.3543   5 0.98895-0.81881-0.14582-0.50558 0.03351 0.26630
  -2  -9  -4 53.3793 91.5445   5 0.80480-0.97485-0.58743-0.06401-0.08006-0.21992
   2  -9   5 51.6856 111.756   1 0.57938-0.40878-0.61185-0.04037-0.53400 0.90885
  -2  -9  -5 289.903 117.675   5 0.78789-0.95843-0.60907-0.04239-0.08616-0.28851
   2  -9   6 34.8722 90.1480   1 0.56870-0.39757-0.67548 0.02326-0.46488 0.91444
  -2  -9  -6-36.7524 79.7369   5 0.76578-0.93683-0.63553-0.01593-0.09372-0.35565
   2  -9   7 141.293 123.090   1 0.55347-0.38182-0.73146 0.07922-0.39383 0.91810
  -2  -9  -7 242.364 124.501   5 0.73799-0.90953-0.66626 0.01478-0.10264-0.42142
   2   9   7 329.233 128.237   3 0.64393-0.47247 0.67563-0.02453-0.35417 0.87775
   2   9   8 490.621 157.767   3 0.66820-0.49622 0.69297-0.04189-0.26553 0.86376
  -2  -9  -8 81.7086 92.0097   5 0.70380-0.87584-0.70068 0.04920-0.11284-0.48591
  -2 -10   7 1786.68 300.406   3 0.17584-0.34012 0.09806-0.82174 0.98068-0.45911
   2 -10  -7 1487.45 253.929   5 0.93993-0.77525-0.34081-0.38307-0.01443-0.50740
  -2 -10   6 5304.81 510.771   3 0.13936-0.30415 0.06066-0.78432 0.98930-0.54239
  -2 -10   6 4778.26 463.271   1 0.51905-0.68443-0.80876 0.08393-0.27214 0.71935
   2 -10  -6 4831.42 448.371   5 0.95523-0.79005-0.29577-0.42810-0.00309-0.44405
  -2 -10   5 2529.62 351.061   3 0.09433-0.25963 0.01481-0.73845 0.99605-0.62379
   2 -10  -5 2252.41 311.168   5 0.96664-0.80096-0.25622-0.46764 0.00674-0.37918
  -2 -10   5 2265.09 317.121   1 0.53718-0.70309-0.77349 0.04867-0.33194 0.70443
  -2 -10   4 4384.14 454.160   3 0.04030-0.20612-0.03976-0.68387 0.99866-0.70105
   2 -10  -4 4835.10 436.837   5 0.97492-0.80875-0.22244-0.50141 0.01503-0.31278
  -2 -10   4 4695.77 384.659   5 0.74641-0.91248-0.65722-0.06653-0.10000 0.39757
  -2 -10   4 3982.66 403.366   1 0.55296-0.71939-0.73301 0.00821-0.39169 0.68947
  -2 -10   3 3864.75 387.849   1 0.56604-0.73300-0.68716-0.03764-0.45096 0.67403
   2 -10  -3 4462.21 418.384   5 0.98075-0.81407-0.19475-0.52909 0.02176-0.24481
  -2 -10   3 4014.16 362.579   5 0.77572-0.94229-0.62387-0.09989-0.09037 0.31325
   2 -10  -2 4889.26 430.361   5 0.98464-0.81747-0.17350-0.55034 0.02689-0.17525
  -2 -10   2 5182.12 415.474   5 0.79614-0.96321-0.59867-0.12510-0.08322 0.23140
  -2 -10   2 4725.29 414.500   1 0.57607-0.74355-0.63585-0.08893-0.50918 0.65754
   2 -10  -1 2891.56 328.093   5 0.98699-0.81932-0.15907-0.56475 0.03035-0.10401
  -2 -10   1 2857.58 315.603   5 0.80947-0.97703-0.58123-0.14255-0.07832 0.15181
  -2 -10   1 3242.55 330.779   1 0.58268-0.75069-0.57926-0.14551-0.56557 0.63922
  -2 -10   0 5883.73 455.171   5 0.81690-0.98496-0.57115-0.15264-0.07551 0.07430
   2 -10   0 6000.60 461.448   5 0.98807-0.81991-0.15194-0.57187 0.03205-0.03102
   2 -10   1 5956.29 454.093   5 0.98797-0.81931-0.15264-0.57117 0.03189 0.04384
  -2 -10  -1 4890.20 421.364   5 0.81920-0.98776-0.56796-0.15584-0.07462-0.00128
   2 -10   2 4426.77 388.191   5 0.98656-0.81741-0.16179-0.56200 0.02970 0.12072
  -2 -10  -2 4685.11 421.881   5 0.81685-0.98590-0.57121-0.15259-0.07553-0.07507
   2 -10   3 2515.43 294.281   5 0.98347-0.81381-0.18019-0.54359 0.02528 0.19984
  -2 -10  -3 2532.50 323.135   5 0.81006-0.97961-0.58044-0.14338-0.07810-0.14719
   2 -10   4 4657.02 385.281   5 0.97790-0.80774-0.20883-0.51495 0.01835 0.28146
  -2 -10  -4 5649.79 476.473   5 0.79886-0.96891-0.59518-0.12865-0.08223-0.21775
   2 -10   5 2650.55 359.457   1 0.57874-0.40817-0.61698-0.10770-0.52881 0.90367
  -2 -10  -5 2636.60 334.533   5 0.78311-0.95365-0.61495-0.10888-0.08783-0.28685
   2 -10   6 3701.58 437.128   1 0.56853-0.39743-0.67626-0.04844-0.46398 0.91355
  -2 -10  -6 3251.91 371.509   5 0.76250-0.93354-0.63931-0.08454-0.09481-0.35457
   2  10   7 2563.59 342.996   3 0.64429-0.47285 0.67589 0.04757-0.35304 0.87660
  -2 -10  -7 2801.65 353.079   5 0.73657-0.90811-0.66775-0.05610-0.10308-0.42099
  -2 -11   6-22.8937 74.5776   3 0.08224-0.24700 0.00255-0.79858 0.99715-0.55022
  -2 -11   5 70.8212 98.8199   3 0.03765-0.20292-0.04243-0.75358 0.99863-0.62636
  -2 -11   5 33.3238 88.4177   1 0.53746-0.70340-0.77287-0.02442-0.33291 0.70542
   2 -11  -5 219.469 129.040   5 0.95402-0.78834-0.29963-0.49661-0.00405-0.36840
  -2 -11   4-69.2167 91.4661   1 0.55241-0.71888-0.73462-0.06266-0.38947 0.68726
   2 -11  -4 121.490 100.159   5 0.96302-0.79684-0.26949-0.52675 0.00346-0.30121
  -2 -11   3 66.2740 102.002   1 0.56486-0.73185-0.69197-0.10529-0.44509 0.66817
   2 -11  -3-40.2487 69.9959   5 0.96952-0.80284-0.24506-0.55117 0.00949-0.23255
  -2 -11   3 161.232 99.3167   5 0.76613-0.93269-0.63513-0.16101-0.09360 0.31647
   2 -11  -2 285.128 129.019   5 0.97396-0.80679-0.22665-0.56956 0.01400-0.16237
  -2 -11   2 74.7680 102.180   1 0.57457-0.74209-0.64506-0.15219-0.49927 0.64765
  -2 -11   2 99.1236 83.2265   5 0.78567-0.95272-0.61182-0.18433-0.08694 0.23511
  -2 -11   1 39.0876 81.9543   1 0.58134-0.74938-0.59417-0.20306-0.55141 0.62508
   2 -11  -1-90.1083 93.6968   5 0.97666-0.80898-0.21463-0.58157 0.01693-0.09061
  -2 -11   1-8.94671 80.9625   5 0.79857-0.96612-0.59556-0.20060-0.08234 0.15582
   2 -11   0 148.204 104.748   5 0.97778-0.80961-0.20940-0.58680 0.01821-0.01719
  -2 -11   0 81.3123 109.302   5 0.80590-0.97395-0.58599-0.21018-0.07965 0.07844
   2 -11   1 203.725 103.146   5 0.97735-0.80868-0.21142-0.58476 0.01771 0.05800
  -2 -11  -1 190.224 112.419   5 0.80835-0.97690-0.58274-0.21344-0.07874 0.00283
   2 -11   2 93.3860 87.4762   5 0.97519-0.80602-0.22128-0.57490 0.01531 0.13510
  -2 -11  -2 108.520 94.6643   5 0.80634-0.97538-0.58541-0.21078-0.07949-0.07111
   2 -11   3 199.629 128.557   5 0.97087-0.80121-0.23963-0.55654 0.01082 0.21428
  -2 -11  -3 29.2662 92.3653   5 0.80007-0.96962-0.59362-0.20258-0.08179-0.14351
   2 -11   4 90.0587 98.0207   5 0.96362-0.79346-0.26733-0.52883 0.00399 0.29581
   2 -11   4-180.897 117.316   1 0.58364-0.41362-0.56614-0.23100-0.57764 0.87781
  -2 -11  -4 91.2608 104.185   5 0.78958-0.95963-0.60695-0.18925-0.08556-0.21443
  -2 -11  -5 40.0093 127.548   5 0.77475-0.94529-0.62503-0.17119-0.09070-0.28398
  -2 -12   3 2620.13 366.750   1 0.56266-0.72967-0.70058-0.16915-0.43440 0.65749
  -2 -12   3 2629.51 329.453   5 0.75289-0.91944-0.65012-0.21841-0.09793 0.32079
  -2 -12   2 2427.92 336.325   1 0.57228-0.73983-0.65788-0.21184-0.48510 0.63349
  -2 -12   2 2619.04 337.952   5 0.77194-0.93900-0.62835-0.24018-0.09166 0.23982
  -2 -12   1 2446.15 327.201   1 0.57934-0.74741-0.61220-0.25750-0.53364 0.60732
   2 -12  -1 3242.10 384.775   5 0.96357-0.79589-0.26753-0.60106 0.00394-0.07762
  -2 -12   1 3182.29 371.598   5 0.78468-0.95223-0.61303-0.25551-0.08728 0.16075
  -2 -12   0 1990.24 285.343   1 0.58378-0.75237-0.56410-0.30560-0.57949 0.57846
   2 -12   0 2391.77 334.555   5 0.96458-0.79640-0.26387-0.60471 0.00485-0.00384
  -2 -12   0 2396.48 332.819   5 0.79206-0.96011-0.60384-0.26471-0.08468 0.08345
   2 -12   1 3361.79 383.070   5 0.96372-0.79505-0.26698-0.60158 0.00408 0.07163
  -2 -12  -1 3134.67 379.270   5 0.79473-0.96327-0.60047-0.26808-0.08373 0.00781
   2 -12   2 3955.02 413.363   5 0.96077-0.79160-0.27737-0.59119 0.00150 0.14890
   2 -12   3 2222.27 308.558   5 0.95528-0.78561-0.29562-0.57293-0.00305 0.22814
  -3   0  11 88.8343 77.1301   3 0.57703-0.82368 0.53016-0.53021 0.62488 0.19457
  -3   0  10 17.9261 59.4356   3 0.58390-0.83106 0.53814-0.53818 0.61147 0.13332
  -3   0   9 43.9930 59.9136   3 0.58837-0.83604 0.54336-0.54338 0.60248 0.06766
  -3   0   8 55.1462 51.0054   3 0.58990-0.83809 0.54515-0.54516 0.59934-0.00385
  -3   0   7 18.2853 46.4004   3 0.58757-0.83627 0.54243-0.54242 0.60410-0.08326
  -3   0   6 161.363 64.1574   3 0.57969-0.82889 0.53324-0.53322 0.61975-0.17357
  -3   0   5 21.4510 36.4351   3 0.56303-0.81274 0.51401-0.51397 0.65068-0.27914
  -3   0   4 49.0392 40.1468   3 0.53125-0.78148 0.47786-0.47781 0.70295-0.40607
  -3   0   3 10.5450 36.1792   4-0.74725 0.49663 0.31832-0.31864-0.58897 0.81122
  -3   0   3 21.9469 35.0968   3 0.47134-0.72208 0.41116-0.41110 0.78326-0.56103
  -3   0   2 7687.18 251.016   5-0.30713 0.05596-0.92332 0.92336-0.23259 0.38030
  -3   0   2 8332.26 314.207   4-0.61610 0.36494 0.24130-0.24155-0.75446 0.90201
  -3   0   2 7773.28 271.194   3 0.35775-0.60900 0.28830-0.28822 0.89052-0.74294
  -3   0   1 27.6906 34.1342   5-0.20538-0.04629-0.95113 0.95115-0.23203 0.30504
  -3   0   1 8.49686 41.6547   3 0.15509-0.40685 0.07676-0.07666 0.98593-0.91301
  -3   0   1 52.3631 50.2536   4-0.40561 0.15390 0.12652-0.12668-0.90830 0.98115
  -3   0   0 951.073 137.131   4-0.12613-0.12613-0.01643 0.01634-0.99276 0.99091
   3   0   0 1188.05 80.7073   2 0.12615 0.12619 0.65843-0.65826-0.74077 0.74247
  -3   0   0 1224.64 107.923   5-0.12608-0.12608-0.96524 0.96526-0.22986 0.22818
  -3   0  -1-2.14104 32.0273   5-0.07027-0.18240-0.97138 0.97139-0.22746 0.15109
  -3   0  -1 24.4323 19.3729   2 0.06532-0.31816 0.72418-0.72441-0.68562 0.60919
  -3   0  -1 57.2368 58.3041   4 0.15120-0.40400-0.15031 0.15029-0.97572 0.89917
  -3   0  -2 8634.35 342.693   4 0.35984-0.61319-0.24584 0.24590-0.89710 0.74586
  -3   0  -2 8209.85 281.056   5-0.03760-0.21556-0.97354 0.97354-0.22574 0.07467
  -3   0  -3 5.54662 30.6453   5-0.02708-0.22658-0.97402 0.97401-0.22513-0.00063
   3   0   3 6.10896 20.2095   1 0.54399-0.29005-0.75745 0.75751-0.35659 0.58250
   3   0   4 410.234 83.0121   3 0.65962-0.40531 0.68706-0.68724-0.29967 0.60000
  -3   0  -4 412.102 70.0792   5-0.03761-0.21654-0.97354 0.97353-0.22574-0.07472
   3   0   5-29.7923 50.5026   3 0.68417-0.42935 0.70292-0.70311-0.18880 0.56378
  -3   0  -5 41.0046 36.2387   5-0.06839-0.18627-0.97153 0.97150-0.22737-0.14778
   3   0   6 31.9670 48.6172   3 0.69760-0.44227 0.70904-0.70925-0.09618 0.54581
  -3   0  -6 0.61802 27.9943   5-0.11925-0.13590-0.96616 0.96612-0.22960-0.22024
   3   0   7-18.0583 47.2504   3 0.70425-0.44840 0.70934-0.70956-0.01608 0.54037
   3   0   8 328.962 105.007   3 0.70634-0.44998 0.70575-0.70598 0.05525 0.54369
   3   0   9-43.2359 65.1510   3 0.70510-0.44823 0.69931-0.69956 0.12027 0.55332
   3   0  10 686.648 161.019   3 0.70121-0.44383 0.69058-0.69084 0.18065 0.56759
   3   0  11 2.24067 58.0814   3 0.69507-0.43718 0.67986-0.68014 0.23753 0.58537
  -3  -1  11 10475.1 626.773   3 0.55446-0.80108 0.50420-0.57662 0.66557 0.15389
  -3   1  11 10466.6 605.999   3 0.59658-0.84326 0.55299-0.48068 0.58533 0.23410
  -3  -1  10 47.2382 50.0521   3 0.55983-0.80695 0.51034-0.58274 0.65632 0.08849
  -3   1  10 47.1705 62.0183   3 0.60472-0.85191 0.56260-0.49028 0.56747 0.17730
  -3   1   9 10396.2 532.797   3 0.61083-0.85853 0.56987-0.49753 0.55343 0.11669
  -3  -1   9 9831.97 539.092   3 0.56234-0.80998 0.51322-0.58561 0.65189 0.01827
  -3  -1   8 709.808 147.130   3 0.56132-0.80947 0.51205-0.58442 0.65370-0.05819
  -3   1   8 580.327 121.330   3 0.61457-0.86279 0.57435-0.50199 0.54455 0.05092
  -3  -1   7 17861.4 632.727   3 0.55558-0.80424 0.50548-0.57784 0.66366-0.14281
  -3   1   7 18728.8 615.439   3 0.61528-0.86401 0.57520-0.50283 0.54283-0.02201
  -3   1   6 62.7938 48.1867   3 0.61170-0.86093 0.57091-0.49852 0.55140-0.10523
  -3  -1   6-43.6289 55.5771   3 0.54311-0.79228 0.49128-0.56362 0.68437-0.23817
  -3  -1   5 24728.6 635.533   3 0.52037-0.77005 0.46562-0.53795 0.71913-0.34758
  -3   1   5 24673.0 593.307   3 0.60123-0.85098 0.55847-0.48607 0.57524-0.20373
  -3  -1   4 218.261 47.1780   5-0.32343 0.07326-0.91781 0.84548-0.23244 0.52953
  -3  -1   4 257.779 74.0047   3 0.48108-0.73127 0.42189-0.49421 0.77156-0.47466
  -3   1   4 220.355 59.6831   3 0.57822-0.82847 0.53153-0.45912 0.62259-0.32573
  -3  -1   3 49069.6 630.397   5-0.16457-0.08610-0.95919 0.88686-0.23109 0.45349
  -3   1   3 47593.7 826.725   4-0.71494 0.46435 0.29874-0.22664-0.63754 0.85972
  -3  -1   3 49679.8 774.461   3 0.41422-0.66492 0.34889-0.42119 0.84332-0.62108
  -3   1   3 48992.7 667.735   3 0.52901-0.77978 0.47534-0.40290 0.70634-0.48413
  -3  -1   2 2873.71 184.935   3 0.30285-0.55406 0.23016-0.30244 0.92680-0.77921
  -3   1   2 3127.03 210.734   4-0.58184 0.33070 0.22204-0.14987-0.78681 0.93428
  -3   1   2 2715.14 141.841   3 0.41845-0.66973 0.35347-0.28102 0.83933-0.69177
  -3  -1   2 2992.67 160.374   5-0.03383-0.21734-0.97373 0.90138-0.22552 0.37322
  -3  -1   2 2951.55 172.420   4-0.66994 0.41876 0.27220-0.34485-0.69577 0.84340
  -3   1   1 35208.3 755.785   4-0.38561 0.13392 0.11598-0.04373-0.91824 0.99102
  -3   1   1 36508.1 542.218   3 0.17000-0.42179 0.09205-0.01959 0.98225-0.90934
  -3  -1   1 37961.1 739.489   3 0.13119-0.38291 0.05231-0.12458 0.99084-0.91790
  -3  -1   1 38464.2 625.448   4-0.45182 0.20008 0.15108-0.22366-0.88263 0.95556
  -3  -1   1 37199.1 570.004   5 0.06764-0.31930-0.97341 0.90106-0.21854 0.29155
   3  -1  -1 36977.6 562.749   2 0.12014 0.13164 0.66532-0.73763-0.73564 0.66256
  -3  -1   0 120.478 48.0982   5 0.14105-0.39321-0.96686 0.89449-0.21205 0.21036
  -3  -1   0 129.283 69.4076   4-0.13278-0.11950-0.01312-0.05938-0.99199 0.99022
  -3   1   0 61.3684 66.6601   4-0.13933-0.11290-0.00987 0.08219-0.99118 0.98926
   3  -1   0 185.126 46.0216   2 0.26997-0.01769 0.46492-0.53718-0.84115 0.84280
  -3   1  -1 42291.1 622.538   5-0.34090 0.08823-0.91155 0.98394-0.23220 0.15583
  -3   1  -1 43836.8 808.568   4 0.10645-0.35922-0.12922 0.20162-0.98495 0.90833
  -3  -1  -1 41864.7 622.315   5 0.18879-0.44145-0.95969 0.88732-0.20716 0.13077
   3   1   1 39225.3 297.861   2 0.25418-0.00130 0.48909-0.41643-0.83243 0.90891
  -3  -1  -1 41764.9 701.380   4 0.18596-0.43879-0.16655 0.09412-0.96677 0.89030
  -3   1  -2 10529.4 393.799   4 0.30266-0.55598-0.22015 0.29262-0.92484 0.77352
  -3  -1  -2 10501.7 324.804   5 0.21351-0.46667-0.95505 0.88267-0.20441 0.05334
  -3   1  -2 10597.8 313.588   5-0.30880 0.05563-0.92277 0.99515-0.23258 0.08152
   3  -1   3 32117.7 497.090   1 0.58335-0.32943-0.57050 0.49809-0.57367 0.79959
   3  -1   3 33505.4 565.190   3 0.66904-0.41520 0.69353-0.76606-0.26199 0.48769
  -3  -1  -3 32260.8 576.791   5 0.21760-0.47125-0.95422 0.88183-0.20395-0.02182
  -3   1  -3 32604.2 559.400   5-0.29677 0.04310-0.92668 0.99905-0.23265 0.00690
  -3   1  -4 310.718 58.8555   5-0.30507 0.05091-0.92400 0.99636-0.23261-0.06784
   3  -1   4 280.697 60.4234   1 0.54948-0.29504-0.74301 0.67059-0.37767 0.67830
  -3  -1  -4 358.651 68.3423   5 0.20287-0.45702-0.95712 0.88473-0.20561-0.09485
   3  -1   4 392.494 76.0798   3 0.69112-0.43677 0.70652-0.77905-0.14625 0.44660
   3  -1   5 25360.9 615.690   3 0.70152-0.44666 0.70976-0.78232-0.05586 0.43087
   3   1   5 25331.4 654.774   3 0.65989-0.40510 0.68725-0.61508-0.29864 0.67362
  -3  -1  -5 25448.0 531.870   5 0.17048-0.42513-0.96271 0.89030-0.20909-0.16606
  -3   1  -5 25450.0 490.376   5-0.33384 0.07918-0.91412 0.98647-0.23230-0.14284
  -3  -1  -6 24.6211 34.1265   5 0.12075-0.37589-0.96921 0.89679-0.21397-0.23589
   3   1   6 115.716 67.3745   3 0.68294-0.42764 0.70222-0.63007-0.19556 0.64518
   3  -1   6 58.1237 51.1120   3 0.70574-0.45038 0.70800-0.78057 0.01950 0.43015
   3  -1   7 12042.6 508.639   3 0.70614-0.45026 0.70314-0.77572 0.08542 0.43889
  -3  -1  -7 12201.4 384.548   5 0.05307-0.30871-0.97408 0.90165-0.21969-0.30486
   3   1   7 11696.5 516.642   3 0.69653-0.44072 0.70871-0.63657-0.10552 0.62979
   3   1   8 156.568 85.7625   3 0.70372-0.44739 0.70953-0.63741-0.02526 0.62419
   3  -1   8 121.022 69.8075   3 0.70383-0.44744 0.69605-0.76865 0.14507 0.45389
   3   1   9 14594.4 666.772   3 0.70629-0.44945 0.70630-0.63419 0.04762 0.62596
   3  -1   9 14719.6 643.480   3 0.69936-0.44246 0.68714-0.75976 0.20036 0.47325
   3   1  10 46.8594 65.3680   3 0.70532-0.44797 0.69996-0.62786 0.11490 0.63334
   3  -1  10 45.8604 60.1240   3 0.69304-0.43563 0.67661-0.74925 0.25254 0.49572
   3   1  11 8339.65 565.485   3 0.70145-0.44359 0.69104-0.61896 0.17784 0.64505
   3  -1  11 8279.47 554.752   3 0.68501-0.42709 0.66456-0.73720 0.30240 0.52052
  -3   2  11-0.42089 59.4055   3 0.61322-0.85993 0.57272-0.42805 0.54780 0.27162
  -3  -2  11 88.2433 80.2765   3 0.52885-0.77544 0.47516-0.61994 0.70658 0.11289
  -3   2  10 159.872 80.9718   3 0.62235-0.86957 0.58371-0.43902 0.52532 0.21944
  -3  -2  10 87.1670 80.9751   3 0.53249-0.77959 0.47926-0.62403 0.70105 0.04377
  -3  -2   9 104.795 72.9362   3 0.53282-0.78043 0.47963-0.62439 0.70054-0.03037
  -3   2   9 48.5766 57.1061   3 0.62976-0.87750 0.59271-0.44801 0.50593 0.16418
  -3  -2   8 492.807 125.514   3 0.52901-0.77712 0.47533-0.62007 0.70635-0.11083
  -3   2   8 443.892 111.942   3 0.63527-0.88352 0.59947-0.45475 0.49076 0.10470
  -3   2   7 54.3265 49.0881   3 0.63848-0.88724 0.60343-0.45870 0.48159 0.03922
  -3  -2   7 84.3472 68.8069   3 0.51969-0.76832 0.46486-0.60958 0.72012-0.19925
  -3   2   6 4.08705 33.8624   3 0.63858-0.88785 0.60356-0.45881 0.48129-0.03514
  -3  -2   6-31.2978 44.6483   3 0.50268-0.75182 0.44585-0.59056 0.74382-0.29761
  -3  -2   5 1318.96 164.607   3 0.47443-0.72408 0.41457-0.55926 0.77959-0.40803
  -3  -2   5 1604.45 111.815   5-0.24564-0.00403-0.94146 0.79677-0.23256 0.60433
  -3   2   5 1635.10 151.116   3 0.63381-0.88359 0.59768-0.45291 0.49484-0.12334
  -3   2   4 46.8307 37.0912   3 0.61991-0.87020 0.58077-0.43598 0.53146-0.23461
  -3   2   4 31.9655 48.4109   4-0.77941 0.52939 0.33842-0.19398-0.53310 0.82991
  -3  -2   4 18.8944 29.7862   5-0.05268-0.19749-0.97268 0.82797-0.22656 0.52364
  -3  -2   4 14.4396 43.1572   3 0.42926-0.67942 0.36518-0.50986 0.82882-0.53191
  -3  -2   3 684.911 107.657   3 0.35860-0.60927 0.28921-0.43387 0.88988-0.66763
  -3   2   3 917.387 134.167   4-0.69343 0.44286 0.28595-0.14144-0.66659 0.88870
  -3  -2   3 744.771 84.3915   5 0.10005-0.35072-0.97118 0.82646-0.21583 0.43821
  -3   2   3 732.678 80.3571   3 0.58491-0.83571 0.53932-0.39452 0.60947-0.38727
  -3  -2   2 1039.80 128.818   3 0.25190-0.50308 0.17679-0.32144 0.95311-0.80551
  -3  -2   2 1023.85 103.567   5 0.21616-0.46733-0.95452 0.80979-0.20411 0.35180
  -3   2   2 1004.32 136.816   4-0.56406 0.31295 0.21215-0.06756-0.80228 0.94969
  -3  -2   2 822.651 84.2421   4-0.74431 0.49310 0.31652-0.46159-0.59366 0.74136
  -3   2   2 1070.68 79.6143   3 0.48721-0.73852 0.42868-0.28386 0.76394-0.61639
   3  -2  -2 1076.68 115.643   2 0.13728 0.11395 0.64543-0.79022-0.75010 0.60224
  -3  -2   1 31.5234 35.1621   5 0.30041-0.55207-0.93359 0.78885-0.19359 0.26659
   3  -2  -1 55.7393 44.6287   2 0.23362 0.01811 0.51938-0.66412-0.82016 0.74703
  -3   2   1 59.9305 28.8004   3 0.16020-0.41202 0.08200 0.06283 0.98472-0.91183
  -3  -2   1 108.029 72.1798   3 0.10287-0.35456 0.02348-0.16811 0.99509-0.92214
   3  -2  -1 61.2447 19.3784   3 0.66152-0.40969 0.63259-0.77742 0.40670-0.47960
  -3   2   1 83.6287 73.5881   4-0.38411 0.13245 0.11519 0.02947-0.91896 0.99167
  -3  -2   1 68.1340 32.0333   4-0.53550 0.28374 0.19640-0.34139-0.82543 0.89843
  -3  -2   0 270.962 59.4649   5 0.35756-0.60972-0.91486 0.77012-0.18541 0.18372
   3  -2   0 251.166 27.6029   3 0.29506-0.04273 0.22197-0.36681 0.93126-0.92950
  -3  -2   0 262.244 71.0566   4-0.17124-0.08107 0.00607-0.15099-0.98644 0.98474
  -3   2   0 380.024 111.175   4-0.16575-0.08646 0.00332 0.14142-0.98735 0.98536
  -3  -2  -1 52.9274 47.0075   5 0.39183-0.64448-0.90177 0.75702-0.18008 0.10369
  -3  -2  -1 37.9483 40.3152   4 0.20623-0.45909-0.17597 0.03112-0.96082 0.88443
  -3   2  -1 43.4407 61.5988   4 0.05459-0.30734-0.10452 0.24934-0.99249 0.91580
   3  -2   1 43.1752 21.2107   3 0.66108-0.40823 0.68809-0.83295-0.29411 0.37052
   3  -2   2 8.60147 21.4788   3 0.69388-0.44053 0.70773-0.85260-0.12658 0.27764
  -3   2  -2 3.76287 49.0776   4 0.23959-0.49289-0.19137 0.33626-0.94984 0.79845
  -3  -2  -2-13.8975 30.4591   5 0.40657-0.65972-0.89569 0.75093-0.17769 0.02661
  -3   2  -3 2473.45 208.385   4 0.37539-0.62924-0.25275 0.39772-0.88867 0.66259
  -3  -2  -3 2388.32 172.420   5 0.40427-0.65792-0.89665 0.75188-0.17807-0.04771
   3  -2   3 2478.32 151.226   3 0.70335-0.44949 0.70963-0.85452-0.03103 0.25674
  -3  -2  -4 518.039 83.4052   5 0.38660-0.64074-0.90386 0.75908-0.18092-0.11955
   3  -2   4 411.227 78.2518   1 0.57526-0.32085-0.64091 0.49603-0.50376 0.80440
   3  -2   4 529.162 86.0946   3 0.70618-0.45180 0.70690-0.85180 0.03878 0.26159
  -3  -2  -4 440.478 44.5279   2 0.08751-0.34196 0.70122-0.84645-0.70655 0.40583
  -3  -2  -4 484.564 48.9058   1 0.55964-0.81416-0.71152 0.56653-0.42044 0.11984
  -3  -2  -5 781.937 104.764   5 0.35444-0.60908-0.91599 0.77120-0.18588-0.18928
   3  -2   5 947.911 116.730   1 0.54471-0.28977-0.75564 0.61075-0.35928 0.73463
   3  -2   5 1048.22 128.879   3 0.70590-0.45101 0.70198-0.84690 0.09684 0.27817
  -3  -2  -6 97.9663 48.9666   5 0.30797-0.56311-0.93133 0.78653-0.19256-0.25731
   3   2   6 196.848 80.9675   3 0.66521-0.40994 0.69094-0.54642-0.27787 0.72748
   3  -2   6 172.866 73.7057   3 0.70361-0.44821 0.69554-0.84047 0.14864 0.30103
  -3  -2  -7 1.84435 33.8313   5 0.24665-0.50228-0.94783 0.80302-0.20050-0.32405
   3   2   7 12.4479 51.5654   3 0.68540-0.42961 0.70360-0.55909-0.18186 0.70613
   3  -2   7-97.0502 59.5680   3 0.69973-0.44382 0.68780-0.83275 0.19670 0.32762
   3   2   8 663.283 144.532   3 0.69769-0.44139 0.70907-0.56457-0.09545 0.69436
   3  -2   8 675.937 132.718   3 0.69443-0.43801 0.67883-0.82379 0.24238 0.35659
   3  -2   9 97.9883 73.5703   3 0.68780-0.43086 0.66863-0.81361 0.28645 0.38718
   3   2   9 182.945 94.4102   3 0.70422-0.44741 0.70935-0.56487-0.01666 0.69023
   3   2  10 404.174 137.968   3 0.70634-0.44903 0.70568-0.56122 0.05608 0.69213
   3  -2  10 173.897 87.2809   3 0.67983-0.42239 0.65719-0.80219 0.32937 0.41891
   3   2  11 121.735 90.7977   3 0.70494-0.44711 0.69884-0.55439 0.12404 0.69883
   3  -2  11 434.057 133.140   3 0.67052-0.41256 0.64446-0.78947 0.37146 0.45146
   3  -3 -11 8042.38 555.561   2 0.04118 0.20547 0.74786-0.96552-0.66183-0.15867
  -3   3  11 7937.71 525.914   3 0.62707-0.87382 0.58943-0.37240 0.51310 0.30630
  -3  -3  11 8143.36 578.155   3 0.50021-0.74676 0.44310-0.66025 0.74713 0.07236
   3  -3 -10 259.485 106.124   2 0.03373 0.21343 0.75490-0.97251-0.65427-0.09150
  -3   3  10 269.295 104.000   3 0.63694-0.88420 0.60153-0.38448 0.48602 0.25873
  -3  -3  10 248.232 103.108   3 0.50196-0.74903 0.44505-0.66219 0.74479 0.00005
  -3  -3   9 9701.51 560.547   3 0.49996-0.74754 0.44282-0.65994 0.74746-0.07727
   3  -3  -9 10060.6 566.195   2 0.03020 0.21746 0.75819-0.97575-0.65065-0.02039
  -3   3   9 9067.57 494.156   3 0.64530-0.89307 0.61193-0.39486 0.46120 0.20889
   3  -3  -8 3029.05 295.217   2 0.03139 0.21677 0.75708-0.97460-0.65187 0.05557
  -3  -3   8 2580.25 276.733   3 0.49325-0.74134 0.43537-0.65248 0.75624-0.16070
  -3   3   8 2372.88 237.609   3 0.65210-0.90038 0.62050-0.40341 0.43951 0.15593
  -3  -3   7 18893.2 694.494   3 0.48039-0.72898 0.42113-0.63822 0.77240-0.25152
   3  -3  -7 19863.9 702.412   2 0.03841 0.21025 0.75049-0.96796-0.65903 0.13746
   3  -3  -7 20362.5 595.322   5 0.99438-0.74567 0.07242-0.28964 0.08381-0.60502
  -3   3   7 18981.9 611.856   3 0.65716-0.90595 0.62696-0.40986 0.42233 0.09847
   3  -3  -6 275.136 90.9231   2 0.05278 0.19639 0.73666-0.95408-0.67339 0.22655
  -3   3   6 314.288 83.8458   3 0.66008-0.90938 0.63072-0.41361 0.41195 0.03419
  -3  -3   6 284.054 94.8154   3 0.45915-0.70826 0.39778-0.61485 0.79727-0.35104
  -3  -3   5 25739.4 712.943   3 0.42623-0.67585 0.36189-0.57895 0.83181-0.46024
   3  -3  -5 25882.8 709.704   2 0.07650 0.17317 0.71276-0.93013-0.69628 0.32417
  -3  -3   5 26579.9 474.880   5 0.01652-0.26619-0.97483 0.75775-0.22235 0.59411
  -3   3   5 26857.2 601.179   3 0.65990-0.90971 0.63049-0.41336 0.41260-0.04111
  -3  -3   4 2417.02 212.871   3 0.37683-0.62695 0.30867-0.52572 0.87578-0.57885
  -3   3   4 2591.06 230.578   4-0.76717 0.51718 0.33069-0.11384-0.55539 0.85212
  -3  -3   4 2345.18 150.437   5 0.18645-0.43661-0.96009 0.74301-0.20741 0.50448
   3  -3  -4 2281.52 202.198   2 0.11213 0.13804 0.67437-0.89169-0.72869 0.43131
  -3   3   4 2397.20 159.584   3 0.65414-0.90446 0.62308-0.40594 0.43272-0.13588
  -3  -3   3 21816.5 605.093   3 0.30470-0.55534 0.23211-0.44914 0.92571-0.70344
  -3   3   3 20427.8 627.166   4-0.68196 0.43142 0.27921-0.06228-0.68115 0.90318
  -3  -3   3 22534.1 480.208   5 0.31259-0.56326-0.92991 0.71282-0.19192 0.41429
  -3   3   3 22051.8 403.545   3 0.63478-0.88562 0.59887-0.38171 0.49213-0.26995
  -3  -3   2 95.9234 43.5076   5 0.40391-0.65507-0.89680 0.67970-0.17813 0.32581
  -3  -3   2 129.667 67.9566   3 0.20366-0.45481 0.12673-0.34374 0.97214-0.82452
  -3   3   2 50.1292 25.3022   3 0.56456-0.81590 0.51577-0.29859 0.64795-0.50041
  -3   3   2 69.7755 61.1226   4-0.55950 0.30841 0.20963 0.00738-0.80611 0.95345
  -3   3   1 37649.9 849.198   4-0.39591 0.14428 0.12140 0.09568-0.91320 0.98584
  -3  -3   1 36750.8 876.061   3 0.07200-0.32366-0.00780-0.20919 0.99785-0.92488
  -3  -3   1 37335.3 439.239   4-0.67093 0.41914 0.27277-0.49018-0.69460 0.76767
   3  -3  -1 38717.4 714.979   2 0.31384-0.06216 0.39336-0.61054-0.86187 0.78869
  -3  -3   1 39499.1 677.054   5 0.46742-0.71908-0.86755 0.65043-0.16711 0.24010
  -3  -3   0 1330.71 130.347   5 0.50856-0.76072-0.84558 0.62845-0.15928 0.15758
  -3   3   0 1422.33 178.202   4-0.20134-0.05083 0.02119 0.19596-0.98076 0.97869
  -3  -3   0 1443.78 105.370   4-0.26648 0.01414 0.05425-0.27159-0.96429 0.96266
  -3  -3  -1 41494.1 605.001   4 0.20412-0.45700-0.17499-0.04227-0.96147 0.88514
  -3   3  -1 43493.0 916.548   4-0.00243-0.25029-0.07708 0.29430-0.99694 0.92017
  -3  -3  -1 45417.5 770.066   5 0.53137-0.78402-0.83229 0.61516-0.15469 0.07829
  -3  -3  -1 44464.2 437.896   1 0.53499-0.78797-0.77828 0.56079-0.32429 0.24784
   3  -3   1 42746.3 350.772   3 0.66652-0.41364 0.63914-0.85636 0.38767-0.31124
  -3  -3  -2 5160.21 268.769   5 0.53875-0.79189-0.82782 0.61068-0.15316 0.00207
  -3  -3  -2 4658.66 116.659   1 0.57897-0.83247-0.61518 0.39770-0.53064 0.37948
  -3   3  -2 4881.95 293.205   4 0.17195-0.42522-0.16002 0.37732-0.97057 0.81911
   3   3   2 4052.91 103.128   2 0.10362 0.14987 0.68382-0.46625-0.72116 0.87247
   3  -3   2 4886.98 168.412   3 0.69199-0.43861 0.67499-0.89222 0.25978-0.10870
  -3   3  -3 15102.5 522.898   4 0.30735-0.56117-0.22227 0.43965-0.92275 0.69659
  -3  -3  -3 15119.4 465.375   5 0.53263-0.78627-0.83153 0.61439-0.15443-0.07136
   3  -3   3 15086.7 360.741   3 0.69511-0.44121 0.67991-0.89717 0.23726-0.01153
   3  -3   4 149.897 56.5080   3 0.69429-0.43988 0.67860-0.89587 0.24344 0.05694
   3  -3   4 156.914 63.6803   1 0.58322-0.32884-0.57227 0.35492-0.57204 0.87270
  -3  -3  -4 108.706 56.1280   5 0.51419-0.76833-0.84238 0.62522-0.15817-0.14231
  -3  -3  -5 26926.4 643.417   5 0.48397-0.73861-0.85901 0.64184-0.16403-0.21115
   3  -3   5 25418.1 648.239   1 0.56519-0.31029-0.69063 0.47326-0.44674 0.82210
  -3  -3  -5 27439.5 431.607   2 0.20494-0.45994 0.55955-0.77727-0.80139 0.42589
   3  -3   5 26384.8 618.723   3 0.69171-0.43679 0.67455-0.89184 0.26168 0.11335
   3  -3   6 972.158 137.140   1 0.53618-0.28075-0.77570 0.55832-0.32842 0.77850
  -3  -3  -6 1215.37 143.498   5 0.44197-0.69710-0.87993 0.66275-0.17167-0.27820
  -3  -3  -6 1225.46 107.738   2 0.12495-0.38045 0.65982-0.87758-0.73975 0.28951
   3   3   6 1147.08 169.479   3 0.64710-0.39186 0.67799-0.46110-0.34383 0.79342
   3  -3   6 1015.38 135.570   3 0.68785-0.43242 0.66871-0.88601 0.28614 0.16354
  -3  -3  -7 13965.7 474.734   5 0.38761-0.64324-0.90346 0.68627-0.18076-0.34381
   3   3   7 13249.7 581.870   3 0.67289-0.41714 0.69607-0.47919-0.24511 0.76936
   3  -3   7 12835.3 519.855   3 0.68281-0.42687 0.66140-0.87871 0.31423 0.21011
   3   3   8 650.792 147.798   3 0.68980-0.43354 0.70589-0.48903-0.15499 0.75389
   3  -3   8 451.224 114.641   3 0.67663-0.42018 0.65275-0.87008 0.34463 0.25436
   3   3   9 12033.3 623.077   3 0.70008-0.44331 0.70961-0.49277-0.07214 0.74569
   3  -3   9 12212.7 589.865   3 0.66928-0.41231 0.64280-0.86015 0.37658 0.29706
   3   3  10 591.962 172.460   3 0.70523-0.44795 0.70866-0.49184 0.00470 0.74350
   3  -3  10 1002.48 188.205   3 0.66071-0.40324 0.63155-0.84891 0.40964 0.33865
   3   3  11 7948.50 569.287   3 0.70627-0.44847 0.70397-0.48716 0.07661 0.74625
   3  -3  11 8050.56 542.625   3 0.65088-0.39290 0.61895-0.83633 0.44351 0.37943
   3  -4 -11 76.7744 78.4552   2 0.09557 0.15103 0.69259-0.98269-0.71392-0.10663
  -3   4  11 115.720 83.2506   3 0.63832-0.88510 0.60323-0.31383 0.48206 0.33732
   3  -4 -10 240.762 109.081   2 0.09141 0.15569 0.69706-0.98711-0.71013-0.03568
  -3   4  10 363.310 122.195   3 0.64870-0.89599 0.61619-0.32678 0.45055 0.29419
  -3  -4  10 530.816 147.861   3 0.46837-0.71540 0.40790-0.69740 0.78673-0.04188
   3  -4  -9 109.989 80.1625   2 0.09152 0.15609 0.69694-0.98694-0.71024 0.03915
  -3   4   9 92.7063 81.2087   3 0.65770-0.90550 0.62765-0.33821 0.42045 0.24963
  -3  -4   9 119.998 91.0378   3 0.46398-0.71152 0.40308-0.69256 0.79180-0.12160
   3  -4  -8-51.6019 65.8824   2 0.09669 0.15143 0.69138-0.98133-0.71493 0.11858
  -3   4   8 71.5143 59.6478   3 0.66532-0.91363 0.63757-0.34812 0.39233 0.20310
  -3  -4   8 84.2118 62.8328   3 0.45440-0.70246 0.39258-0.68205 0.80253-0.20699
   3  -4  -7 106.566 70.2581   2 0.10792 0.14070 0.67907-0.96897-0.72498 0.20336
   3  -4  -7 68.6604 70.4898   5 0.99777-0.74906 0.01658-0.30618 0.07127-0.59249
  -3   4   7 33.3965 41.6354   3 0.67156-0.92038 0.64586-0.35640 0.36706 0.15372
  -3  -4   7-58.3610 59.2052   3 0.43818-0.68674 0.37488-0.66433 0.81980-0.29890
   3  -4  -6 125.558 67.7245   5 0.98923-0.74002 0.11751-0.40710 0.09378-0.54030
   3  -4  -6 127.511 68.5526   2 0.12649 0.12262 0.65803-0.94789-0.74107 0.29418
  -3   4   6 189.445 77.4044   3 0.67629-0.92563 0.65229-0.36281 0.34617 0.09995
  -3  -4   6 77.1412 69.6907   3 0.41320-0.66228 0.34780-0.63723 0.84427-0.39802
  -3  -4   5 147.177 48.6794   5 0.22661-0.47627-0.95234 0.66288-0.20290 0.57466
   3  -4  -5 40.2211 52.9518   2 0.15408 0.09554 0.62522-0.91502-0.76371 0.39156
  -3   4   5 96.6550 51.0435   3 0.67919-0.92903 0.65630-0.36680 0.33250 0.03898
  -3  -4   5 117.135 68.6006   3 0.37655-0.62614 0.30838-0.59780 0.87600-0.50440
  -3  -4   4 1942.76 206.308   3 0.32440-0.57450 0.25290-0.54231 0.91359-0.61665
  -3   4   4 1942.77 212.148   4-0.76128 0.51131 0.32701-0.03774-0.56566 0.86231
  -3  -4   4 2093.49 155.568   5 0.36232-0.61248-0.91313 0.62366-0.18469 0.48176
   3  -4  -4 1877.20 191.333   2 0.19194 0.05818 0.57699-0.86675-0.79228 0.49486
  -3   4   4 1942.63 144.076   3 0.67928-0.92964 0.65643-0.36692 0.33204-0.03522
  -3  -4   3 131.173 57.0650   5 0.46021-0.71087-0.87114 0.58167-0.16842 0.39079
  -3  -4   3 129.423 70.6532   3 0.25243-0.50304 0.17735-0.46674 0.95287-0.73058
  -3   4   3 91.7984 69.4682   4-0.67926 0.42875 0.27763 0.01172-0.68449 0.90645
  -3   4   3 45.4295 30.1694   3 0.67316-0.92403 0.64802-0.35849 0.36019-0.13802
   3  -4  -3 120.005 53.0036   2 0.24137 0.00925 0.50811-0.79782-0.82490 0.60221
  -3  -4   2 325.499 73.6109   5 0.52950-0.78065-0.83341 0.54393-0.15508 0.30275
  -3  -4   2 386.201 105.307   3 0.15729-0.40841 0.07901-0.36839 0.98542-0.83778
  -3   4   2 352.238 88.9996   4-0.56536 0.31430 0.21287 0.07654-0.80118 0.94844
  -3   4   2 323.753 37.3272   3 0.64114-0.89251 0.60672-0.31718 0.47381-0.32629
  -3  -4   1 357.605 111.128   3 0.03948-0.29111-0.04059-0.24877 0.99865-0.92567
   3   4  -1 126.348 26.9089   4 0.24509 0.00673-0.19389 0.48372-0.94788 0.87474
  -3  -4   1 327.239 78.5761   5 0.57663-0.82828-0.80340 0.51390-0.14500 0.21798
  -3   4   1 275.102 88.6411   4-0.41743 0.16582 0.13277 0.15672-0.90210 0.97466
  -3  -4   1 299.233 65.0931   1 0.52558-0.77753-0.79712 0.50712-0.29284 0.36583
  -3  -4   0 29.4766 49.1386   5 0.60620-0.85835-0.78255 0.49305-0.13822 0.13650
  -3   4   0-5.16133 56.3100   4-0.24349-0.00866 0.04253 0.24703-0.97076 0.96863
  -3  -4   0 16.9060 34.1823   1 0.55210-0.80458-0.73554 0.44557-0.38818 0.38645
  -3  -4   0 7.03011 13.1008   4-0.48893 0.23657 0.17103-0.46078-0.85908 0.85753
  -3  -4  -1 400.518 87.1564   5 0.62142-0.87406-0.77116 0.48165-0.13458 0.05817
  -3  -4  -1 314.686 53.8357   1 0.57617-0.82918-0.63515 0.34519-0.50992 0.43348
  -3  -4  -1 420.407 60.3938   4 0.16295-0.41586-0.15581-0.13386-0.97287 0.89661
  -3   4  -1 396.826 106.325   4-0.06321-0.18949-0.04746 0.33711-0.99726 0.92042
   3  -4   1 277.501 28.3613   3 0.32604-0.07314 0.25464-0.54423 0.91253-0.83609
  -3  -4  -2 145.729 67.2786   5 0.62447-0.87761-0.76883 0.47931-0.13383-0.01727
  -3   4  -2 218.685 77.1923   4 0.10078-0.35403-0.12653 0.41625-0.98593 0.83440
   3  -4   2 234.984 42.4938   3 0.57769-0.32427 0.53093-0.82053 0.62360-0.47251
  -3  -4  -3 141.783 62.1783   5 0.61673-0.87036-0.77472 0.48520-0.13571-0.09009
  -3   4  -3 186.369 74.3762   4 0.23454-0.48833-0.18904 0.47883-0.95160 0.72537
   3  -4   3 176.121 47.0121   3 0.63171-0.37778 0.59510-0.88472 0.50063-0.27489
  -3  -4  -4-29.0771 50.5844   5 0.59897-0.85310-0.78780 0.49826-0.13991-0.16058
  -3   4  -4-58.7664 58.7040   4 0.33560-0.58994-0.23500 0.52486-0.90947 0.60854
   3  -4   4-31.5910 33.2199   3 0.64960-0.39516 0.61733-0.90696 0.44768-0.14728
  -3  -4  -5 271.799 84.7074   5 0.57147-0.82610-0.80687 0.51732-0.14614-0.22904
   3  -4   5 195.297 83.3213   1 0.57488-0.32001-0.64322 0.35338-0.50127 0.87665
   3  -4   5 169.311 66.4495   3 0.65565-0.40070 0.62502-0.91467 0.42756-0.05251
  -3  -4  -6 24.5078 50.6732   5 0.53407-0.78920-0.83066 0.54110-0.15413-0.29575
   3  -4   6 11.0765 48.1576   1 0.55350-0.29810-0.73139 0.44154-0.39392 0.84401
   3  -4   6 50.3968 49.4565   3 0.65633-0.40087 0.62589-0.91556 0.42521 0.02449
  -3  -4  -7 280.671 84.4213   5 0.48622-0.74185-0.85782 0.56825-0.16360-0.36097
   3   4   7 239.930 95.5249   3 0.66060-0.40489 0.68776-0.39852-0.29592 0.82015
   3  -4   7 163.188 80.8712   3 0.65391-0.39793 0.62279-0.91247 0.43349 0.09086
   3  -4   7 212.535 89.8130   1 0.52508-0.26916-0.79804 0.50818-0.29124 0.81604
   3   4   8 205.776 104.808   3 0.68135-0.42512 0.70130-0.41208-0.20407 0.80295
   3  -4   8 88.4152 64.4821   3 0.64930-0.39282 0.61695-0.90665 0.44863 0.15037
   3   4   9 208.663 117.619   3 0.69491-0.43817 0.70813-0.41892-0.11874 0.79227
   3  -4   9 187.754 86.8733   3 0.64293-0.38594 0.60896-0.89867 0.46844 0.20522
   3  -4  10 229.439 98.3174   3 0.63499-0.37748 0.59912-0.88885 0.49156 0.25675
   3   4  10-37.5400 80.3871   3 0.70281-0.44556 0.70972-0.42053-0.03906 0.78725
   3  -4  11 233.322 99.2943   3 0.62553-0.36752 0.58757-0.87731 0.51712 0.30583
   3  -5 -10 981.042 204.900   2 0.14819 0.09887 0.63239-0.99487-0.75900 0.01314
  -3  -5  10 896.265 196.796   3 0.43189-0.67889 0.36804-0.72991 0.82619-0.08132
  -3  -5   9 9494.12 590.343   3 0.42513-0.67264 0.36071-0.72256 0.83289-0.16267
   3  -5  -9 8905.71 562.304   2 0.15125 0.09631 0.62867-0.99111-0.76146 0.09032
  -3   5   9 8291.87 486.705   3 0.66724-0.91507 0.64010-0.27830 0.38480 0.28527
  -3  -5   8 2522.18 295.120   3 0.41283-0.66085 0.34739-0.70922 0.84462-0.24906
   3  -5  -8 2654.70 290.380   2 0.15947 0.08859 0.61858-0.98097-0.76796 0.17156
  -3   5   8 2553.25 252.295   3 0.67531-0.92366 0.65095-0.28913 0.35064 0.24477
  -3  -5   7 12671.4 621.962   3 0.39356-0.64209 0.32663-0.68844 0.86186-0.34094
   3  -5  -7 12070.6 544.021   5 0.99800-0.74928-0.03479-0.32720 0.05953-0.58076
   3  -5  -7 12112.3 587.160   2 0.17352 0.07505 0.60093-0.96327-0.77875 0.25708
  -3   5   7 12348.1 501.675   3 0.68214-0.93099 0.66044-0.29862 0.31773 0.20304
  -3  -5   6 1474.28 207.362   3 0.36543-0.61448 0.29650-0.65830 0.88472-0.43846
   3  -5  -6 1563.21 198.763   5 0.99602-0.74681 0.05167-0.41364 0.07918-0.52571
   3  -5  -6 1359.68 188.336   2 0.19447 0.05460 0.57364-0.93593-0.79408 0.34714
  -3   5   6 1445.76 160.377   3 0.68775-0.93712 0.66857-0.30672 0.28671 0.15940
  -3  -5   5 15309.8 621.946   3 0.32598-0.57553 0.25457-0.61636 0.91257-0.54097
  -3  -5   5 15654.9 438.873   5 0.37368-0.62333-0.90888 0.54705-0.18295 0.55470
   3  -5  -5 15269.3 598.863   2 0.22307 0.02650 0.53444-0.89668-0.81347 0.44127
   3  -5  -5 15044.9 578.627   5 0.98758-0.73787 0.12893-0.49090 0.09628-0.46812
  -3   5   5 15144.8 448.946   3 0.69214-0.94201 0.67520-0.31334 0.25882 0.11264
  -3  -5   4 679.050 135.477   3 0.27230-0.52237 0.19810-0.55987 0.94337-0.64642
  -3   5   4 493.407 120.036   4-0.76117 0.51123 0.32694 0.03475-0.56585 0.86243
  -3  -5   4 634.325 98.1303   5 0.47991-0.73006-0.86114 0.49930-0.16479 0.46185
  -3   5   4 570.557 77.7601   3 0.69518-0.94556 0.68003-0.31815 0.23672 0.06009
   3  -5  -4 568.019 123.082   2 0.26022-0.01015 0.47994-0.84212-0.83584 0.53837
  -3  -5   3 19722.9 681.415   3 0.20158-0.45215 0.12458-0.48634 0.97284-0.75053
  -3   5   3 19011.9 651.716   4-0.68393 0.43345 0.28036 0.08139-0.67869 0.90058
   3  -5  -3 18997.5 629.175   2 0.30582-0.05524 0.40696-0.76910-0.85848 0.63575
  -3  -5   3 19211.7 532.285   5 0.55593-0.80658-0.81704 0.45519-0.14953 0.37189
  -3   5   3 20102.6 376.557   3 0.69635-0.94725 0.68196-0.32007 0.22733-0.00518
  -3  -5   2 1805.16 169.681   5 0.60934-0.86049-0.78024 0.41837-0.13747 0.28514
  -3  -5   2 1519.33 205.395   3 0.11223-0.36332 0.03300-0.39474 0.99387-0.84622
  -3   5   2 1716.29 194.229   4-0.57935 0.32832 0.22066 0.14117-0.78902 0.93621
  -3   5   2 1729.89 84.5058   3 0.69234-0.94375 0.67552-0.31362 0.25740-0.10990
  -3  -5   1 27505.8 659.595   5 0.64531-0.89695-0.75233 0.39046-0.12864 0.20161
  -3  -5   1 30170.8 873.568   3 0.00579-0.25738-0.07438-0.28734 0.99724-0.92424
  -3   5   1 27943.3 744.365   4-0.44613 0.19455 0.14804 0.21387-0.88600 0.95849
  -3  -5   1 28211.9 614.933   1 0.55085-0.80283-0.73915 0.37669-0.38313 0.45612
  -3  -5   0 3892.28 216.635   1 0.57058-0.82309-0.66655 0.30411-0.47526 0.47354
  -3   5   0 3924.56 292.450   4-0.29039 0.03826 0.06651 0.29547-0.95675 0.95455
  -3  -5   0 3812.97 252.455   5 0.66738-0.91952-0.73381 0.37193-0.12290 0.12118
  -3  -5  -1 26438.1 674.964   5 0.67800-0.93064-0.72449 0.36260-0.12005 0.04363
  -3   5  -1 25330.7 759.363   4-0.12674-0.12593-0.01612 0.37818-0.99269 0.91578
   3  -5   1 26339.8 346.762   3 0.03002 0.22292-0.05010-0.31185 0.99849-0.92203
  -3  -5  -1 27976.5 538.949   1 0.58376-0.83680-0.56435 0.20192-0.57927 0.50284
  -3  -5  -1 26347.1 360.222   4 0.03030-0.28323-0.09287-0.26922-0.99487 0.91869
  -3   5  -1 26088.9 279.343   3 0.67334-0.92629 0.69636-0.33440-0.24307 0.16661
   3  -5   2 3019.23 138.185   3 0.39750-0.14404 0.33086-0.69282 0.85844-0.70734
  -3   5  -2 2560.58 244.169   4 0.02697-0.28019-0.09127 0.45340-0.99514 0.84354
  -3  -5  -2 2815.22 227.208   5 0.67876-0.93190-0.72382 0.36191-0.11984-0.03127
  -3   5  -3 9684.48 457.170   4 0.15783-0.41159-0.15342 0.51562-0.97413 0.74783
  -3  -5  -3 9744.47 428.821   5 0.67065-0.92429-0.73097 0.36906-0.12203-0.10378
   3  -5   3 11108.9 319.259   3 0.52256-0.26860 0.46808-0.83006 0.71593-0.49017
  -3  -5  -4 5675.72 336.506   5 0.65417-0.90830-0.74503 0.38311-0.12637-0.17413
  -3   5  -4 5836.93 369.490   4 0.26127-0.51558-0.20131 0.56359-0.94188 0.64088
   3  -5   4 6287.52 277.457   3 0.57416-0.31968 0.52683-0.88883 0.63032-0.32991
  -3   5  -5 16098.7 640.528   4 0.33900-0.59385-0.23652 0.59887-0.90780 0.53210
   3  -5   5 17021.0 505.092   3 0.59786-0.34287 0.55449-0.91650 0.58260-0.20753
   3  -5   5 15664.7 616.964   1 0.57948-0.32463-0.61110 0.24880-0.53475 0.91014
  -3  -5  -5 14833.6 554.624   5 0.62943-0.88405-0.76499 0.40306-0.13262-0.24258
   3  -5   6 2010.59 196.197   3 0.60866-0.35317 0.56729-0.92932 0.55848-0.10877
  -3  -5  -6 2054.27 215.899   5 0.59620-0.85132-0.78978 0.42785-0.14055-0.30934
   3  -5   6 1821.58 219.732   1 0.56338-0.30801-0.69781 0.33549-0.43787 0.88797
   3  -5   7 11180.3 541.182   1 0.54009-0.28419-0.76687 0.40454-0.34228 0.86709
  -3  -5  -7 11560.9 510.843   5 0.55395-0.80957-0.81831 0.45637-0.14996-0.37463
   3  -5   7 12842.7 528.294   3 0.61247-0.35646 0.57183-0.93387 0.54958-0.02522
   3   5   7 11590.1 591.034   3 0.64963-0.39395 0.67986-0.31826-0.33534 0.85956
  -3  -5  -8 903.860 148.086   5 0.50177-0.75788-0.84938 0.48742-0.16062-0.43866
   3   5   8 516.059 142.155   3 0.67331-0.41712 0.69634-0.33475-0.24321 0.84208
   3  -5   8 630.474 143.809   1 0.51172-0.25530-0.82065 0.45831-0.24986 0.84938
   3  -5   8 863.671 150.992   3 0.61190-0.35538 0.57115-0.93321 0.55092 0.04809
   3  -5   9 8346.69 491.823   3 0.60825-0.35122 0.56679-0.92887 0.55944 0.11423
   3   5   9 9021.01 570.263   3 0.68954-0.43284 0.70576-0.34419-0.15667 0.83019
   3   5  10 157.144 100.298   3 0.69978-0.44257 0.70956-0.34801-0.07522 0.82339
   3  -5  10 266.888 124.854   3 0.60218-0.34463 0.55959-0.92168 0.57316 0.17517
   3  -5  11 5836.82 465.824   3 0.59403-0.33598 0.54999-0.91210 0.59075 0.23223
   3  -6 -10-104.610 92.8898   2 0.20296 0.04404 0.56223-0.99715-0.80003 0.05412
   3  -6  -9 138.264 85.4496   2 0.20812 0.03939 0.55522-0.99009-0.80356 0.13238
  -3  -6   9 176.059 103.681   3 0.38369-0.63117 0.31603-0.75025 0.87018-0.19995
   3  -6  -8 62.2966 72.9979   2 0.21813 0.02988 0.54137-0.97619-0.81025 0.21380
  -3  -6   8 62.9370 69.7088   3 0.36888-0.61687 0.30018-0.73438 0.88206-0.28648
  -3  -6   7 124.245 77.9098   3 0.34697-0.59547 0.27683-0.71101 0.89834-0.37741
   3  -6  -7 77.3663 74.2711   5 0.99567-0.74695-0.08318-0.35118 0.04830-0.56954
   3  -6  -7 79.2460 62.7568   2 0.23377 0.01475 0.51917-0.95394-0.82025 0.29853
  -3  -6   6 135.919 87.7153   3 0.31631-0.56532 0.24435-0.67852 0.91870-0.47243
   3  -6  -6 111.188 85.9304   5 0.99822-0.74901-0.00807-0.42628 0.06566-0.51220
   3  -6  -6 121.046 84.9889   2 0.25539-0.00637 0.48727-0.92199-0.83312 0.38613
  -3  -6   5 42.6270 48.7504   5 0.47064-0.72029-0.86592 0.43170-0.16652 0.53826
  -3  -6   5 36.9164 64.6720   3 0.27491-0.52443 0.20083-0.63498 0.94205-0.57043
   3  -6  -5 59.8148 60.5944   2 0.28346-0.03393 0.44365-0.87832-0.84808 0.47583
   3  -6  -5 47.5322 63.5304   5 0.99549-0.74578 0.05898-0.49332 0.08081-0.45266
  -3  -6   4 52.4025 53.1771   5 0.55542-0.80556-0.81737 0.38315-0.14964 0.44669
  -3  -6   4-6.26822 62.6298   3 0.22068-0.47071 0.14435-0.57848 0.96605-0.66908
  -3   6   4 25.8114 69.6310   4-0.76609 0.51618 0.33002 0.10408-0.55729 0.85380
   3  -6  -4-14.3340 50.1698   2 0.31804-0.06801 0.38615-0.82077-0.86356 0.56604
   3  -6  -4-25.7590 62.7479   5 0.98919-0.73898 0.11779-0.55213 0.09384-0.39099
  -3  -6   3 886.719 129.526   5 0.61618-0.86683-0.77513 0.34090-0.13584 0.35819
  -3  -6   3 902.250 171.515   3 0.15190-0.40244 0.07349-0.50761 0.98666-0.76434
  -3  -6   3 748.101 127.521   1 0.52399-0.77495-0.80006 0.36510-0.28771 0.51014
  -3   6   3 1011.79 160.885   4-0.69465 0.44420 0.28668 0.14750-0.66500 0.88681
  -3  -6   2-21.8841 64.3944   3 0.06810-0.31916-0.01174-0.42236 0.99805-0.85039
  -3   6   2 20.3309 51.3926   4-0.59966 0.34866 0.23203 0.20222-0.77041 0.91753
  -3  -6   2 20.9237 48.3421   1 0.54475-0.79624-0.75553 0.32059-0.35945 0.50717
  -3  -6   2 37.2787 42.5852   5 0.65889-0.91003-0.74107 0.30682-0.12514 0.27280
  -3   6   1 463.244 105.277   4-0.48019 0.22864 0.16631 0.26801-0.86488 0.93730
  -3  -6   1 418.751 98.4914   5 0.68755-0.93918-0.71588 0.28163-0.11743 0.19039
  -3   6   0 140.436 78.2261   4-0.34076 0.08866 0.09254 0.34186-0.93813 0.93585
  -3  -6   0 250.602 82.7068   5 0.70489-0.95702-0.69963 0.26537-0.11253 0.11080
  -3   6  -1 1289.10 181.885   4-0.19228-0.06037 0.01663 0.41784-0.98260 0.90562
  -3  -6  -1 1441.27 178.581   5 0.71277-0.96541-0.69197 0.25770-0.11024 0.03381
   3  -6   2-15.7571 25.3762   3 0.21945 0.03403 0.14307-0.57740 0.96651-0.81539
  -3   6  -2-21.9823 56.4452   4-0.04881-0.20438-0.05451 0.48906-0.99760 0.84592
  -3  -6  -2 10.3671 52.1482   5 0.71241-0.96554-0.69233 0.25805-0.11035-0.04077
  -3   6  -3 92.9813 69.0134   4 0.07801-0.33175-0.11571 0.55033-0.98950 0.76312
   3  -6   3 210.149 53.1171   3 0.39078-0.13679 0.32364-0.75798 0.86424-0.63846
  -3  -6  -3 200.944 76.8166   5 0.70451-0.95814-0.70000 0.26571-0.11264-0.11318
   3  -6   4 1636.44 146.919   3 0.47653-0.22202 0.41687-0.85124 0.77708-0.47666
  -3   6  -4 1403.75 195.275   4 0.18243-0.43672-0.16491 0.59961-0.96775 0.66668
  -3  -6  -4 1390.84 183.807   5 0.68941-0.94353-0.71418 0.27988-0.11691-0.18360
  -3  -6  -5 48.8615 55.0433   5 0.66713-0.92175-0.73403 0.29972-0.12297-0.25223
  -3   6  -5-7.81444 68.9476   4 0.26404-0.51887-0.20257 0.63735-0.94082 0.56504
   3  -6   5 36.2573 41.7631   3 0.52173-0.26671 0.46715-0.90153 0.71715-0.34207
   3  -6   5 73.4283 88.1533   1 0.58163-0.32681-0.59120 0.15642-0.55428 0.92968
  -3  -6  -6-65.4099 58.4859   5 0.63742-0.89254-0.75868 0.32437-0.13063-0.31927
   3  -6   6 89.5620 60.6446   3 0.54619-0.29067 0.49478-0.92917 0.67936-0.22963
   3  -6   6-0.72317 75.9779   1 0.56899-0.31365-0.67415 0.23936-0.46645 0.91657
  -3   6  -6 187.914 94.1878   4 0.32541-0.58079-0.23042 0.66526-0.91440 0.46393
  -3  -6  -7 121.423 76.8680   5 0.59978-0.85539-0.78722 0.35289-0.13972-0.38487
   3   6   7 115.241 84.3552   3 0.64067-0.38502 0.67317-0.23920-0.36452 0.88872
   3  -6   7 176.752 98.5908   1 0.54954-0.29367-0.74284 0.30804-0.37790 0.90273
  -3   6  -7-7.60123 68.2987   4 0.37007-0.62599-0.25039 0.68531-0.89160 0.36643
   3  -6   7-43.0545 51.4447   3 0.55896-0.30292 0.50935-0.94375 0.65783-0.13345
   3  -6   8 221.598 91.0535   3 0.56448-0.30793 0.51568-0.95010 0.64809-0.04905
   3   6   8-10.0737 74.8787   3 0.66637-0.41021 0.69174-0.25779-0.27312 0.87197
  -3  -6  -8 186.222 81.5169   5 0.55340-0.80951-0.81866 0.38433-0.15007-0.44921
   3  -6   8 7.37902 68.4014   1 0.52484-0.26844-0.79849 0.36368-0.29045 0.88998
   3   6   9 27.1841 64.7367   3 0.68461-0.42794 0.70317-0.26923-0.18632 0.85982
   3  -6   9 17.1647 79.5783   3 0.56508-0.30802 0.51637-0.95081 0.64700 0.02668
   3  -6  10-104.692 68.1933   3 0.56205-0.30448 0.51289-0.94735 0.65240 0.09593
  -3  -7   9 5258.74 485.687   3 0.33993-0.58738 0.26935-0.77593 0.90326-0.23301
   3  -7  -9 5048.82 464.207   2 0.26112-0.01366 0.47857-0.98587-0.83634 0.16511
  -3  -7   8 2145.63 296.663   3 0.32290-0.57085 0.25131-0.75788 0.91455-0.31896
   3  -7  -8 2061.40 283.244   2 0.27225-0.02428 0.46138-0.96863-0.84235 0.24585
  -3  -7   7 8733.22 573.520   3 0.29878-0.54724 0.22588-0.73242 0.92915-0.40821
   3  -7  -7 7766.78 520.937   2 0.28824-0.03977 0.43595-0.94315-0.85042 0.32866
   3  -7  -7 8487.81 522.246   5 0.99111-0.74238-0.12953-0.37722 0.03739-0.55863
   3  -7  -6 3091.79 313.801   5 0.99691-0.74769-0.06350-0.44324 0.05289-0.49944
  -3  -7   6 2436.30 300.572   3 0.26619-0.51516 0.19170-0.69824 0.94640-0.50011
   3  -7  -6 2707.55 297.143   2 0.30936-0.06039 0.40100-0.90815-0.86000 0.41297
  -3  -7   5 10620.4 600.726   3 0.22360-0.47309 0.14737-0.65389 0.96494-0.59330
   3  -7  -5 9606.77 532.979   5 0.99820-0.74848-0.00471-0.50201 0.06643-0.43828
  -3  -7   5 10569.6 443.303   5 0.53282-0.78246-0.83142 0.32482-0.15439 0.52612
  -3  -7   4 3738.38 354.234   3 0.16957-0.41957 0.09161-0.59811 0.98236-0.68538
  -3   7   4 3489.60 307.216   4-0.77526 0.52537 0.33579 0.17073-0.54082 0.83726
  -3  -7   4 3436.05 304.289   1 0.51570-0.76616-0.81434 0.30691-0.26184 0.55899
   3  -7  -4 2871.18 289.595   5 0.99635-0.74614 0.04662-0.55334 0.07805-0.37521
  -3  -7   4 3615.32 270.491   5 0.60271-0.85285-0.78509 0.27849-0.13904 0.43607
  -3  -7   3 14945.4 701.437   3 0.10317-0.35368 0.02378-0.53027 0.99506-0.77272
  -3   7   3 16376.0 622.495   4-0.71024 0.45981 0.29592 0.21066-0.64410 0.86584
  -3  -7   3 14830.6 588.959   1 0.53584-0.78683-0.77644 0.26902-0.32724 0.54969
  -3  -7   3 15011.0 552.274   5 0.65311-0.90375-0.74591 0.23930-0.12664 0.34898
   3  -7  -3 15695.5 654.098   5 0.99260-0.74188 0.09026-0.59697 0.08777-0.31024
  -3  -7   2 4178.00 367.716   3 0.02462-0.27564-0.05552-0.45095 0.99831-0.85063
  -3   7   2 4537.86 320.143   4-0.62483 0.37385 0.24626 0.26040-0.74563 0.89267
   3  -7  -2 4719.91 357.843   5 0.98803-0.73682 0.12591-0.63260 0.09562-0.24339
  -3  -7   2 4327.65 305.048   5 0.68867-0.93980-0.71486 0.20824-0.11712 0.26476
  -3  -7   2 4726.65 324.326   1 0.55391-0.80543-0.73013 0.22272-0.39566 0.54339
  -3  -7   1 8201.67 410.845   1 0.56910-0.82114-0.67366 0.16627-0.46702 0.54004
  -3  -7   1 7319.34 405.956   5 0.71253-0.96417-0.69221 0.18557-0.11031 0.18326
  -3   7   1 8094.31 414.608   4-0.51823 0.26671 0.18695 0.31979-0.83847 0.91082
  -3  -7   0 2081.20 202.422   1 0.58017-0.83274-0.60514 0.09776-0.54069 0.53900
  -3   7   0 1670.59 194.673   4-0.39367 0.14160 0.12022 0.38659-0.91432 0.91196
  -3  -7   0 1874.69 213.913   5 0.72687-0.97900-0.67783 0.17119-0.10604 0.10430
  -3   7  -1 9748.05 479.183   4-0.25924 0.00662 0.05056 0.45633-0.96641 0.88935
  -3  -7  -1 9682.77 483.073   5 0.73313-0.98576-0.67136 0.16471-0.10414 0.02770
  -3   7  -2 1205.56 189.779   4-0.12603-0.12713-0.01648 0.52344-0.99277 0.84102
  -3  -7  -2 1061.10 175.995   5 0.73226-0.98538-0.67227 0.16561-0.10440-0.04672
  -3   7  -3 13960.0 617.169   4-0.00426-0.24945-0.07619 0.58322-0.99701 0.77056
  -3  -7  -3 13903.8 603.163   5 0.72480-0.97842-0.67995 0.17328-0.10667-0.11915
  -3   7  -4 3860.90 330.029   4 0.09975-0.35401-0.12604 0.63316-0.98611 0.68496
  -3  -7  -4 3922.53 328.664   5 0.71098-0.96510-0.69373 0.18705-0.11076-0.18975
   3  -7   5 11048.7 492.251   5 0.99083-0.73614 0.10536-0.61199 0.09111 0.28398
  -3   7  -5 10208.6 550.841   4 0.18406-0.43886-0.16567 0.67285-0.96730 0.59146
   3  -7   5 9806.00 582.392   1 0.58255-0.32777-0.58082 0.07357-0.56412 0.93953
  -3  -7  -5 9605.70 514.064   5 0.69079-0.94540-0.71291 0.20622-0.11653-0.25869
   3  -7   6 2612.36 311.159   1 0.57207-0.31676-0.65898 0.15173-0.48386 0.93399
  -3   7  -6 2156.18 273.309   4 0.24970-0.50505-0.19601 0.70327-0.94621 0.49566
  -3  -7  -6 2197.78 254.964   5 0.66396-0.91907-0.73676 0.23006-0.12381-0.32610
  -3   7  -7 7961.48 529.322   4 0.29910-0.55500-0.21853 0.72587-0.92640 0.40116
  -3  -7  -7 6834.27 447.463   5 0.63003-0.88564-0.76451 0.25781-0.13247-0.39213
   3  -7   7 6993.94 511.065   1 0.55536-0.29952-0.72567 0.21840-0.40172 0.92656
  -3   7  -8 3395.66 368.209   4 0.33496-0.59141-0.23471 0.74212-0.90979 0.30985
  -3  -7  -8 3003.29 303.394   5 0.58828-0.84439-0.79537 0.28866-0.14237-0.45692
   3  -7   8 2997.01 340.340   1 0.53354-0.27717-0.78137 0.27409-0.31929 0.91884
   3   7   8 3037.46 349.260   3 0.66097-0.40484 0.68801-0.18170-0.29452 0.89336
  -3   7  -9 4726.95 452.325   4 0.35974-0.61673-0.24579 0.75327-0.89716 0.22252
   3   7   9 4381.69 439.619   3 0.68057-0.42393 0.70084-0.19454-0.20814 0.88163
  -3   7 -10 523.208 193.062   4 0.37541-0.63295-0.25276 0.76032-0.88867 0.13933
   3  -8  -9-6.84400 83.5515   2 0.31002-0.06261 0.39988-0.97961-0.86028 0.18900
  -3  -8   8-111.149 100.922   3 0.27516-0.52309 0.20109-0.78002 0.94193-0.34632
   3  -8  -8 53.1561 66.2603   2 0.32137-0.07346 0.38038-0.96006-0.86486 0.26832
  -3  -8   7 28.7199 83.2851   3 0.24928-0.49771 0.17406-0.75297 0.95429-0.43333
   3  -8  -7 63.3479 76.3807   5 0.98448-0.73575-0.17441-0.40472 0.02667-0.54792
  -3  -8   6 47.4671 84.2257   3 0.21533-0.46427 0.13880-0.71770 0.96804-0.52173
   3  -8  -6-40.2026 74.5315   5 0.99270-0.74347-0.11578-0.46333 0.04064-0.48720
  -3  -8   5 175.082 118.546   3 0.17219-0.42164 0.09430-0.67318 0.98167-0.61002
   3  -8  -5 59.8435 76.9189   5 0.99690-0.74717-0.06378-0.51532 0.05282-0.42469
  -3  -8   4 39.3079 57.3581   5 0.63113-0.88127-0.76365 0.18467-0.13220 0.42922
  -3  -8   4 209.258 115.365   3 0.11893-0.36890 0.03982-0.61868 0.99288-0.69588
   3  -8  -4 202.011 109.923   5 0.99822-0.74800-0.01862-0.56048 0.06325-0.36042
  -3  -8   4 135.132 83.6253   1 0.52465-0.77514-0.79884 0.21894-0.28984 0.58701
   3  -8  -3 10.8129 57.2637   5 0.99768-0.74696 0.01946-0.59855 0.07192-0.29440
  -3   8   3-23.1213 53.9304   4-0.72963 0.47922 0.30758 0.27143-0.61627 0.83794
  -3  -8   3 138.432 98.1927   3 0.05519-0.30567-0.02477-0.55408 0.99853-0.77618
  -3  -8   3-23.1032 69.2375   1 0.54289-0.79391-0.76017 0.18028-0.35250 0.57496
  -3  -8   3 64.1589 59.0603   5 0.67445-0.92509-0.72764 0.14864-0.12101 0.34334
  -3  -8   2 678.129 143.443   1 0.55881-0.81036-0.71438 0.13450-0.41672 0.56447
  -3   8   2 822.260 145.185   4-0.65368 0.40273 0.26278 0.31630-0.71462 0.86159
   3  -8  -2 765.572 160.053   5 0.99612-0.74491 0.05016-0.62924 0.07884-0.22662
  -3  -8   2 635.048 137.704   5 0.70519-0.95632-0.69934 0.12034-0.11244 0.26008
  -3  -8   1-8.76556 52.8596   1 0.57178-0.82385-0.66052 0.08066-0.48212 0.55516
   3  -8  -1-14.4357 79.1563   5 0.99431-0.74260 0.07313-0.65219 0.08397-0.15706
  -3   8   1 39.3781 51.9114   4-0.55921 0.30771 0.20947 0.36969-0.80636 0.87863
  -3  -8   1 88.0507 84.0864   5 0.72589-0.97751-0.67884 0.09983-0.10634 0.17929
   3  -8   0 168.450 86.4726   5 0.99285-0.74064 0.08793-0.66699 0.08726-0.08565
  -3  -8   0 239.561 87.3010   1 0.58097-0.83357-0.59780 0.01794-0.54790 0.54622
  -3   8   0 354.395 101.208   4-0.44839 0.19634 0.14924 0.42998-0.88467 0.88224
  -3  -8   0 220.542 104.858   5 0.73829-0.99042-0.66593 0.08691-0.10254 0.10080
   3  -8   1 140.444 77.9106   5 0.99218-0.73947 0.09404-0.67309 0.08861-0.01231
  -3   8  -1 257.269 90.2362   4-0.32718 0.07458 0.08549 0.49381-0.94353 0.86641
  -3  -8  -1 100.628 78.3647   5 0.74359-0.99622-0.66027 0.08124-0.10089 0.02444
  -3  -8  -2 133.334 91.7859   5 0.74255-0.99567-0.66139 0.08235-0.10122-0.04992
  -3   8  -2 187.988 100.654   4-0.20427-0.04887 0.02267 0.55671-0.98014 0.82832
   3  -8   2 268.550 98.1244   5 0.99254-0.73934 0.09079-0.66983 0.08789 0.06310
   3  -8   3 146.433 89.7299   5 0.99393-0.74023 0.07727-0.65630 0.08489 0.14080
  -3  -8  -3 42.0216 85.3083   5 0.73559-0.98921-0.66878 0.08973-0.10338-0.12245
  -3   8  -3 322.919 117.542   4-0.08847-0.16522-0.03505 0.61450-0.99605 0.76953
  -3   8  -4 534.202 126.661   4 0.01382-0.26806-0.08493 0.66446-0.99608 0.69486
   3  -8   4 221.804 95.1427   5 0.99598-0.74178 0.05231-0.63133 0.07932 0.22106
  -3  -8  -4 154.134 81.6534   5 0.72290-0.97701-0.68188 0.10282-0.10724-0.19329
   3  -8   5 213.394 117.995   1 0.58279-0.32804-0.57784-0.00188-0.56690 0.94233
  -3   8  -5 399.232 126.930   4 0.09958-0.35436-0.12596 0.70556-0.98614 0.61022
   3  -8   5 232.785 95.5294   5 0.99784-0.74314 0.01425-0.59327 0.07074 0.30434
  -3  -8  -5 289.398 127.150   5 0.70442-0.95903-0.70008 0.12101-0.11266-0.26256
   3  -8   6-164.463 110.344   1 0.57356-0.31828-0.65088 0.07116-0.49289 0.94303
  -3   8  -6-39.4022 75.0864   4 0.16855-0.42388-0.15843 0.73811-0.97145 0.52083
  -3  -8  -6 221.428 102.406   5 0.67992-0.93502-0.72279 0.14371-0.11953-0.33039
  -3  -8  -7 63.1481 82.9714   5 0.64895-0.90456-0.74935 0.17026-0.12771-0.39690
  -3   8  -7 249.829 112.658   4 0.22211-0.47798-0.18331 0.76306-0.95578 0.43047
   3  -8   7 69.0320 100.502   1 0.55873-0.30292-0.71465 0.13491-0.41637 0.94122
   3   8   8 138.444 108.545   3 0.65734-0.40124 0.68545-0.10677-0.30814 0.90696
  -3   8  -8 141.919 95.3526   4 0.26228-0.51870-0.20177 0.78160-0.94149 0.34148
  -3  -8  -8-120.583 91.6138   5 0.61089-0.86699-0.77909 0.20000-0.13711-0.46220
   3  -8   8 74.8158 82.4903   1 0.53908-0.28275-0.76920 0.18945-0.33867 0.93823
  -3  -9   7 5313.62 509.858   3 0.19870-0.44711 0.12161-0.77289 0.97379-0.45282
   3  -9  -7 4679.09 435.347   5 0.97587-0.72713-0.21822-0.43329 0.01606-0.53732
  -3  -9   6 1591.44 292.087   3 0.16391-0.41282 0.08580-0.73706 0.98381-0.53749
   3  -9  -6 1828.50 274.887   5 0.98593-0.73670-0.16573-0.48577 0.02875-0.47532
  -3  -9   5 5087.91 498.397   3 0.12075-0.37017 0.04167-0.69292 0.99260-0.62093
  -3  -9   5 4237.73 398.173   1 0.51131-0.76131-0.82129 0.16891-0.24862 0.62051
   3  -9  -5 4404.60 409.253   5 0.99230-0.74257-0.11937-0.53212 0.03979-0.41167
  -3  -9   4 3269.77 387.293   3 0.06870-0.31864-0.01114-0.64010 0.99802-0.70101
   3  -9  -4 3836.04 379.202   5 0.99594-0.74571-0.07935-0.57212 0.04920-0.34638
  -3  -9   4 3271.82 344.839   1 0.52999-0.78052-0.78862 0.13624-0.30732 0.60450
  -3  -9   4 3067.20 292.649   5 0.64652-0.89665-0.75134 0.09998-0.12833 0.42535
  -3  -9   3 7153.83 539.704   3 0.00778-0.25823-0.07239-0.57883 0.99739-0.77503
  -3   9   3 7339.69 430.984   4-0.75187 0.50149 0.32117 0.33024-0.58145 0.80304
   3  -9  -3 6500.09 485.091   5 0.99768-0.74695-0.04592-0.60555 0.05696-0.27945
  -3  -9   3 6117.97 415.849   5 0.68497-0.93560-0.71823 0.06686-0.11814 0.34046
  -3  -9   3 6537.54 459.210   1 0.54668-0.79773-0.75055 0.09819-0.36679 0.58926
  -3   9   2 3758.53 306.457   4-0.68523 0.43430 0.28113 0.37037-0.67706 0.82396
   3  -9  -2 3323.58 346.719   5 0.99822-0.74700-0.01935-0.63211 0.06308-0.21087
  -3  -9   2 3461.61 319.669   5 0.71243-0.96355-0.69231 0.04093-0.11034 0.25797
  -3  -9   2 3120.15 314.608   1 0.56102-0.81260-0.70661 0.05427-0.42675 0.57451
   3  -9  -1 6976.97 487.852   5 0.99815-0.74643 0.00001-0.65146 0.06750-0.14060
  -3  -9   1 6845.49 444.049   1 0.57256-0.82466-0.65642 0.00408-0.48674 0.55979
  -3   9   1 7172.68 405.015   4-0.60227 0.35079 0.23350 0.41807-0.76794 0.84014
  -3  -9   1 6512.72 444.854   5 0.73101-0.98263-0.67357 0.02218-0.10479 0.17772
  -3  -9   0 3219.29 298.943   1 0.58076-0.83339-0.59975-0.05257-0.54600 0.54433
  -3   9   0 3060.86 265.594   4-0.50434 0.25232 0.17939 0.47226-0.84848 0.84598
   3  -9   0 3646.68 351.880   5 0.99791-0.74569 0.01176-0.66320 0.07018-0.06858
  -3  -9   0 2675.37 292.036   5 0.74217-0.99429-0.66180 0.01040-0.10133 0.09958
  -3   9  -1 6191.78 389.001   4-0.39574 0.14317 0.12131 0.53040-0.91329 0.83609
   3  -9   1 6270.40 456.346   5 0.99781-0.74509 0.01539-0.66682 0.07100 0.00529
  -3  -9  -1 5609.68 429.567   5 0.74692-0.99953-0.65667 0.00526-0.09984 0.02339
  -3   9  -2 5174.43 380.325   4-0.28320 0.03009 0.06282 0.58897-0.95910 0.80721
   3  -9   2 4138.19 364.864   5 0.99795-0.74474 0.01029-0.66172 0.06984 0.08114
  -3  -9  -2 4721.94 398.307   5 0.74588-0.99900-0.65780 0.00637-0.10017-0.05098
   3  -9   3 6681.71 456.887   5 0.99820-0.74449-0.00434-0.64707 0.06651 0.15917
  -3  -9  -3 6590.50 480.377   5 0.73943-0.99304-0.66473 0.01330-0.10219-0.12365
   3  -9   4 3002.68 306.485   5 0.99810-0.74390-0.02956-0.62184 0.06073 0.23964
  -3  -9  -4 2719.26 313.900   5 0.72769-0.98180-0.67699 0.02555-0.10580-0.19474
   3  -9   5 6102.39 521.978   1 0.58257-0.32784-0.58065-0.07153-0.56427 0.93971
  -3  -9  -5 5619.32 453.290   5 0.71062-0.96522-0.69409 0.04264-0.11087-0.26436
   3  -9   6 1511.06 272.728   1 0.57397-0.31872-0.64858-0.00361-0.49542 0.94558
  -3  -9  -6 2022.96 284.971   5 0.68798-0.94308-0.71549 0.06403-0.11731-0.33262
  -3  -9  -7 3399.86 365.686   5 0.65938-0.91498-0.74065 0.08919-0.12501-0.39961
   3  -9   7 3708.56 439.737   1 0.56037-0.30459-0.70896 0.05676-0.42374 0.94861
  -3  -9  -8 2533.60 316.790   5 0.62423-0.88033-0.76901 0.11753-0.13389-0.46542
   3   9   8 2123.82 314.748   3 0.65558-0.39951 0.68418-0.03314-0.31457 0.91337
   3 -10  -7-191.564 125.273   5 0.96530-0.71656-0.26122-0.46266 0.00550-0.52677
  -3 -10   6 93.3396 109.321   3 0.11204-0.36092 0.03280-0.75643 0.99390-0.54756
   3 -10  -6 313.609 137.706   5 0.97682-0.72758-0.21389-0.50998 0.01711-0.46369
  -3 -10   5-217.419 142.383   3 0.06931-0.31870-0.01053-0.71309 0.99799-0.62631
   3 -10  -5 333.889 138.002   5 0.98484-0.73511-0.17229-0.55158 0.02718-0.39906
  -3 -10   5 122.624 108.290   1 0.51513-0.76515-0.81527 0.09041-0.26010 0.63200
  -3 -10   4 60.8142 83.1419   5 0.65251-0.90263-0.74641 0.02267-0.12680 0.42381
  -3 -10   4 206.966 123.641   3 0.01880-0.26870-0.06135-0.66224 0.99806-0.70103
  -3 -10   4 15.3405 71.2534   1 0.53265-0.78320-0.78323 0.05838-0.31626 0.61345
   3 -10  -4 39.4134 82.0679   5 0.99021-0.73997-0.13661-0.58724 0.03571-0.33289
  -3 -10   3 121.416 102.407   1 0.54816-0.79924-0.74662 0.02180-0.37248 0.59496
   3 -10  -3-67.7562 83.7121   5 0.99360-0.74287-0.10709-0.61675 0.04269-0.26518
  -3 -10   3 44.9460 71.9530   5 0.68758-0.93821-0.71585-0.00791-0.11742 0.33973
  -3 -10   2-74.0385 82.6105   1 0.56139-0.81299-0.70529-0.01953-0.42845 0.57622
   3 -10  -2 42.0232 84.3077   5 0.99561-0.74438-0.08400-0.63984 0.04811-0.19591
  -3 -10   2 22.1259 68.0706   5 0.71280-0.96392-0.69195-0.03182-0.11023 0.25785
  -3 -10   1 35.1798 66.5490   5 0.72997-0.98159-0.67464-0.04913-0.10510 0.17803
  -3 -10   1 115.248 86.9455   1 0.57204-0.82418-0.65914-0.06566-0.48369 0.55675
   3 -10  -1 80.7419 113.387   5 0.99668-0.74496-0.06766-0.65617 0.05192-0.12503
  -3 -10   0 151.217 90.8759   1 0.57981-0.83247-0.60830-0.11649-0.53755 0.53590
   3 -10   0 240.041 135.407   5 0.99717-0.74495-0.05844-0.66538 0.05406-0.05248
  -3 -10   0 5.80424 83.0130   5 0.74035-0.99247-0.66374-0.06004-0.10190 0.10014
   3 -10   1 82.2155 83.4316   5 0.99724-0.74452-0.05681-0.66700 0.05444 0.02184
  -3 -10  -1 1.70777 68.4465   5 0.74481-0.99742-0.65896-0.06483-0.10051 0.02404
   3 -10   2 178.087 106.069   5 0.99692-0.74371-0.06335-0.66046 0.05293 0.09805
  -3 -10  -2-54.3089 85.2379   5 0.74389-0.99700-0.65995-0.06385-0.10080-0.05036
   3 -10   3 385.991 133.488   5 0.99598-0.74227-0.07876-0.64504 0.04934 0.17634
  -3 -10  -3 451.591 146.019   5 0.73791-0.99151-0.66634-0.05747-0.10266-0.12319
   3 -10   4 87.5485 79.0503   5 0.99391-0.73970-0.10397-0.61981 0.04343 0.25694
  -3 -10  -4 143.074 99.5747   5 0.72698-0.98108-0.67772-0.04610-0.10601-0.19453
   3 -10   5 134.848 125.788   1 0.58192-0.32722-0.58805-0.13660-0.55728 0.93274
  -3 -10  -5 110.068 102.038   5 0.71105-0.96565-0.69366-0.03017-0.11074-0.26450
   3 -10   6 186.742 129.173   1 0.57354-0.31831-0.65104-0.07362-0.49272 0.94288
  -3 -10  -6 34.7208 70.0091   5 0.68991-0.94501-0.71371-0.01013-0.11677-0.33316
  -3 -11   5 3196.29 428.755   3 0.01784-0.26720-0.06232-0.73365 0.99801-0.62631
  -3 -11   5 2907.71 373.492   1 0.51658-0.76664-0.81289 0.01557-0.26455 0.63646
   3 -11  -4 3140.91 381.024   5 0.98144-0.73120-0.19116-0.60508 0.02263-0.31983
  -3 -11   4 2679.93 348.630   1 0.53320-0.78378-0.78209-0.01523-0.31812 0.61533
  -3 -11   3 1558.95 257.804   1 0.54784-0.79895-0.74749-0.04981-0.37124 0.59373
   3 -11  -3 2217.61 323.262   5 0.98606-0.73532-0.16497-0.63126 0.02893-0.25144
  -3 -11   3 1260.12 225.538   5 0.68409-0.93471-0.71902-0.07711-0.11838 0.34069
  -3 -11   2 2212.63 304.285   1 0.56033-0.81196-0.70910-0.08818-0.42356 0.57134
   3 -11  -2 3177.33 375.012   5 0.98909-0.73786-0.14483-0.65139 0.03375-0.18156
  -3 -11   2 1832.28 266.481   5 0.70780-0.95892-0.69682-0.09932-0.11169 0.25930
  -3 -11   1 3135.61 349.345   1 0.57048-0.82264-0.66706-0.13021-0.47467 0.54774
  -3 -11   1 3260.90 357.243   5 0.72406-0.97567-0.68070-0.11546-0.10689 0.17981
   3 -11  -1 3480.40 395.686   5 0.99092-0.73919-0.13103-0.66518 0.03703-0.11015
   3 -11   0 2911.24 355.744   5 0.99178-0.73955-0.12393-0.67228 0.03872-0.03714
  -3 -11   0 3308.87 363.798   5 0.73398-0.98609-0.67047-0.12569-0.10388 0.10210
   3 -11   1 3854.35 402.232   5 0.99178-0.73905-0.12395-0.67224 0.03871 0.03756
  -3 -11  -1 4240.13 417.056   5 0.73832-0.99093-0.66590-0.13027-0.10254 0.02606
   3 -11   2 3183.17 363.782   5 0.99085-0.73763-0.13161-0.66457 0.03689 0.11407
  -3 -11  -2 2811.92 346.148   5 0.73759-0.99069-0.66668-0.12950-0.10276-0.04840
   3 -11   3 2987.93 344.079   5 0.98871-0.73499-0.14756-0.64861 0.03310 0.19256
  -3 -11  -3 2610.77 344.493   5 0.73205-0.98565-0.67249-0.12370-0.10447-0.12139
  -3 -11  -4 2515.42 334.786   5 0.72181-0.97590-0.68298-0.11322-0.10757-0.19299
   3 -11   4 2490.49 313.534   5 0.98479-0.73057-0.17262-0.62354 0.02710 0.27326
  -3 -12   3-11.0404 82.2010   5 0.67563-0.92624-0.72660-0.14191-0.12069 0.34299
  -3 -12   3 120.389 114.280   1 0.54601-0.79715-0.75231-0.11745-0.36420 0.58671
  -3 -12   2 211.901 131.913   1 0.55802-0.80969-0.71703-0.15272-0.41324 0.56104
  -3 -12   2-158.922 108.406   5 0.69837-0.94948-0.70584-0.16269-0.11439 0.26200
  -3 -12   1 142.759 101.406   5 0.71408-0.96568-0.69069-0.17784-0.10986 0.18277
   3 -12   1 162.601 154.537   5 0.98221-0.72948-0.18706-0.68151 0.02362 0.05264
   3 -12   2 200.092 129.390   5 0.98058-0.72735-0.19563-0.67294 0.02155 0.12941
   3 -12   3 29.2674 83.1569   5 0.97723-0.72351-0.21196-0.65659 0.01758 0.20807
  -4   0  11 24.5828 72.6096   3 0.53544-0.86618 0.48260-0.48261 0.69649 0.12238
  -4   0  10 11146.8 606.341   3 0.53965-0.87090 0.48736-0.48736 0.68989 0.05433
  -4   0   9-7.34547 54.8262   3 0.54056-0.87232 0.48839-0.48837 0.68845-0.01888
  -4   0   8 18551.5 692.687   3 0.53728-0.86955 0.48467-0.48464 0.69363-0.09871
  -4   0   7-34.2389 53.3274   3 0.52836-0.86114 0.47460-0.47456 0.70732-0.18706
  -4   0   6 7729.99 389.090   3 0.51136-0.84465 0.45553-0.45547 0.73195-0.28634
  -4   0   5 45.2739 50.5182   3 0.48209-0.81589 0.42302-0.42294 0.77031-0.39935
  -4   0   4 23272.7 579.714   3 0.43342-0.76773 0.36970-0.36961 0.82465-0.52835
  -4   0   4 22605.1 615.473   4-0.77673 0.44258 0.33672-0.33714-0.53810 0.83443
  -4   0   3-14.6482 37.7546   3 0.35371-0.68853 0.28399-0.28389 0.89349-0.67184
  -4   0   3 32.5625 51.4410   4-0.68906 0.35436 0.28338-0.28372-0.67221 0.89384
  -4   0   2 45790.9 790.905   3 0.22737-0.56271 0.15129-0.15117 0.96347-0.81647
  -4   0   2 45403.7 844.036   4-0.55864 0.22339 0.20915-0.20942-0.80683 0.95377
  -4   0   2 43860.6 699.970   5-0.30366-0.03157-0.92446 0.92450-0.23262 0.37977
  -4   0   1 13.1671 32.9107   5-0.22753-0.10819-0.94602 0.94605-0.23237 0.30482
  -4   0   1 13.2138 48.6135   3 0.04569-0.38154-0.03434 0.03448 0.99866-0.92631
   4   0  -1 37.2893 29.7008   2 0.03121 0.30473 0.75724-0.75706-0.65169 0.57923
  -4   0   1 81.9684 67.6704   4-0.38040 0.04461 0.11325-0.11344-0.92072 0.99295
  -4   0   0 53110.7 1096.12   4-0.16817-0.16817 0.00453-0.00465-0.98696 0.98449
   4   0   0 60047.6 641.796   2 0.16822 0.16823 0.60765-0.60742-0.77473 0.77699
  -4   0   0 62391.2 853.773   5-0.16811-0.16811-0.95856 0.95858-0.23119 0.22895
  -4   0  -1 0.14272 33.6514   5-0.12584-0.21088-0.96527 0.96529-0.22985 0.15292
  -4   0  -1 14.3934 60.5060   4 0.04367-0.38056-0.09929 0.09925-0.99365 0.91649
  -4   0  -2 44468.3 898.099   4 0.22210-0.55954-0.18331 0.18334-0.95579 0.80393
  -4   0  -2 44388.4 742.166   5-0.10061-0.23661-0.96843 0.96843-0.22885 0.07723
  -4   0  -3 32.7036 41.0063   5-0.09200-0.24571-0.96936 0.96935-0.22848 0.00216
  -4   0  -3 4.01233 54.4100   4 0.35496-0.69294-0.24366 0.24376-0.89967 0.67311
   4   0   3-13.4917 18.6640   1 0.57381-0.23575-0.64947 0.64957-0.49444 0.72094
  -4   0  -4 22679.2 543.944   5-0.09953-0.23869-0.96855 0.96853-0.22881-0.07221
  -4   0  -5 11.3182 30.3491   5-0.12283-0.21588-0.96568 0.96566-0.22974-0.14597
   4   0   5-23.6581 54.6798   3 0.66896-0.33004 0.69348-0.69371-0.26234 0.63790
   4   0   6 12496.9 499.177   3 0.68833-0.34890 0.70515-0.70539-0.16435 0.61456
  -4   0  -6 13366.8 428.871   5-0.16185-0.17736-0.95967 0.95964-0.23102-0.21938
  -4   0  -7-12.7679 39.9169   5-0.21701-0.12269-0.94851 0.94847-0.23222-0.29288
   4   0   7 34.3678 61.8357   3 0.69947-0.35954 0.70951-0.70976-0.07839 0.60326
   4   0   8 19711.4 727.713   3 0.70497-0.36453 0.70889-0.70917-0.00142 0.60094
   4   0   9 238.720 124.700   3 0.70633-0.36537 0.70465-0.70494 0.06882 0.60535
   4   0  10 5433.31 439.070   3 0.70445-0.36298 0.69757-0.69787 0.13393 0.61489
   4   0  11-83.2414 82.7338   3 0.69988-0.35790 0.68809-0.68841 0.19510 0.62838
  -4   1  11 19.7922 66.9146   3 0.55572-0.88649 0.50564-0.43329 0.66343 0.15543
  -4  -1  11 158.811 101.445   3 0.51240-0.84311 0.45669-0.52908 0.73049 0.08839
  -4  -1  10 118.691 103.532   3 0.51500-0.84621 0.45960-0.53197 0.72684 0.01740
  -4   1  10 110.033 80.4063   3 0.56141-0.89269 0.51215-0.43979 0.65355 0.09066
  -4   1   9 253.011 93.7578   3 0.56416-0.89595 0.51531-0.44293 0.64866 0.02089
  -4  -1   9 247.963 94.4191   3 0.51391-0.84564 0.45838-0.53073 0.72837-0.05879
  -4  -1   8 35.9602 54.8611   3 0.50816-0.84040 0.45196-0.52430 0.73637-0.14145
  -4   1   8 111.860 65.9707   3 0.56323-0.89553 0.51424-0.44185 0.65032-0.05542
  -4   1   7 45.2250 52.4065   3 0.55731-0.89012 0.50745-0.43504 0.66070-0.14045
  -4  -1   7 51.3484 54.2821   3 0.49622-0.82897 0.43867-0.51099 0.75238-0.23211
  -4   1   6 389.589 96.5805   3 0.54407-0.87739 0.49236-0.41994 0.68282-0.23723
  -4  -1   6 310.889 89.4974   3 0.47564-0.80890 0.41589-0.48820 0.77815-0.33253
  -4   1   5 271.714 77.2600   3 0.51923-0.85306 0.46434-0.39190 0.72078-0.34984
  -4  -1   5 252.619 80.9751   3 0.44254-0.77631 0.37963-0.45192 0.81527-0.44430
  -4  -1   4 235.223 55.9136   5-0.31508-0.01915-0.92067 0.84835-0.23253 0.52906
  -4   1   4 152.084 67.2569   4-0.75262 0.41849 0.32163-0.24964-0.58023 0.87649
  -4   1   4 197.884 61.7096   3 0.47463-0.80898 0.41479-0.34234 0.77935-0.48306
  -4  -1   4 305.311 78.8822   3 0.39097-0.72526 0.32384-0.39612 0.86407-0.56775
  -4  -1   3 314.166 66.3308   5-0.19856-0.13617-0.95259 0.88027-0.23190 0.45374
  -4  -1   3 363.555 85.1597   3 0.31255-0.64734 0.24038-0.31265 0.92101-0.69935
  -4   1   3 517.721 108.348   4-0.66152 0.32685 0.26731-0.19524-0.70567 0.92723
  -4  -1   3 307.631 72.1902   4-0.72761 0.39289 0.30636-0.37912-0.61926 0.84097
  -4   1   3 300.876 66.4319   3 0.39471-0.72957 0.32786-0.25539 0.86087-0.63923
  -4   1   2 355.913 71.3520   3 0.25303-0.58840 0.17797-0.10548 0.95260-0.80561
  -4  -1   2 367.563 72.6644   5-0.10132-0.23390-0.96834 0.89601-0.22888 0.37603
  -4  -1   2 298.247 82.2304   3 0.19821-0.53352 0.12110-0.19335 0.97395-0.82693
   4  -1  -2 381.162 74.5487   2 0.06174 0.27365 0.72778-0.80008-0.68217 0.53492
  -4   1   2 418.987 102.291   4-0.53335 0.19812 0.19522-0.12307-0.82709 0.97396
  -4  -1   2 326.840 72.1397   4-0.60013 0.26486 0.23229-0.30498-0.76997 0.91698
  -4  -1   1 1700.32 194.897   3 0.04539-0.38121-0.03465-0.03758 0.99866-0.92630
  -4   1   1 1623.47 147.068   3 0.02621-0.36209-0.05392 0.12642 0.99837-0.92603
  -4  -1   1 1621.68 141.334   5-0.02396-0.31176-0.97414 0.90179-0.22494 0.29739
  -4   1   1 1416.46 185.709   4-0.36672 0.03095 0.10608-0.03386-0.92702 0.99918
  -4  -1   1 1866.38 174.938   4-0.41271 0.07689 0.13027-0.20288-0.90460 0.97691
   4  -1  -1 1612.14 131.567   2 0.15038 0.18552 0.62973-0.70199-0.76076 0.68825
  -4  -1   0 114.235 50.0656   5 0.03392-0.37013-0.97463 0.90228-0.22112 0.21887
  -4   1   0 59.5198 51.4796   5-0.36975 0.03352-0.90043 0.97284-0.23162 0.22939
  -4   1   0 75.9130 73.8526   4-0.17430-0.16201 0.00760 0.06469-0.98592 0.98338
  -4  -1   0 7.06519 72.0493   4-0.17803-0.15834 0.00947-0.08201-0.98526 0.98288
   4  -1   0 29.7067 31.5204   2 0.27452 0.06188 0.45782-0.53002-0.84354 0.84575
  -4  -1  -1-2.46255 31.5089   5 0.07324-0.40996-0.97310 0.90073-0.21809 0.14115
  -4   1  -1 16.4620 39.8360   5-0.33015-0.00658-0.91544 0.98784-0.23236 0.15543
  -4  -1  -1 40.5269 59.8323   4 0.05841-0.39532-0.10635 0.03389-0.99205 0.91496
  -4   1  -1 28.8517 61.7319   4 0.01768-0.35454-0.08679 0.15916-0.99583 0.91859
   4   1   1 19.7621 16.6231   2 0.27276 0.06424 0.46058-0.38786-0.84262 0.91966
  -4   1  -2 62.4443 42.2442   5-0.30561-0.03161-0.92382 0.99621-0.23260 0.08099
  -4  -1  -2 10.2890 49.7261   4 0.25210-0.58956-0.19711 0.12473-0.94533 0.79354
  -4   1  -2 12.0978 58.7068   4 0.18380-0.52121-0.16555 0.23799-0.96737 0.81544
  -4  -1  -2 55.0062 43.9195   5 0.09516-0.43237-0.97158 0.89921-0.21625 0.06462
  -4  -1  -3 11.0225 40.2152   5 0.10079-0.43850-0.97111 0.89873-0.21576-0.01057
  -4   1  -3 77.2295 40.2165   5-0.29651-0.04121-0.92676 0.99913-0.23265 0.00634
  -4   1  -3 49.6408 60.2523   4 0.31258-0.65054-0.22463 0.29715-0.92038 0.69375
  -4   1  -4 85.5487 48.6295   5-0.30299-0.03523-0.92468 0.99705-0.23262-0.06839
   4  -1   4 83.6409 47.5355   3 0.67393-0.33549 0.69673-0.76931-0.24041 0.54134
  -4  -1  -4 51.5870 44.5449   5 0.09106-0.42927-0.97190 0.89951-0.21660-0.08442
   4  -1   4 80.2261 38.8722   1 0.56664-0.22808-0.68460 0.61222-0.45404 0.75527
  -4  -1  -5 84.7769 45.1797   5 0.06659-0.40530-0.97347 0.90106-0.21863-0.15709
  -4   1  -5 167.730 51.3948   5-0.32509-0.01362-0.91723 0.98958-0.23242-0.14328
   4  -1   5 97.2254 62.3486   3 0.69215-0.35321 0.70699-0.77958-0.13912 0.51469
   4  -1   5 121.947 42.7769   1 0.52084-0.18176-0.80567 0.73327-0.27775 0.65368
   4   1   5 176.830 65.2863   3 0.64166-0.30278 0.67392-0.60178-0.36142 0.73697
  -4  -1  -6 258.175 71.3120   5 0.02760-0.36680-0.97474 0.90233-0.22157-0.22884
  -4   1  -6 305.108 70.8892   5-0.36304 0.02383-0.90310 0.97545-0.23177-0.21862
   4   1   6 213.209 88.0103   3 0.67018-0.33079 0.69429-0.62217-0.25708 0.70728
   4  -1   6 220.555 73.1886   3 0.70169-0.36223 0.70977-0.78238-0.05382 0.50405
  -4  -1  -7 41.1624 54.3606   5-0.02623-0.31347-0.97405 0.90163-0.22508-0.30003
   4   1   7 35.2217 53.3927   3 0.68839-0.34849 0.70518-0.63308-0.16394 0.68879
   4  -1   7-12.8149 44.1928   3 0.70578-0.36581 0.70794-0.78056 0.02063 0.50425
   4   1   8 74.9006 66.9627   3 0.69933-0.35891 0.70948-0.63738-0.07985 0.67936
   4  -1   8 33.8396 69.6421   3 0.70610-0.36562 0.70293-0.77557 0.08754 0.51200
   4   1   9 782.079 168.497   3 0.70490-0.36398 0.70895-0.63687-0.00296 0.67711
   4  -1   9 798.309 159.716   3 0.70358-0.36259 0.69548-0.76814 0.14903 0.52515
   4   1  10 5.59821 62.4710   3 0.70633-0.36490 0.70470-0.63264 0.06825 0.68055
   4  -1  10-64.7800 70.7931   3 0.69872-0.35722 0.68600-0.75867 0.20655 0.54228
   4   1  11-0.48298 68.0581   3 0.70440-0.36245 0.69743-0.62539 0.13495 0.68851
   4  -1  11 242.169 110.332   3 0.69180-0.34979 0.67469-0.74737 0.26108 0.56241
  -4  -2  11 21.2349 68.8860   3 0.48661-0.81729 0.42802-0.57276 0.76469 0.05421
  -4   2  11 91.6192 86.5232   3 0.57323-0.90404 0.52576-0.38105 0.63206 0.18678
  -4  -2  10 9979.34 601.014   3 0.48749-0.81868 0.42899-0.57372 0.76358-0.01933
  -4   2  10 8663.35 522.738   3 0.58023-0.91154 0.53387-0.38915 0.61869 0.12549
  -4  -2   9 103.136 75.5983   3 0.48433-0.81602 0.42549-0.57021 0.76754-0.09794
  -4   2   9 26.7450 58.5909   3 0.58464-0.91647 0.53901-0.39426 0.61000 0.05954
  -4   2   8 15469.5 610.479   3 0.58586-0.91819 0.54042-0.39567 0.60757-0.01268
  -4  -2   8 15787.8 676.684   3 0.47609-0.80830 0.41640-0.56110 0.77761-0.18266
  -4   2   7 536.222 110.932   3 0.58277-0.91562 0.53682-0.39205 0.61372-0.09349
  -4  -2   7 854.905 154.157   3 0.46122-0.79394 0.40005-0.54474 0.79493-0.27464
  -4   2   6 15184.7 522.214   3 0.57329-0.90665 0.52583-0.38104 0.63195-0.18637
  -4  -2   6 15580.0 593.059   3 0.43738-0.77061 0.37401-0.51869 0.82062-0.37498
  -4  -2   5 1555.36 181.761   3 0.40115-0.73489 0.33480-0.47945 0.85522-0.48424
  -4  -2   5 1459.12 126.829   5-0.25877-0.07496-0.93794 0.79325-0.23264 0.60386
  -4   2   5 1600.68 157.790   3 0.55328-0.88715 0.50285-0.35805 0.66757-0.29664
  -4   2   4 29424.0 595.307   3 0.51396-0.84834 0.45844-0.31362 0.72830-0.43202
  -4  -2   4 28580.9 729.145   3 0.34776-0.68201 0.27767-0.42231 0.89778-0.60144
  -4   2   4 30494.6 809.877   4-0.73543 0.40133 0.31110-0.16669-0.60750 0.90369
   4  -2  -4 29658.7 727.386   2 0.05111 0.28322 0.73828-0.88312-0.67175 0.37499
  -4  -2   4 28707.8 562.833   5-0.11795-0.21628-0.96633 0.82163-0.22955 0.52608
  -4  -2   3-15.6487 32.5748   5-0.00177-0.33295-0.97472 0.83001-0.22357 0.44539
  -4  -2   3 82.7076 62.4592   3 0.27134-0.60610 0.19709-0.34172 0.94386-0.72217
   4  -2  -3 13.3270 32.0697   2 0.09527 0.23957 0.69292-0.83770-0.71365 0.49162
  -4  -2   3 44.0180 38.8988   4-0.77637 0.44162 0.33649-0.48167-0.53876 0.76054
  -4   2   3-2.51165 54.5537   4-0.64438 0.30973 0.25743-0.11294-0.72494 0.94643
  -4   2   3 96.8926 43.4924   3 0.43536-0.77025 0.37181-0.22698 0.82268-0.60106
   4  -2  -2 22497.5 558.867   2 0.15809 0.17726 0.62029-0.76503-0.76687 0.61958
  -4   2   2 22089.4 434.045   3 0.27256-0.60796 0.19837-0.05352 0.94324-0.79627
  -4  -2   2 23371.4 683.224   3 0.16680-0.50207 0.08877-0.23338 0.98308-0.83605
  -4   2   2 20548.6 666.657   4-0.52145 0.18625 0.18870-0.04415-0.83610 0.98289
  -4  -2   2 21620.4 479.240   4-0.66040 0.32510 0.26666-0.41176-0.70696 0.85404
  -4  -2   2 21588.9 507.642   5 0.09076-0.42598-0.97192 0.82721-0.21663 0.36376
  -4  -2   1 29.8749 33.4541   5 0.16137-0.49708-0.96409 0.81936-0.21003 0.28247
  -4  -2   1 37.2944 68.6960   3 0.03430-0.37009-0.04580-0.09880 0.99858-0.92620
  -4   2   1 65.9941 73.3189   4-0.36710 0.03136 0.10628 0.03836-0.92684 0.99894
  -4  -2   1-9.89981 42.7438   4-0.46997 0.13413 0.16081-0.30584-0.87145 0.94384
   4  -2  -1 28.5335 42.3821   2 0.24215 0.09370 0.50697-0.65166-0.82537 0.75281
  -4   2   0 40253.0 1013.10   4-0.19216-0.14412 0.01657 0.12814-0.98262 0.98001
  -4  -2   0 41875.6 821.374   4-0.21053-0.12587 0.02583-0.17078-0.97878 0.97647
  -4  -2   0 39700.3 728.913   5 0.21206-0.54827-0.95534 0.81061-0.20458 0.20232
  -4  -2  -1 1825.71 174.345   4 0.05780-0.39474-0.10606-0.03881-0.99212 0.91511
  -4   2  -1 2062.39 230.471   4-0.01683-0.32000-0.07009 0.21487-0.99742 0.92012
   4   2   1 1825.81 76.7335   1 0.58287-0.24580-0.57683 0.72189-0.56783 0.64489
  -4  -2  -1 2143.09 175.886   5 0.24480-0.58151-0.94826 0.80352-0.20073 0.12378
  -4  -2  -2 24724.3 621.217   4 0.27169-0.60917-0.20607 0.06127-0.93782 0.78611
  -4   2  -2 25324.4 729.855   4 0.13880-0.47618-0.14448 0.28934-0.97853 0.82653
  -4  -2  -2 25725.8 602.147   5 0.26137-0.59857-0.94425 0.79949-0.19868 0.04704
   4  -2   2 25588.9 435.186   3 0.66070-0.32326 0.68782-0.83273-0.29555 0.44719
  -4   2  -3 1143.53 162.907   4 0.26396-0.60189-0.20254 0.34747-0.94085 0.71415
  -4  -2  -3 1001.72 127.327   5 0.26317-0.60088-0.94379 0.79903-0.19846-0.02788
   4  -2   3 1131.02 109.048   3 0.68833-0.35037 0.70515-0.85008-0.16434 0.39063
   4  -2   4 24572.9 551.007   3 0.70039-0.36193 0.70966-0.85460-0.06876 0.36970
  -4   2  -4 24656.0 749.079   4 0.35799-0.69646-0.24501 0.39002-0.89808 0.59668
   4  -2   4 24557.7 548.676   1 0.58237-0.24385-0.58294 0.43808-0.56213 0.86336
  -4  -2  -4 23708.2 598.532   5 0.25126-0.58947-0.94673 0.80196-0.19994-0.10109
  -4  -2  -5 16.8272 36.0870   5 0.22628-0.56498-0.95241 0.80762-0.20294-0.17279
   4  -2   5 37.3471 37.3187   1 0.55778-0.21873-0.71784 0.57298-0.41217 0.78812
   4  -2   5 49.4953 46.7561   3 0.70535-0.36637 0.70854-0.85350 0.00775 0.36784
   4  -2   6 14268.9 465.687   1 0.52000-0.18042-0.80713 0.66226-0.27510 0.72576
   4   2   6 13950.5 568.696   3 0.65047-0.31111 0.68048-0.53599-0.33249 0.78267
  -4  -2  -6 14489.4 479.800   5 0.18844-0.52763-0.95975 0.81496-0.20719-0.24323
   4  -2   6 13578.6 498.927   3 0.70630-0.36681 0.70428-0.84925 0.07318 0.37706
  -4  -2  -7 337.535 80.0565   5 0.13744-0.47714-0.96730 0.82250-0.21239-0.31272
   4   2   7 355.512 108.184   3 0.67493-0.33506 0.69737-0.55290-0.23577 0.76061
   4  -2   7 193.178 83.4584   3 0.70457-0.36457 0.69786-0.84285 0.13172 0.39318
   4   2   8 12877.0 611.189   3 0.69097-0.35059 0.70645-0.56199-0.14726 0.74675
   4  -2   8 12282.3 551.549   3 0.70076-0.36025 0.68972-0.83473 0.18570 0.41385
   4   2   9 433.243 138.138   3 0.70067-0.35978 0.70970-0.56525-0.06570 0.73984
   4  -2   9 448.725 118.652   3 0.69520-0.35418 0.68006-0.82508 0.23654 0.43766
   4   2  10 7728.24 535.692   3 0.70544-0.36403 0.70844-0.56401 0.01012 0.73868
   4  -2  10 7523.66 498.751   3 0.68802-0.34649 0.66896-0.81400 0.28512 0.46373
   4  -2  11 434.738 135.228   3 0.67928-0.33724 0.65643-0.80148 0.33204 0.49146
  -4   3  11 207.965 94.1378   3 0.58803-0.91886 0.54296-0.32588 0.60318 0.21564
   4  -3 -10-201.048 101.530   2 0.05031 0.28096 0.73907-0.95663-0.67095-0.07425
  -4   3  10 44.2305 65.2895   3 0.59616-0.92750 0.55249-0.33540 0.58624 0.15793
  -4  -3  10 110.252 95.8197   3 0.45724-0.78840 0.39569-0.61279 0.79939-0.05513
   4  -3  -9 58.4986 67.0178   2 0.04805 0.28373 0.74127-0.95878-0.66870-0.00177
  -4   3   9 182.877 86.0269   3 0.60200-0.93386 0.55938-0.34228 0.57354 0.09598
  -4  -3   9 79.2049 80.5329   3 0.45199-0.78365 0.38994-0.60702 0.80518-0.13557
   4  -3  -8-4.70397 58.6084   2 0.05038 0.28189 0.73900-0.95646-0.67102 0.07528
  -4   3   8 75.7328 60.3785   3 0.60510-0.93747 0.56305-0.34593 0.56662 0.02825
  -4  -3   8 133.416 79.5385   3 0.44132-0.77349 0.37830-0.59537 0.81655-0.22159
   4  -3  -7 72.8215 63.2011   2 0.05829 0.27449 0.73122-0.94863-0.67881 0.15780
  -4   3   7 108.774 60.3690   3 0.60456-0.93744 0.56241-0.34528 0.56783-0.04761
  -4  -3   7 25.0336 63.7419   3 0.42372-0.75641 0.35918-0.57623 0.83426-0.31396
   4  -3  -6 34.7892 37.3785   2 0.07306 0.26022 0.71630-0.93366-0.69303 0.24676
  -4   3   6-4.19615 42.9616   3 0.59863-0.93202 0.55540-0.33824 0.58093-0.13537
  -4  -3   6-39.4419 54.5535   3 0.39706-0.73025 0.33038-0.54742 0.85883-0.41317
  -4  -3   5-15.1147 49.5674   3 0.35841-0.69211 0.28900-0.50602 0.89003-0.51903
  -4  -3   5 4.33698 29.2207   5-0.06823-0.26550-0.97154 0.75448-0.22736 0.59857
   4  -3  -5 90.8407 69.2668   2 0.09635 0.23744 0.69175-0.90906-0.71463 0.34309
  -4   3   5-13.2915 32.3441   3 0.58356-0.91746 0.53774-0.32057 0.61216-0.24125
  -4  -3   4 1084.56 160.367   3 0.30408-0.63829 0.23145-0.44846 0.92608-0.62973
  -4   3   4 1235.62 120.736   3 0.55050-0.88492 0.49969-0.28250 0.67224-0.37598
   4  -3  -4 1211.83 160.609   2 0.13029 0.20400 0.65364-0.87090-0.74427 0.44746
  -4   3   4 1036.34 163.727   4-0.72511 0.39103 0.30484-0.08802-0.62296 0.91907
  -4  -3   4 995.427 114.626   5 0.06541-0.39963-0.97353 0.75645-0.21872 0.51523
  -4  -3   3 182.177 63.2011   5 0.17099-0.50571-0.96263 0.74554-0.20904 0.43086
   4  -3  -3 97.6506 60.6389   2 0.17668 0.15810 0.59688-0.81410-0.78113 0.55905
  -4  -3   3 177.018 84.5168   3 0.23011-0.56484 0.15412-0.37111 0.96239-0.74069
  -4   3   3 118.021 64.2569   4-0.63647 0.30185 0.25290-0.03600-0.73347 0.95489
  -4   3   3 202.391 43.6059   3 0.47525-0.81017 0.41546-0.19827 0.77862-0.55701
  -4  -3   2 223.167 69.8897   5 0.25210-0.58732-0.94653 0.72943-0.19984 0.34696
  -4   3   2 235.438 44.4269   3 0.27933-0.61476 0.20545 0.01176 0.93978-0.79282
  -4  -3   2 229.301 94.8945   3 0.13383-0.46907 0.05500-0.27198 0.99036-0.84331
  -4   3   2 205.946 86.6856   4-0.52043 0.18526 0.18815 0.02882-0.83685 0.98357
  -4  -3   2 237.308 52.1659   4-0.74003 0.40471 0.31390-0.53142-0.60040 0.74755
   4  -3  -2 226.284 72.9275   2 0.23730 0.09799 0.51406-0.73122-0.82243 0.67508
  -4  -3   1 131.593 53.4319   5 0.31201-0.64772-0.93009 0.71298-0.19200 0.26443
   4  -3  -1 92.5275 16.1055   3 0.70540-0.36946 0.70848-0.92571 0.00915-0.08145
  -4  -3   1 68.8849 76.0193   3 0.01659-0.35234-0.06357-0.15339 0.99794-0.92555
  -4   3   1 158.893 87.1887   4-0.37824 0.04253 0.11211 0.10493-0.92173 0.99375
  -4  -3   1 120.952 41.5512   4-0.56087 0.22500 0.21039-0.42783-0.80497 0.87742
   4  -3  -1 177.286 61.6571   2 0.31155 0.02425 0.39728-0.61440-0.86092 0.78831
  -4   3   0 2304.15 254.032   4-0.21885-0.11741 0.03004 0.18709-0.97690 0.97422
  -4  -3   0 2282.91 170.040   4-0.27690-0.05952 0.05959-0.27695-0.96110 0.95886
  -4  -3   0 2194.88 184.712   5 0.35355-0.68976-0.91630 0.69919-0.18601 0.18375
  -4  -3  -1 1441.37 148.237   4 0.03515-0.37212-0.09520-0.12209-0.99446 0.91751
  -4   3  -1 1278.61 188.173   4-0.05795-0.27886-0.05004 0.26724-0.99741 0.92003
  -4  -3  -1 1324.50 143.686   5 0.37908-0.71578-0.90681 0.68968-0.18211 0.10515
   4  -3   1 1223.98 67.8148   3 0.70498-0.36801 0.70889-0.92615-0.00135 0.07835
  -4  -3  -2 546.309 102.835   5 0.39045-0.72765-0.90232 0.68519-0.18031 0.02865
  -4  -3  -2 682.372 107.026   4 0.27779-0.61530-0.20885-0.00837-0.93537 0.78373
  -4   3  -2 580.858 124.640   4 0.08831-0.42567-0.12061 0.33789-0.98797 0.83589
   4  -3   2 699.943 70.4146   3 0.70631-0.36883 0.70617-0.92344 0.04953 0.10212
  -4  -3  -3 69.4403 50.3526   5 0.38903-0.72673-0.90289 0.68575-0.18053-0.04581
   4  -3   3 98.9144 42.2053   3 0.70599-0.36800 0.70240-0.91969 0.09283 0.13347
  -4   3  -3 94.1285 61.0582   4 0.20995-0.54785-0.17769 0.39504-0.95968 0.73290
  -4   3  -4 1387.98 189.370   4 0.30467-0.64312-0.22106 0.43848-0.92395 0.62247
  -4  -3  -4 1380.97 156.349   5 0.37577-0.71396-0.90808 0.69093-0.18262-0.11842
   4  -3   4 1492.27 136.680   3 0.70446-0.36596 0.69759-0.91490 0.13376 0.16720
  -4  -3  -5 86.2759 52.9221   5 0.35118-0.68987-0.91714 0.69998-0.18637-0.18937
   4  -3   5 45.8510 47.3938   1 0.57341-0.23438-0.65176 0.43443-0.49192 0.86788
  -4   3  -5 41.5456 64.3788   4 0.37518-0.71417-0.25266 0.47015-0.88879 0.51262
   4  -3   5 13.7751 40.4254   3 0.70180-0.36279 0.69173-0.90905 0.17365 0.20196
  -4  -3  -6 358.168 96.5058   5 0.31538-0.65457-0.92905 0.71188-0.19153-0.25890
   4  -3   6 270.400 88.5539   1 0.54716-0.20761-0.74928 0.53193-0.36864 0.81931
   4  -3   6 331.454 86.8470   3 0.69802-0.35850 0.68478-0.90212 0.21300 0.23725
  -4  -3  -7 564.063 104.279   5 0.26808-0.60776-0.94253 0.72535-0.19783-0.32729
   4   3   7 561.219 134.119   3 0.66099-0.32115 0.68802-0.47119-0.29447 0.81929
   4  -3   7 399.839 101.821   3 0.69311-0.35308 0.67672-0.89408 0.25204 0.27287
   4  -3   7 621.487 123.564   1 0.51282-0.17274-0.81895 0.60159-0.25313 0.77850
   4   3   8 187.055 99.2337   3 0.68141-0.34107 0.70134-0.48452-0.20373 0.80321
   4  -3   8 154.435 73.6599   3 0.68704-0.34650 0.66752-0.88489 0.29089 0.30867
   4   3   9-2.42978 92.2327   3 0.69484-0.35398 0.70811-0.49130-0.11925 0.79338
   4  -3   9 153.337 88.1659   3 0.67978-0.33873 0.65712-0.87451 0.32961 0.34461
   4   3  10 238.024 122.565   3 0.70273-0.36136 0.70973-0.49294-0.04021 0.78898
   4  -3  10 214.646 90.9980   3 0.67128-0.32972 0.64548-0.86288 0.36825 0.38062
   4  -3  11 159.097 87.2009   3 0.66148-0.31940 0.63254-0.84996 0.40683 0.41668
  -4  -4  10 8830.59 600.603   3 0.42439-0.75551 0.35990-0.64936 0.83362-0.08934
   4  -4 -10 9978.57 627.730   2 0.10396 0.22726 0.68345-0.97344-0.72146-0.02379
   4  -4  -9 890.895 178.942   2 0.10477 0.22695 0.68255-0.97250-0.72219 0.05167
  -4   4   9 638.259 133.351   3 0.61629-0.94818 0.57641-0.28694 0.54039 0.12912
  -4  -4   9 925.142 199.602   3 0.41708-0.74871 0.35199-0.64144 0.84063-0.17100
  -4  -4   8 8312.10 529.174   3 0.40412-0.73626 0.33799-0.62742 0.85258-0.25761
   4  -4  -8 7982.45 513.004   2 0.11038 0.22184 0.67633-0.96622-0.72715 0.13136
  -4   4   8 8625.91 447.731   3 0.62097-0.95337 0.58204-0.29255 0.52882 0.06603
   4  -4  -7 942.151 170.296   2 0.12166 0.21106 0.66358-0.95343-0.73695 0.21589
  -4   4   7 672.485 117.928   3 0.62260-0.95551 0.58401-0.29451 0.52468-0.00447
  -4  -4   7 814.253 166.405   3 0.38407-0.71672 0.31643-0.60585 0.86987-0.34955
  -4  -4   6 13326.8 607.822   3 0.35505-0.68821 0.28542-0.57482 0.89251-0.44684
   4  -4  -6 12090.7 562.859   2 0.13977 0.19346 0.64248-0.93227-0.75216 0.30583
  -4   4   6 12255.8 447.039   3 0.61981-0.95323 0.58064-0.29112 0.53173-0.08618
  -4  -4   5 1255.59 183.165   3 0.31465-0.64832 0.24260-0.53198 0.91973-0.54871
   4  -4  -5 1239.04 177.391   2 0.16580 0.16793 0.61069-0.90044-0.77287 0.40128
  -4   4   5 1338.65 202.079   4-0.78439 0.45088 0.34159-0.05243-0.52362 0.89436
  -4  -4   5 1313.99 132.273   5 0.09887-0.43259-0.97128 0.68183-0.21593 0.58713
  -4   4   5 1347.97 136.094   3 0.60942-0.94336 0.56819-0.27866 0.55672-0.18582
  -4   4   4 22088.6 471.782   3 0.58319-0.91763 0.53731-0.24776 0.61289-0.31664
  -4  -4   4 21822.8 732.070   3 0.26011-0.59429 0.18535-0.47472 0.94932-0.65295
  -4   4   4 17387.0 675.084   4-0.72113 0.38709 0.30245-0.01321-0.62872 0.92477
   4  -4  -4 20765.4 672.505   2 0.20105 0.13318 0.56482-0.85451-0.79871 0.50185
  -4  -4   4 21543.8 546.270   5 0.21702-0.55123-0.95434 0.66488-0.20401 0.50052
  -4   4   3 2232.84 123.028   3 0.51358-0.84854 0.45802-0.16845 0.72883-0.50724
  -4  -4   3 2483.04 253.634   3 0.18886-0.52356 0.11146-0.40081 0.97690-0.75518
  -4   4   3 2414.68 251.657   4-0.63649 0.30189 0.25291 0.03641-0.73345 0.95480
   4  -4  -3 2499.20 230.046   2 0.24618 0.08856 0.50103-0.79068-0.82777 0.60565
  -4  -4   3 2229.62 183.764   5 0.30776-0.64248-0.93139 0.64192-0.19258 0.41439
  -4   4   2 12755.7 215.657   3 0.24647-0.58194 0.17114 0.11844 0.95553-0.80859
  -4  -4   2 12903.1 595.661   3 0.09970-0.43491 0.02026-0.30960 0.99547-0.84840
  -4  -4   2 13744.3 456.068   5 0.37586-0.71107-0.90805 0.61857-0.18261 0.32972
  -4   4   2 13815.8 581.949   4-0.52819 0.19305 0.19239 0.09699-0.83103 0.97768
   4  -4  -2 13712.9 509.576   2 0.30146 0.03379 0.41426-0.70386-0.85656 0.70917
  -4  -4   1 3752.36 244.980   5 0.42504-0.76075-0.88767 0.59818-0.17460 0.24702
  -4   4   1 3955.85 313.537   4-0.39772 0.06203 0.12236 0.16711-0.91230 0.98425
  -4  -4   1 3901.96 156.016   4-0.69560 0.35970 0.28723-0.57709-0.66376 0.73629
  -4  -4   0 29308.8 689.380   5 0.45823-0.79444-0.87212 0.58262-0.16878 0.16651
  -4   4   0 30706.7 894.164   4-0.25230-0.08394 0.04702 0.24252-0.96837 0.96562
  -4  -4   0 31321.5 475.047   4-0.39892 0.06248 0.12299-0.41277-0.91170 0.90953
  -4  -4  -1 554.727 111.228   5 0.47768-0.81438-0.86230 0.57280-0.16521 0.08824
  -4  -4  -1 736.458 100.080   4-0.02206-0.31493-0.06755-0.22215-0.99754 0.92067
  -4   4  -1 382.196 112.883   4-0.10423-0.23255-0.02727 0.31689-0.99489 0.91744
  -4  -4  -2 20435.8 507.042   4 0.26554-0.60308-0.20326-0.08637-0.94024 0.78867
  -4   4  -2 19812.1 708.261   4 0.03335-0.37068-0.09434 0.38403-0.99461 0.84247
  -4  -4  -2 19892.5 605.646   5 0.48505-0.82224-0.85844 0.56893-0.16383 0.01216
   4  -4   2 20965.9 331.478   3 0.64277-0.30526 0.60876-0.89840 0.46893-0.31726
  -4   4  -3 678.353 136.140   4 0.15131-0.48918-0.15036 0.44012-0.97569 0.74884
  -4  -4  -3 383.947 98.3809   5 0.48150-0.81920-0.86031 0.57078-0.16449-0.06186
   4  -4   3 666.919 79.5956   3 0.66853-0.33051 0.64180-0.93146 0.37964-0.15332
  -4   4  -4 22430.8 759.902   4 0.24628-0.58470-0.19444 0.48428-0.94745 0.64591
  -4  -4  -4 23976.9 685.286   5 0.46780-0.80599-0.86736 0.57782-0.16704-0.13401
   4  -4   4 25519.0 545.129   3 0.67505-0.33652 0.65059-0.94026 0.35181-0.05084
  -4  -4  -5 855.093 134.464   5 0.44430-0.78299-0.87883 0.58929-0.17126-0.20448
   4  -4   5 1016.17 151.175   1 0.58006-0.24107-0.60611 0.31630-0.53973 0.91571
  -4   4  -5 1167.30 192.492   4 0.31931-0.65828-0.22767 0.51758-0.91728 0.54103
   4  -4   5 1064.91 132.262   3 0.67563-0.33659 0.65138-0.94107 0.34920 0.02642
  -4   4  -6 15596.9 690.329   4 0.37353-0.71305-0.25193 0.54192-0.88970 0.43876
  -4  -4  -6 15976.3 572.114   5 0.41104-0.75022-0.89379 0.60424-0.17695-0.27349
   4  -4   6 17077.5 555.429   3 0.67331-0.33376 0.64822-0.93793 0.35952 0.09075
   4  -4   6 15627.8 584.591   1 0.56180-0.22227-0.70379 0.41398-0.43035 0.88103
   4  -4   7 1368.93 181.259   1 0.53472-0.19467-0.77887 0.48904-0.32334 0.84873
   4   4   7 1475.26 217.451   3 0.64793-0.30812 0.67860-0.38940-0.34108 0.86589
  -4  -4  -7 1548.14 183.218   5 0.36769-0.70737-0.91114 0.62158-0.18387-0.34126
   4  -4   7 1341.33 178.779   3 0.66908-0.32901 0.64254-0.93225 0.37740 0.14753
   4   4   8 5415.23 427.039   3 0.67185-0.33153 0.69539-0.40620-0.24979 0.84924
   4  -4   8 5516.67 373.219   3 0.66330-0.32272 0.63491-0.92464 0.40006 0.19951
   4   4   9 970.017 191.330   3 0.68842-0.34759 0.70520-0.41602-0.16380 0.83791
   4  -4   9 1074.11 179.752   3 0.65611-0.31502 0.62561-0.91536 0.42597 0.24826
   4   4  10 6522.90 515.363   3 0.69904-0.35770 0.70941-0.42026-0.08270 0.83146
   4  -4  10 5941.95 440.243   3 0.64756-0.30596 0.61476-0.90452 0.45417 0.29471
   4  -4  11 354.599 119.615   3 0.63763-0.29552 0.60237-0.89215 0.48406 0.33947
   4  -5 -10 35.3177 76.1870   2 0.15688 0.17429 0.62178-0.98420-0.76593 0.02063
  -4  -5   9-7.67271 69.4434   3 0.37982-0.71142 0.31188-0.67369 0.87336-0.20372
   4  -5  -9 9.03248 63.0379   2 0.16018 0.17149 0.61770-0.98008-0.76851 0.09795
  -4  -5   8 220.390 106.819   3 0.36475-0.69686 0.29577-0.65757 0.88524-0.29025
   4  -5  -8 68.4403 78.1051   2 0.16821 0.16397 0.60767-0.96999-0.77472 0.17889
  -4  -5   7 262.120 125.905   3 0.34258-0.67520 0.27217-0.63395 0.90142-0.38109
   4  -5  -7 120.742 82.6120   2 0.18183 0.15085 0.59025-0.95252-0.78494 0.26384
   4  -5  -7 198.406 88.5050   5 0.99309-0.66032 0.08561-0.44760 0.08675-0.60741
  -4  -5   6 91.6387 84.8734   3 0.31168-0.64481 0.23947-0.60123 0.92154-0.47586
   4  -5  -6 35.5338 72.9633   2 0.20172 0.13147 0.56392-0.92615-0.79916 0.35280
   4  -5  -5 249.531 85.2239   2 0.22840 0.10529 0.52688-0.88906-0.81688 0.44524
  -4  -5   5 254.297 67.3367   5 0.23145-0.56516-0.95129 0.58946-0.20233 0.57352
  -4  -5   5 310.744 117.261   3 0.27014-0.60379 0.19584-0.55759 0.94445-0.57342
  -4   5   5 238.675 97.2729   4-0.78347 0.45000 0.34101 0.02057-0.52538 0.89604
  -4  -5   4 2.97721 37.4559   5 0.33246-0.66667-0.92355 0.56172-0.18911 0.48561
  -4  -5   4-74.1493 68.0261   3 0.21597-0.55012 0.13946-0.50120 0.96780-0.67142
  -4   5   4 32.9001 72.9447   4-0.72282 0.38880 0.30347 0.05818-0.62628 0.92225
   4  -5  -4 135.291 82.5986   2 0.26276 0.07143 0.47606-0.83819-0.83724 0.54034
  -4  -5   3 7.01706 42.1176   5 0.40886-0.74357-0.89471 0.53287-0.17731 0.39911
  -4  -5   3 165.472 104.795   3 0.14758-0.48224 0.06906-0.43078 0.98760-0.76588
  -4   5   3 79.6519 66.6036   4-0.64319 0.30862 0.25674 0.10498-0.72624 0.94751
   4  -5  -3 36.2780 62.2894   2 0.30475 0.02994 0.40876-0.77084-0.85802 0.63585
  -4  -5   2 103.463 66.0612   5 0.46544-0.80064-0.86855 0.50669-0.16747 0.31458
  -4  -5   2 2.49503 66.5735   3 0.06467-0.39985-0.01521-0.34650 0.99821-0.85114
  -4   5   2 159.822 79.8742   4-0.54301 0.20789 0.20053 0.16128-0.81954 0.96611
  -4   5   1 24.9671 54.7279   4-0.42369 0.08803 0.13609 0.22579-0.89872 0.97059
  -4  -5   1 72.0441 52.3577   5 0.50572-0.84142-0.84718 0.48531-0.15984 0.23225
  -4   5   0 1199.14 188.238   4-0.29099-0.04522 0.06682 0.29513-0.95655 0.95373
  -4  -5   0 979.301 60.4739   4-0.63377 0.29730 0.25136-0.61355-0.73633 0.73423
  -4  -5   0 1186.89 117.889   1 0.51488-0.85151-0.81567 0.45319-0.25934 0.25704
  -4  -5   0 1143.12 157.163   5 0.53236-0.86855-0.83170 0.46982-0.15449 0.15221
  -4  -5  -1 29.5688 51.9229   5 0.54730-0.88399-0.82252 0.46063-0.15137 0.07439
  -4  -5  -1 21.2815 27.5049   4-0.14362-0.19340-0.00773-0.35439-0.99062 0.91382
  -4   5  -1 71.2476 76.2499   4-0.15461-0.18215-0.00225 0.36428-0.98908 0.91155
  -4  -5  -1 43.1476 35.0534   1 0.53609-0.87325-0.77590 0.41343-0.32811 0.25109
  -4  -5  -2 16.0404 44.2041   5 0.55194-0.88913-0.81959 0.45769-0.15038-0.00129
  -4  -5  -2 41.3691 30.8852   1 0.55800-0.89568-0.71711 0.35466-0.41313 0.26141
  -4  -5  -2 60.9133 47.8676   4 0.22591-0.56347-0.18507-0.17698-0.95453 0.80303
  -4   5  -2 115.672 82.3704   4-0.02528-0.31202-0.06598 0.42809-0.99759 0.84537
  -4  -5  -3 98.2717 66.5967   5 0.54723-0.88491-0.82256 0.46066-0.15139-0.07498
  -4   5  -3 147.640 86.6503   4 0.08871-0.42656-0.12080 0.48298-0.98790 0.76098
   4  -5   3 169.074 45.0261   3 0.56600-0.22795 0.51743-0.87945 0.64535-0.41901
  -4  -5  -4 68.5408 54.8245   5 0.53372-0.87191-0.83087 0.46896-0.15421-0.14685
  -4   5  -4 65.7356 69.9777   4 0.18335-0.52175-0.16534 0.52759-0.96750 0.66588
   4  -5   4 72.2821 47.0940   3 0.60721-0.26864 0.56556-0.92759 0.56183-0.26084
  -4  -5  -5 22.5187 55.7820   5 0.51168-0.85036-0.84381 0.48189-0.15867-0.21709
   4  -5   5 79.5678 54.6224   1 0.58289-0.24392-0.57663 0.21436-0.56802 0.94401
  -4   5  -5 136.446 87.3536   4 0.25840-0.59734-0.20000 0.56232-0.94297 0.56666
   4  -5   5 162.360 55.1786   3 0.62385-0.28477 0.58552-0.94758 0.52148-0.14585
  -4  -5  -6 101.759 68.0309   5 0.48105-0.82023-0.86054 0.49861-0.16458-0.28587
  -4   5  -6 57.2280 72.1992   4 0.31580-0.65529-0.22608 0.58848-0.91891 0.46789
   4  -5   6 22.0626 41.7324   3 0.63016-0.29057 0.59320-0.95527 0.50486-0.05457
   4  -5   6 57.8719 68.3897   1 0.56975-0.23025-0.67062 0.30833-0.47057 0.92126
  -4  -5  -7 220.148 88.2709   5 0.44150-0.78118-0.88014 0.51820-0.17176-0.35339
  -4   5  -7 213.688 115.497   4 0.35829-0.69832-0.24514 0.60762-0.89793 0.37221
   4  -5   7 346.693 92.3801   3 0.63101-0.29091 0.59423-0.95632 0.50257 0.02237
   4  -5   7 284.184 108.211   1 0.54814-0.20812-0.74667 0.38437-0.37241 0.89782
  -4  -5  -8 234.244 84.5931   5 0.39238-0.73255-0.90155 0.53960-0.18000-0.41984
   4   5   8 283.599 111.233   3 0.66313-0.32284 0.68951-0.32796-0.28615 0.88560
   4  -5   8 263.308 98.1306   1 0.52034-0.17979-0.80654 0.44423-0.27617 0.87628
   4  -5   8 230.078 84.5558   3 0.62840-0.28779 0.59106-0.95315 0.50957 0.09002
   4   5   9 159.378 107.017   3 0.68217-0.34137 0.70178-0.34024-0.19974 0.87384
   4  -5   9 1.72916 61.9027   3 0.62328-0.28217 0.58484-0.94695 0.52294 0.15131
   4  -5  10 89.5913 70.4900   3 0.61611-0.27448 0.57619-0.93832 0.54084 0.20806
   4  -6  -9 1377.09 243.003   2 0.21299 0.11863 0.54852-0.98333-0.80684 0.13623
  -4  -6   9 1722.80 276.954   3 0.34041-0.67197 0.26986-0.70404 0.90293-0.23327
  -4  -6   8 8720.29 586.962   3 0.32348-0.65556 0.25193-0.68609 0.91418-0.31918
   4  -6  -8 8756.09 571.080   2 0.22266 0.10947 0.53502-0.96978-0.81320 0.21732
  -4  -6   7 3206.30 348.109   3 0.29954-0.63212 0.22667-0.66082 0.92872-0.40837
   4  -6  -7 3135.39 308.579   5 0.99748-0.66470 0.02477-0.45914 0.07312-0.59380
   4  -6  -7 2794.91 317.893   2 0.23747 0.09516 0.51381-0.94852-0.82253 0.30138
  -4  -6   6 13537.9 688.146   3 0.26723-0.60033 0.19279-0.62692 0.94589-0.50019
   4  -6  -6 13448.0 664.774   2 0.25779 0.07534 0.48364-0.91830-0.83447 0.38806
   4  -6  -6 13543.8 624.934   5 0.99162-0.65835 0.09887-0.53323 0.08968-0.53566
  -4  -6   5 2126.23 268.944   3 0.22508-0.55869 0.14891-0.58302 0.96437-0.59332
  -4  -6   5 1753.32 175.907   5 0.33006-0.66377-0.92435 0.49014-0.18945 0.56064
  -4   6   5 1927.56 249.149   4-0.78655 0.45309 0.34298 0.09101-0.51942 0.89002
   4  -6  -5 1911.44 240.449   2 0.28401 0.04962 0.44275-0.87737-0.84835 0.47667
  -4  -6   4 15291.8 717.460   3 0.17171-0.50583 0.09381-0.52791 0.98180-0.68540
  -4   6   4 14143.6 639.467   4-0.72941 0.39541 0.30744 0.12662-0.61660 0.91250
   4  -6  -4 15378.5 652.211   2 0.31622 0.01792 0.38928-0.82385-0.86283 0.56588
  -4  -6   4 15497.5 526.883   5 0.41594-0.75015-0.89167 0.45745-0.17613 0.47262
  -4  -6   3 2712.01 310.357   3 0.10624-0.44087 0.02690-0.46099 0.99467-0.77293
  -4   6   3 3273.22 302.688   4-0.65543 0.32089 0.26379 0.17036-0.71264 0.93384
  -4  -6   3 3136.67 246.176   5 0.48046-0.81516-0.86085 0.42662-0.16469 0.38648
  -4  -6   2 12668.2 648.506   3 0.02892-0.36406-0.05121-0.38286 0.99845-0.85136
  -4   6   2 13367.8 579.417   4-0.56348 0.22839 0.21183 0.22239-0.80277 0.94927
  -4  -6   2 13325.8 518.876   5 0.52792-0.86312-0.83435 0.40011-0.15540 0.30249
  -4  -6   1 3559.94 276.452   5 0.56144-0.89713-0.81348 0.37924-0.14834 0.22074
  -4   6   1 2948.94 271.185   4-0.45475 0.11911 0.15265 0.28165-0.88087 0.95267
  -4  -6   0 9605.14 458.323   5 0.58328-0.91947-0.79885 0.36459-0.14351 0.14122
  -4   6   0 8808.87 483.344   4-0.33379-0.00240 0.08892 0.34545-0.94094 0.93804
  -4  -6   0 9517.46 357.704   1 0.54047-0.87713-0.76598 0.33103-0.34365 0.34135
  -4  -6  -1 854.466 144.070   5 0.59508-0.93177-0.79058 0.35632-0.14081 0.06383
  -4   6  -1 838.062 163.739   4-0.20823-0.12850 0.02467 0.40977-0.97929 0.90169
  -4  -6  -1 965.458 112.500   1 0.55851-0.89570-0.71539 0.28045-0.41540 0.33840
  -4   6  -2 14081.1 654.047   4-0.08691-0.25036-0.03582 0.47033-0.99615 0.84385
  -4  -6  -2 14962.0 593.663   5 0.59798-0.93517-0.78851 0.35423-0.14014-0.01154
  -4   6  -3 2001.29 249.977   4 0.02275-0.36057-0.08923 0.52383-0.99547 0.76847
  -4  -6  -3 2133.49 232.494   5 0.59275-0.93043-0.79224 0.35795-0.14135-0.08502
  -4   6  -4 10226.2 552.289   4 0.11641-0.45478-0.13393 0.56860-0.98311 0.68142
  -4  -6  -4 10372.3 514.131   5 0.57980-0.91798-0.80124 0.36695-0.14429-0.15678
  -4   6  -5 3174.76 324.076   4 0.19285-0.53177-0.16976 0.60450-0.96481 0.58842
   4  -6   5 3046.30 311.479   1 0.58406-0.24512-0.55947 0.12473-0.58365 0.95965
  -4  -6  -5 3301.63 301.536   5 0.55930-0.89798-0.81487 0.38057-0.14880-0.22696
   4  -6   6 10878.8 590.467   1 0.57405-0.23459-0.64810 0.21335-0.49595 0.94666
  -4   6  -6 11775.6 637.794   4 0.25298-0.59244-0.19751 0.63233-0.94500 0.49391
  -4  -6  -6 10957.6 547.875   5 0.53115-0.87033-0.83242 0.39811-0.15473-0.29572
  -4  -6  -7 1560.93 217.048   5 0.49502-0.83469-0.85308 0.41876-0.16192-0.36323
   4  -6   7 1212.66 204.218   1 0.55633-0.21635-0.72257 0.28780-0.40589 0.93131
  -4   6  -7 1725.53 264.304   4 0.29875-0.63876-0.21838 0.65327-0.92655 0.40077
  -4   6  -8 6621.09 527.938   4 0.33236-0.67291-0.23354 0.66850-0.91106 0.31058
   4  -6   8 7141.71 486.173   1 0.53250-0.19198-0.78354 0.34876-0.31574 0.91587
  -4  -6  -8 7446.42 455.556   5 0.45031-0.79047-0.87597 0.44164-0.17020-0.42964
   4   6   8 7275.09 536.644   3 0.65583-0.31558 0.68437-0.25045-0.31365 0.91308
   4   6   9 1065.12 233.996   3 0.67666-0.33590 0.69846-0.26456-0.22759 0.90167
  -4   6  -9 1122.66 228.167   4 0.35581-0.69691-0.24404 0.67908-0.89922 0.22404
  -4  -7   8 429.426 142.132   3 0.28052-0.61257 0.20671-0.71324 0.93915-0.34413
   4  -7  -8 369.826 134.059   2 0.27328 0.05880 0.45976-0.96695-0.84289 0.24696
  -4  -7   7 101.782 104.024   3 0.25517-0.58772 0.18020-0.68671 0.95162-0.43126
   4  -7  -7 45.4985 71.2179   2 0.28837 0.04421 0.43573-0.94287-0.85049 0.32929
   4  -7  -7-79.4884 79.4108   5 0.99805-0.66527-0.03220-0.47455 0.06013-0.58081
  -4  -7   6 81.0247 84.9147   3 0.22188-0.55495 0.14559-0.65209 0.96559-0.51988
   4  -7  -6 38.9618 97.3026   2 0.30824 0.02484 0.40289-0.90998-0.85952 0.41306
   4  -7  -6-1.54372 62.4204   5 0.99707-0.66379 0.03394-0.54069 0.07519-0.52119
  -4  -7   5 121.914 102.083   3 0.17958-0.51316 0.10190-0.60838 0.97963-0.60857
   4  -7  -5 171.260 90.2010   5 0.99235-0.65857 0.09250-0.59924 0.08827-0.45957
  -4  -7   4 264.593 88.0909   5 0.47420-0.80840-0.86410 0.35750-0.16586 0.46234
  -4  -7   4 187.027 110.590   3 0.12736-0.46144 0.04840-0.55487 0.99151-0.69510
  -4   7   4 184.278 94.5709   4-0.74012 0.40615 0.31396 0.19252-0.60026 0.89608
  -4  -7   3 645.751 132.548   5 0.52954-0.86423-0.83339 0.32678-0.15507 0.37685
  -4  -7   3 434.988 143.601   3 0.06482-0.39942-0.01506-0.49139 0.99821-0.77645
  -4   7   3 888.622 163.533   4-0.67221 0.33769 0.27351 0.23305-0.69307 0.91420
  -4  -7   2 402.341 108.817   5 0.57015-0.90535-0.80775 0.30113-0.14643 0.29352
  -4  -7   2 161.715 81.6374   1 0.51832-0.85395-0.81000 0.30256-0.26988 0.41702
  -4   7   2 480.597 123.403   4-0.58845 0.25338 0.22574 0.28089-0.78083 0.92726
  -4  -7   1 580.410 125.088   5 0.59872-0.93441-0.78798 0.28135-0.13997 0.21236
  -4   7   1 356.646 101.633   4-0.48980 0.15418 0.17150 0.33520-0.85850 0.93023
  -4  -7   1 536.590 108.239   1 0.53652-0.87268-0.77496 0.26753-0.32961 0.40203
  -4  -7   0 8.18154 67.3583   5 0.61715-0.95333-0.77441 0.26777-0.13561 0.13331
  -4   7   0 18.4196 69.4048   4-0.37978 0.04362 0.11292 0.39386-0.92101 0.91804
  -4   7  -1 49.7414 67.7083   4-0.26443-0.07227 0.05321 0.45365-0.96489 0.88722
  -4  -7  -1 26.3715 53.5512   5 0.62681-0.96349-0.76702 0.26037-0.13326 0.05627
  -4  -7  -2 47.2720 60.2452   5 0.62865-0.96583-0.76559 0.25893-0.13281-0.01888
  -4   7  -2 154.263 106.845   4-0.15100-0.18625-0.00405 0.51098-0.98960 0.83723
  -4  -7  -3 933.381 170.079   5 0.62329-0.96096-0.76973 0.26307-0.13412-0.09226
  -4   7  -3 1285.64 213.930   4-0.04607-0.29172-0.05585 0.56285-0.99763 0.77057
  -4  -7  -4 355.009 119.590   5 0.61104-0.94922-0.77898 0.27230-0.13707-0.16401
  -4   7  -4 295.953 120.715   4 0.04592-0.38427-0.10038 0.60746-0.99342 0.69166
  -4  -7  -5 43.1788 81.7130   5 0.59201-0.93068-0.79276 0.28607-0.14152-0.23425
  -4   7  -5 51.2757 67.7665   4 0.12305-0.46194-0.13707 0.64422-0.98182 0.60536
  -4  -7  -6 107.993 87.8807   5 0.56608-0.90525-0.81045 0.30375-0.14733-0.30314
  -4   7  -6 22.7730 72.5824   4 0.18536-0.52480-0.16627 0.67350-0.96694 0.51578
   4  -7   6-11.6957 82.9232   1 0.57629-0.23686-0.63438 0.12716-0.51074 0.96146
  -4  -7  -7 43.9762 69.6159   5 0.53291-0.87258-0.83136 0.32466-0.15437-0.37079
  -4   7  -7 27.2150 71.0941   4 0.23405-0.57404-0.18882 0.69612-0.95177 0.42591
   4  -7   7 55.9374 77.0942   1 0.56123-0.22127-0.70587 0.19864-0.42770 0.95313
  -4  -7  -8 102.469 70.5341   5 0.49195-0.83211-0.85475 0.34804-0.16251-0.43734
   4   7   8 163.565 116.712   3 0.65029-0.31007 0.68035-0.17407-0.33309 0.93251
  -4   7  -8 240.413 123.218   4 0.27080-0.61133-0.20566 0.71305-0.93817 0.33762
   4  -7   8 29.0587 79.8026   1 0.54038-0.19990-0.76618 0.25893-0.34334 0.94348
  -4   7  -9 170.941 113.899   4 0.29733-0.63840-0.21773 0.72518-0.92717 0.25192
   4  -7   9 218.025 117.644   1 0.51477-0.17376-0.81585 0.30859-0.25902 0.93387
   4  -8  -8 6124.07 520.763   2 0.31969 0.01234 0.38329-0.96292-0.86421 0.26823
  -4  -8   7 3280.67 390.811   3 0.20965-0.54218 0.13293-0.71180 0.97007-0.44969
   4  -8  -7 3235.19 349.836   5 0.99544-0.66265-0.08623-0.49290 0.04759-0.56828
  -4  -8   6 6572.33 554.916   3 0.17580-0.50883 0.09801-0.67687 0.98069-0.53496
   4  -8  -6 6608.79 494.073   5 0.99814-0.66486-0.02683-0.55229 0.06136-0.50736
  -4  -8   5 2705.22 362.073   3 0.13373-0.46727 0.05490-0.63375 0.99037-0.61930
   4  -8  -5 2143.89 282.723   5 0.99744-0.66366 0.02567-0.60478 0.07333-0.44463
  -4  -8   4 5295.54 494.224   3 0.08291-0.41696 0.00323-0.58206 0.99710-0.70067
  -4  -8   4 6251.18 394.809   5 0.51342-0.84761-0.84281 0.26384-0.15832 0.45479
  -4   8   4 6208.00 435.865   4-0.75424 0.42030 0.32264 0.25626-0.57754 0.87329
   4  -8  -4 6702.43 480.513   5 0.99448-0.66021 0.07122-0.65032 0.08355-0.38016
  -4  -8   3 4700.48 451.099   3 0.02329-0.35786-0.05685-0.52196 0.99826-0.77649
  -4   8   3 4664.39 364.214   4-0.69262 0.35813 0.28548 0.29350-0.66763 0.88869
  -4  -8   3 4259.84 337.399   5 0.56187-0.89656-0.81320 0.23421-0.14825 0.37002
  -4  -8   3 4738.88 359.043   1 0.51079-0.84593-0.82209 0.24216-0.24708 0.46895
   4  -8  -3 5007.21 410.881   5 0.99028-0.65550 0.10970-0.68879 0.09206-0.31398
  -4   8   2 10852.1 535.104   4-0.61696 0.28193 0.24180 0.33725-0.75359 0.89995
  -4  -8   2 11672.5 533.347   1 0.52866-0.86433-0.79123 0.21132-0.30292 0.45007
  -4  -8   2 9853.74 517.102   5 0.59745-0.93264-0.78889 0.20989-0.14026 0.28734
  -4  -8   1 2434.42 263.168   5 0.62244-0.95813-0.77038 0.19138-0.13433 0.20671
  -4   8   1 2873.62 275.558   4-0.52795 0.19236 0.19226 0.38686-0.83122 0.90287
  -4  -8   1 2730.60 252.628   1 0.54499-0.88118-0.75493 0.17503-0.36035 0.43279
  -4   8   0 6058.45 397.800   4-0.42827 0.09214 0.13853 0.44067-0.89619 0.89315
  -4  -8   0 5890.39 408.712   5 0.63847-0.97465-0.75784 0.17883-0.13037 0.12806
  -4  -8   0 6540.89 372.311   1 0.55940-0.89612-0.71233 0.13245-0.41938 0.41712
  -4   8  -1 2692.37 286.465   4-0.32267-0.01400 0.08316 0.49611-0.94526 0.86752
  -4  -8  -1 2782.87 290.432   5 0.64671-0.98338-0.75119 0.17217-0.12829 0.05128
  -4   8  -2 12788.9 641.391   4-0.21710-0.12013 0.02915 0.55020-0.97730 0.82486
  -4  -8  -2 12221.4 611.794   5 0.64793-0.98511-0.75019 0.17115-0.12797-0.02373
  -4   8  -3 2094.10 280.119   4-0.11731-0.22046-0.02080 0.60022-0.99369 0.76655
  -4  -8  -3 1832.77 241.244   5 0.64266-0.98033-0.75448 0.17544-0.12931-0.09708
  -4   8  -4 6069.29 478.314   4-0.02768-0.31064-0.06482 0.64431-0.99762 0.69579
  -4  -8  -4 6321.78 459.421   5 0.63114-0.96931-0.76365 0.18460-0.13219-0.16889
  -4   8  -5 2556.95 318.874   4 0.04938-0.38825-0.10203 0.68160-0.99306 0.61653
   4  -8   5 2669.77 280.971   5 0.98796-0.64920 0.12641-0.70543 0.09573 0.27991
  -4  -8  -5 2716.75 307.967   5 0.61343-0.95210-0.77720 0.19813-0.13650-0.23928
   4  -8   6 5660.97 503.254   1 0.57727-0.23787-0.62780 0.04811-0.51766 0.96839
  -4   8  -6 5384.02 462.125   4 0.11322-0.45263-0.13242 0.71207-0.98371 0.53248
  -4  -8  -6 6096.03 461.427   5 0.58941-0.92857-0.79459 0.21551-0.14211-0.30836
  -4   8  -7 1741.48 290.883   4 0.16435-0.50431-0.15647 0.73619-0.97252 0.44658
   4  -8   7 2161.62 324.557   1 0.56395-0.22402-0.69562 0.11592-0.44059 0.96603
  -4  -8  -7 2074.13 278.554   5 0.55875-0.89841-0.81523 0.23615-0.14892-0.37625
  -4   8  -8 5862.71 519.212   4 0.20395-0.54445-0.17491 0.75470-0.96152 0.36089
   4   8   8 5348.44 517.455   3 0.64669-0.30650 0.67769-0.09904-0.34519 0.94459
  -4  -8  -8 5799.84 458.607   5 0.52093-0.86109-0.83847 0.25938-0.15682-0.44305
   4  -8   8 5938.73 521.661   1 0.54528-0.20483-0.75417 0.17446-0.36146 0.96161
  -4  -9   7-189.235 120.903   3 0.16315-0.49564 0.08502-0.73626 0.98400-0.46361
   4  -9  -7 11.0626 83.4210   5 0.99002-0.65723-0.13801-0.51350 0.03537-0.55608
  -4  -9   6 79.0347 87.3286   3 0.12907-0.46208 0.05015-0.70138 0.99121-0.54547
   4  -9  -6 14.6975 72.1262   5 0.99558-0.66229-0.08437-0.56713 0.04802-0.49403
  -4  -9   5 5.60120 84.6496   3 0.08756-0.42107 0.00794-0.65915 0.99670-0.62561
   4  -9  -5 119.834 87.8036   5 0.99794-0.66415-0.03708-0.61441 0.05900-0.43032
  -4  -9   4 214.818 93.5725   5 0.53835-0.87254-0.82806 0.17670-0.15325 0.44971
  -4  -9   4 31.9606 100.983   3 0.03834-0.37236-0.04174-0.60945 0.99864-0.70220
  -4   9   4 69.9354 69.7009   4-0.77105 0.43713 0.33313 0.31818-0.54847 0.84415
   4  -9  -4 54.7497 92.6974   5 0.99809-0.66380 0.00377-0.65525 0.06836-0.36498
  -4  -9   3 181.068 92.1925   5 0.58171-0.91639-0.79993 0.14856-0.14386 0.36563
  -4  -9   3 116.504 80.2158   1 0.51803-0.85321-0.81048 0.15808-0.26901 0.49088
  -4   9   3 156.705 85.4682   4-0.71589 0.38142 0.29930 0.35209-0.63621 0.85720
   4  -9  -3 104.381 83.4216   5 0.99686-0.66207 0.03803-0.68950 0.07611-0.29804
  -4  -9   2 58.7526 84.4557   5 0.61362-0.94880-0.77706 0.12568-0.13646 0.28353
   4  -9  -2 70.7109 100.925   5 0.99497-0.65970 0.06554-0.71700 0.08228-0.22951
  -4   9   2 78.8404 53.8774   4-0.64821 0.31320 0.25963 0.39183-0.72073 0.86701
  -4  -9   2-67.4088 74.7060   1 0.53451-0.87021-0.77931 0.12693-0.32263 0.46979
  -4  -9   1 164.610 94.0762   5 0.63605-0.97172-0.75978 0.10839-0.13098 0.20335
  -4  -9   1 309.490 109.832   1 0.54926-0.88549-0.74360 0.09123-0.37683 0.44928
  -4   9   1 172.409 86.1505   4-0.56848 0.23292 0.21460 0.43693-0.79851 0.87010
   4  -9  -1 179.898 95.0793   5 0.99305-0.65727 0.08605-0.73751 0.08684-0.15938
   4  -9   0 64.4807 78.5181   5 0.99157-0.65530 0.09928-0.75073 0.08977-0.08761
  -4   9   0-16.9264 49.8976   4-0.47868 0.14257 0.16550 0.48611-0.86586 0.86275
  -4  -9   0 114.155 69.4574   5 0.65040-0.98658-0.74815 0.09676-0.12734 0.12502
  -4   9  -1-20.9703 62.5717   4-0.38251 0.04586 0.11435 0.53733-0.91972 0.84191
   4  -9   1 192.519 95.7571   5 0.99089-0.65413 0.10484-0.75628 0.09099-0.01414
  -4  -9  -1 103.291 86.0579   5 0.65769-0.99437-0.74208 0.09067-0.12545 0.04844
  -4   9  -2 309.610 120.057   4-0.28482-0.05238 0.06365 0.58811-0.95858 0.80607
   4  -9   2 103.667 81.2636   5 0.99122-0.65395 0.10221-0.75364 0.09042 0.06113
  -4  -9  -2 106.497 71.4733   5 0.65859-0.99576-0.74132 0.08991-0.12522-0.02649
  -4   9  -3 155.856 97.7903   4-0.19061-0.14714 0.01579 0.63605-0.98292 0.75571
   4  -9   3 108.407 92.2169   5 0.99255-0.65478 0.09073-0.74215 0.08788 0.13836
  -4  -9  -3 103.696 87.8817   5 0.65352-0.99118-0.74557 0.09415-0.12654-0.09986
  -4   9  -4 139.461 109.529   4-0.10404-0.23425-0.02737 0.67928-0.99490 0.69300
   4  -9   4 155.150 96.2617   5 0.99464-0.65638 0.06950-0.72091 0.08316 0.21777
  -4  -9  -4-0.43745 72.8462   5 0.64270-0.98086-0.75445 0.10302-0.12930-0.17179
  -4  -9  -5 147.086 99.8305   5 0.62615-0.96481-0.76753 0.11609-0.13342-0.24237
  -4   9  -5 305.211 134.664   4-0.02783-0.31101-0.06474 0.71673-0.99763 0.62102
   4  -9   5 20.7246 78.1035   1 0.58426-0.24542-0.55586-0.09629-0.58686 0.96290
  -4  -9  -6 218.402 103.563   5 0.60375-0.94290-0.78434 0.13289-0.13879-0.31169
   4  -9   6 109.550 118.781   1 0.57738-0.23801-0.62700-0.02516-0.51850 0.96924
  -4  -9  -7 47.3075 77.8884   5 0.57518-0.91483-0.80438 0.15292-0.14532-0.37985
   4  -9   7 175.440 127.893   1 0.56514-0.22524-0.69085 0.03868-0.44646 0.97191
   4 -10  -6 3469.14 402.318   5 0.98985-0.65655-0.13934-0.58455 0.03506-0.48108
  -4 -10   5 2852.36 429.497   3 0.04108-0.37456-0.03898-0.68459 0.99866-0.62755
   4 -10  -5 2843.31 362.691   5 0.99459-0.66079-0.09656-0.62731 0.04517-0.41649
   4 -10  -4 4666.32 451.552   5 0.99710-0.66281-0.05981-0.66406 0.05375-0.35038
  -4 -10   4 4211.71 379.932   5 0.55238-0.88657-0.81931 0.09557-0.15029 0.44674
   4 -10  -3 2873.75 356.746   5 0.99811-0.66332-0.02922-0.69463 0.06081-0.28275
  -4 -10   3 2803.21 321.389   1 0.52189-0.85710-0.80381 0.07895-0.28107 0.50295
  -4 -10   3 2541.44 297.195   5 0.59202-0.92670-0.79275 0.06900-0.14152 0.36327
   4 -10  -2 5428.09 476.160   5 0.99820-0.66292-0.00500-0.71885 0.06636-0.21360
  -4 -10   2 4552.71 400.952   5 0.62127-0.95644-0.77128 0.04752-0.13461 0.28168
  -4 -10   2 5024.82 408.264   1 0.53721-0.87294-0.77343 0.04858-0.33203 0.47920
  -4 -10   1 1306.41 222.589   5 0.64187-0.97755-0.75511 0.03135-0.12951 0.20188
   4 -10  -1 1272.18 237.734   5 0.99789-0.66211 0.01263-0.73647 0.07037-0.14292
  -4 -10   0 4013.60 382.350   5 0.65508-0.99125-0.74427 0.02049-0.12613 0.12381
   4 -10   0 4137.29 410.380   5 0.99753-0.66126 0.02336-0.74719 0.07280-0.07066
   4 -10   1 4429.37 423.203   5 0.99739-0.66062 0.02681-0.75063 0.07359 0.00326
  -4 -10  -1 4056.04 389.121   5 0.66176-0.99843-0.73863 0.01485-0.12439 0.04737
   4 -10   2 2382.18 303.777   5 0.99757-0.66029 0.02250-0.74631 0.07261 0.07893
  -4 -10  -2 1914.60 277.054   5 0.66252-0.99968-0.73799 0.01419-0.12419-0.02753
   4 -10   3 3207.39 350.924   5 0.99796-0.66019 0.00980-0.73359 0.06973 0.15650
  -4 -10  -3 2566.90 322.636   5 0.65771-0.99537-0.74206 0.01826-0.12545-0.10096
   4 -10   4 2402.83 301.240   5 0.99824-0.65997-0.01214-0.71165 0.06473 0.23620
  -4 -10  -4 2387.02 321.538   5 0.64753-0.98569-0.75052 0.02671-0.12808-0.17303
   4 -10   5 3548.78 425.284   1 0.58371-0.24490-0.56510-0.15951-0.57859 0.95463
  -4 -10  -5 2757.43 349.643   5 0.63198-0.97063-0.76299 0.03917-0.13199-0.24381
  -4 -11   3-138.723 95.0583   5 0.59481-0.92949-0.79077-0.00536-0.14087 0.36262
  -4 -11   3 44.3435 95.3591   1 0.52315-0.85838-0.80158 0.00424-0.28504 0.50694
  -4 -11   2-80.1135 91.1250   5 0.62217-0.95734-0.77059-0.02555-0.13439 0.28145
   4 -11  -2 50.8592 88.0452   5 0.99646-0.66117-0.07150-0.72473 0.05103-0.19828
  -4 -11   1-237.037 120.115   5 0.64151-0.97718-0.75541-0.04074-0.12960 0.20196
   4 -11  -1 186.631 118.464   5 0.99726-0.66148-0.05639-0.73983 0.05454-0.12710
   4 -11   0 169.688 107.434   5 0.99761-0.66133-0.04782-0.74839 0.05652-0.05439
  -4 -11   0-188.319 110.725   5 0.65394-0.99011-0.74522-0.05094-0.12643 0.12409
   4 -11   1 26.8134 74.0312   5 0.99767-0.66089-0.04616-0.75003 0.05691 0.01993
  -4 -11  -1-25.1247 84.3566   5 0.66027-0.99693-0.73990-0.05626-0.12478 0.04775
   4 -11   2 212.739 121.003   5 0.99746-0.66018-0.05187-0.74431 0.05559 0.09594
  -4 -11  -2 113.310 107.471   5 0.66101-0.99817-0.73928-0.05690-0.12459-0.02714
   4 -11   3 4.52348 79.9769   5 0.99680-0.65903-0.06555-0.73063 0.05241 0.17381
   4 -11   4 187.386 114.291   5 0.99530-0.65703-0.08795-0.70822 0.04719 0.25373
  -5   0  11-18.3239 62.9514   3 0.48672-0.90155 0.42814-0.42812 0.76455 0.05374
  -5   0  10 53.9795 71.0723   3 0.48762-0.90296 0.42913-0.42910 0.76342-0.01978
  -5   0   9 124.770 82.3461   3 0.48424-0.90009 0.42539-0.42535 0.76765-0.09866
  -5   0   8 85.5992 70.2392   3 0.47541-0.89177 0.41564-0.41558 0.77843-0.18409
  -5   0   7 148.970 73.4877   3 0.45930-0.87617 0.39795-0.39787 0.79710-0.27741
  -5   0   6 487.013 115.149   3 0.43311-0.85049 0.36936-0.36927 0.82497-0.37993
  -5   0   5 22.8499 58.9177   3 0.39255-0.81044 0.32553-0.32542 0.86273-0.49235
  -5   0   4 180.040 70.7282   3 0.33139-0.74979 0.26030-0.26017 0.90903-0.61330
  -5   0   4 209.719 72.4339   4-0.74044 0.32221 0.31416-0.31461-0.59975 0.89547
  -5   0   3 41.7156 57.0794   3 0.24173-0.66064 0.16620-0.16606 0.95758-0.73651
  -5   0   3 73.9871 74.8791   4-0.65088 0.23209 0.26116-0.26154-0.71776 0.93878
  -5   0   2 398.240 81.6423   5-0.31834-0.10095-0.91956 0.91961-0.23249 0.37909
  -5   0   2 318.764 99.8548   3 0.11697-0.53640 0.03782-0.03766 0.99318-0.84676
  -5   0   2 438.726 103.662   4-0.53038 0.11105 0.19359-0.19389-0.82937 0.97569
  -5   0   1 78.3938 50.3676   5-0.25763-0.16216-0.93825 0.93829-0.23264 0.30454
   5   0  -1 77.0998 47.1031   2 0.09036 0.32970 0.69819-0.69795-0.70917 0.63727
  -5   0   1 197.617 90.3734   4-0.37993-0.03995 0.11300-0.11323-0.92094 0.99256
  -5   0   0 489.097 96.1610   5-0.21014-0.21014-0.95007 0.95010-0.23211 0.22931
  -5   0   0 295.621 113.423   4-0.21021-0.21021 0.02567-0.02582-0.97885 0.97578
   5   0   0 496.784 68.1846   2 0.21027 0.21028 0.55226-0.55197-0.80502 0.80785
  -5   0  -1 116.154 52.4688   5-0.17615-0.24463-0.95708 0.95710-0.23140 0.15391
  -5   0  -1 146.770 98.9717   4-0.04013-0.38084-0.05875 0.05867-0.99767 0.91990
  -5   0  -2 1121.16 137.505   5-0.15563-0.26564-0.96073 0.96074-0.23084 0.07865
  -5   0  -2 751.637 143.631   4 0.11180-0.53332-0.13175 0.13175-0.98397 0.83150
  -5   0  -3 138.938 66.0376   5-0.14841-0.27336-0.96191 0.96192-0.23062 0.00374
  -5   0  -3 198.720 93.1916   4 0.23547-0.65754-0.18947 0.18955-0.95128 0.72410
  -5   0  -4 2980.06 279.658   4 0.32979-0.75241-0.23239 0.23253-0.91230 0.61043
   5   0   4 3636.58 147.368   1 0.52476-0.10205-0.79863 0.79875-0.29021 0.59201
  -5   0  -4 3514.75 239.968   5-0.15425-0.26801-0.96096 0.96095-0.23080-0.07078
  -5   0  -5 144.288 63.1551   5-0.17301-0.24976-0.95766 0.95765-0.23132-0.14495
   5   0   5 93.4867 57.6916   3 0.65609-0.23308 0.68455-0.68481-0.31272 0.68886
  -5   0  -6 860.082 123.534   5-0.20466-0.21860-0.95128 0.95126-0.23201-0.21895
   5   0   6 700.799 133.675   3 0.67949-0.25598 0.70019-0.70047-0.21366 0.66445
  -5   0  -7 229.044 71.8329   5-0.24950-0.17426-0.94045 0.94041-0.23259-0.29307
   5   0   7 190.824 87.3179   3 0.69407-0.27005 0.70780-0.70810-0.12514 0.65058
   5   0   8 359.984 116.072   3 0.70238-0.27784 0.70976-0.71007-0.04500 0.64509
   5   0   9 68.0488 74.1240   3 0.70598-0.28093 0.70751-0.70784 0.02857 0.64617
   5   0  10-136.911 88.9918   3 0.70589-0.28033 0.70197-0.70231 0.09697 0.65243
  -5   1  11 8575.13 566.570   3 0.50675-0.92161 0.45039-0.37800 0.73831 0.07997
  -5   1  10-63.7638 68.3544   3 0.50908-0.92446 0.45299-0.38059 0.73510 0.00852
  -5  -1  10 34.4055 81.3881   3 0.46349-0.87880 0.40254-0.47487 0.79235-0.04870
  -5   1   9 8973.49 517.915   3 0.50738-0.92327 0.45109-0.37868 0.73745-0.06847
  -5  -1   9 8947.41 544.036   3 0.45839-0.87421 0.39695-0.46926 0.79811-0.12911
  -5   1   8 71.8061 65.6043   3 0.50049-0.91689 0.44342-0.37099 0.74675-0.15243
  -5  -1   8-29.9189 54.2983   3 0.44761-0.86394 0.38516-0.45746 0.80990-0.21555
  -5   1   7 25135.0 771.134   3 0.48654-0.90345 0.42794-0.35549 0.76478-0.24510
  -5  -1   7 25108.1 809.744   3 0.42943-0.84627 0.36536-0.43765 0.82865-0.30895
  -5   1   6 523.490 111.292   3 0.46246-0.87988 0.40141-0.32895 0.79353-0.34851
  -5  -1   6 561.738 121.525   3 0.40132-0.81867 0.33497-0.40724 0.85508-0.41003
  -5   1   5 11581.9 453.338   3 0.42320-0.84113 0.35861-0.28614 0.83477-0.46440
  -5  -1   5 11429.7 496.619   3 0.35972-0.77758 0.29040-0.36266 0.88905-0.51865
  -5   1   5 10760.9 509.683   4-0.78491 0.36724 0.34193-0.27004-0.52261 0.89296
  -5  -1   4 83.0918 64.7328   3 0.29992-0.71829 0.22708-0.29932 0.92850-0.63275
  -5   1   4 1.31290 45.7194   3 0.36062-0.77905 0.29136-0.21886 0.88838-0.59266
  -5  -1   4-6.53962 43.6733   5-0.32799-0.09030-0.91621 0.84390-0.23238 0.52836
  -5   1   4 92.9850 78.6556   4-0.71829 0.30008 0.30074-0.22878-0.63280 0.92845
  -5  -1   4-2.93185 35.5708   4-0.76950 0.35124 0.33215-0.40502-0.55125 0.84705
  -5   1   3 29768.7 672.407   3 0.26278-0.68173 0.18814-0.11564 0.94805-0.72699
  -5  -1   3 31070.8 798.410   3 0.21669-0.63558 0.14021-0.21244 0.96754-0.74644
  -5   1   3 31754.1 848.691   4-0.62766 0.20890 0.24787-0.17583-0.74272 0.96367
  -5  -1   3 31059.3 724.773   4-0.68439 0.26557 0.28063-0.35342-0.67812 0.89921
   5  -1  -3 29922.2 703.803   2 0.04675 0.37225 0.74252-0.81481-0.66742 0.44600
  -5  -1   3 30769.5 654.275   5-0.23599-0.18279-0.94394 0.87161-0.23247 0.45374
  -5  -1   2 54.5431 52.1118   5-0.15864-0.26065-0.96022 0.88789-0.23093 0.37751
  -5   1   2 78.4411 69.3243   3 0.11726-0.53672 0.03812 0.03440 0.99314-0.84673
  -5  -1   2 70.4352 67.3586   3 0.10659-0.52599 0.02726-0.09947 0.99463-0.84819
   5  -1  -2 66.9617 43.0604   2 0.10351 0.31599 0.68394-0.75618-0.72106 0.57438
  -5   1   2 45.4000 52.8304   4-0.51037 0.09106 0.18266-0.11055-0.84419 0.99044
  -5  -1   2 30.5328 47.1348   4-0.56366 0.14430 0.21193-0.28465-0.80262 0.94901
  -5   1   1 20389.4 742.567   4-0.36861-0.05124 0.10707-0.03488-0.92616 0.99771
  -5  -1   1 23836.9 683.208   4-0.40575-0.01415 0.12659-0.19923-0.90823 0.97992
   5  -1  -1 20861.7 507.092   2 0.18407 0.23593 0.58733-0.65952-0.78659 0.71464
  -5  -1   1 22362.3 575.698   5-0.09628-0.32349-0.96890 0.89656-0.22867 0.30056
  -5  -1   0 288.245 77.2727   5-0.04881-0.37146-0.97292 0.90057-0.22636 0.22355
  -5   1   0 283.872 78.9098   5-0.37134-0.04895-0.89979 0.97220-0.23158 0.22879
   5   1   0 155.065 38.2918   2 0.09766 0.32295 0.69033-0.61761-0.71581 0.71869
  -5   1   0 283.444 114.794   4-0.21186-0.20854 0.02650 0.04576-0.97849 0.97534
  -5  -1   0 205.438 91.6066   4-0.22192-0.19854 0.03159-0.10415-0.97618 0.97318
   5  -1   0 260.677 58.0331   2 0.29081 0.12970 0.43178-0.50393-0.85165 0.85444
  -5  -1  -1 24041.0 774.457   4-0.03591-0.38509-0.06081-0.01168-0.99768 0.91998
  -5   1  -1 26794.5 877.084   4-0.05524-0.36571-0.05137 0.12370-0.99748 0.91963
   5   1   1 26776.1 395.623   2 0.30620 0.11491 0.40633-0.33356-0.85865 0.93626
  -5  -1  -1 26275.8 645.813   5-0.01580-0.40497-0.97441 0.90205-0.22445 0.14695
  -5   1  -1 26307.4 633.612   5-0.33933-0.08146-0.91213 0.98453-0.23222 0.15474
  -5  -1  -2 95.2483 53.4940   5 0.00331-0.42458-0.97478 0.90241-0.22323 0.07104
  -5   1  -2 103.870 56.2238   5-0.31958-0.10170-0.91914 0.99153-0.23248 0.08031
  -5  -1  -2 115.027 77.8047   4 0.12846-0.55000-0.13962 0.06720-0.98072 0.82832
  -5   1  -2 149.045 86.6386   4 0.08646-0.50796-0.11973 0.19215-0.98825 0.83570
  -5  -1  -3 24812.0 752.267   4 0.25918-0.68127-0.20035 0.12801-0.94268 0.71558
  -5   1  -3 23737.1 772.983   4 0.20444-0.62648-0.17514 0.24763-0.96137 0.73413
  -5  -1  -3 23257.7 613.282   5 0.00910-0.43087-0.97482 0.90245-0.22285-0.00404
  -5   1  -3 23962.4 621.193   5-0.31233-0.10945-0.92160 0.99398-0.23255 0.00568
  -5  -1  -4 726.345 114.556   5 0.00207-0.42433-0.97477 0.90238-0.22332-0.07827
   5  -1   4 790.164 89.9887   1 0.57587-0.15320-0.63707 0.56472-0.50788 0.80969
  -5   1  -4 760.227 116.480   5-0.31768-0.10459-0.91979 0.99216-0.23250-0.06906
   5  -1   4 754.162 110.286   3 0.65850-0.23597 0.68627-0.75888-0.30386 0.60536
  -5  -1  -4 798.775 148.569   4 0.35621-0.77884-0.24421 0.17195-0.89902 0.59722
  -5   1  -4 675.198 142.256   4 0.29680-0.71939-0.21749 0.29005-0.92740 0.62546
  -5   1  -5 15383.4 660.159   4 0.36606-0.78920-0.24861 0.32125-0.89378 0.51714
   5  -1   5 16883.3 416.587   1 0.53335-0.11015-0.78176 0.70940-0.31866 0.69518
  -5  -1  -5 15311.6 515.782   5-0.01745-0.40531-0.97436 0.90196-0.22455-0.15173
   5  -1   5 16063.9 530.271   3 0.68229-0.25925 0.70185-0.77448-0.19910 0.57525
  -5   1  -5 17018.2 525.391   5-0.33570-0.08707-0.91345 0.98582-0.23228-0.14398
  -5  -1  -6 107.044 51.8399   5-0.04935-0.37390-0.97289 0.90048-0.22639-0.22459
  -5   1  -6 65.6852 42.7919   5-0.36653-0.05674-0.90172 0.97408-0.23169-0.21926
   5   1   6 52.7085 69.9568   3 0.65951-0.23602 0.68698-0.61490-0.30009 0.75086
   5  -1   6 109.608 71.3055   3 0.69613-0.27258 0.70857-0.78122-0.10891 0.55971
   5   1   7 19385.3 710.676   3 0.68086-0.25687 0.70101-0.62894-0.20662 0.73204
  -5  -1  -7 20343.6 605.063   5-0.09384-0.32991-0.96916 0.89675-0.22856-0.29710
   5  -1   7 19090.4 672.124   3 0.70346-0.27940 0.70960-0.78226-0.02937 0.55483
   5   1   8 119.959 83.4192   3 0.69462-0.27012 0.70802-0.63597-0.12098 0.72106
   5  -1   8 55.7568 62.5743   3 0.70623-0.28166 0.70667-0.77934 0.04234 0.55777
   5   1   9 9916.74 574.701   3 0.70260-0.27759 0.70974-0.63770-0.04190 0.71663
   5  -1   9 10490.1 568.483   3 0.70556-0.28048 0.70073-0.77342 0.10824 0.56652
   5   1  10 31.9765 68.7446   3 0.70605-0.28052 0.70733-0.63530 0.03179 0.71759
   5  -1  10 24.2509 57.3799   3 0.70211-0.27652 0.69235-0.76506 0.16976 0.57966
  -5   2  10 109.313 76.2800   3 0.52779-0.94319 0.47396-0.32919 0.70819 0.03543
  -5  -2  10 180.775 92.1823   3 0.43681-0.85208 0.37339-0.51808 0.82121-0.07754
  -5   2   9 19.4449 76.1150   3 0.52767-0.94359 0.47383-0.32905 0.70835-0.03939
  -5  -2   9 322.155 115.084   3 0.42998-0.84577 0.36597-0.51065 0.82810-0.15908
  -5   2   8 444.019 119.491   3 0.52266-0.93909 0.46820-0.32340 0.71578-0.12148
  -5  -2   8 238.310 98.0525   3 0.41731-0.83361 0.35224-0.49690 0.84041-0.24604
   5  -2  -7 172.691 70.9957   2 0.02197 0.39497 0.76574-0.91066-0.64213 0.12174
  -5   2   7 208.561 79.3738   3 0.51086-0.92780 0.45498-0.31017 0.73264-0.21298
  -5  -2   7 170.592 88.1834   3 0.39720-0.81401 0.33054-0.47519 0.85870-0.33898
  -5  -2   6-38.1886 63.3170   3 0.36744-0.78476 0.29864-0.44327 0.88317-0.43811
   5  -2  -6 136.004 72.2131   2 0.03367 0.38377 0.75495-0.89982-0.65421 0.20855
  -5   2   6 130.913 64.7258   3 0.48899-0.90644 0.43065-0.28583 0.76169-0.31668
  -5  -2   5 686.569 136.601   3 0.32511-0.74294 0.25365-0.39827 0.91314-0.54272
  -5  -2   5 626.242 97.9918   5-0.28481-0.13298-0.93039 0.78571-0.23269 0.60335
   5  -2  -5 559.844 120.969   2 0.05334 0.36460 0.73610-0.88092-0.67395 0.30302
  -5   2   5 516.661 133.180   4-0.77090 0.35326 0.33304-0.18873-0.54874 0.91901
  -5   2   5 470.822 93.3134   3 0.45120-0.86916 0.38908-0.24424 0.80603-0.43568
  -5  -2   4 14.9129 60.8433   3 0.26671-0.68505 0.19225-0.33685 0.94615-0.65039
  -5  -2   4 65.7818 45.5702   5-0.17392-0.24436-0.95749 0.81280-0.23134 0.52731
   5  -2  -4-41.1756 47.6022   2 0.08313 0.33531 0.70584-0.85062-0.70249 0.40630
  -5   2   4 31.7681 60.8383   4-0.70314 0.28495 0.29170-0.14732-0.65377 0.94934
  -5   2   4 34.7809 38.1846   3 0.38691-0.80538 0.31949-0.17463 0.86750-0.57180
  -5   2   3 144.114 57.0909   3 0.27789-0.69687 0.20395-0.05908 0.94053-0.71948
  -5  -2   3 141.599 57.2641   5-0.08057-0.33821-0.97048 0.82578-0.22796 0.44923
  -5  -2   3 211.075 86.5817   3 0.18881-0.60766 0.11141-0.25600 0.97691-0.75580
   5  -2  -3 251.764 75.5346   2 0.12566 0.29329 0.65899-0.80372-0.74036 0.51890
  -5   2   3 128.814 79.5210   4-0.61380 0.19506 0.24000-0.09555-0.75674 0.97762
  -5  -2   3 142.279 57.7318   4-0.72848 0.30964 0.30688-0.45209-0.61798 0.83914
   5  -2  -2 44.0911 44.5023   2 0.18381 0.23565 0.58768-0.73235-0.78640 0.63967
  -5  -2   2 272.587 76.6930   5-0.00442-0.41485-0.97467 0.82996-0.22374 0.37031
  -5   2   2 177.916 59.1383   3 0.09984-0.51933 0.02040 0.12449 0.99545-0.84905
  -5  -2   2 181.098 97.3748   3 0.08979-0.50915 0.01020-0.15477 0.99650-0.85004
  -5   2   2 211.099 90.4012   4-0.50147 0.08219 0.17783-0.03330-0.85049 0.99667
  -5  -2   2 215.216 68.3051   4-0.61250 0.19311 0.23927-0.38440-0.75802 0.90449
  -5  -2   1 60.7338 55.3690   5 0.05527-0.47504-0.97399 0.82927-0.21952 0.29140
  -5   2   1 17.2523 70.0375   4-0.36879-0.05103 0.10716 0.03744-0.92608 0.99756
  -5  -2   1 18.5918 47.6237   4-0.45005 0.03012 0.15013-0.29519-0.88368 0.95545
   5  -2  -1-16.6911 38.3395   2 0.25892 0.16103 0.48191-0.62654-0.83511 0.76312
  -5  -2   0 521.727 94.8688   5 0.09947-0.51974-0.97123 0.82650-0.21588 0.21306
  -5   2   0 697.730 159.254   4-0.22388-0.19649 0.03258 0.11210-0.97571 0.97249
  -5  -2   0 482.828 112.992   4-0.25122-0.16926 0.04647-0.19145-0.96867 0.96574
  -5  -2  -1 1.52027 39.8522   5 0.12920-0.54997-0.96828 0.82354-0.21318 0.13567
   5   2   1 24.1567 15.2290   2 0.17421 0.24695 0.60004-0.45484-0.77928 0.85694
  -5  -2  -1-40.1531 60.9227   4-0.04583-0.37519-0.05597-0.08894-0.99763 0.92000
  -5   2  -1 49.6951 80.5046   4-0.07894-0.34198-0.03974 0.18450-0.99660 0.91868
  -5  -2  -2 324.160 78.7276   5 0.14544-0.56670-0.96629 0.82155-0.21162 0.05942
  -5  -2  -2 140.938 75.2569   4 0.13431-0.55588-0.14237-0.00246-0.97950 0.82717
  -5   2  -2 326.600 118.729   4 0.05400-0.47546-0.10424 0.24907-0.99256 0.83994
  -5  -2  -3 140.533 62.7195   5 0.14901-0.57077-0.96582 0.82107-0.21127-0.01563
   5  -2   3 185.763 52.9228   3 0.67088-0.24883 0.69475-0.83971-0.25406 0.48093
  -5  -2  -3 313.910 98.8881   4 0.27423-0.69635-0.20723 0.06247-0.93681 0.70978
  -5   2  -3 180.554 90.1648   4 0.16711-0.58912-0.15776 0.30266-0.97182 0.74450
  -5  -2  -4 693.350 136.623   4 0.37522-0.79788-0.25268 0.10799-0.88877 0.58705
   5  -2   4 710.915 101.358   3 0.69099-0.26843 0.70645-0.85143-0.14715 0.44866
  -5   2  -4 832.848 158.739   4 0.25791-0.68047-0.19977 0.34475-0.94316 0.64114
  -5  -2  -4 983.746 137.472   5 0.14056-0.56282-0.96692 0.82215-0.21209-0.08950
  -5  -2  -5 202.046 78.6623   5 0.12050-0.54325-0.96923 0.82446-0.21399-0.16230
   5  -2   5 99.6478 53.0488   3 0.70116-0.27809 0.70974-0.85474-0.06013 0.43630
  -5   2  -5 215.888 87.1532   4 0.32774-0.75084-0.23146 0.37651-0.91329 0.53658
   5  -2   5 158.556 61.8802   1 0.56574-0.14257-0.68837 0.54354-0.44949 0.82603
  -5  -2  -6 165.254 65.0022   5 0.08897-0.51222-0.97206 0.82727-0.21678-0.23420
   5  -2   6 149.392 70.3147   3 0.70558-0.28200 0.70826-0.85327 0.01418 0.43664
  -5  -2  -7 54.7443 60.6565   5 0.04579-0.46954-0.97433 0.82954-0.22024-0.30543
   5   2   7 51.8562 58.1206   3 0.66611-0.24215 0.69156-0.54712-0.27421 0.79962
   5  -2   7 20.5918 46.6735   3 0.70622-0.28213 0.70365-0.84867 0.08009 0.44538
   5   2   8 600.037 145.798   3 0.68475-0.26028 0.70324-0.55882-0.18555 0.78561
   5  -2   8 305.963 97.9826   3 0.70411-0.27951 0.69672-0.84176 0.14024 0.45988
   5   2   9 130.366 89.1074   3 0.69684-0.27186 0.70881-0.56441-0.10288 0.77759
   5  -2   9 26.5429 52.8200   3 0.69977-0.27465 0.68787-0.83293 0.19630 0.47848
   5   2  10-53.7327 80.9022   3 0.70371-0.27822 0.70954-0.56515-0.02539 0.77476
   5  -2  10-17.7532 52.9753   3 0.69348-0.26786 0.67731-0.82238 0.24937 0.50006
   5  -3 -10 522.927 158.251   2 0.07022 0.34516 0.71921-0.93671-0.69033-0.05431
  -5  -3  10 597.613 163.598   3 0.40768-0.82292 0.34183-0.55889 0.84936-0.10567
  -5  -3   9 8762.91 573.837   3 0.39918-0.81493 0.33267-0.54972 0.85697-0.18793
   5  -3  -9 9296.63 580.495   2 0.06924 0.34664 0.72021-0.93766-0.68939 0.01948
  -5   3   8-45.2665 54.5401   3 0.54173-0.95819 0.48971-0.27255 0.68658-0.09229
   5  -3  -8 114.923 76.8772   2 0.07275 0.34364 0.71663-0.93403-0.69273 0.09756
  -5  -3   8-39.0551 65.9007   3 0.38474-0.80100 0.31715-0.53418 0.86931-0.27493
  -5   3   7 13809.0 542.716   3 0.53198-0.94895 0.47868-0.26151 0.70184-0.18219
  -5  -3   7 13866.8 657.859   3 0.36290-0.77968 0.29379-0.51081 0.88665-0.36692
   5  -3  -7 13945.0 643.066   2 0.08161 0.33528 0.70744-0.92479-0.70107 0.18064
  -5   3   6 1225.42 152.801   3 0.51228-0.92976 0.45656-0.23937 0.73066-0.28567
  -5  -3   6 1161.29 189.542   3 0.33178-0.74906 0.26071-0.47771 0.90877-0.46369
   5  -3  -6 1371.24 195.098   2 0.09692 0.32047 0.69113-0.90843-0.71515 0.26944
  -5   3   5 17136.0 511.765   3 0.47595-0.89394 0.41624-0.19903 0.77778-0.40744
  -5  -3   5 17155.1 677.039   3 0.28903-0.70682 0.21563-0.43261 0.93460-0.56418
  -5   3   5 17068.0 717.805   4-0.76180 0.34419 0.32733-0.11062-0.56475 0.93495
   5  -3  -5 17321.3 648.277   2 0.12005 0.29785 0.66543-0.88269-0.73556 0.36458
  -5  -3   5 17636.2 503.201   5-0.13628-0.28150-0.96378 0.74672-0.23022 0.60087
  -5   3   4 1897.58 154.251   3 0.40925-0.82775 0.34352-0.12630 0.84792-0.55224
  -5  -3   4 2134.08 240.544   3 0.23209-0.65040 0.15618-0.37315 0.96159-0.66582
  -5   3   4 1589.97 223.921   4-0.69462 0.27646 0.28665-0.06986-0.66504 0.96054
   5  -3  -4 1898.55 207.148   2 0.15262 0.26578 0.62701-0.84422-0.76255 0.46631
  -5  -3   4 1953.26 175.648   5-0.02723-0.39105-0.97401 0.75694-0.22514 0.52109
  -5   3   3 22350.5 480.462   3 0.28323-0.70224 0.20954 0.00769 0.93773-0.71669
  -5  -3   3 21658.1 770.850   3 0.15880-0.57762 0.08056-0.29751 0.98506-0.76394
  -5   3   3 19354.5 737.991   4-0.60816 0.18945 0.23682-0.01995-0.76226 0.98306
  -5  -3   3 23320.0 547.032   4-0.78193 0.36306 0.34002-0.55764-0.52833 0.74957
   5  -3  -3 21559.1 658.176   2 0.19617 0.22273 0.57138-0.78853-0.79528 0.57377
  -5  -3   3 22717.1 596.549   5 0.06185-0.48062-0.97370 0.75662-0.21900 0.44026
  -5  -3   2 3985.58 357.448   3 0.06856-0.48789-0.01129-0.20565 0.99803-0.85156
  -5   3   2 4463.00 200.492   3 0.04438-0.46390-0.03567 0.25292 0.99867-0.85228
  -5   3   2 3763.74 327.733   4-0.50179 0.08254 0.17800 0.03894-0.85026 0.99637
  -5  -3   2 4039.13 218.554   4-0.67871 0.25930 0.27731-0.49485-0.68517 0.83170
   5  -3  -2 4142.37 282.275   2 0.25148 0.16792 0.49314-0.71025-0.83088 0.68410
  -5  -3   2 4079.49 258.223   5 0.13264-0.55191-0.96788 0.75079-0.21285 0.35942
  -5   3   1 13882.0 637.673   4-0.37817-0.04163 0.11208 0.10494-0.92176 0.99317
  -5  -3   1 13638.1 404.243   4-0.51810 0.09814 0.18688-0.40435-0.83857 0.91041
   5  -3  -1 12780.0 467.459   2 0.31831 0.10160 0.38568-0.60274-0.86367 0.79162
  -5  -3   1 13426.1 471.820   5 0.18680-0.60657-0.96003 0.74293-0.20737 0.27924
  -5  -3   0 1472.08 158.764   4-0.30455-0.11595 0.07380-0.29119-0.95190 0.94904
  -5   3   0 1034.49 199.575   4-0.24412-0.17623 0.04285 0.17424-0.97060 0.96730
  -5  -3   0 1397.19 163.711   5 0.22589-0.64616-0.95249 0.73538-0.20298 0.20016
  -5  -3  -1 25682.7 721.042   4-0.07490-0.34615-0.04173-0.17559-0.99680 0.91924
  -5   3  -1 22804.7 847.864   4-0.10954-0.31136-0.02465 0.24182-0.99443 0.91644
  -5  -3  -1 22028.9 630.411   5 0.25131-0.67207-0.94672 0.72960-0.19993 0.12242
   5  -3   1 22192.9 331.016   3 0.67528-0.25422 0.69759-0.91489-0.23414 0.31171
  -5  -3  -2 198.808 85.6677   5 0.26420-0.68546-0.94353 0.72640-0.19833 0.04611
   5  -3   2 275.254 50.0443   3 0.69674-0.27517 0.70878-0.92609-0.10378 0.25600
  -5  -3  -2 143.494 65.4069   4 0.12629-0.54789-0.13860-0.07865-0.98117 0.82891
  -5   3  -2 205.519 111.486   4 0.01561-0.43705-0.08579 0.30303-0.99596 0.84327
  -5  -3  -3 20560.2 648.476   4 0.27885-0.70099-0.20933-0.00784-0.93495 0.70799
  -5   3  -3 20865.0 763.669   4 0.12432-0.54630-0.13766 0.35498-0.98157 0.75418
  -5  -3  -3 20097.3 625.362   5 0.26550-0.68726-0.94320 0.72606-0.19816-0.02874
   5  -3   3 20135.4 443.965   3 0.70408-0.28200 0.70941-0.92674-0.01917 0.24605
  -5  -3  -4 328.676 88.8299   5 0.25586-0.67812-0.94561 0.72847-0.19937-0.10223
   5  -3   4 280.402 62.5352   3 0.70628-0.28369 0.70639-0.92373 0.04638 0.25515
  -5   3  -4 353.464 111.671   4 0.21370-0.63624-0.17943 0.39682-0.95849 0.65641
  -5   3  -5 21653.0 812.856   4 0.28414-0.70722-0.21174 0.42921-0.93277 0.55598
   5  -3   5 21385.1 607.607   1 0.57803-0.15489-0.62235 0.40505-0.52332 0.89987
  -5  -3  -5 20988.8 657.504   5 0.23569-0.65844-0.95035 0.73319-0.20183-0.17447
   5  -3   5 21440.3 577.461   3 0.70574-0.28264 0.70136-0.91872 0.10256 0.27362
  -5  -3  -6 805.955 139.706   5 0.20510-0.62834-0.95670 0.73954-0.20536-0.24563
   5  -3   6 465.553 108.914   1 0.55415-0.13048-0.72942 0.51210-0.39663 0.84789
  -5   3  -6 743.544 168.674   4 0.33779-0.76141-0.23597 0.45352-0.90840 0.45691
   5  -3   6 728.008 123.245   3 0.70329-0.27968 0.69483-0.91221 0.15352 0.29731
  -5   3  -7 8162.07 549.467   4 0.37734-0.80151-0.25362 0.47123-0.88759 0.36141
   5   3   7 8214.85 495.371   3 0.65151-0.22758 0.68124-0.46444-0.32893 0.85433
  -5  -3  -7 8553.79 429.791   5 0.16391-0.58765-0.96371 0.74654-0.20977-0.31591
   5  -3   7 8248.27 420.742   3 0.69926-0.27514 0.68697-0.90436 0.20130 0.32419
   5   3   8 1184.74 200.861   3 0.67420-0.24976 0.69691-0.48012-0.23915 0.83920
   5  -3   8 1019.78 161.986   3 0.69381-0.26917 0.67783-0.89523 0.24701 0.35313
   5   3   9 8595.64 558.665   3 0.68988-0.26493 0.70592-0.48916-0.15448 0.82918
   5  -3   9 8162.09 485.457   3 0.68697-0.26183 0.66741-0.88483 0.29130 0.38349
   5   3  10 378.967 136.418   3 0.69985-0.27439 0.70958-0.49282-0.07451 0.82386
   5  -3  10 159.233 111.808   3 0.67876-0.25310 0.65569-0.87313 0.33460 0.41484
  -5  -4   9-2.87747 72.7541   3 0.36616-0.78188 0.29727-0.58668 0.88416-0.21511
   5  -4  -9 115.538 101.395   2 0.12174 0.29410 0.66350-0.95339-0.73701 0.06706
  -5  -4   8 56.1682 76.7075   3 0.35010-0.76633 0.28015-0.56955 0.89611-0.30171
   5  -4  -8 103.456 73.2162   2 0.12792 0.28842 0.65638-0.94622-0.74227 0.14705
  -5  -4   7 118.101 101.970   3 0.32677-0.74351 0.25541-0.54479 0.91206-0.39232
   5  -4  -7-22.9386 59.3958   2 0.13953 0.27731 0.64277-0.93255-0.75195 0.23147
  -5  -4   6 1324.71 212.574   3 0.29459-0.71184 0.22147-0.51083 0.93153-0.48643
   5  -4  -6 1367.75 208.076   2 0.15733 0.26001 0.62122-0.91096-0.76628 0.32053
  -5  -4   5 616.120 103.609   5-0.00038-0.41740-0.97474 0.68529-0.22348 0.59411
   5  -4  -5 347.043 97.4273   2 0.18231 0.23553 0.58962-0.87931-0.78530 0.41428
  -5  -4   5 345.657 119.130   3 0.25172-0.66948 0.17660-0.46595 0.95320-0.58275
  -5   4   5 452.954 133.201   4-0.75745 0.33986 0.32462-0.03549-0.57217 0.94230
   5  -4  -4 724.711 140.988   2 0.21538 0.20297 0.54520-0.83484-0.80844 0.51215
  -5  -4   4 748.724 115.530   5 0.10157-0.51984-0.97105 0.68160-0.21569 0.51164
  -5  -4   4 511.279 137.317   3 0.19633-0.61461 0.11916-0.40850 0.97456-0.67877
  -5   4   4 591.143 148.917   4-0.69213 0.27399 0.28518 0.00402-0.66827 0.96370
  -5  -4   3 114.641 59.9498   5 0.18294-0.60171-0.96069 0.67123-0.20778 0.42903
  -5  -4   3 11.0465 59.5680   3 0.12712-0.54591 0.04816-0.33748 0.99155-0.77041
  -5   4   3 46.9971 62.9463   4-0.60963 0.19095 0.23765 0.05164-0.76083 0.98156
   5  -4  -3-36.7290 53.8728   2 0.25734 0.16151 0.48432-0.77391-0.83422 0.61266
  -5  -4   2 412.380 93.5856   5 0.24632-0.66559-0.94791 0.65844-0.20054 0.34710
  -5  -4   2 357.113 125.728   3 0.04412-0.46342-0.03592-0.25338 0.99867-0.85218
  -5   4   2 505.092 131.980   4-0.50976 0.09053 0.18233 0.10703-0.84463 0.99066
  -5  -4   2 434.288 71.2925   4-0.76185 0.34241 0.32736-0.61732-0.56467 0.71128
   5  -4  -2 481.814 107.017   2 0.30802 0.11134 0.40326-0.69281-0.85943 0.71260
  -5  -4   1 17.4232 47.1468   5 0.29390-0.71366-0.93548 0.64600-0.19446 0.26633
  -5   4   1-13.8226 82.8496   4-0.39497-0.02481 0.12090 0.16853-0.91367 0.98501
  -5  -4   1 89.1880 41.5186   4-0.61666 0.19667 0.24162-0.53151-0.75390 0.82581
  -5  -4   0 1044.76 111.742   4-0.39251-0.02802 0.11961-0.40942-0.91489 0.91210
  -5   4   0 742.837 169.440   4-0.27094-0.14938 0.05654 0.23297-0.96294 0.95958
  -5  -4   0 935.472 139.545   5 0.32750-0.74776-0.92519 0.63570-0.18982 0.18699
  -5  -4  -1 478.310 102.761   5 0.34863-0.76938-0.91804 0.62854-0.18675 0.10922
  -5  -4  -1 533.854 105.276   4-0.13146-0.28962-0.01378-0.27595-0.99215 0.91466
  -5   4  -1 496.293 144.188   4-0.14576-0.27511-0.00666 0.29625-0.99033 0.91227
  -5  -4  -2 35.4686 49.3541   5 0.35846-0.77971-0.91454 0.62503-0.18528 0.03306
  -5  -4  -2 93.2728 65.7272   4 0.09957-0.52119-0.12596-0.16370-0.98614 0.83396
  -5   4  -2 195.601 104.711   4-0.02776-0.39366-0.06478 0.35444-0.99762 0.84486
  -5  -4  -3 11.9776 40.3117   5 0.35789-0.77964-0.91474 0.62523-0.18536-0.04155
  -5  -4  -3-9.08312 45.2276   4 0.27041-0.69258-0.20549-0.08410-0.93833 0.71145
  -5   4  -3 151.881 98.4258   4 0.07679-0.49875-0.11513 0.40486-0.98967 0.76221
   5  -4   3 89.8431 36.1328   3 0.69045-0.26834 0.67262-0.96231 0.27000-0.04311
  -5  -4  -4-11.1072 47.5056   5 0.34751-0.76976-0.91843 0.62891-0.18691-0.11470
  -5   4  -4-9.41034 60.8543   4 0.16472-0.58722-0.15664 0.44645-0.97242 0.67026
   5  -4   4 59.5215 36.2919   3 0.69067-0.26805 0.67295-0.96266 0.26857 0.03298
   5  -4   5 390.047 91.9748   1 0.58273-0.15962-0.57858 0.28882-0.56620 0.94277
  -5  -4  -5 243.060 92.4475   5 0.32766-0.75041-0.92513 0.63560-0.18980-0.18651
  -5   4  -5 329.010 121.041   4 0.23565-0.65871-0.18955 0.47944-0.95121 0.57436
   5  -4   5 192.936 61.7897   3 0.68845-0.26531 0.66960-0.95932 0.28253 0.09366
  -5  -4  -6 630.869 132.643   5 0.29843-0.72167-0.93417 0.64462-0.19385-0.25714
   5  -4   6 660.781 128.014   1 0.56696-0.14332-0.68321 0.39343-0.45571 0.90698
  -5   4  -6 578.251 158.764   4 0.29094-0.71454-0.21483 0.50479-0.92991 0.47836
   5  -4   6 746.703 123.755   3 0.68466-0.26102 0.66405-0.95379 0.30433 0.14652
  -5  -4  -7 75.1747 59.4659   5 0.25962-0.68335-0.94468 0.65513-0.19890-0.32679
  -5   4  -7 116.585 104.964   4 0.33267-0.75682-0.23368 0.52371-0.91091 0.38465
   5  -4   7-31.6293 38.2715   3 0.67956-0.25541 0.65681-0.94657 0.33069 0.19481
   5  -4   7 7.27998 43.9931   1 0.54088-0.11672-0.76500 0.47520-0.34516 0.87115
   5   4   8 56.7560 80.8272   3 0.66405-0.23964 0.69015-0.40100-0.28252 0.88255
  -5   4  -8-9.46012 95.4871   4 0.36301-0.78770-0.24725 0.53736-0.89542 0.29446
   5  -4   8-51.8026 57.0476   3 0.67321-0.24855 0.64809-0.93786 0.35995 0.24020
   5   4   9-28.4628 79.6232   3 0.68266-0.25774 0.70206-0.41293-0.19709 0.87178
   5  -4   9 16.5530 47.9290   3 0.66562-0.24044 0.63796-0.92774 0.39117 0.28363
  -5  -5   9 7749.04 584.866   3 0.33110-0.74679 0.25999-0.62176 0.90922-0.24016
   5  -5  -9 6618.84 523.756   2 0.17306 0.24272 0.60151-0.96383-0.77841 0.10841
  -5  -5   8 666.460 180.022   3 0.31359-0.72979 0.24149-0.60324 0.92038-0.32596
   5  -5  -8 741.504 179.148   2 0.18128 0.23500 0.59095-0.95322-0.78454 0.18927
  -5  -5   7 9458.03 601.445   3 0.28903-0.70574 0.21563-0.57737 0.93460-0.41484
   5  -5  -7 8497.29 539.108   2 0.19456 0.22223 0.57352-0.93574-0.79414 0.27361
   5  -5  -6 813.321 165.355   2 0.21355 0.20375 0.54775-0.90992-0.80722 0.36141
  -5  -5   6 895.362 188.049   3 0.25609-0.67331 0.18116-0.54288 0.95120-0.50609
  -5  -5   5 12924.2 669.317   3 0.21337-0.63110 0.13677-0.49849 0.96875-0.59829
  -5   5   5 10958.0 616.190   4-0.75749 0.33992 0.32465 0.03690-0.57210 0.94216
   5  -5  -5 12750.6 617.008   2 0.23894 0.17886 0.51167-0.87379-0.82343 0.45236
  -5  -5   5 12285.6 456.573   5 0.11514-0.53291-0.96978 0.60796-0.21448 0.58511
  -5  -5   4 2063.54 273.468   3 0.15962-0.57786 0.08140-0.44310 0.98486-0.68906
  -5   5   4 2080.80 265.630   4-0.69498 0.27687 0.28687 0.07476-0.66457 0.95993
   5  -5  -4 2284.88 261.669   2 0.27112 0.14718 0.46314-0.82522-0.84175 0.54541
  -5  -5   4 2274.81 206.420   5 0.20750-0.62577-0.95624 0.59440-0.20509 0.50103
  -5  -5   3 15906.5 754.258   3 0.09411-0.51287 0.01459-0.37627 0.99607-0.77492
  -5   5   3 16123.8 703.272   4-0.61714 0.19849 0.24190 0.11980-0.75341 0.97407
  -5  -5   3 16325.6 559.578   5 0.28006-0.69882-0.93935 0.57751-0.19629 0.41753
   5  -5  -3 15673.4 635.769   2 0.31012 0.10868 0.39971-0.76173-0.86032 0.63871
  -5   5   2 1607.15 226.088   4-0.52402 0.10481 0.19011 0.17166-0.83418 0.98014
  -5  -5   2 1652.48 251.943   3 0.01726-0.43652-0.06290-0.29876 0.99798-0.85148
  -5  -5   2 1622.86 183.077   5 0.33579-0.75505-0.92244 0.56059-0.18863 0.33518
  -5   5   1 14238.6 641.622   4-0.41777-0.00198 0.13295 0.22890-0.90192 0.97318
  -5  -5   1 13625.9 528.796   5 0.37704-0.79680-0.90760 0.54573-0.18242 0.25428
  -5   5   0 2744.35 300.408   4-0.30309-0.11721 0.07304 0.28888-0.95242 0.94898
  -5  -5   0 2706.34 243.748   5 0.40567-0.82592-0.89606 0.53420-0.17784 0.17500
  -5   5  -1 15876.9 726.107   4-0.18660-0.23424 0.01377 0.34822-0.98369 0.90555
  -5  -5  -1 16020.9 592.689   5 0.42312-0.84387-0.88852 0.52664-0.17492 0.09739
  -5   5  -2 2703.97 309.176   4-0.07532-0.34607-0.04152 0.40359-0.99678 0.84394
  -5  -5  -2 2451.46 245.170   5 0.43049-0.85174-0.88522 0.52333-0.17367 0.02144
  -5  -5  -3 13176.9 478.640   4 0.24473-0.66692-0.19373-0.16827-0.94801 0.72120
  -5   5  -3 13335.4 666.118   4 0.02512-0.44706-0.09038 0.45253-0.99529 0.76775
  -5  -5  -3 12479.0 542.090   5 0.42858-0.85033-0.88608 0.52418-0.17399-0.05293
  -5   5  -4 1658.67 238.622   4 0.11143-0.53391-0.13158 0.49380-0.98404 0.68181
  -5  -5  -4 1549.77 202.290   5 0.41791-0.84015-0.89082 0.52891-0.17580-0.12581
  -5   5  -5 15977.1 739.716   4 0.18263-0.60565-0.16500 0.52730-0.96770 0.59077
  -5  -5  -5 15562.0 623.142   5 0.39873-0.82147-0.89895 0.53704-0.17897-0.19734
  -5  -5  -6 674.530 138.219   5 0.37109-0.79432-0.90987 0.54794-0.18335-0.26766
   5  -5   6 962.138 171.929   1 0.57363-0.15002-0.65052 0.28827-0.49329 0.94457
  -5   5  -6 838.030 186.274   4 0.23937-0.66295-0.19127 0.55364-0.94991 0.49828
  -5   5  -7 6033.42 495.190   4 0.28318-0.70730-0.21131 0.57375-0.93317 0.40684
  -5  -5  -7 5688.25 388.558   5 0.33476-0.75849-0.92279 0.56085-0.18878-0.33692
   5  -5   7 5248.22 380.413   1 0.55330-0.12916-0.73199 0.36972-0.39310 0.91910
   5   5   8 810.053 196.040   3 0.65503-0.23066 0.68379-0.32228-0.31652 0.91654
  -5   5  -8 752.834 199.851   4 0.31582-0.74048-0.22609 0.58861-0.91890 0.31787
  -5   5  -9 6714.49 572.487   4 0.33896-0.76418-0.23650 0.59910-0.90781 0.23209
   5   5   9 8044.10 586.052   3 0.67590-0.25101 0.69798-0.33648-0.23124 0.90591
  -5  -6   8 195.832 115.870   3 0.27541-0.69158 0.20135-0.63548 0.94180-0.34737
   5  -6  -8 1.96173 109.928   2 0.23167 0.18456 0.52219-0.95689-0.81894 0.22363
  -5  -6   7 68.7877 86.8479   3 0.24986-0.66654 0.17467-0.60878 0.95403-0.43425
   5  -6  -7 286.467 135.939   5 0.98972-0.57289 0.11388-0.54826 0.09298-0.61310
   5  -6  -7 32.4549 70.3561   2 0.24587 0.17087 0.50149-0.93614-0.82759 0.30701
  -5  -6   6 28.2731 65.9219   3 0.21645-0.63364 0.13997-0.57406 0.96762-0.52250
   5  -6  -6 117.766 83.1970   2 0.26519 0.15205 0.47233-0.90693-0.83857 0.39272
  -5  -6   5 115.230 54.6233   5 0.20791-0.62568-0.95616 0.52195-0.20505 0.57567
  -5  -6   5 0.92640 70.4587   3 0.17414-0.59184 0.09631-0.53039 0.98114-0.61067
  -5   6   5 44.5439 90.1578   4-0.76148 0.34394 0.32713 0.10683-0.56531 0.93529
   5  -6  -5 89.6963 72.0083   2 0.28992 0.12782 0.43322-0.86777-0.85123 0.48011
  -5  -6   4 319.488 89.9308   5 0.29044-0.70870-0.93647 0.50226-0.19493 0.49085
  -5  -6   4 228.552 116.391   3 0.12209-0.54030 0.04303-0.47710 0.99239-0.69657
   5  -6  -4 167.858 87.4515   2 0.32013 0.09812 0.38254-0.81704-0.86438 0.56800
  -5   6   4 125.626 93.2104   4-0.70247 0.28439 0.29130 0.14273-0.65467 0.94995
  -5  -6   3-9.31624 55.1439   5 0.35464-0.77339-0.91591 0.48169-0.18585 0.40709
  -5  -6   3 45.3012 85.4104   3 0.06000-0.47872-0.01993-0.41412 0.99839-0.77722
  -5   6   3 47.7675 86.6326   4-0.62975 0.21112 0.24906 0.18505-0.74055 0.96113
  -5  -6   2 15.3637 48.7790   5 0.40350-0.82275-0.89698 0.46274-0.17819 0.32473
  -5   6   2 81.6590 79.3404   4-0.54346 0.12429 0.20078 0.23341-0.81918 0.96506
  -5  -6   1 269.005 88.0890   5 0.43931-0.85906-0.88117 0.44692-0.17214 0.24398
  -5   6   1 126.371 75.6856   4-0.44545 0.02573 0.14768 0.28659-0.88640 0.95759
  -5  -6   0 127.210 78.4584   5 0.46383-0.88408-0.86935 0.43510-0.16777 0.16492
  -5   6   0 226.889 97.4957   4-0.33957-0.08070 0.09192 0.34241-0.93862 0.93511
  -5  -6  -1 118.980 78.9725   5 0.47837-0.89911-0.86194 0.42768-0.16508 0.08754
  -5   6  -1 98.7300 82.8941   4-0.23125-0.18956 0.03632 0.39809-0.97391 0.89570
  -5  -6  -2 113.133 70.7978   5 0.48392-0.90516-0.85904 0.42477-0.16404 0.01180
  -5   6  -2 165.112 101.219   4-0.12642-0.29494-0.01628 0.45077-0.99273 0.83982
  -5  -6  -3 163.139 86.6524   5 0.48116-0.90289-0.86049 0.42621-0.16456-0.06237
  -5   6  -3 191.420 108.336   4-0.03014-0.39177-0.06362 0.49818-0.99765 0.77004
  -5  -6  -4-4.25493 55.4940   5 0.47051-0.89275-0.86598 0.43169-0.16654-0.13509
  -5   6  -4-4.73801 81.2138   4 0.05428-0.47673-0.10438 0.53901-0.99252 0.69022
  -5  -6  -5 165.363 85.4749   5 0.45220-0.87493-0.87506 0.44076-0.16986-0.20646
  -5   6  -5 131.676 89.6649   4 0.12541-0.54841-0.13818 0.57289-0.98135 0.60434
  -5  -6  -6 34.9167 58.5660   5 0.42620-0.84943-0.88715 0.45284-0.17440-0.27662
  -5   6  -6 159.747 106.185   4 0.18333-0.60688-0.16533 0.60012-0.96750 0.51580
   5  -6   6 283.747 109.146   1 0.57709-0.15351-0.62900 0.19428-0.51641 0.96771
  -5  -6  -7 50.2524 65.0557   5 0.39229-0.81602-0.90158 0.46727-0.18001-0.34570
  -5   6  -7 99.2958 83.6584   4 0.22902-0.65312-0.18650 0.62136-0.95348 0.42708
   5  -6   7-56.0598 77.2990   1 0.56068-0.13657-0.70784 0.27311-0.42518 0.95119
  -5  -6  -8 95.6313 73.2036   5 0.35001-0.77424-0.91755 0.48323-0.18654-0.41386
   5   6   8 104.296 94.6725   3 0.64764-0.22329 0.67839-0.24451-0.34206 0.94206
  -5   6  -8 220.826 127.661   4 0.26385-0.68849-0.20249 0.63742-0.94089 0.33979
   5  -6   8 103.667 78.2837   1 0.53739-0.11275-0.77304 0.33830-0.33265 0.93337
  -5   6  -9 346.256 151.942   4 0.28924-0.71442-0.21406 0.64907-0.93064 0.25484
  -5  -7   8 1889.96 313.258   3 0.23571-0.65185 0.15994-0.66643 0.96011-0.36567
   5  -7  -8 1805.53 294.020   2 0.27883 0.13736 0.45102-0.95815-0.84575 0.25039
  -5  -7   7 9775.83 683.703   3 0.20944-0.62609 0.13271-0.63918 0.97014-0.45035
   5  -7  -7 10171.5 651.328   2 0.29322 0.12347 0.42784-0.93493-0.85280 0.33217
   5  -7  -7 9550.70 583.069   5 0.99612-0.57928 0.05026-0.55702 0.07886-0.59899
  -5  -7   6 1735.77 295.279   3 0.17583-0.59299 0.09805-0.60451 0.98068-0.53554
   5  -7  -6 2161.13 293.297   2 0.31206 0.10513 0.39640-0.90344-0.86113 0.41523
   5  -7  -6 1709.20 255.282   5 0.98958-0.57224 0.11494-0.62169 0.09322-0.53865
  -5  -7   5 6702.18 559.485   3 0.13414-0.55180 0.05532-0.56176 0.99030-0.61981
  -5   7   5 5894.17 465.314   4-0.76892 0.35141 0.33179 0.17459-0.55228 0.92219
  -5  -7   4 2709.54 366.340   3 0.08385-0.50203 0.00418-0.51061 0.99702-0.70118
  -5   7   4 3193.13 328.142   4-0.71392 0.29586 0.29812 0.20833-0.63898 0.93419
  -5  -7   4 3186.46 272.136   5 0.35293-0.77118-0.91652 0.40993-0.18611 0.48203
  -5  -7   3 8586.65 611.954   3 0.02495-0.44364-0.05519-0.45122 0.99832-0.77714
  -5   7   3 8746.93 525.374   4-0.64661 0.22801 0.25871 0.24782-0.72250 0.94301
  -5  -7   3 7808.53 433.001   5 0.40991-0.82866-0.89427 0.38767-0.17714 0.39836
  -5   7   2 2830.14 292.825   4-0.56716 0.14802 0.21388 0.29272-0.79964 0.94545
  -5  -7   2 2699.58 263.615   5 0.45305-0.87230-0.87464 0.36803-0.16971 0.31624
  -5   7   1 9780.57 533.204   4-0.47711 0.05742 0.16466 0.34202-0.86688 0.93799
  -5  -7   1 9922.82 509.809   5 0.48448-0.90422-0.85874 0.35212-0.16393 0.23577
  -5   7   0 4065.96 355.767   4-0.37959-0.04065 0.11282 0.39393-0.92110 0.91752
  -5  -7   0 4253.84 341.878   5 0.50577-0.92601-0.84715 0.34052-0.15983 0.15697
  -5   7  -1 11956.7 629.205   4-0.27906-0.14173 0.06070 0.44613-0.96042 0.88214
  -5  -7  -1 12689.1 595.699   5 0.51811-0.93885-0.84011 0.33348-0.15738 0.07983
  -5   7  -2 2711.45 325.031   4-0.18054-0.24079 0.01073 0.49617-0.98481 0.83183
  -5  -7  -2 3003.08 301.952   5 0.52237-0.94360-0.83763 0.33099-0.15653 0.00428
  -5   7  -3 8663.93 590.212   4-0.08855-0.33333-0.03501 0.54199-0.99604 0.76836
  -5  -7  -3 9040.30 521.852   5 0.51912-0.94085-0.83953 0.33287-0.15718-0.06976
  -5  -7  -4 1209.15 203.731   5 0.50873-0.93096-0.84548 0.33881-0.15925-0.14239
  -5   7  -4 1324.75 238.374   4-0.00635-0.41608-0.07518 0.58223-0.99709 0.69472
  -5   7  -5 6229.13 506.878   4 0.06433-0.48730-0.10918 0.61631-0.99133 0.61425
  -5  -7  -5 5443.19 420.890   5 0.49135-0.91408-0.85507 0.34840-0.16263-0.21370
  -5  -7  -6 1201.40 208.262   5 0.46694-0.89016-0.86779 0.36110-0.16720-0.28383
  -5   7  -6 1119.70 229.570   4 0.12306-0.54658-0.13707 0.64427-0.98182 0.53004
   5  -7   6 1213.70 229.126   1 0.57881-0.15526-0.61644 0.10926-0.52936 0.98067
   5  -7   7 5848.98 488.444   1 0.56497-0.14089-0.69153 0.18433-0.44563 0.97165
  -5  -7  -7 4744.95 395.819   5 0.43526-0.85899-0.88304 0.37634-0.17284-0.35288
  -5   7  -7 5201.57 488.856   4 0.17035-0.59442-0.15928 0.66655-0.97098 0.44451
  -5  -7  -8 1167.84 202.670   5 0.39588-0.82010-0.90012 0.39342-0.17943-0.42098
  -5   7  -8 1407.66 270.340   4 0.20718-0.63180-0.17641 0.68376-0.96053 0.35936
   5   7   8 1523.92 289.099   3 0.64213-0.21782 0.67427-0.16803-0.35993 0.95992
   5  -7   8 1087.54 212.193   1 0.54478-0.12017-0.75546 0.24825-0.35956 0.96029
  -5  -8   7 173.475 119.960   3 0.16789-0.58451 0.08989-0.66873 0.98280-0.46299
   5  -8  -7 158.677 105.394   5 0.99823-0.58139-0.01003-0.56911 0.06521-0.58535
  -5  -8   6 201.920 120.921   3 0.13433-0.55145 0.05552-0.63434 0.99026-0.54511
   5  -8  -6 213.992 131.342   5 0.99621-0.57887 0.04887-0.62800 0.07855-0.52399
  -5  -8   5 428.937 168.414   3 0.09344-0.51107 0.01390-0.59271 0.99614-0.62564
  -5   8   5 5.23967 73.8081   4-0.77931 0.36183 0.33836 0.24044-0.53329 0.90312
   5  -8  -5 161.913 110.898   5 0.99140-0.57356 0.10072-0.67983 0.09008-0.46083
  -5  -8   4 11.3016 49.8371   5 0.39834-0.81659-0.89912 0.32014-0.17903 0.47494
  -5  -8   4 233.706 135.240   3 0.04496-0.46311-0.03508-0.54371 0.99866-0.70282
  -5   8   4-149.060 88.3831   4-0.72867 0.31064 0.30700 0.27187-0.61769 0.91283
  -5  -8   3 1.96528 70.4562   5 0.44943-0.86817-0.87639 0.29741-0.17036 0.39157
  -5   8   3 192.968 94.8387   4-0.66697 0.24839 0.27047 0.30848-0.69930 0.91974
  -5  -8   2 15.3809 72.5320   5 0.48800-0.90725-0.85687 0.27788-0.16327 0.30979
  -5   8   2 91.5180 75.9393   4-0.59433 0.17520 0.22903 0.34998-0.77542 0.92116
  -5  -8   1 1.75903 63.4909   5 0.51599-0.93573-0.84134 0.26234-0.15781 0.22963
  -5   8   1 55.5480 72.2039   4-0.51199 0.09232 0.18355 0.39554-0.84302 0.91406
  -5  -8   0 227.942 109.522   5 0.53483-0.95507-0.83020 0.25119-0.15398 0.15111
  -5   8   0 221.945 102.342   4-0.42249 0.00227 0.13545 0.44371-0.89937 0.89571
  -5  -8  -1 83.2370 92.0002   5 0.54556-0.96629-0.82360 0.24459-0.15174 0.07418
  -5   8  -1 64.2429 68.8770   4-0.32949-0.09128 0.08669 0.49255-0.94263 0.86428
  -5  -8  -2 85.4351 82.1644   5 0.54893-0.97017-0.82149 0.24246-0.15102-0.00123
  -5   8  -2 47.0875 76.2326   4-0.23722-0.18409 0.03935 0.53997-0.97240 0.81935
  -5  -8  -3 149.125 89.2218   5 0.54546-0.96719-0.82366 0.24463-0.15176-0.07519
  -5   8  -3 50.8530 91.5865   4-0.14970-0.27215-0.00470 0.58409-0.98978 0.76203
  -5  -8  -4 57.7404 83.3373   5 0.53545-0.95767-0.82983 0.25078-0.15385-0.14780
  -5   8  -4 57.8280 81.3672   4-0.07009-0.35231-0.04409 0.62355-0.99701 0.69456
  -5  -8  -5 6.88223 69.9281   5 0.51899-0.94171-0.83960 0.26055-0.15721-0.21913
  -5   8  -5-199.258 125.294   4-0.00033-0.42262-0.07809 0.65763-0.99684 0.61969
  -5  -8  -6 159.458 91.4139   5 0.49604-0.91926-0.85253 0.27347-0.16173-0.28931
   5  -8   6-79.3159 100.878   1 0.57948-0.15596-0.61104 0.03139-0.53481 0.98613
  -5   8  -6 204.702 125.823   4 0.05879-0.48228-0.10654 0.68615-0.99200 0.54015
  -5  -8  -7-76.0180 78.0465   5 0.46635-0.89007-0.86808 0.28901-0.16731-0.35842
  -5   8  -7 280.663 140.123   4 0.10733-0.53137-0.12963 0.70932-0.98479 0.45824
   5  -8   7 57.5138 104.514   1 0.56727-0.14322-0.68188 0.10221-0.45731 0.98334
   5  -8   8 293.243 143.923   1 0.54928-0.12470-0.74356 0.16388-0.37688 0.97763
  -5   8  -8-65.7046 91.2535   4 0.14590-0.57048-0.14782 0.72759-0.97694 0.37570
   5  -9  -7 4151.57 430.956   5 0.99669-0.57984-0.06762-0.58390 0.05193-0.57208
  -5  -9   6 2167.36 378.444   3 0.09202-0.50912 0.01247-0.66366 0.99628-0.55111
   5  -9  -6 2388.76 328.173   5 0.99824-0.58089-0.01384-0.63766 0.06434-0.50979
  -5  -9   5 3526.42 459.498   3 0.05211-0.46971-0.02788-0.62329 0.99859-0.62808
   5  -9  -5 3555.35 399.757   5 0.99709-0.57925 0.03343-0.68493 0.07508-0.44583
  -5   9   4 1887.23 255.887   4-0.74612 0.32812 0.31763 0.33365-0.59077 0.88584
  -5  -9   4 2418.56 369.020   3 0.00549-0.42360-0.07469-0.57647 0.99722-0.70136
   5  -9  -4 2242.45 308.838   5 0.99421-0.57587 0.07422-0.72571 0.08422-0.38028
  -5  -9   4 1911.13 240.498   5 0.42987-0.84812-0.88550 0.23414-0.17377 0.46967
  -5   9   3 5629.42 435.113   4-0.69015 0.27160 0.28402 0.36734-0.67082 0.89118
   5  -9  -3 6580.61 517.337   5 0.99043-0.57159 0.10850-0.75998 0.09180-0.31317
  -5  -9   3 5739.07 426.724   5 0.47629-0.89503-0.86302 0.21166-0.16547 0.38668
  -5   9   2 2386.79 276.341   4-0.62426 0.20517 0.24594 0.40549-0.74621 0.89188
  -5  -9   2 1870.37 253.004   5 0.51132-0.93055-0.84402 0.19264-0.15874 0.30525
  -5   9   1 6288.53 439.853   4-0.54945 0.12980 0.20407 0.44743-0.81438 0.88535
  -5  -9   1 7059.28 490.056   5 0.53669-0.95642-0.82908 0.17769-0.15359 0.22541
  -5   9   0 3712.26 342.430   4-0.46772 0.04753 0.15960 0.49198-0.87288 0.86915
  -5  -9   0 3987.29 376.565   5 0.55368-0.97392-0.81848 0.16709-0.15001 0.14713
  -5   9  -1 4954.67 412.121   4-0.38207-0.03867 0.11412 0.53753-0.91993 0.84150
  -5  -9  -1 6103.35 469.493   5 0.56325-0.98398-0.81230 0.16090-0.14795 0.07038
  -5   9  -2 2555.86 318.642   4-0.29607-0.12522 0.06943 0.58230-0.95484 0.80172
  -5  -9  -2 2838.93 330.774   5 0.56606-0.98728-0.81046 0.15905-0.14734-0.00493
  -5   9  -3 3983.69 412.581   4-0.21327-0.20856 0.02721 0.62459-0.97817 0.75035
  -5  -9  -3 4189.81 403.521   5 0.56253-0.98425-0.81277 0.16135-0.14810-0.07886
  -5   9  -4 1844.05 306.256   4-0.13665-0.28573-0.01120 0.66308-0.99152 0.68899
  -5  -9  -4 2988.72 345.960   5 0.55294-0.97516-0.81896 0.16753-0.15017-0.15148
  -5   9  -5 3077.43 403.916   4-0.06828-0.35464-0.04498 0.69693-0.99708 0.61986
  -5  -9  -5 3205.76 366.503   5 0.53735-0.96007-0.82867 0.17723-0.15346-0.22289
  -5  -9  -6 2178.34 299.120   5 0.51570-0.93891-0.84151 0.19006-0.15787-0.29318
   5  -9   6 1321.86 275.192   1 0.57944-0.15595-0.61138-0.04075-0.53447 0.98581
  -5   9  -6 2379.21 349.326   4-0.00928-0.41419-0.07376 0.72579-0.99720 0.54528
  -5  10   4 287.660 112.718   4-0.76568 0.34770 0.32975 0.39394-0.55802 0.85302
   5 -10  -4 106.744 107.358   5 0.99803-0.57969 0.00654-0.73041 0.06899-0.36506
  -5 -10   3 53.1049 72.1403   5 0.49299-0.91172-0.85419 0.13045-0.16231 0.38351
  -5  10   3 115.442 82.7352   4-0.71553 0.29700 0.29908 0.42469-0.63672 0.85701
   5 -10  -3 128.935 104.281   5 0.99688-0.57804 0.03752-0.76138 0.07600-0.29737
  -5 -10   2 27.5448 73.6739   5 0.52530-0.94453-0.83591 0.11216-0.15593 0.30243
  -5  10   2 140.745 85.4810   4-0.65637 0.23729 0.26433 0.45952-0.71158 0.85718
   5 -10  -2 85.1382 100.474   5 0.99524-0.57590 0.06225-0.78610 0.08155-0.22823
  -5 -10   1 191.664 109.064   5 0.54870-0.96843-0.82164 0.09788-0.15107 0.22288
  -5  10   1 22.4898 57.6836   4-0.58893 0.16931 0.22601 0.49791-0.78039 0.85129
   5 -10  -1 201.912 112.231   5 0.99361-0.57377 0.08058-0.80442 0.08563-0.15762
  -5 -10   0 251.186 113.927   5 0.56435-0.98458-0.81158 0.08781-0.14771 0.14482
  -5  10   0 133.655 65.3707   4-0.51481 0.09464 0.18508 0.53891-0.84098 0.83718
   5 -10   0-251.966 127.322   5 0.99238-0.57204 0.09228-0.81611 0.08822-0.08551
  -5 -10  -1 46.7052 77.0942   5 0.57310-0.99383-0.80577 0.08199-0.14578 0.06820
   5 -10   1 102.362 99.0712   5 0.99183-0.57100 0.09704-0.82087 0.08927-0.01187
  -5 -10  -2 117.460 90.9364   5 0.57555-0.99677-0.80412 0.08033-0.14524-0.00704
   5 -10   2-120.889 100.176   5 0.99213-0.57080 0.09447-0.81828 0.08871 0.06339
  -5 -10  -3 165.112 107.098   5 0.57209-0.99381-0.80645 0.08266-0.14601-0.08096
   5 -10   3-143.878 102.583   5 0.99326-0.57144 0.08401-0.80782 0.08639 0.14040
  -5 -10  -4 252.144 127.309   5 0.56293-0.98514-0.81251 0.08871-0.14802-0.15365
   5 -10   4 109.116 97.0922   5 0.99502-0.57270 0.06494-0.78874 0.08215 0.21934
  -5 -11   3 2964.84 351.710   5 0.50138-0.92011-0.84959 0.05347-0.16069 0.38188
  -5 -11   2 1897.45 285.122   5 0.53166-0.95088-0.83212 0.03599-0.15463 0.30113
  -5 -11   1 2211.77 319.473   5 0.55361-0.97333-0.81853 0.02239-0.15003 0.22183
  -5 -11   0 2458.90 331.315   5 0.56830-0.98852-0.80898 0.01283-0.14684 0.14395
   5 -11   1 1997.17 309.703   5 0.99764-0.57680 0.02059-0.81679 0.07218 0.00522
   5 -11   2 1943.92 307.554   5 0.99777-0.57644 0.01649-0.81269 0.07125 0.08084
   5 -11   3 2510.16 343.876   5 0.99807-0.57624 0.00481-0.80100 0.06860 0.15818
  -6   0  10 7733.16 538.901   3 0.42830-0.92773 0.36414-0.36407 0.82977-0.08671
  -6   0   9-188.037 96.2969   3 0.42031-0.92025 0.35548-0.35539 0.83755-0.16914
  -6   0   8 8933.02 525.768   3 0.40578-0.90623 0.33978-0.33967 0.85108-0.25732
  -6   0   7-39.3670 70.8828   3 0.38276-0.88372 0.31503-0.31491 0.87095-0.35184
  -6   0   6 20587.4 723.153   3 0.34852-0.84999 0.27847-0.27834 0.89724-0.45278
  -6   0   5-79.0145 52.4594   3 0.29936-0.80134 0.22649-0.22634 0.92882-0.55901
  -6   0   5 77.8976 69.0065   4-0.78067 0.27889 0.33922-0.33978-0.53072 0.90052
  -6   0   4 14700.4 584.760   3 0.23082-0.73332 0.15487-0.15470 0.96210-0.66695
  -6   0   4 14871.8 594.999   4-0.71559 0.21327 0.29912-0.29961-0.63663 0.93173
  -6   0   3-27.2707 62.9860   3 0.13874-0.64175 0.06003-0.05985 0.98942-0.76891
  -6   0   3-2.28066 47.9316   4-0.62946 0.12659 0.24889-0.24930-0.74085 0.96126
  -6   0   2 22828.3 758.706   3 0.02205-0.52557-0.05809 0.05829 0.99821-0.85236
  -6   0   2 24666.1 785.984   4-0.52097 0.01756 0.18845-0.18878-0.83645 0.98215
   6   0  -2 24332.3 608.700   2 0.06924 0.43442 0.72021-0.71997-0.68939 0.54332
  -6   0   2 23639.4 643.097   5-0.34207-0.16127-0.91112 0.91117-0.23218 0.37821
  -6   0   1 30.8226 40.3973   5-0.29166-0.21218-0.92828 0.92833-0.23267 0.30401
   6   0  -1 42.0423 32.8243   2 0.14531 0.35886 0.63585-0.63556-0.75668 0.68534
  -6   0   1 77.9855 90.2687   4-0.39269-0.11128 0.11970-0.11996-0.91480 0.98581
  -6   0   0 13747.6 661.231   4-0.25226-0.25226 0.04700-0.04718-0.96838 0.96469
   6   0   0 14824.0 408.247   2 0.25228 0.25240 0.49195-0.49161-0.83133 0.83473
  -6   0   0 14713.8 516.676   5-0.25217-0.25217-0.93973 0.93977-0.23261 0.22925
  -6   0  -1 11.5598 47.6461   5-0.22379-0.28104-0.94692 0.94695-0.23232 0.15427
  -6   0  -1 124.285 97.3443   4-0.11112-0.39394-0.02387 0.02376-0.99428 0.91589
  -6   0  -2 20273.1 800.752   4 0.01938-0.52499-0.08761 0.08758-0.99571 0.84262
  -6   0  -2 20006.9 607.754   5-0.20655-0.29878-0.95087 0.95089-0.23205 0.07930
  -6   0  -3 44.3318 46.3981   5-0.20039-0.30544-0.95220 0.95221-0.23193 0.00450
  -6   0  -3-31.7040 66.6311   4 0.13166-0.63781-0.14113 0.14117-0.98006 0.75227
  -6   0  -4 19353.4 776.091   4 0.22297-0.72967-0.18371 0.18383-0.95550 0.65302
  -6   0  -4 19546.5 615.631   5-0.20520-0.30112-0.95116 0.95116-0.23202-0.07011
  -6   0  -5 18.5410 49.9936   5-0.22093-0.28589-0.94760 0.94759-0.23228-0.14455
   6   0   5 91.1347 61.3406   3 0.64715-0.14005 0.67803-0.67833-0.34368 0.72039
  -6   0  -5 20.3415 72.7128   4 0.29417-0.80141-0.21629 0.21649-0.92854 0.55135
   6   0   6 15538.1 602.345   3 0.67267-0.16506 0.69592-0.69624-0.24613 0.69750
  -6   0  -6 16467.4 755.734   4 0.34787-0.85566-0.24049 0.24076-0.90333 0.45144
  -6   0  -6 17214.4 590.101   5-0.24760-0.25971-0.94095 0.94093-0.23257-0.21895
   6   0   7-1.57979 44.6669   3 0.68944-0.18132 0.70571-0.70604-0.15735 0.68337
   6   0   8 8687.69 511.626   3 0.69971-0.19109 0.70955-0.70990-0.07595 0.67662
   6   0   9-10.9652 70.4703   3 0.70501-0.19587 0.70886-0.70923-0.00060 0.67592
   6   0  10 6191.64 487.364   3 0.70633-0.19668 0.70457-0.70495 0.06984 0.68014
  -6   1  10-217.375 96.7695   3 0.44816-0.94762 0.38576-0.31332 0.80931-0.06626
  -6  -1  10 292.499 120.340   3 0.40583-0.90523 0.33984-0.41213 0.85103-0.10795
  -6   1   9-0.77437 60.1670   3 0.44135-0.94132 0.37833-0.30588 0.81651-0.14811
  -6  -1   9 54.5299 89.1084   3 0.39663-0.89654 0.32993-0.40221 0.85920-0.19077
  -6   1   8 133.942 81.8967   3 0.42794-0.92842 0.36375-0.29128 0.83013-0.23638
  -6  -1   8 361.607 123.818   3 0.38096-0.88138 0.31310-0.38536 0.87243-0.27865
  -6  -1   7 288.465 108.886   3 0.35710-0.85803 0.28761-0.35985 0.89100-0.37187
  -6   1   7 197.704 92.0083   3 0.40574-0.90673 0.33973-0.26725 0.85112-0.33202
  -6   1   6 124.787 69.9293   3 0.37148-0.87298 0.30295-0.23045 0.88003-0.43558
  -6  -1   6 13.3539 60.1511   3 0.32277-0.82421 0.25117-0.32340 0.91464-0.47017
  -6   1   5 104.284 76.7824   3 0.32043-0.82244 0.24870-0.17619 0.91612-0.54633
  -6  -1   5 199.099 88.7635   3 0.27509-0.77704 0.20101-0.27323 0.94196-0.57214
   6  -1  -5 108.157 72.3127   2 0.02499 0.47712 0.76299-0.83532-0.64527 0.27496
  -6   1   5 74.8446 72.5495   4-0.76273 0.26098 0.32791-0.25605-0.56315 0.93288
  -6   1   4 284.753 90.3504   3 0.24629-0.74881 0.17095-0.09842 0.95561-0.66047
  -6  -1   4 377.132 118.597   3 0.21087-0.71334 0.13419-0.20639 0.96964-0.67447
  -6  -1   4 284.186 84.8227   5-0.35104-0.15130-0.90776 0.83545-0.23202 0.52743
   6  -1  -4 294.597 87.8650   2 0.05164 0.45097 0.73777-0.81006-0.67227 0.37669
  -6   1   4 262.289 95.3702   4-0.69558 0.19328 0.28722-0.21529-0.66379 0.95882
  -6  -1   4 328.728 99.6905   4-0.74243 0.24008 0.31537-0.38827-0.59663 0.89181
  -6  -1   3 100.341 57.4308   5-0.27509-0.22775-0.93330 0.86098-0.23269 0.45341
  -6   1   3 51.9957 51.1300   3 0.14235-0.64539 0.06371 0.00883 0.98870-0.76821
  -6  -1   3 160.636 99.1161   3 0.12753-0.63050 0.04858-0.12077 0.99148-0.77096
   6  -1  -3 104.939 55.2284   2 0.09070 0.41241 0.69782-0.77006-0.70948 0.48863
  -6   1   3 270.727 104.885   4-0.60945 0.10661 0.23755-0.16554-0.76101 0.98134
  -6  -1   3 295.700 87.2405   4-0.65868 0.15578 0.26566-0.33848-0.70895 0.92942
  -6  -1   2 24.8556 50.2547   5-0.21092-0.29242-0.94990 0.87757-0.23212 0.37815
   6  -1  -2 63.5538 47.3186   2 0.14565 0.35797 0.63545-0.70764-0.75695 0.61084
  -6  -1   2-39.8629 66.2779   3 0.02485-0.52834-0.05528-0.01689 0.99832-0.85245
  -6   1   2 120.417 66.4991   3 0.00590-0.50945-0.07427 0.14683 0.99725-0.85142
  -6   1   2 202.145 99.0584   4-0.50403 0.00063 0.17921-0.10713-0.84870 0.99433
  -6  -1   2 76.5780 72.0538   4-0.54904 0.04560 0.20385-0.27659-0.81471 0.96049
   6  -1  -1 144.609 56.6811   2 0.21975 0.28437 0.53911-0.61125-0.81131 0.73993
  -6  -1   1 126.594 64.4851   5-0.15879-0.34505-0.96019 0.88786-0.23093 0.30226
   6   1  -1 145.626 52.2812   2 0.05711 0.44711 0.73239-0.65966-0.67765 0.60636
  -6   1   1 75.5746 92.4641   4-0.38220-0.12173 0.11419-0.04203-0.91986 0.99080
  -6  -1   1 152.920 76.8078   4-0.41510-0.08889 0.13154-0.20421-0.90334 0.97442
  -6   1   0 2469.58 301.262   4-0.25079-0.25370 0.04625 0.02598-0.96879 0.96502
  -6  -1   0 3063.56 304.881   4-0.26517-0.23937 0.05359-0.12618-0.96467 0.96106
   6  -1   0 2566.57 185.796   2 0.31390 0.19072 0.39327-0.46536-0.86189 0.86524
   6   1   0 2593.79 154.954   2 0.17082 0.33390 0.60436-0.53158-0.77671 0.78016
  -6  -1   0 2917.18 236.282   5-0.11869-0.38564-0.96623 0.89389-0.22958 0.22622
  -6   1   0 2753.99 225.034   5-0.38565-0.11869-0.89387 0.96628-0.23120 0.22785
  -6  -1  -1 32.2179 45.8784   5-0.09042-0.41441-0.96952 0.89717-0.22841 0.15035
  -6   1  -1-0.22183 47.9951   5-0.35890-0.14594-0.90473 0.97714-0.23186 0.15382
  -6  -1  -1 72.5134 78.1474   4-0.11307-0.39201-0.02290-0.04962-0.99410 0.91578
  -6   1  -1 19.8055 87.7140   4-0.11926-0.38577-0.01983 0.09214-0.99349 0.91503
  -6  -1  -2 267.340 82.4930   5-0.07368-0.43164-0.97109 0.89873-0.22763 0.07488
  -6   1  -2 152.392 78.9632   5-0.34245-0.16288-0.91098 0.98338-0.23217 0.07944
  -6  -1  -2 159.746 98.8307   4 0.02712-0.53275-0.09134 0.01890-0.99513 0.84212
  -6   1  -2 174.968 113.386   4 0.00304-0.50861-0.07972 0.15210-0.99668 0.84352
  -6  -1  -3 2110.26 255.788   4 0.14629-0.65247-0.14801 0.07563-0.97685 0.74914
  -6   1  -3 1904.71 252.256   4 0.10961-0.61574-0.13072 0.20317-0.98438 0.75652
  -6  -1  -3 1501.98 175.898   5-0.06818-0.43764-0.97155 0.89918-0.22736-0.00009
  -6   1  -3 1836.69 190.842   5-0.33649-0.16934-0.91316 0.98555-0.23227 0.00484
  -6  -1  -4 533.228 110.031   5-0.07363-0.43269-0.97110 0.89872-0.22763-0.07451
  -6   1  -4 619.657 120.141   5-0.34111-0.16522-0.91147 0.98386-0.23219-0.06993
   6  -1   4 569.819 109.653   3 0.64764-0.14103 0.67839-0.75104-0.34204 0.64411
  -6  -1  -4 611.102 148.953   4 0.24161-0.74834-0.19230 0.12000-0.94912 0.64671
  -6   1  -4 789.642 171.050   4 0.19773-0.70440-0.17203 0.24456-0.96338 0.66083
  -6  -1  -5 164.786 70.2843   5-0.08986-0.41696-0.96958 0.89719-0.22839-0.14845
  -6   1  -5 214.401 70.0908   5-0.35637-0.15045-0.90571 0.97808-0.23191-0.14490
   6  -1   5 226.528 81.6617   3 0.67439-0.16726 0.69703-0.76969-0.23829 0.61502
  -6  -1  -5 225.188 107.789   4 0.31464-0.82191-0.22556 0.15334-0.91944 0.54233
  -6   1  -5 249.574 106.346   4 0.26767-0.77489-0.20423 0.27684-0.93941 0.56215
  -6  -1  -6 16.0784 43.7468   5-0.11682-0.39049-0.96647 0.89408-0.22951-0.22202
  -6   1  -6 304.299 82.5033   5-0.38242-0.12491-0.89523 0.96759-0.23129-0.22022
  -6  -1  -6 22.4367 69.5571   4 0.36878-0.87660-0.24982 0.17767-0.89231 0.44050
   6   1   6 160.285 87.6993   3 0.65201-0.14444 0.68160-0.60955-0.32719 0.77854
   6  -1   6 90.1221 62.2155   3 0.69104-0.18340 0.70648-0.77916-0.14680 0.59818
  -6   1  -6 12.5819 67.0771   4 0.32137-0.82913-0.22859 0.30127-0.91632 0.46436
  -6  -1  -7 211.079 75.8865   5-0.15469-0.35312-0.96089 0.88848-0.23081-0.29541
   6   1   7 231.795 95.2042   3 0.67507-0.16699 0.69746-0.62543-0.23510 0.76111
   6  -1   7 242.704 83.7403   3 0.70074-0.19259 0.70970-0.78240-0.06493 0.59096
  -6   1  -7 243.039 115.695   4 0.36130-0.86961-0.24649 0.31925-0.89633 0.36967
   6   1   8 55.8309 74.9224   3 0.69063-0.18204 0.70629-0.63427-0.14952 0.75017
   6  -1   8 5.86112 51.3762   3 0.70541-0.19676 0.70846-0.78118 0.00951 0.59118
   6   1   9 74.1836 77.2374   3 0.70031-0.19121 0.70965-0.63765-0.06964 0.74495
   6  -1   9 171.804 87.6387   3 0.70625-0.19708 0.70382-0.77655 0.07822 0.59712
   6   1  10 60.2361 75.1762   3 0.70525-0.19564 0.70864-0.63665 0.00534 0.74462
   6  -1  10-152.402 84.7703   3 0.70398-0.19430 0.69641-0.76915 0.14247 0.60751
  -6  -2  10 7529.65 565.922   3 0.38092-0.88028 0.31306-0.45772 0.87246-0.12936
  -6  -2   9 181.467 97.2334   3 0.37052-0.87040 0.30193-0.44657 0.88078-0.21233
   6  -2  -9 130.544 89.6655   2 0.04429 0.45575 0.74488-0.88985-0.66496-0.00433
  -6  -2   8 9313.88 568.755   3 0.35374-0.85413 0.28403-0.42866 0.89347-0.29967
   6  -2  -8 9785.47 574.726   2 0.04628 0.45426 0.74297-0.88788-0.66695 0.07239
  -6  -2   7 608.065 143.719   3 0.32908-0.82998 0.25785-0.40247 0.91055-0.39141
   6  -2  -7 391.330 116.531   2 0.05333 0.44772 0.73611-0.88098-0.67394 0.15411
  -6   2   7 505.097 124.614   3 0.42565-0.92668 0.36127-0.21642 0.83238-0.31330
  -6   2   6 21156.4 680.303   3 0.39111-0.89265 0.32399-0.17913 0.86396-0.41953
  -6  -2   6 20408.2 780.191   3 0.29465-0.79606 0.22154-0.36613 0.93149-0.48700
   6  -2  -6 19699.5 738.894   2 0.06652 0.43503 0.72297-0.86779-0.68678 0.24168
  -6   2   5 28.2026 44.1468   3 0.33742-0.83947 0.26669-0.12181 0.90497-0.53520
  -6  -2   5 35.0084 77.8320   3 0.24822-0.75014 0.17296-0.31754 0.95476-0.58492
  -6  -2   5 114.596 48.4057   5-0.31680-0.18504-0.92009 0.77541-0.23251 0.60261
   6  -2  -5-6.85391 55.0694   2 0.08724 0.41482 0.70151-0.84628-0.70630 0.33594
  -6   2   5-16.4773 56.7839   4-0.74969 0.24796 0.31982-0.17555-0.58502 0.95468
  -6   2   4 18110.7 566.821   3 0.25552-0.75808 0.18056-0.03567 0.95146-0.65634
  -6  -2   4 17403.6 711.263   3 0.18753-0.68996 0.11009-0.25465 0.97730-0.68211
  -6   2   4 16705.1 722.649   4-0.68222 0.17995 0.27936-0.13501-0.68083 0.97578
  -6  -2   4 17330.6 568.241   4-0.77573 0.27336 0.33609-0.48140-0.53994 0.83519
   6  -2  -4 17350.3 632.089   2 0.11721 0.38535 0.66865-0.81336-0.73311 0.43749
  -6  -2   4 17490.9 548.777   5-0.22539-0.27695-0.94654 0.80185-0.23234 0.52774
  -6  -2   3 191.322 71.4419   5-0.14753-0.35530-0.96205 0.81736-0.23059 0.45130
   6  -2  -3 158.021 69.9663   2 0.15853 0.34453 0.61974-0.76441-0.76723 0.54633
  -6   2   3 263.394 78.2650   3 0.13421-0.63728 0.05540 0.08951 0.99028-0.76981
  -6  -2   3 209.749 113.064   3 0.11099-0.61393 0.03173-0.17628 0.99404-0.77351
  -6   2   3 215.610 100.191   4-0.59776 0.09494 0.23096-0.08654-0.77221 0.99247
  -6  -2   3 203.092 71.7065   4-0.69771 0.19478 0.28848-0.43372-0.66100 0.88155
  -6  -2   2 21624.3 838.750   3 0.01888-0.52234-0.06127-0.08326 0.99806-0.85218
  -6   2   2 18406.8 763.863   4-0.49655-0.00681 0.17516-0.03066-0.85390 0.99946
  -6  -2   2 20685.9 604.140   4-0.59002 0.08655 0.22662-0.37178-0.77940 0.92525
   6  -2  -2 20524.8 614.597   2 0.21282 0.29075 0.54875-0.69337-0.80673 0.66057
  -6  -2   2 21605.4 627.165   5-0.08313-0.42020-0.97024 0.82553-0.22808 0.37409
  -6  -2   1 1373.30 172.866   4-0.45218-0.05184 0.15127-0.29636-0.88242 0.95357
   6  -2  -1 1210.61 146.374   2 0.28111 0.22296 0.44740-0.59197-0.84690 0.77547
  -6   2   1 912.630 193.000   4-0.38152-0.12239 0.11383 0.03074-0.92019 0.99105
  -6  -2   1 1222.93 156.822   5-0.03183-0.47200-0.97382 0.82910-0.22541 0.29673
  -6   2   0 16396.4 770.895   4-0.25857-0.24588 0.05022 0.09443-0.96660 0.96276
  -6  -2   0 19293.4 691.855   4-0.29250-0.21206 0.06759-0.21261-0.95605 0.95250
   6   2   0 17735.9 381.535   2 0.06535 0.43942 0.72416-0.57895-0.68565 0.68914
  -6  -2   0 16662.1 570.606   5 0.00687-0.51119-0.97481 0.83009-0.22300 0.21963
  -6  -2  -1 3.91836 46.4274   5 0.03354-0.53836-0.97464 0.82991-0.22114 0.14308
  -6  -2  -1-27.0752 67.2046   4-0.12769-0.37742-0.01565-0.12929-0.99258 0.91434
  -6   2  -1-2.62301 90.9436   4-0.13563-0.36938-0.01171 0.15643-0.99165 0.91311
  -6  -2  -2 15912.3 662.762   4 0.02431-0.52997-0.08999-0.05487-0.99535 0.84241
  -6   2  -2 17908.0 798.692   4-0.02048-0.48508-0.06832 0.21312-0.99751 0.84427
  -6  -2  -2 16565.7 579.057   5 0.04875-0.55407-0.97423 0.82949-0.22002 0.06725
  -6  -2  -3 113.071 65.3745   5 0.05299-0.55881-0.97408 0.82933-0.21969-0.00776
   6  -2   3 146.676 52.5776   3 0.65751-0.15137 0.68557-0.83057-0.30753 0.53497
  -6  -2  -3 134.011 86.0979   4 0.15213-0.65834-0.15075 0.00596-0.97550 0.74785
  -6   2  -3 85.8829 100.239   4 0.08120-0.58729-0.11723 0.26210-0.98904 0.76111
  -6  -2  -4 13287.7 620.625   4 0.25272-0.75947-0.19739 0.05268-0.94510 0.64276
  -6   2  -4 13956.8 683.500   4 0.16665-0.67330-0.15755 0.30249-0.97193 0.66930
  -6  -2  -4 13809.2 540.487   5 0.04666-0.55297-0.97430 0.82954-0.22017-0.08198
   6  -2   4 14780.3 470.985   3 0.68239-0.17574 0.70190-0.84692-0.19857 0.50066
  -6  -2  -5 1873.81 253.081   4 0.32843-0.83573-0.23177 0.08714-0.91296 0.53592
  -6   2  -5 1936.29 267.701   4 0.23568-0.74287-0.18957 0.33459-0.95120 0.57387
  -6  -2  -5 1959.98 212.779   5 0.03001-0.53682-0.97470 0.82994-0.22140-0.15545
   6  -2   5 2086.42 195.204   3 0.69633-0.18917 0.70864-0.85367-0.10721 0.48395
  -6   2  -6 12068.1 667.781   4 0.28962-0.79736-0.21423 0.35933-0.93047 0.47845
  -6  -2  -6 11786.6 513.141   5 0.00312-0.51043-0.97478 0.83000-0.22325-0.22829
   6  -2   6 11820.3 494.089   3 0.70354-0.19587 0.70958-0.85463-0.02814 0.47954
  -6  -2  -7 156.074 77.6533   5-0.03415-0.47365-0.97371 0.82892-0.22554-0.30069
   6   2   7 72.3468 69.6207   3 0.65977-0.15172 0.68717-0.54277-0.29908 0.82507
   6  -2   7 115.521 63.6349   3 0.70623-0.19805 0.70667-0.85173 0.04229 0.48376
  -6   2  -7-205.931 112.544   4 0.33047-0.83875-0.23269 0.37786-0.91198 0.38525
  -6   2  -8 9149.99 633.302   4 0.36026-0.86910-0.24603 0.39127-0.89688 0.29545
   6   2   8 8893.74 538.418   3 0.67991-0.17135 0.70045-0.55607-0.21151 0.81215
   6  -2   8 9487.50 507.837   3 0.70561-0.19692 0.70092-0.84600 0.10655 0.49415
   6   2   9 219.005 108.564   3 0.69357-0.18450 0.70760-0.56323-0.12892 0.80421
   6  -2   9 71.0814 62.4871   3 0.70238-0.19318 0.69289-0.83799 0.16630 0.50905
   6  -2  10 8093.75 526.403   3 0.69691-0.18720 0.68289-0.82800 0.22270 0.52730
  -6  -3   9 264.029 124.868   3 0.34216-0.84201 0.27172-0.48873 0.90171-0.23325
   6  -3  -9 318.307 121.168   2 0.09328 0.40672 0.69506-0.91246-0.71184 0.04250
  -6  -3   8 175.091 97.8652   3 0.32435-0.82470 0.25285-0.46984 0.91363-0.31982
   6  -3  -8-131.805 87.6567   2 0.09794 0.40256 0.69003-0.90738-0.71606 0.12146
  -6  -3   7 108.794 89.9031   3 0.29898-0.79985 0.22609-0.44307 0.92904-0.40988
   6  -3  -7 216.338 103.603   2 0.10774 0.39326 0.67926-0.89656-0.72483 0.20495
  -6  -3   6 192.875 100.907   3 0.26451-0.76588 0.18995-0.40691 0.94722-0.50272
   6  -3  -6 135.875 89.6241   2 0.12364 0.37786 0.66132-0.87857-0.73864 0.29350
  -6  -3   5 153.136 70.1787   5-0.19599-0.30584-0.95313 0.73608-0.23185 0.60194
  -6  -3   5 107.314 83.7107   3 0.21922-0.72110 0.14283-0.35977 0.96660-0.59675
   6  -3  -5-24.9886 56.9051   2 0.14679 0.35522 0.63408-0.85128-0.75787 0.38747
  -6   3   5 10.3610 57.1523   4-0.74151 0.23981 0.31481-0.09812-0.59808 0.96767
   6  -3  -4 35.4335 53.6314   2 0.17840 0.32412 0.59468-0.81183-0.78240 0.48673
  -6  -3   4-88.8497 56.2886   5-0.10429-0.39804-0.96801 0.75094-0.22901 0.52440
  -6  -3   4 18.2002 80.0895   3 0.16152-0.66392 0.08335-0.30028 0.98440-0.68920
  -6   3   4 137.555 90.4796   4-0.67505 0.17281 0.27517-0.05841-0.68963 0.98451
   6  -3  -3 91.4911 73.6498   2 0.21940 0.28362 0.53960-0.75670-0.81108 0.59014
  -6  -3   3 218.384 80.3652   5-0.02788-0.47495-0.97399 0.75691-0.22518 0.44588
  -6  -3   3 71.5428 81.1035   3 0.09052-0.59343 0.01094-0.22786 0.99643-0.77588
  -6   3   3 96.7809 79.5901   4-0.59340 0.09060 0.22851-0.01167-0.77628 0.99647
  -6  -3   3 71.7273 47.8499   4-0.74640 0.24345 0.31780-0.53545-0.59033 0.81096
  -6  -3   2 119.245 63.1174   5 0.03411-0.53744-0.97463 0.75755-0.22110 0.36711
  -6  -3   2 229.458 115.941   3 0.00676-0.51018-0.07342-0.14348 0.99732-0.85142
  -6   3   2 157.284 99.9720   4-0.49711-0.00623 0.17546 0.04145-0.85352 0.99901
  -6  -3   2 103.608 61.5857   4-0.64562 0.14213 0.25814-0.47572-0.72358 0.86951
   6  -3  -2 239.709 80.6988   2 0.27069 0.23283 0.46381-0.68087-0.84152 0.69531
  -6  -3   1 289.401 86.0165   5 0.08260-0.58642-0.97251 0.75542-0.21732 0.28863
  -6   3   1 170.005 110.116   4-0.38893-0.11496 0.11773 0.09926-0.91664 0.98743
  -6  -3   1 230.817 75.5497   4-0.50739 0.00334 0.18104-0.39854-0.84632 0.91754
  -6  -3   0 412.240 101.345   5 0.11849-0.62281-0.96944 0.75234-0.21417 0.21079
  -6   3   0 304.770 111.822   4-0.27394-0.23049 0.05807 0.15899-0.96202 0.95811
  -6  -3   0 277.000 92.8345   4-0.33844-0.16615 0.09133-0.30876-0.93908 0.93560
  -6  -3  -1 51.9786 40.2956   5 0.14264-0.64746-0.96665 0.74954-0.21189 0.13381
  -6  -3  -1 62.7932 78.3382   4-0.15871-0.34642-0.00020-0.21715-0.98846 0.91029
  -6   3  -1 123.473 111.591   4-0.15878-0.34620-0.00017 0.21730-0.98845 0.90984
  -6  -3  -2 81.5399 61.3096   5 0.15579-0.66110-0.96489 0.74777-0.21059 0.05782
  -6  -3  -2 61.2023 79.9111   4 0.00821-0.51389-0.08222-0.13505-0.99641 0.84354
  -6   3  -2 198.842 118.766   4-0.05004-0.45549-0.05391 0.27112-0.99758 0.84427
  -6  -3  -3 474.575 106.218   5 0.15853-0.66434-0.96450 0.74737-0.21032-0.01715
  -6  -3  -3 375.467 120.938   4 0.14732-0.65355-0.14849-0.06871-0.97662 0.74905
  -6   3  -3 290.046 115.076   4 0.04725-0.55332-0.10101 0.31830-0.99329 0.76528
  -6  -3  -4 273.481 90.8773   5 0.15132-0.65763-0.96551 0.74837-0.21104-0.09112
   6  -3   4 109.509 50.1794   3 0.70425-0.19757 0.70934-0.92672-0.01609 0.31820
  -6  -3  -4 147.262 85.5026   4 0.25503-0.76181-0.19845-0.01867-0.94424 0.64197
  -6   3  -4 244.119 115.920   4 0.13035-0.63697-0.14051 0.35787-0.98033 0.67763
  -6  -3  -5 175.479 79.8209   5 0.13444-0.64124-0.96767 0.75052-0.21268-0.16417
   6  -3   5 245.841 71.9150   3 0.70631-0.19912 0.70611-0.92351 0.05034 0.32641
  -6  -3  -5 225.636 100.361   4 0.33470-0.84203-0.23459 0.01754-0.90991 0.53295
  -6   3  -5 267.349 123.344   4 0.19865-0.70581-0.17245 0.38989-0.96311 0.58571
  -6  -3  -6 206.888 80.2732   5 0.10797-0.61527-0.97047 0.75332-0.21512-0.23642
  -6   3  -6 103.586 93.6051   4 0.25296-0.76068-0.19751 0.41502-0.94501 0.49291
   6  -3   6 282.061 80.6726   3 0.70553-0.19782 0.70062-0.91803 0.10919 0.34222
  -6  -3  -7 200.913 80.7699   5 0.07179-0.57959-0.97318 0.75601-0.21821-0.30803
   6   3   7 378.553 120.341   3 0.64505-0.13703 0.67646-0.45970-0.35057 0.87654
  -6   3  -7 339.882 143.837   4 0.29483-0.80309-0.21660 0.43418-0.92825 0.40145
   6  -3   7 544.428 112.311   3 0.70261-0.19440 0.69337-0.91080 0.16322 0.36284
   6   3   8 59.2923 87.8314   3 0.66888-0.16036 0.69343-0.47668-0.26264 0.86326
  -6   3  -8 89.5374 98.0773   4 0.32596-0.83477-0.23066 0.44832-0.91414 0.31264
   6   3   9 227.729 110.037   3 0.68593-0.17689 0.70389-0.48716-0.17876 0.85403
  -6   3  -9 121.448 106.124   4 0.34799-0.85734-0.24054 0.45828-0.90327 0.22707
  -6  -4   9 457.797 157.843   3 0.31173-0.81154 0.23951-0.52889 0.92152-0.25304
   6  -4  -9 310.624 128.922   2 0.14193 0.35802 0.63991-0.92974-0.75392 0.08453
  -6  -4   8 6789.78 528.678   3 0.29299-0.79331 0.21979-0.50914 0.93242-0.33860
   6  -4  -8 6840.24 508.349   2 0.14873 0.35171 0.63173-0.92151-0.75944 0.16479
  -6  -4   7 694.470 178.670   3 0.26703-0.76786 0.19258-0.48192 0.94599-0.42682
   6  -4  -7 849.585 174.667   2 0.16064 0.34031 0.61713-0.90686-0.76888 0.24896
  -6  -4   6 10964.8 637.134   3 0.23260-0.73394 0.15671-0.44604 0.96139-0.51687
   6  -4  -6 10603.5 580.422   2 0.17831 0.32315 0.59479-0.88448-0.78234 0.33715
   6  -4  -5 491.197 130.420   2 0.20260 0.29936 0.56274-0.85237-0.79977 0.42932
  -6  -4   5 344.940 91.7928   5-0.08292-0.41891-0.97026 0.68082-0.22807 0.59815
  -6  -4   5 425.924 138.061   3 0.18841-0.69026 0.11099-0.40030 0.97703-0.60717
  -6   4   5 169.108 116.227   4-0.73796 0.23629 0.31264-0.02354-0.60361 0.97312
  -6  -4   4 16001.8 773.995   3 0.13337-0.63573 0.05454-0.34383 0.99044-0.69523
  -6   4   4 13440.1 702.916   4-0.67350 0.17128 0.27427 0.01491-0.69151 0.98632
   6  -4  -4 15509.2 659.363   2 0.23400 0.26846 0.51883-0.80841-0.82039 0.52467
  -6  -4   4 15496.6 552.089   5 0.00570-0.50803-0.97480 0.68536-0.22308 0.51846
  -6  -4   3 2171.10 301.649   3 0.06703-0.56991-0.01283-0.27645 0.99811-0.77754
  -6   4   3 2385.75 299.675   4-0.59543 0.09266 0.22965 0.05960-0.77439 0.99451
   6  -4  -3 2676.48 269.127   2 0.27329 0.22967 0.45975-0.74928-0.84290 0.62190
  -6  -4   3 2547.28 230.026   5 0.07821-0.58103-0.97280 0.68334-0.21768 0.43837
  -6   4   2 15578.4 727.850   4-0.50445 0.00114 0.17944 0.10988-0.84840 0.99381
  -6  -4   2 16383.1 454.133   4-0.71679 0.21327 0.29984-0.58984-0.63493 0.78093
   6  -4  -2 15399.5 604.839   2 0.32016 0.18330 0.38247-0.67196-0.86439 0.71814
  -6  -4   2 15428.8 565.481   5 0.13607-0.63939-0.96747 0.67801-0.21253 0.35852
  -6  -4   1 234.018 82.7063   5 0.18063-0.68445-0.96108 0.67160-0.20803 0.27933
  -6   4   1 158.861 105.381   4-0.40306-0.10080 0.12517 0.16423-0.90961 0.98032
  -6  -4   1 237.940 65.0180   4-0.58514 0.08107 0.22389-0.51380-0.78384 0.85514
  -6   4   0 20521.4 866.221   4-0.29558-0.20882 0.06918 0.22030-0.95501 0.95103
  -6  -4   0 21371.4 564.770   4-0.40926-0.09536 0.12845-0.41829-0.90641 0.90301
  -6  -4   0 19357.5 662.815   5 0.21306-0.71738-0.95514 0.66566-0.20446 0.20107
  -6   4  -1 2911.45 341.009   4-0.18761-0.31735 0.01428 0.27527-0.98350 0.90482
  -6  -4  -1 3110.24 257.798   4-0.21190-0.29327 0.02652-0.31629-0.97848 0.90038
  -6  -4  -1 2941.80 265.709   5 0.23436-0.73917-0.95064 0.66115-0.20198 0.12390
  -6  -4  -2 14252.5 574.387   4-0.02537-0.48034-0.06594-0.22375-0.99759 0.84480
  -6   4  -2 13183.2 718.387   4-0.08476-0.42074-0.03688 0.32651-0.99628 0.84290
  -6  -4  -2 11871.9 536.037   5 0.24535-0.75066-0.94814 0.65863-0.20066 0.04788
  -6  -4  -3 883.328 154.573   5 0.24666-0.75247-0.94783 0.65832-0.20050-0.02697
  -6  -4  -3 567.663 122.912   4 0.12910-0.63536-0.13992-0.14969-0.98059 0.75309
  -6   4  -3 777.610 191.171   4 0.00846-0.51451-0.08234 0.37205-0.99640 0.76832
  -6  -4  -4 14852.0 628.017   4 0.24678-0.75358-0.19467-0.09487-0.94727 0.64508
  -6   4  -4 13527.9 709.893   4 0.08935-0.59594-0.12111 0.41088-0.98780 0.68503
  -6  -4  -4 13486.3 584.604   5 0.23875-0.74506-0.94966 0.66014-0.20146-0.10071
  -6  -4  -5 1848.44 244.445   4 0.33228-0.83962-0.23350-0.05597-0.91110 0.53421
   6  -4   5 1824.76 208.965   1 0.58391-0.07667-0.56199 0.27226-0.58139 0.95854
  -6   4  -5 1687.23 260.735   4 0.15696-0.66410-0.15301 0.44286-0.97434 0.59687
  -6  -4  -5 1701.81 213.632   5 0.22189-0.72869-0.95333 0.66381-0.20345-0.17341
  -6   4  -6 10669.0 656.888   4 0.21167-0.71936-0.17849 0.46841-0.95914 0.50696
  -6  -4  -6 9559.53 500.462   5 0.19615-0.70345-0.95837 0.66883-0.20635-0.24520
  -6  -4  -7 442.698 123.344   5 0.16139-0.66918-0.96409 0.67454-0.21003-0.31622
  -6   4  -7 255.246 119.622   4 0.25459-0.76282-0.19825 0.48825-0.94440 0.41753
  -6   4  -8 8618.06 634.327   4 0.28711-0.79589-0.21309 0.50317-0.93153 0.32996
   6   4   8 8153.13 555.980   3 0.65852-0.15002 0.68628-0.39717-0.30379 0.90440
   6   4   9 428.393 148.720   3 0.67829-0.16928 0.69946-0.41037-0.21968 0.89494
   6  -5  -8 21.1830 78.9710   2 0.19784 0.30256 0.56914-0.93135-0.79646 0.20176
  -6  -5   8 137.126 109.656   3 0.25983-0.76012 0.18506-0.54679 0.94945-0.35561
   6  -5  -7 96.2193 81.5927   2 0.21097 0.28994 0.55131-0.91347-0.80549 0.28552
  -6  -5   7 206.874 116.192   3 0.23342-0.73422 0.15757-0.51927 0.96105-0.44186
   6  -5  -6 106.668 102.334   2 0.22939 0.27201 0.52546-0.88757-0.81751 0.37227
  -6  -5   6 293.615 133.860   3 0.19915-0.70046 0.12208-0.48377 0.97364-0.52911
  -6  -5   5 31.6202 48.4078   5 0.01715-0.51897-0.97483 0.61301-0.22230 0.59237
  -6  -5   5 60.1301 83.1362   3 0.15606-0.65788 0.07775-0.43942 0.98571-0.61583
  -6   5   5-47.6256 69.2260   4-0.73867 0.23702 0.31307 0.04845-0.60252 0.97196
   6  -5  -5-63.0402 78.0588   2 0.25366 0.24825 0.48987-0.85194-0.83213 0.46163
  -6  -5   4 72.1007 55.4468   5 0.10056-0.60288-0.97113 0.60931-0.21578 0.51116
  -6  -5   4 5.42360 80.1652   3 0.10344-0.60577 0.02405-0.38571 0.99502-0.69979
  -6   5   4-8.51527 75.7240   4-0.67693 0.17474 0.27627 0.08532-0.68734 0.98208
   6  -5  -4-68.0207 73.6954   2 0.28405 0.21836 0.44270-0.80471-0.84837 0.55260
  -6  -5   3 321.198 87.5489   5 0.16783-0.67065-0.96312 0.60128-0.20937 0.43005
  -6  -5   3 421.350 151.692   3 0.04115-0.54399-0.03892-0.32273 0.99866-0.77808
   6  -5  -3 269.514 108.864   2 0.32053 0.18238 0.38184-0.74380-0.86454 0.64350
  -6   5   3 536.694 157.045   4-0.60297 0.10023 0.23389 0.12778-0.76727 0.98731
  -6  -5   2 669.855 127.899   5 0.22084-0.72416-0.95355 0.59171-0.20357 0.34956
  -6   5   2 729.831 162.069   4-0.51752 0.01424 0.18656 0.17518-0.83899 0.98434
  -6  -5   1 25.7043 57.2142   5 0.26116-0.76497-0.94430 0.58244-0.19871 0.27000
  -6   5   1 35.2854 75.1108   4-0.42279-0.08104 0.13561 0.22620-0.89921 0.96985
  -6  -5   0 106.811 76.7993   5 0.29008-0.79439-0.93657 0.57471-0.19497 0.19157
  -6   5   0 118.099 115.112   4-0.32245-0.18193 0.08304 0.27885-0.94534 0.94129
  -6  -5  -1 77.0883 59.3571   5 0.30864-0.81344-0.93112 0.56925-0.19246 0.11437
  -6   5  -1 161.114 92.9792   4-0.22121-0.28372 0.03123 0.33074-0.97635 0.89759
  -6  -5  -2 395.287 114.984   5 0.31767-0.82297-0.92833 0.56645-0.19121 0.03842
  -6   5  -2 441.145 154.495   4-0.12390-0.38157-0.01753 0.37957-0.99300 0.83955
  -6  -5  -3-25.8416 55.7039   5 0.31779-0.82359-0.92829 0.56640-0.19119-0.03629
  -6   5  -3 120.915 95.8020   4-0.03458-0.47144-0.06146 0.42357-0.99768 0.76953
  -6  -5  -4-24.4163 56.2416   5 0.30943-0.81573-0.93088 0.56898-0.19235-0.10982
  -6   5  -4 131.416 102.579   4 0.04412-0.55068-0.09951 0.46170-0.99361 0.69076
  -6  -5  -5 268.931 111.826   5 0.29283-0.79962-0.93579 0.57388-0.19461-0.18226
  -6   5  -5 305.933 125.996   4 0.11098-0.61809-0.13136 0.49363-0.98413 0.60658
  -6  -5  -6-15.6986 62.0802   5 0.26802-0.77531-0.94255 0.58063-0.19784-0.25372
  -6   5  -6 296.873 136.616   4 0.16600-0.67366-0.15724 0.51958-0.97210 0.51985
  -6  -5  -7 285.141 106.521   5 0.23488-0.74266-0.95053 0.58860-0.20192-0.32434
  -6   5  -7 236.904 123.657   4 0.20991-0.71812-0.17767 0.54009-0.95969 0.43274
   6   5   8 68.6077 88.1979   3 0.64946-0.14100 0.67974-0.31826-0.33592 0.93651
  -6   5  -8-2.33488 86.9661   4 0.24380-0.75256-0.19330 0.55579-0.94834 0.34670
  -6  -6   7 1819.51 306.956   3 0.19834-0.69911 0.12124-0.55531 0.97391-0.45471
   6  -6  -7 2271.60 320.563   2 0.25815 0.24270 0.48309-0.91768-0.83468 0.31466
  -6  -6   6 7342.68 600.753   3 0.16434-0.66562 0.08625-0.52030 0.98370-0.53915
   6  -6  -6 8207.38 570.895   2 0.27669 0.22467 0.45440-0.88895-0.84466 0.39937
  -6  -6   5 672.414 191.866   3 0.12238-0.62417 0.04332-0.47736 0.99234-0.62244
  -6   6   5 1222.47 222.663   4-0.74319 0.24157 0.31584 0.11810-0.59544 0.96480
   6  -6  -5 1214.83 220.075   2 0.30019 0.20167 0.41637-0.85087-0.85600 0.48544
  -6  -6   4 9033.20 651.447   3 0.07201-0.57431-0.00780-0.42623 0.99784-0.70260
  -6   6   4 9621.51 607.667   4-0.68473 0.18256 0.28083 0.15317-0.67769 0.97236
  -6  -6   4 9692.27 473.768   5 0.17888-0.68120-0.96137 0.52716-0.20821 0.50358
  -6   6   3 2338.07 292.361   4-0.61523 0.11252 0.24082 0.19327-0.75532 0.97528
  -6  -6   3 1950.72 303.024   3 0.01331-0.51612-0.06686-0.36715 0.99776-0.77716
  -6  -6   3 2250.52 240.932   5 0.24059-0.74340-0.94924 0.51502-0.20124 0.42191
  -6   6   2 10421.4 596.512   4-0.53543 0.03217 0.19636 0.23780-0.82549 0.97076
  -6  -6   2 10352.9 510.998   5 0.28876-0.79207-0.93694 0.50272-0.19515 0.34113
  -6  -6   1 135.926 85.8684   5 0.32505-0.82886-0.92598 0.49175-0.19017 0.26145
  -6   6   1-1.59101 63.8009   4-0.44721-0.05660 0.14861 0.28562-0.88537 0.95594
  -6   6   0 14657.6 723.258   4-0.35369-0.15066 0.09927 0.33503-0.93273 0.92860
  -6  -6   0 14852.1 623.366   5 0.35076-0.85506-0.91729 0.48305-0.18643 0.18302
  -6   6  -1 6645.37 509.005   4-0.25885-0.24605 0.05036 0.38402-0.96652 0.88769
  -6  -6  -1 6554.20 424.473   5 0.36692-0.87173-0.91143 0.47717-0.18399 0.10589
  -6   6  -2 6214.88 512.257   4-0.16687-0.33858 0.00388 0.43058-0.98717 0.83364
  -6  -6  -2 6331.33 427.967   5 0.37433-0.87963-0.90863 0.47437-0.18285 0.03005
  -6   6  -3 2676.92 349.464   4-0.08137-0.42462-0.03854 0.47308-0.99647 0.76825
  -6  -6  -3 2623.34 279.508   5 0.37356-0.87935-0.90893 0.47466-0.18297-0.04453
  -6   6  -4 8391.92 609.020   4-0.00495-0.50159-0.07585 0.51046-0.99704 0.69412
  -6  -6  -4 7696.63 486.063   5 0.36498-0.87128-0.91215 0.47787-0.18429-0.11790
  -6  -6  -5 1136.39 196.770   5 0.34881-0.85560-0.91798 0.48369-0.18672-0.19016
  -6   6  -5 1023.43 217.837   4 0.06102-0.56811-0.10760 0.54228-0.99174 0.61412
  -6   6  -6 6020.18 526.817   4 0.11620-0.62384-0.13383 0.56859-0.98315 0.53083
   6  -6   6 5968.65 455.815   1 0.57865-0.07095-0.61768 0.18300-0.52810 0.97999
  -6  -6  -6 5855.09 431.628   5 0.32507-0.83235-0.92597 0.49167-0.19017-0.26141
  -6  -6  -7 679.719 155.640   5 0.29359-0.80137-0.93557 0.50126-0.19451-0.33176
  -6   6  -7 971.468 223.120   4 0.16098-0.66916-0.15489 0.58972-0.97336 0.44634
  -6   6  -8 5990.08 560.517   4 0.19615-0.70488-0.17129 0.60620-0.96385 0.36213
  -6  -6  -8 5690.18 436.144   5 0.25400-0.76228-0.94607 0.51175-0.19960-0.40136
  -6  -7   7 170.315 121.501   3 0.16191-0.66265 0.08375-0.59018 0.98431-0.46509
   6  -7  -7 77.2500 89.0921   5 0.98927-0.48837 0.11724-0.62400 0.09372-0.61329
   6  -7  -7 87.0280 99.2713   2 0.30203 0.19877 0.41331-0.92034-0.85682 0.33675
  -6  -7   6 77.0160 100.511   3 0.12832-0.62957 0.04939-0.55581 0.99134-0.54678
   6  -7  -6-24.0783 89.5492   2 0.32001 0.18130 0.38274-0.88972-0.86433 0.41900
  -6  -7   5 99.2448 113.161   3 0.08752-0.58927 0.00790-0.51430 0.99671-0.62679
  -6   7   5-7.71456 86.4046   4-0.75108 0.24948 0.32068 0.18566-0.58275 0.95204
  -6  -7   4 240.500 96.5491   5 0.24120-0.74351-0.94910 0.44251-0.20117 0.49652
  -6  -7   4 415.838 208.859   3 0.03928-0.54155-0.04079-0.46560 0.99865-0.70339
  -6   7   4 273.964 113.433   4-0.69629 0.19415 0.28764 0.21878-0.66286 0.95745
  -6  -7   3 183.913 91.9336   5 0.29764-0.80044-0.93440 0.42780-0.19396 0.41463
  -6   7   3 91.4839 83.2157   4-0.63151 0.12882 0.25006 0.25643-0.73871 0.95861
  -6  -7   2 23.7817 57.1962   5 0.34141-0.84472-0.92054 0.41394-0.18781 0.33378
  -6   7   2-43.3668 71.7699   4-0.55739 0.05415 0.20846 0.29811-0.80787 0.95307
  -6  -7   1 253.761 107.012   5 0.37415-0.87795-0.90870 0.40209-0.18287 0.25415
  -6   7   1 207.909 122.136   4-0.47555-0.02823 0.16381 0.34283-0.86789 0.93839
  -6  -7   0-26.2576 57.0836   5 0.39713-0.90143-0.89961 0.39299-0.17923 0.17581
  -6   7   0 82.6427 80.1663   4-0.38861-0.11572 0.11756 0.38916-0.91679 0.91259
  -6  -7  -1 155.526 91.4327   5 0.41132-0.91611-0.89367 0.38703-0.17690 0.09879
  -6   7  -1 51.5061 90.6537   4-0.29994-0.20494 0.07142 0.43537-0.95351 0.87462
  -6  -7  -2 79.3877 77.6131   5 0.41745-0.92275-0.89101 0.38437-0.17588 0.02307
  -6   7  -2 27.3899 84.3903   4-0.21314-0.29228 0.02715 0.47972-0.97820 0.82461
  -6  -7  -3-74.8975 72.8250   5 0.41605-0.92184-0.89162 0.38497-0.17611-0.05139
  -6   7  -3 72.8102 90.7585   4-0.13150-0.37447-0.01376 0.52071-0.99214 0.76385
  -6  -7  -4 286.397 106.906   5 0.40746-0.91375-0.89531 0.38865-0.17754-0.12465
  -6   7  -4 178.666 154.533   4-0.05748-0.44903-0.05027 0.55729-0.99742 0.69443
  -6  -7  -5 164.999 89.9981   5 0.39184-0.89862-0.90176 0.39510-0.18008-0.19681
  -6   7  -5-9.22612 81.7579   4 0.00739-0.51445-0.08182 0.58892-0.99646 0.61876
  -6  -7  -6 347.659 117.552   5 0.36918-0.87646-0.91058 0.40391-0.18364-0.26794
   6  -7   6 59.6600 85.2683   1 0.58010-0.07242-0.60582 0.09866-0.54002 0.99193
  -6   7  -6 244.244 133.894   4 0.06250-0.57011-0.10831 0.61548-0.99155 0.53916
  -6  -7  -7 188.931 92.1637   5 0.33932-0.84710-0.92125 0.41456-0.18812-0.33816
  -6   7  -7 333.891 148.021   4 0.10795-0.61611-0.12993 0.63718-0.98468 0.45759
   6  -8  -7 1586.85 281.643   5 0.99591-0.49501 0.05330-0.63245 0.07954-0.59912
  -6  -8   6 4525.81 529.752   3 0.09119-0.59241 0.01163-0.59041 0.99636-0.55179
   6  -8  -6 5182.24 471.231   5 0.99013-0.48873 0.11085-0.68998 0.09232-0.53720
  -6  -8   5 1045.97 253.129   3 0.05160-0.55333-0.02839-0.55038 0.99860-0.62867
  -6   8   5 1356.19 235.437   4-0.76186 0.26029 0.32737 0.25139-0.56466 0.93388
  -6  -8   4 4392.11 491.548   3 0.00543-0.50766-0.07474-0.50401 0.99722-0.70194
  -6   8   4 4549.02 415.787   4-0.71105 0.20893 0.29641 0.28243-0.64298 0.93750
  -6  -8   4 3856.20 335.873   5 0.28905-0.79135-0.93686 0.35790-0.19511 0.49046
  -6   8   3 3113.78 341.486   4-0.65115 0.14849 0.26132 0.31759-0.71747 0.93729
  -6  -8   3 2964.74 298.147   5 0.34085-0.84365-0.92073 0.34176-0.18789 0.40855
  -6   8   2 4454.60 393.788   4-0.58273 0.07952 0.22254 0.35644-0.78601 0.93114
  -6  -8   2 4350.13 362.729   5 0.38084-0.88414-0.90612 0.32714-0.18183 0.32779
  -6   8   1 2974.99 323.732   4-0.50715 0.00339 0.18091 0.39815-0.84649 0.91691
  -6  -8   1 2957.64 309.248   5 0.41061-0.91441-0.89397 0.31497-0.17702 0.24829
  -6   8   0 7238.09 502.096   4-0.42661-0.07770 0.13764 0.44150-0.89711 0.89284
  -6  -8   0 8227.70 516.656   5 0.43136-0.93565-0.88482 0.30582-0.17352 0.17009
  -6   8  -1 2618.56 325.069   4-0.34394-0.16090 0.09420 0.48501-0.93683 0.85786
  -6  -8  -1 2321.41 286.126   5 0.44398-0.94877-0.87898 0.29997-0.17132 0.09320
  -6   8  -2 5652.11 494.497   4-0.26229-0.24311 0.05211 0.52717-0.96552 0.81185
  -6  -8  -2 6719.31 483.419   5 0.44916-0.95445-0.87652 0.29750-0.17041 0.01759
  -6   8  -3 1823.23 298.868   4-0.18457-0.32137 0.01275 0.56661-0.98407 0.75570
  -6  -8  -3 1993.03 271.012   5 0.44736-0.95314-0.87738 0.29835-0.17072-0.05679
  -6   8  -4 5123.33 513.588   4-0.11316-0.39332-0.02286 0.60229-0.99409 0.69103
  -6  -8  -4 6209.28 483.488   5 0.43888-0.94516-0.88137 0.30233-0.17221-0.12999
  -6  -8  -5 1485.20 250.394   5 0.42385-0.93063-0.88820 0.30915-0.17480-0.20210
  -6   8  -5 1643.21 310.421   4-0.04966-0.45737-0.05409 0.63360-0.99758 0.61982
  -6   8  -6 3528.78 436.606   4 0.00511-0.51269-0.08072 0.66031-0.99658 0.54411
   6  -8   6 3173.93 399.091   1 0.58062-0.07297-0.60113 0.02151-0.54464 0.99656
  -6  -8  -6 3937.94 390.179   5 0.40226-0.90953-0.89749 0.31843-0.17840-0.27320
  -6  -8  -7 1291.07 235.083   5 0.37392-0.88169-0.90879 0.32972-0.18291-0.34338
  -6   9   5 181.328 108.213   4-0.77505 0.27351 0.33566 0.31552-0.54119 0.91034
   6  -9  -5-16.9460 95.1043   5 0.99244-0.49054 0.09169-0.74320 0.08809-0.45829
  -6  -9   4 354.553 118.185   5 0.32433-0.82663-0.92621 0.27487-0.19027 0.48561
   6  -9  -4 134.392 131.287   5 0.98714-0.48474 0.13181-0.78331 0.09691-0.39241
  -6   9   4 369.342 130.987   4-0.72847 0.22638 0.30687 0.34438-0.61800 0.91245
  -6  -9   3 173.757 88.5082   5 0.37221-0.87501-0.90944 0.25809-0.18318 0.40382
  -6   9   3 159.961 100.438   4-0.67358 0.17094 0.27431 0.37701-0.69142 0.91117
  -6  -9   2 22.5678 64.7109   5 0.40909-0.91238-0.89462 0.24325-0.17727 0.32323
  -6   9   2-67.7251 78.4597   4-0.61086 0.10768 0.23834 0.41306-0.75963 0.90468
  -6  -9   1-0.42255 59.3433   5 0.43645-0.94024-0.88249 0.23112-0.17264 0.24389
  -6   9   1-46.4939 67.1887   4-0.54145 0.03772 0.19967 0.45181-0.82077 0.89112
  -6  -9   0 996.211 201.932   5 0.45542-0.95971-0.87349 0.22211-0.16929 0.16585
  -6   9   0 1084.01 196.768   4-0.46718-0.03710 0.15931 0.49224-0.87322 0.86887
  -6  -9  -1 59.1935 71.4676   5 0.46684-0.97163-0.86784 0.21645-0.16722 0.08909
  -6   9  -1 15.6547 80.2028   4-0.39044-0.11439 0.11852 0.53311-0.91590 0.83686
  -6  -9  -2-78.6529 82.0749   5 0.47133-0.97661-0.86557 0.21417-0.16639 0.01357
  -6   9  -2 169.276 122.118   4-0.31392-0.19145 0.07863 0.57307-0.94853 0.79479
  -6  -9  -3 196.593 106.970   5 0.46930-0.97508-0.86660 0.21519-0.16676-0.06075
  -6   9  -3 269.341 151.722   4-0.24027-0.26564 0.04090 0.61088-0.97161 0.74317
  -6  -9  -4 262.556 129.172   5 0.46102-0.96730-0.87074 0.21932-0.16828-0.13394
  -6   9  -4 75.3424 99.9352   4-0.17172-0.33475 0.00631 0.64554-0.98636 0.68322
  -6   9  -5-72.5069 102.437   4-0.10990-0.39711-0.02447 0.67640-0.99439 0.61656
  -6   9  -6-6.33985 42.2054   4-0.05580-0.45175-0.05109 0.70309-0.99746 0.54493
  -6  10   4 3599.92 380.393   4-0.74803 0.24597 0.31881 0.40486-0.58771 0.88208
  -6 -10   3 1540.39 244.621   5 0.39354-0.89633-0.90107 0.17734-0.17981 0.40045
  -6  10   3 1921.08 277.007   4-0.69825 0.19564 0.28880 0.43494-0.66028 0.87995
  -6  10   2 3064.92 334.714   4-0.64126 0.13810 0.25564 0.46818-0.72834 0.87332
  -6 -10   2 3183.40 353.872   5 0.42792-0.93121-0.88638 0.16263-0.17411 0.32005
  -6  10   1 3377.66 353.160   4-0.57797 0.07426 0.21988 0.50401-0.79025 0.86053
  -6 -10   1 4188.99 409.322   5 0.45338-0.95716-0.87449 0.15073-0.16965 0.24090
  -6  10   0 2542.28 313.402   4-0.50989 0.00564 0.18240 0.54156-0.84453 0.84012
  -6 -10   0 2986.32 351.811   5 0.47098-0.97526-0.86574 0.14198-0.16645 0.16301
  -6 -10  -1 1727.50 277.350   5 0.48150-0.98628-0.86031 0.13654-0.16450 0.08636
  -6  10  -1 1373.19 237.619   4-0.43903-0.06576 0.14425 0.57979-0.89012 0.81101
  -6  10  -2 3507.70 396.931   4-0.36773-0.13761 0.10661 0.61751-0.92656 0.77274
  -6  10  -3 3048.22 395.057   4-0.29832-0.20757 0.07059 0.65360-0.95407 0.72556
   6 -10   4 2472.94 329.736   5 0.98783-0.48145 0.12724-0.85104 0.09591 0.20613
  -7   0   9-182.828 111.458   3 0.34986-0.93389 0.27991-0.27978 0.89627-0.22844
  -7   0   8 391.673 134.979   3 0.33002-0.91456 0.25885-0.25871 0.90993-0.31675
  -7   0   7 56.2644 69.4868   3 0.30103-0.88608 0.22824-0.22809 0.92786-0.40932
  -7   0   6 210.357 93.6484   3 0.26055-0.84611 0.18582-0.18565 0.94911-0.50523
  -7   0   5-8.64849 89.0733   3 0.20587-0.79194 0.12901-0.12883 0.97139-0.60215
  -7   0   5 37.6177 66.0997   4-0.76496 0.17909 0.32930-0.32989-0.55928 0.92847
  -7   0   4 923.221 182.404   3 0.13434-0.72093 0.05553-0.05533 0.99026-0.69568
  -7   0   4 1195.32 193.059   4-0.70117 0.11476 0.29053-0.29104-0.65641 0.95090
   7   0  -4 1071.96 159.991   2 0.03524 0.55154 0.75348-0.75328-0.65580 0.36084
  -7   0   3 26.3437 71.3492   3 0.04458-0.63167-0.03547 0.03568 0.99867-0.77874
   7   0  -3-33.6111 42.0837   2 0.07200 0.51527 0.71739-0.71714-0.69202 0.47179
  -7   0   3-12.2216 56.3658   4-0.62077 0.03382 0.24396-0.24439-0.74976 0.96955
  -7   0   2 260.484 83.9503   5-0.37096-0.21643-0.89994 0.90000-0.23159 0.37706
   7   0  -2 412.606 90.5271   2 0.12460 0.46317 0.66021-0.65991-0.73946 0.59396
  -7   0   2 271.021 102.003   4-0.52391-0.06359 0.19005-0.19042-0.83426 0.97935
   7   0  -1 5.25640 32.7417   2 0.19761 0.39066 0.56944-0.56909-0.79630 0.72553
  -7   0   1-63.9249 54.8982   5-0.32794-0.25995-0.91622 0.91628-0.23238 0.30316
  -7   0   1 16.1317 71.9721   4-0.41326-0.17479 0.13056-0.13085-0.90431 0.97471
   7   0   0 1109.65 122.631   2 0.29433 0.29445 0.42603-0.42563-0.85331 0.85728
  -7   0   0 937.117 193.983   4-0.29430-0.29430 0.06852-0.06873-0.95544 0.95114
  -7   0   0 958.732 152.433   5-0.29420-0.29420-0.92749 0.92753-0.23266 0.22875
  -7   0  -1 1.82114 52.5029   5-0.26990-0.31899-0.93481 0.93484-0.23268 0.15408
  -7   0  -1 35.2457 86.1335   4-0.17447-0.41468 0.00768-0.00782-0.98589 0.90689
  -7   0  -2 68.7463 64.7578   5-0.25509-0.33429-0.93894 0.93897-0.23262 0.07932
  -7   0  -2 133.283 110.759   4-0.06121-0.52848-0.04844 0.04838-0.99732 0.84362
  -7   0  -3 27.9979 48.5444   5-0.24978-0.34011-0.94037 0.94039-0.23259 0.00459
  -7   0  -3-2.71038 82.4642   4 0.03986-0.63009-0.09746 0.09748-0.99402 0.76562
  -7   0  -4 65.1278 55.1969   5-0.25392-0.33646-0.93926 0.93927-0.23262-0.07007
  -7   0  -4 25.6918 79.3446   4 0.12580-0.71659-0.13837 0.13845-0.98127 0.67817
  -7   0  -5 57.6293 64.5588   5-0.26752-0.32336-0.93549 0.93548-0.23268-0.14471
  -7   0  -5-30.5724 103.512   4 0.19609-0.78742-0.17126 0.17143-0.96387 0.58607
   7   0   5-48.7888 50.2793   3 0.64257-0.05139 0.67460-0.67494-0.35853 0.73582
  -7   0  -6 619.185 129.159   5-0.29063-0.30074-0.92860 0.92859-0.23268-0.21940
   7   0   6 599.501 136.093   3 0.66859-0.07690 0.69324-0.69359-0.26388 0.71582
  -7   0  -6 300.202 136.279   4 0.25172-0.84359-0.19693 0.19717-0.94547 0.49297
  -7   0  -7 93.3087 66.2042   5-0.32344-0.26843-0.91780 0.91778-0.23244-0.29434
   7   0   7 192.302 91.6187   3 0.68635-0.09415 0.70412-0.70449-0.17629 0.70288
  -7   0  -7-162.959 112.067   4 0.29441-0.88683-0.21641 0.21672-0.92843 0.40124
   7   0   8 144.578 82.1357   3 0.69774-0.10502 0.70908-0.70947-0.09499 0.69623
  -7   0  -8 141.661 95.1688   4 0.32604-0.91901-0.23070 0.23108-0.91410 0.31221
   7   0   9 141.071 91.9124   3 0.70408-0.11086 0.70941-0.70981-0.01904 0.69494
  -7   0  -9 28.4839 98.0951   4 0.34834-0.94185-0.24070 0.24116-0.90309 0.22650
  -7  -1   9 8545.81 587.957   3 0.32959-0.91358 0.25839-0.33063 0.91022-0.24237
   7  -1  -9 8174.08 570.519   2 0.02940 0.55480 0.75892-0.83139-0.64983-0.01884
  -7  -1   8 92.1091 92.2097   3 0.30953-0.89403 0.23720-0.30942 0.92284-0.32964
   7  -1  -8 456.319 136.508   2 0.03050 0.55421 0.75791-0.83033-0.65096 0.05701
  -7  -1   7 7934.25 525.250   3 0.28096-0.86597 0.20716-0.27937 0.93893-0.42038
   7  -1  -7 7640.94 499.764   2 0.03642 0.54879 0.75237-0.82474-0.65701 0.13780
  -7   1   6 222.531 92.8235   3 0.27530-0.86090 0.20124-0.12870 0.94185-0.49799
  -7  -1   6 137.724 95.3070   3 0.24201-0.82754 0.16650-0.23869 0.95746-0.51356
   7  -1  -6 123.743 74.4320   2 0.04823 0.53748 0.74108-0.81341-0.66889 0.22441
  -7   1   5 14935.7 627.820   3 0.21624-0.80235 0.13975-0.06720 0.96770-0.59849
  -7  -1   5 14667.1 690.531   3 0.19066-0.77670 0.11331-0.18549 0.97634-0.60710
  -7   1   5 13914.4 672.599   4-0.74809 0.16225 0.31884-0.24701-0.58761 0.95673
  -7  -1   5 14088.9 600.372   4-0.78647 0.20058 0.34293-0.41593-0.51957 0.88883
   7  -1  -5 13458.4 595.519   2 0.06731 0.51891 0.72217-0.79445-0.68754 0.31779
  -7  -1   4 195.314 81.0617   5-0.37973-0.20667-0.89635 0.82405-0.23136 0.52622
  -7   1   4 182.831 92.4900   3 0.13677-0.72339 0.05801 0.01456 0.98980-0.69524
  -7  -1   4 248.500 115.482   3 0.12508-0.71164 0.04609-0.11825 0.99190-0.69730
   7  -1  -4 206.641 80.3933   2 0.09544 0.49128 0.69273-0.76496-0.71380 0.41879
  -7   1   4 336.546 129.231   4-0.68302 0.09664 0.27983-0.20793-0.67983 0.97424
  -7  -1   4 382.810 107.150   4-0.72577 0.13933 0.30524-0.37817-0.62198 0.91654
  -7  -1   3 17344.3 772.544   3 0.04452-0.63159-0.03552-0.03663 0.99867-0.77872
  -7   1   3 17727.7 683.049   3 0.03446-0.62159-0.04564 0.11822 0.99859-0.77867
  -7   1   3 18964.9 780.614   4-0.60304 0.01611 0.23393-0.16195-0.76720 0.98692
  -7  -1   3 18594.2 676.496   4-0.64670 0.05972 0.25876-0.33161-0.72240 0.94226
   7  -1  -3 18208.3 624.479   2 0.13494 0.45228 0.64819-0.72037-0.74816 0.52788
  -7  -1   3 17786.4 608.664   5-0.31512-0.27178-0.92066 0.84835-0.23253 0.45268
   7  -1  -2 50.8874 43.3332   2 0.18805 0.39967 0.58212-0.65425-0.78949 0.64394
  -7  -1   2 29.1214 51.6993   5-0.26035-0.32704-0.93750 0.86518-0.23265 0.37812
   7   1  -2 88.9433 43.4310   2 0.05496 0.53287 0.73451-0.66178-0.67554 0.53009
  -7   1   2 53.2946 75.9148   4-0.50877-0.07871 0.18179-0.10974-0.84533 0.99035
  -7  -1   2 27.4152 52.9513   4-0.54859-0.03894 0.20360-0.27638-0.81507 0.96023
  -7   1   1 14622.3 723.071   4-0.40296-0.18506 0.12512-0.05299-0.90965 0.97997
  -7  -1   1 14625.5 639.442   4-0.43373-0.15435 0.14143-0.21413-0.89314 0.96361
   7  -1  -1 15027.4 512.006   2 0.25685 0.33138 0.48506-0.55714-0.83394 0.76313
   7   1  -1 14723.3 443.603   2 0.12815 0.46018 0.65611-0.58333-0.74247 0.67175
  -7  -1   1 14891.3 560.865   5-0.21564-0.37225-0.94882 0.87650-0.23220 0.30297
  -7  -1   0 175.272 77.1232   5-0.18102-0.40736-0.95614 0.88381-0.23152 0.22759
  -7   1   0 251.692 151.281   4-0.29053-0.29804 0.06658 0.00562-0.95670 0.95233
  -7  -1   0 175.098 106.715   4-0.30808-0.28054 0.07562-0.14825-0.95065 0.94641
  -7   1  -1 21143.8 943.371   4-0.17783-0.41129 0.00937 0.06291-0.98530 0.90622
  -7  -1  -1 21732.7 894.507   4-0.18038-0.40879 0.01065-0.08320-0.98484 0.90591
  -7  -1  -1 22369.7 701.138   5-0.15641-0.43248-0.96060 0.88825-0.23086 0.15224
  -7   1  -1 22111.7 697.287   5-0.38455-0.20434-0.89433 0.96675-0.23123 0.15263
  -7  -1  -2 66.1714 57.8883   5-0.14165-0.44773-0.96297 0.89062-0.23040 0.07709
  -7   1  -2 141.229 74.0279   5-0.37053-0.21886-0.90011 0.97252-0.23160 0.07830
  -7  -1  -2 98.5232 82.7255   4-0.05960-0.53011-0.04923-0.02325-0.99737 0.84374
  -7   1  -2 46.6987 90.8389   4-0.07111-0.51855-0.04359 0.11594-0.99697 0.84319
  -7  -1  -3 11153.7 638.952   4 0.04756-0.63782-0.10116 0.02876-0.99325 0.76493
  -7   1  -3 12095.9 697.606   4 0.02479-0.61500-0.09022 0.16265-0.99531 0.76684
  -7  -1  -3 12119.4 529.005   5-0.13657-0.45330-0.96374 0.89137-0.23023 0.00222
  -7   1  -3 12128.6 523.712   5-0.36554-0.22435-0.90212 0.97451-0.23172 0.00373
  -7  -1  -4 542.833 115.165   5-0.14104-0.44934-0.96307 0.89069-0.23038-0.07232
  -7   1  -4 654.676 133.490   5-0.36965-0.22073-0.90047 0.97286-0.23162-0.07106
  -7  -1  -4 701.031 183.723   4 0.13780-0.72861-0.14402 0.07169-0.97875 0.67572
  -7   1  -4 570.910 162.319   4 0.10720-0.69795-0.12957 0.20207-0.98481 0.68164
   7  -1   4 584.695 113.680   3 0.64211-0.05140 0.67426-0.74695-0.36000 0.66265
  -7  -1  -5 14711.2 748.208   4 0.21074-0.80210-0.17806 0.10581-0.95943 0.58170
  -7   1  -5 14802.0 769.475   4 0.17540-0.76671-0.16163 0.23421-0.96965 0.59178
   7  -1   5 15900.2 579.199   3 0.66961-0.07839 0.69391-0.76662-0.25956 0.63687
  -7  -1  -5 13916.3 575.853   5-0.15496-0.43592-0.96084 0.88846-0.23082-0.14658
  -7   1  -5 14991.2 593.889   5-0.38296-0.20792-0.89500 0.96738-0.23127-0.14610
  -7  -1  -6 122.395 71.0733   5-0.17834-0.41303-0.95666 0.88427-0.23145-0.22064
   7   1   6 90.0705 69.9178   3 0.64804-0.05637 0.67868-0.60667-0.34072 0.79265
   7  -1   6 21.9156 57.8286   3 0.68756-0.09584 0.70476-0.77748-0.16904 0.62100
  -7  -1  -6 153.544 111.870   4 0.26778-0.85968-0.20428 0.13211-0.93936 0.48694
  -7   1  -6-43.6860 94.0956   4 0.23006-0.82191-0.18698 0.25963-0.95313 0.50056
  -7  -1  -7 5526.35 490.095   4 0.31102-0.90347-0.22393 0.15182-0.92109 0.39397
  -7   1  -7 5452.65 495.958   4 0.27255-0.86495-0.20646 0.27919-0.93748 0.41021
   7   1   7 5777.67 416.850   3 0.67158-0.07941 0.69521-0.62322-0.25096 0.77754
  -7  -1  -7 5539.68 376.633   5-0.21133-0.38054-0.94981 0.87740-0.23213-0.29465
   7  -1   7 5515.50 385.240   3 0.69862-0.10638 0.70931-0.78205-0.08682 0.61343
   7   1   8 30.8387 57.8382   3 0.68799-0.09530 0.70498-0.63300-0.16646 0.76769
   7  -1   8-24.8585 60.3904   3 0.70450-0.11175 0.70921-0.78196-0.01129 0.61255
  -7  -1  -8 118.033 100.278   4 0.34267-0.93566-0.23816 0.16613-0.90596 0.30414
  -7   1  -8-166.260 110.816   4 0.30445-0.89739-0.22095 0.29376-0.92405 0.32208
  -7  -1  -9 5845.62 547.299   4 0.36467-0.95821-0.24799 0.17604-0.89453 0.21801
   7   1   9 6726.75 496.102   3 0.69862-0.10542 0.70932-0.63735-0.08680 0.76268
   7  -1   9 6542.05 476.890   3 0.70635-0.11309 0.70547-0.77823 0.05890 0.61701
  -7  -2   9-171.199 113.244   3 0.30674-0.89070 0.23425-0.37886 0.92451-0.25664
  -7  -2   8-88.8296 96.0451   3 0.28640-0.87087 0.21287-0.35746 0.93603-0.34281
   7  -2  -8 218.035 105.311   2 0.07807 0.50659 0.71113-0.85599-0.69776 0.10377
  -7  -2   7 104.478 86.9620   3 0.25810-0.84309 0.18326-0.32783 0.95026-0.43170
   7  -2  -7-31.3373 61.6008   2 0.08666 0.49850 0.70212-0.84693-0.70576 0.18650
  -7  -2   6 54.9453 92.0033   3 0.22037-0.80587 0.14402-0.28858 0.96617-0.52225
   7  -2  -6 18.9134 50.0486   2 0.10118 0.48449 0.68650-0.83126-0.71898 0.27445
  -7  -2   5 18.0792 57.7246   5-0.35204-0.23385-0.90737 0.76270-0.23200 0.60154
  -7  -2   5 35.9316 72.7905   3 0.17167-0.75768 0.09377-0.23832 0.98181-0.61255
   7  -2  -5 15.0188 72.5699   2 0.12279 0.46338 0.66229-0.80700-0.73791 0.36812
  -7   2   5-5.19058 82.3554   4-0.73602 0.15021 0.31146-0.16721-0.60660 0.97564
  -7  -2   4 530.116 110.645   5-0.27434-0.31205-0.93352 0.78884-0.23269 0.52754
   7  -2  -4 571.300 131.138   2 0.15295 0.43372 0.62660-0.77126-0.76281 0.46775
  -7  -2   4 556.224 166.771   3 0.11078-0.69730 0.03152-0.17605 0.99407-0.69946
  -7   2   4 495.376 143.263   4-0.67104 0.08469 0.27284-0.12852-0.69446 0.98880
  -7  -2   4 354.254 97.3417   4-0.75673 0.17027 0.32418-0.46952-0.57338 0.86801
   7  -2  -3 164.064 78.8020   2 0.19306 0.39411 0.57551-0.72012-0.79308 0.57275
  -7  -2   3-87.6202 55.1510   5-0.20767-0.37922-0.95062 0.80593-0.23207 0.45222
  -7  -2   3 142.591 127.567   3 0.03734-0.62437-0.04275-0.10176 0.99863-0.77867
  -7   2   3 90.8616 93.0036   4-0.59270 0.00579 0.22812-0.08373-0.77693 0.99657
  -7  -2   3 119.382 88.0722   4-0.68145 0.09444 0.27891-0.42418-0.68179 0.90172
  -7  -2   2-65.3354 56.9827   5-0.15203-0.43536-0.96133 0.81663-0.23073 0.37619
  -7   2   2 117.552 106.829   4-0.50188-0.08557 0.17805-0.03358-0.85020 0.99515
  -7  -2   2 58.1567 64.2501   4-0.58420-0.00335 0.22336-0.36856-0.78469 0.92992
   7  -2  -2 73.2833 57.6176   2 0.24426 0.34342 0.50387-0.64843-0.82663 0.68104
  -7  -2   1 174.855 84.8872   5-0.10725-0.48063-0.96766 0.82295-0.22913 0.29989
  -7   2   1 292.396 140.414   4-0.40123-0.18677 0.12421 0.02033-0.91053 0.98078
  -7  -2   1 131.801 63.7943   4-0.46636-0.12174 0.15887-0.30399-0.87373 0.94427
   7  -2  -1 350.248 92.4399   2 0.30699 0.28119 0.40500-0.54951-0.85899 0.78812
  -7  -2   0 495.368 112.266   5-0.07306-0.51532-0.97114 0.82643-0.22760 0.22367
  -7   2   0 489.456 171.272   4-0.29510-0.29344 0.06893 0.07568-0.95517 0.95072
  -7  -2   0 558.913 136.665   4-0.33409-0.25456 0.08907-0.23412-0.94082 0.93666
  -7  -2  -1 482.223 116.847   5-0.04914-0.53974-0.97290 0.82817-0.22637 0.14775
  -7   2  -1 899.012 223.764   4-0.18891-0.40018 0.01493 0.12976-0.98325 0.90410
  -7  -2  -1 785.188 172.935   4-0.19763-0.39157 0.01932-0.16429-0.98152 0.90266
  -7  -2  -2 153.896 75.3082   5-0.03513-0.55424-0.97367 0.82893-0.22560 0.07227
  -7  -2  -2 91.5733 102.189   4-0.06800-0.52174-0.04511-0.09978-0.99709 0.84353
  -7   2  -2 192.324 122.709   4-0.08801-0.50163-0.03528 0.18004-0.99608 0.84223
  -7  -2  -3 131.590 67.1074   5-0.03074-0.55913-0.97387 0.82912-0.22534-0.00267
  -7  -2  -3 209.922 106.746   4 0.04656-0.63685-0.10068-0.04414-0.99336 0.76510
  -7   2  -3 226.389 115.131   4 0.00338-0.59357-0.07989 0.22473-0.99667 0.76812
  -7  -2  -4 151.125 74.4308   5-0.03573-0.55463-0.97364 0.82888-0.22563-0.07708
  -7  -2  -4 1.66115 65.9168   4 0.14218-0.73302-0.14608 0.00133-0.97778 0.67483
  -7   2  -4 264.691 126.738   4 0.08276-0.67349-0.11797 0.26289-0.98881 0.68556
  -7  -2  -5 66.4525 61.2951   5-0.04995-0.54091-0.97285 0.82809-0.22642-0.15099
  -7  -2  -5 191.907 130.974   4 0.21861-0.80999-0.18170 0.03703-0.95692 0.57927
  -7   2  -5-47.8986 82.6637   4 0.14927-0.74055-0.14941 0.29440-0.97617 0.59822
  -7  -2  -6 509.023 119.516   5-0.07338-0.51799-0.97112 0.82635-0.22762-0.22448
  -7  -2  -6 248.443 144.446   4 0.27768-0.86961-0.20880 0.06421-0.93542 0.48307
  -7   2  -6 202.433 117.506   4 0.20326-0.79509-0.17459 0.31966-0.96173 0.50909
  -7  -2  -7 26.8627 55.5654   5-0.10613-0.48573-0.96779 0.82301-0.22908-0.29771
   7   2   7-102.530 81.8717   3 0.65626-0.06412 0.68468-0.54032-0.31208 0.83865
  -7  -2  -7 2.01916 71.3110   4 0.32196-0.91444-0.22886 0.08435-0.91603 0.38898
  -7   2  -7-81.5670 92.2796   4 0.24578-0.83815-0.19421 0.33935-0.94763 0.42029
   7   2   8 540.201 144.821   3 0.67692-0.08427 0.69862-0.55428-0.22633 0.82755
  -7  -2  -8 711.398 193.674   4 0.35401-0.94703-0.24324 0.09879-0.90016 0.29841
  -7   2  -8 297.096 147.903   4 0.27815-0.87106-0.20901 0.35423-0.93523 0.33319
  -7  -2  -9 65.1851 87.3207   4 0.37603-0.96960-0.25304 0.10867-0.88832 0.21187
   7   2   9 96.6727 79.3118   3 0.69136-0.09820 0.70663-0.56230-0.14461 0.82047
  -7  -3   9 7534.63 597.361   3 0.28156-0.86549 0.20780-0.42477 0.93861-0.27072
  -7  -3   8 429.884 145.349   3 0.26093-0.84537 0.18621-0.40316 0.94893-0.35570
   7  -3  -8 320.576 121.076   2 0.12551 0.45909 0.65916-0.87645-0.74024 0.14620
  -7  -3   7 9604.18 634.523   3 0.23284-0.81779 0.15696-0.37390 0.96129-0.44271
   7  -3  -7 10563.1 608.822   2 0.13631 0.44881 0.64658-0.86382-0.74929 0.22999
   7  -3  -6 624.975 152.282   2 0.15276 0.43286 0.62684-0.84403-0.76266 0.31809
  -7  -3   6 550.643 158.235   3 0.19612-0.78159 0.11895-0.33587 0.97462-0.53069
  -7   3   6 725.062 193.014   4-0.78058 0.19534 0.33916-0.12258-0.53089 0.97456
  -7  -3   5 9615.41 628.490   3 0.14965-0.73563 0.07118-0.28809 0.98716-0.61788
  -7   3   5 8887.79 597.558   4-0.72863 0.14285 0.30697-0.09032-0.61775 0.98672
   7  -3  -5 9046.61 524.459   2 0.17591 0.41021 0.59788-0.81502-0.78054 0.41070
  -7  -3   5 8974.08 434.210   5-0.25099-0.33490-0.94005 0.72300-0.23260 0.60213
   7  -3  -4 158.665 81.0956   2 0.20665 0.37997 0.55722-0.77431-0.80256 0.50745
  -7  -3   4 218.000 81.6746   5-0.17207-0.41432-0.95784 0.74078-0.23130 0.52613
  -7  -3   4-19.0489 86.8106   3 0.09260-0.67908 0.01305-0.22994 0.99623-0.70160
  -7   3   4 179.312 112.168   4-0.66479 0.07846 0.26920-0.05247-0.70186 0.99613
  -7  -3   3 15437.0 797.498   3 0.02488-0.61187-0.05526-0.16161 0.99832-0.77835
  -7   3   3 11435.3 662.549   4-0.58894 0.00206 0.22602-0.00921-0.78038 0.99995
  -7  -3   3 16036.4 547.216   4-0.72522 0.13819 0.30491-0.52260-0.62278 0.84279
   7  -3  -3 14660.3 619.189   2 0.24571 0.34141 0.50172-0.71876-0.82750 0.60712
  -7  -3   3 14784.2 575.090   5-0.10547-0.48142-0.96787 0.75080-0.22906 0.44920
  -7  -3   2 989.870 154.953   5-0.05070-0.53668-0.97280 0.75572-0.22646 0.37190
  -7  -3   2 1356.66 165.924   4-0.63215 0.04457 0.25043-0.46803-0.73804 0.88335
   7  -3  -2 1201.47 171.997   2 0.29356 0.29407 0.42729-0.64428-0.85295 0.70731
  -7   3   2 907.771 198.541   4-0.50212-0.08531 0.17818 0.03870-0.85004 0.99491
  -7   3   1 14072.1 743.642   4-0.40675-0.18122 0.12712 0.08983-0.90771 0.97788
  -7  -3   1 15046.3 547.328   4-0.51360-0.07453 0.18442-0.40195-0.84186 0.91247
  -7  -3   1 14372.4 584.262   5-0.00724-0.58064-0.97462 0.75753-0.22392 0.29467
  -7  -3   0 764.301 143.153   5 0.02548-0.61386-0.97477 0.75767-0.22172 0.21778
  -7   3   0 876.037 218.404   4-0.30667-0.28185 0.07489 0.14214-0.95115 0.94663
  -7  -3   0 697.436 141.772   4-0.37527-0.21340 0.11056-0.32801-0.92311 0.91902
  -7   3  -1 20940.4 954.776   4-0.20651-0.38255 0.02380 0.19331-0.97966 0.90044
  -7  -3  -1 24010.1 820.879   4-0.22905-0.36017 0.03520-0.25258-0.97446 0.89567
  -7  -3  -1 20953.8 720.086   5 0.04799-0.63686-0.97426 0.75715-0.22007 0.14144
  -7  -3  -2 317.182 98.3931   5 0.06077-0.65014-0.97375 0.75664-0.21909 0.06576
  -7  -3  -2 409.307 134.605   4-0.08877-0.50100-0.03490-0.18240-0.99603 0.84254
  -7   3  -2 214.120 126.977   4-0.11090-0.47872-0.02398 0.24116-0.99430 0.84038
  -7  -3  -3 10496.3 583.467   4 0.03506-0.62537-0.09516-0.12207-0.99446 0.76628
  -7   3  -3 10221.0 672.238   4-0.02356-0.56660-0.06682 0.28408-0.99757 0.76895
  -7  -3  -3 9347.22 487.212   5 0.06421-0.65408-0.97359 0.75646-0.21882-0.00921
  -7  -3  -4 922.705 164.743   5 0.05862-0.64898-0.97385 0.75671-0.21926-0.08346
  -7  -3  -4 675.587 161.953   4 0.13761-0.72847-0.14393-0.07323-0.97879 0.67591
  -7   3  -4 718.974 187.332   4 0.05314-0.64384-0.10383 0.32116-0.99265 0.68933
  -7  -3  -5 9176.33 580.886   4 0.21871-0.81012-0.18174-0.03534-0.95689 0.57931
  -7   3  -5 8983.63 621.063   4 0.11819-0.70944-0.13477 0.35218-0.98277 0.60475
  -7  -3  -5 7994.19 461.645   5 0.04418-0.63504-0.97438 0.75724-0.22036-0.15705
  -7  -3  -6 8.85086 49.5721   5 0.02094-0.61230-0.97481 0.75766-0.22204-0.23007
  -7  -3  -6 242.956 127.302   4 0.28070-0.87265-0.21017-0.00683-0.93419 0.48191
  -7   3  -6 210.420 119.396   4 0.17169-0.76348-0.15990 0.37738-0.97064 0.51792
  -7  -3  -7 7683.12 569.507   4 0.32668-0.91918-0.23099 0.01405-0.91380 0.38682
  -7   3  -7 9076.90 652.288   4 0.21438-0.80672-0.17974 0.39729-0.95828 0.43087
   7   3   7 8079.39 527.789   3 0.64175-0.04965 0.67399-0.45727-0.36111 0.88766
  -7  -3  -7 7577.17 463.656   5-0.01122-0.58063-0.97453 0.75737-0.22417-0.30264
   7   3   8 179.049 103.154   3 0.66579-0.07317 0.69134-0.47464-0.27549 0.87669
  -7  -3  -8 405.897 153.933   4 0.35964-0.95269-0.24575 0.02889-0.89721 0.29553
  -7   3  -8 343.163 151.094   4 0.24733-0.84022-0.19492 0.41255-0.94707 0.34496
   7  -4  -8 114.539 91.2766   2 0.17218 0.41238 0.60263-0.89235-0.77774 0.18366
  -7  -4   8 164.304 128.443   3 0.23336-0.81777 0.15750-0.44682 0.96108-0.36783
   7  -4  -7 181.115 104.154   2 0.18444 0.40062 0.58685-0.87653-0.78686 0.26750
  -7  -4   7 45.6562 88.1250   3 0.20546-0.79038 0.12859-0.41790 0.97153-0.45293
   7  -4  -6 335.672 118.602   2 0.20213 0.38343 0.56336-0.85298-0.79945 0.35483
  -7  -4   6 344.440 136.776   3 0.16966-0.75509 0.09170-0.38099 0.98234-0.53840
  -7   4   6 502.653 157.650   4-0.77670 0.19149 0.33670-0.04770-0.53816 0.98176
   7  -4  -5 44.2515 65.2715   2 0.22567 0.36040 0.53076-0.82033-0.81514 0.44525
  -7  -4   5 38.5066 47.6779   5-0.15517-0.43072-0.96081 0.67138-0.23082 0.60034
  -7  -4   5-3.14702 82.3523   3 0.12512-0.71106 0.04612-0.33539 0.99189-0.62260
  -7   4   5 168.337 89.2509   4-0.72565 0.13989 0.30517-0.01610-0.62215 0.99105
  -7  -4   4 258.226 89.3686   5-0.07725-0.50913-0.97078 0.68134-0.22780 0.52263
  -7  -4   4 170.720 132.736   3 0.07132-0.65777-0.00850-0.28076 0.99788-0.70325
  -7   4   4 118.370 100.880   4-0.66372 0.07742 0.26858 0.02056-0.70311 0.99731
   7  -4  -4 126.334 68.5681   2 0.25587 0.33070 0.48655-0.77607-0.83339 0.53823
  -7  -4   3 107.334 72.1308   5-0.01246-0.57442-0.97450 0.68505-0.22424 0.44438
  -7  -4   3 20.5357 110.811   3 0.00836-0.59532-0.07181-0.21743 0.99743-0.77744
  -7   4   3 180.084 118.851   4-0.59099 0.00413 0.22716 0.06206-0.77851 0.99800
   7  -4  -3 66.7575 71.3436   2 0.29292 0.29415 0.42833-0.71781-0.85265 0.63223
  -7  -4   2-28.6127 50.3801   5 0.04011-0.62749-0.97449 0.68504-0.22066 0.36610
  -7   4   2 95.1149 94.9114   4-0.50848-0.07891 0.18164 0.10766-0.84554 0.99034
  -7  -4   1 90.7215 88.6423   5 0.08132-0.66920-0.97259 0.68313-0.21742 0.28817
  -7   4   1 148.789 94.5769   4-0.41844-0.16951 0.13331 0.15607-0.90156 0.97166
  -7  -4   0 437.486 116.991   5 0.11194-0.70031-0.97010 0.68062-0.21477 0.21082
  -7   4   0 456.124 157.244   4-0.32416-0.26433 0.08393 0.20552-0.94469 0.94009
  -7  -4  -1 290.158 118.015   5 0.13262-0.72149-0.96788 0.67840-0.21285 0.13421
  -7   4  -1 323.154 143.139   4-0.22966-0.35937 0.03551 0.25401-0.97431 0.89501
  -7  -4  -2 232.588 95.4017   5 0.14396-0.73332-0.96649 0.67699-0.21176 0.05842
  -7   4  -2 280.340 147.868   4-0.13895-0.45063-0.01006 0.29965-0.99123 0.83723
  -7  -4  -3 154.745 86.4095   5 0.14639-0.73625-0.96617 0.67667-0.21153-0.01651
  -7   4  -3 67.9464 85.2177   4-0.05536-0.53477-0.05131 0.34098-0.99747 0.76878
  -7  -4  -4 726.286 151.452   5 0.14024-0.73060-0.96696 0.67744-0.21212-0.09060
  -7   4  -4 959.670 218.286   4 0.01885-0.60953-0.08736 0.37710-0.99575 0.69235
  -7  -4  -5 146.653 78.3683   5 0.12572-0.71657-0.96867 0.67915-0.21350-0.16392
  -7   4  -5 49.0491 89.3124   4 0.08257-0.67379-0.11788 0.40770-0.98884 0.61075
  -7  -4  -6 17.7960 51.5209   5 0.10286-0.69421-0.97093 0.68140-0.21558-0.23654
  -7   4  -6 24.6152 81.2964   4 0.13565-0.72742-0.14300 0.43290-0.97921 0.52642
  -7  -4  -7-33.2092 59.7424   5 0.07156-0.66341-0.97320 0.68365-0.21823-0.30858
  -7   4  -7 272.889 135.073   4 0.17857-0.77089-0.16311 0.45308-0.96880 0.44132
   7   4   8 320.940 130.695   3 0.65547-0.06289 0.68411-0.39504-0.31494 0.91613
  -7  -5   7 8175.73 646.309   3 0.17621-0.76110 0.09844-0.46010 0.98057-0.46196
   7  -5  -7 7735.01 567.712   2 0.23033 0.35468 0.52411-0.88622-0.81810 0.29870
  -7  -5   6 1223.24 260.224   3 0.14126-0.72666 0.06260-0.42426 0.98892-0.54496
  -7   5   6 1346.57 255.310   4-0.77619 0.19101 0.33638 0.02503-0.53910 0.98262
   7  -5  -6 1393.13 252.511   2 0.24839 0.33713 0.49775-0.85981-0.82908 0.38441
  -7  -5   5 6146.35 564.809   3 0.09846-0.68437 0.01900-0.38064 0.99561-0.62630
  -7   5   5 6929.57 556.287   4-0.72673 0.14099 0.30582 0.05566-0.62057 0.98940
   7  -5  -5 7535.93 530.734   2 0.27175 0.31427 0.46215-0.82416-0.84209 0.47215
  -7  -5   5 7316.00 418.280   5-0.06823-0.51765-0.97154 0.60973-0.22736 0.59687
  -7  -5   4 968.882 157.532   5 0.00703-0.59341-0.97481 0.61299-0.22299 0.51781
  -7  -5   4 759.959 198.543   3 0.04751-0.63393-0.03252-0.32910 0.99865-0.70400
  -7   5   4 1003.27 222.962   4-0.66730 0.08102 0.27066 0.09090-0.69891 0.99304
   7  -5  -4 1031.79 194.348   2 0.30063 0.28590 0.41564-0.77760-0.85619 0.56099
  -7   5   3 13074.0 728.965   4-0.59810 0.01127 0.23115 0.13048-0.77188 0.99131
  -7  -5   3 12918.8 570.558   5 0.06885-0.65573-0.97335 0.61152-0.21844 0.43857
  -7  -5   2 365.956 109.007   5 0.11847-0.70584-0.96944 0.60761-0.21417 0.35960
  -7   5   2 325.910 126.795   4-0.52013-0.06724 0.18799 0.17372-0.83707 0.98180
  -7   5   1 9973.21 625.586   4-0.43537-0.15255 0.14230 0.21948-0.89221 0.96224
  -7  -5   1 9804.73 509.834   5 0.15695-0.74482-0.96473 0.60288-0.21048 0.28121
  -7  -5   0 639.982 141.672   5 0.18519-0.77355-0.96031 0.59845-0.20754 0.20358
  -7   5   0 578.612 172.377   4-0.34670-0.24176 0.09563 0.26623-0.93568 0.93101
  -7   5  -1 11369.5 708.135   4-0.25758-0.33143 0.04971 0.31223-0.96688 0.88751
  -7  -5  -1 11546.5 573.575   5 0.20395-0.79281-0.95692 0.59505-0.20549 0.12684
  -7   5  -2 2541.02 355.011   4-0.17150-0.41806 0.00620 0.35581-0.98640 0.83233
  -7  -5  -2 3239.81 316.563   5 0.21384-0.80319-0.95499 0.59311-0.20438 0.05103
  -7   5  -3 7101.57 588.582   4-0.09147-0.49863-0.03357 0.39566-0.99585 0.76709
  -7  -5  -3 7154.68 466.656   5 0.21532-0.80518-0.95469 0.59280-0.20421-0.02384
  -7  -5  -4 1461.42 216.499   5 0.20874-0.79909-0.95600 0.59410-0.20495-0.09778
  -7   5  -4 1512.96 288.323   4-0.01965-0.57100-0.06872 0.43088-0.99749 0.69403
  -7   5  -5 8580.52 644.082   4 0.04277-0.63397-0.09886 0.46110-0.99374 0.61558
  -7  -5  -5 7938.22 499.629   5 0.19428-0.78513-0.95871 0.59681-0.20656-0.17087
  -7  -5  -6 1139.97 193.784   5 0.17197-0.76332-0.96248 0.60057-0.20894-0.24319
  -7   5  -6 1420.66 284.974   4 0.09543-0.68717-0.12399 0.48630-0.98683 0.53397
  -7   5  -7 7194.33 610.473   4 0.13858-0.73087-0.14438 0.50677-0.97858 0.45102
  -7  -5  -7 7409.26 488.332   5 0.14171-0.73355-0.96677 0.60485-0.21198-0.31484
  -7  -6   6 73.4275 123.141   3 0.11117-0.69654 0.03192-0.46594 0.99402-0.55005
  -7   6   6 135.303 111.237   4-0.77880 0.19364 0.33803 0.09579-0.53424 0.97769
   7  -6  -6 83.6594 99.2883   2 0.29157 0.29390 0.43055-0.86504-0.85201 0.40730
  -7  -6   5 399.951 174.911   3 0.06998-0.65586-0.00984-0.42416 0.99796-0.62864
  -7   6   5 438.657 155.362   4-0.73145 0.14575 0.30868 0.12522-0.61354 0.98229
   7  -6  -5 548.585 158.661   2 0.31402 0.27195 0.39306-0.82750-0.86194 0.49195
  -7  -6   4 40.9553 58.5134   5 0.07919-0.66556-0.97273 0.53853-0.21760 0.51241
  -7  -6   4 387.173 160.026   3 0.02158-0.60797-0.05857-0.37542 0.99819-0.70352
  -7   6   4 106.835 96.6401   4-0.67498 0.08872 0.27513 0.15885-0.68972 0.98378
  -7  -6   3 188.799 79.4740   5 0.13747-0.72434-0.96730 0.53309-0.21239 0.43251
  -7   6   3 269.239 125.492   4-0.60962 0.02282 0.23764 0.19641-0.76085 0.98020
  -7  -6   2-14.6371 61.8684   5 0.18384-0.77120-0.96054 0.52632-0.20769 0.35311
  -7   6   2-1.86451 92.4379   4-0.53631-0.05104 0.19684 0.23728-0.82480 0.96946
  -7  -6   1 1.74009 44.7288   5 0.21948-0.80734-0.95384 0.51961-0.20373 0.27445
  -7   6   1-286.520 125.549   4-0.45679-0.13110 0.15374 0.28046-0.87963 0.94959
  -7  -6   0 100.950 75.4434   5 0.24537-0.83373-0.94813 0.51389-0.20066 0.19669
  -7   6   0 123.893 112.544   4-0.37356-0.21488 0.10966 0.32462-0.92390 0.91916
  -7  -6  -1 27.3258 65.0925   5 0.26229-0.85115-0.94401 0.50977-0.19857 0.11990
  -7   6  -1 4.68855 77.8547   4-0.28960-0.29939 0.06610 0.36825-0.95702 0.87757
  -7  -6  -2-17.0944 53.4789   5 0.27087-0.86022-0.94181 0.50755-0.19748 0.04412
  -7   6  -2 13.3456 89.9763   4-0.20798-0.38155 0.02454 0.40988-0.97934 0.82520
  -7  -6  -3 529.498 144.725   5 0.27156-0.86141-0.94163 0.50736-0.19739-0.03066
  -7   6  -3 601.815 193.061   4-0.13142-0.45866-0.01380 0.44830-0.99215 0.76331
  -7  -6  -4 687.003 172.596   5 0.26468-0.85503-0.94341 0.50913-0.19827-0.10448
  -7   6  -4 403.701 163.765   4-0.06197-0.52866-0.04807 0.48265-0.99730 0.69376
  -7  -6  -5 89.1758 67.5441   5 0.25041-0.84126-0.94694 0.51265-0.20004-0.17740
  -7   6  -5-51.8128 102.078   4-0.00090-0.59027-0.07782 0.51247-0.99687 0.61863
  -7  -6  -6 102.671 83.5623   5 0.22877-0.82012-0.95187 0.51758-0.20265-0.24949
  -7   6  -6 247.809 143.269   4 0.05127-0.64299-0.10294 0.53766-0.99286 0.53992
  -7  -6  -7-162.312 101.403   5 0.19964-0.79148-0.95773 0.52343-0.20597-0.32086
  -7   7   6 2690.79 357.610   4-0.78422 0.19909 0.34149 0.16475-0.52393 0.96731
  -7  -7   5 5885.49 592.243   3 0.03992-0.62576-0.04016-0.46621 0.99865-0.62932
  -7   7   5 5747.87 506.905   4-0.73941 0.15373 0.31353 0.19279-0.60136 0.97004
  -7   7   4 2512.97 334.343   4-0.68623 0.10000 0.28171 0.22468-0.67580 0.96978
  -7  -7   4 1903.67 234.168   5 0.13887-0.72524-0.96713 0.46055-0.21226 0.50706
  -7   7   3 6441.23 514.592   4-0.62493 0.03816 0.24632 0.26015-0.74553 0.96481
  -7  -7   3 6517.50 439.964   5 0.19351-0.78037-0.95885 0.45226-0.20664 0.42675
  -7   7   2 2394.22 312.756   4-0.55636-0.03096 0.20789 0.29865-0.80872 0.95330
  -7  -7   2 1787.27 241.528   5 0.23668-0.82404-0.95012 0.44353-0.20171 0.34712
  -7   7   1 5207.72 453.819   4-0.48204-0.10583 0.16731 0.33930-0.86367 0.93355
  -7  -7   1 5004.06 399.492   5 0.26964-0.85749-0.94213 0.43552-0.19764 0.26835
  -7  -7   0 1006.89 195.491   5 0.29337-0.88172-0.93563 0.42902-0.19453 0.19056
  -7   7   0 1056.85 213.075   4-0.40411-0.18430 0.12573 0.38096-0.90907 0.90425
  -7   7  -1 6914.33 553.860   4-0.32517-0.26379 0.08445 0.42231-0.94431 0.86479
  -7  -7  -1 6448.35 464.543   5 0.30866-0.89752-0.93112 0.42449-0.19246 0.11379
  -7  -7  -2 1548.07 231.853   5 0.31613-0.90547-0.92882 0.42218-0.19143 0.03806
  -7   7  -2 1380.42 277.773   4-0.24791-0.34160 0.04478 0.46206-0.96958 0.81536
  -7   7  -3 5589.56 541.196   4-0.17479-0.41526 0.00785 0.49907-0.98583 0.75692
  -7  -7  -3 6188.87 467.407   5 0.31619-0.90604-0.92879 0.42215-0.19142-0.03664
  -7  -7  -4 1339.26 234.538   5 0.30916-0.89951-0.93096 0.42431-0.19239-0.11036
  -7   7  -4 1745.37 313.534   4-0.10777-0.48283-0.02553 0.53252-0.99459 0.69098
  -7   7  -5 5900.03 573.101   4-0.04814-0.54300-0.05484 0.56190-0.99760 0.61930
  -7  -7  -5 6199.30 482.637   5 0.29519-0.88603-0.93511 0.42845-0.19429-0.18316
  -7  -7  -6 1880.93 265.484   5 0.27428-0.86562-0.94091 0.43423-0.19704-0.25510
  -7   7  -6 1780.58 333.607   4 0.00341-0.59510-0.07990 0.58704-0.99666 0.54366
  -7   8   5-26.8166 61.6742   4-0.75019 0.16454 0.32014 0.25859-0.58420 0.95280
  -7  -8   4 12.4877 65.6415   5 0.18659-0.77295-0.96007 0.38111-0.20739 0.50218
  -7   8   4-111.174 105.425   4-0.70057 0.11437 0.29017 0.28863-0.65721 0.95112
  -7  -8   3-93.2211 70.9134   5 0.23779-0.82465-0.94988 0.37091-0.20158 0.42167
  -7   8   3 199.874 110.081   4-0.64349 0.05674 0.25692 0.32196-0.72591 0.94512
  -7  -8   2 13.3677 51.6521   5 0.27804-0.86539-0.93990 0.36092-0.19655 0.34196
  -7   8   2 158.736 93.1753   4-0.57971-0.00758 0.22086 0.35810-0.78870 0.93321
  -7  -8   1 21.4081 63.3873   5 0.30860-0.89645-0.93114 0.35215-0.19247 0.26318
  -7   8   1-138.357 94.5802   4-0.51054-0.07730 0.18276 0.39627-0.84406 0.91387
  -7  -8   0 313.426 125.925   5 0.33046-0.91881-0.92422 0.34522-0.18940 0.18541
  -7   8   0 167.622 91.7831   4-0.43783-0.15055 0.14361 0.43549-0.89081 0.88592
  -7  -8  -1 113.462 83.9523   5 0.34438-0.93322-0.91952 0.34052-0.18738 0.10870
  -7   8  -1 34.8691 83.2359   4-0.36382-0.22512 0.10456 0.47462-0.92831 0.84872
  -7  -8  -2 70.5771 74.7119   5 0.35093-0.94028-0.91723 0.33821-0.18641 0.03303
  -7   8  -2-65.4738 94.3420   4-0.29087-0.29861 0.06676 0.51250-0.95659 0.80231
  -7  -8  -3 96.8745 89.8286   5 0.35054-0.94038-0.91737 0.33834-0.18646-0.04161
  -7   8  -3 238.443 137.201   4-0.22123-0.36879 0.03124 0.54809-0.97634 0.74736
  -7  -8  -4 291.345 126.874   5 0.34347-0.93381-0.91983 0.34080-0.18751-0.11525
  -7   8  -4 354.230 167.563   4-0.15674-0.43383-0.00119 0.58059-0.98876 0.68508
  -7   8  -5-19.3896 107.280   4-0.09872-0.49240-0.03000 0.60948-0.99533 0.61695
  -7   9   3 4733.17 447.278   4-0.66479 0.07807 0.26920 0.38209-0.70186 0.92099
  -7  -9   3 3747.92 374.438   5 0.27145-0.85830-0.94165 0.29030-0.19740 0.41749
  -7   9   2 3096.94 354.440   4-0.60585 0.01858 0.23552 0.41585-0.76450 0.90894
  -7  -9   2 2707.76 317.602   5 0.30915-0.89650-0.93097 0.27961-0.19239 0.33779
  -7   9   1 2545.09 322.369   4-0.54181-0.04600 0.19987 0.45158-0.82048 0.89022
  -7  -9   1 2921.98 333.226   5 0.33767-0.92551-0.92181 0.27044-0.18836 0.25906
  -7  -9   0 1098.28 214.345   5 0.35796-0.94630-0.91472 0.26334-0.18535 0.18136
  -7   9   0 1199.91 232.498   4-0.47426-0.11410 0.16312 0.48840-0.86872 0.86376
  -7   9  -1 3689.62 404.312   4-0.40514-0.18377 0.12627 0.52533-0.90854 0.82888
  -7  -9  -1 3720.95 388.530   5 0.37076-0.95960-0.90999 0.25860-0.18340 0.10471
  -7   9  -2 1371.19 264.161   4-0.33652-0.25293 0.09034 0.56133-0.93985 0.78549
  -7   9  -3 2994.74 417.456   4-0.27044-0.31956 0.05628 0.59546-0.96309 0.73404
  -7   9  -4 3048.74 423.790   4-0.20862-0.38192 0.02487 0.62695-0.97920 0.67545
  -7  10   1 47.3381 66.8626   4-0.57540-0.01238 0.21846 0.50540-0.79250 0.86217
  -7  10   0-20.1659 67.8611   4-0.51300-0.07533 0.18410 0.53984-0.84229 0.83726
  -7  10  -1-32.4676 76.2139   4-0.44876-0.14012 0.14945 0.57456-0.88445 0.80472
   8   0  -8 5888.15 475.861   2 0.02479 0.64408 0.76317-0.76310-0.64507 0.05173
   8   0  -7 242.211 107.122   2 0.03028 0.63909 0.75811-0.75799-0.65074 0.13214
   8   0  -6 7494.45 482.318   2 0.04151 0.62837 0.74755-0.74738-0.66216 0.21829
   8   0  -5-15.3600 41.7103   2 0.05983 0.61055 0.72969-0.72947-0.68031 0.31117
  -8   0   5-126.436 78.6841   4-0.75617 0.08622 0.32383-0.32445-0.57431 0.94289
  -8   0   4 12868.7 684.586   3 0.04270-0.71338-0.03735 0.03759 0.99867-0.70466
  -8   0   4 14191.1 683.281   4-0.69544 0.02495 0.28714-0.28768-0.66397 0.95784
   8   0  -4 13939.3 590.016   2 0.08707 0.58381 0.70168-0.70142-0.70615 0.41175
   8   0  -3 13.8896 36.1770   2 0.12559 0.54580 0.65908-0.65877-0.74030 0.52063
  -8   0   3-33.3560 81.7917   4-0.62154-0.04950 0.24439-0.24486-0.74898 0.96816
  -8   0   2 14389.6 703.828   4-0.53521-0.13638 0.19624-0.19663-0.82565 0.97013
   8   0  -2 13180.7 507.465   2 0.17832 0.49357 0.59478-0.59442-0.78234 0.63741
  -8   0   1-1.19109 40.6943   5-0.36561-0.30634-0.90208 0.90214-0.23171 0.30193
  -8   0   1-237.212 118.105   4-0.43880-0.23333 0.14413-0.14445-0.89026 0.96003
  -8   0   0 14830.1 775.384   4-0.33634-0.33634 0.09025-0.09049-0.93992 0.93500
  -8   0   0 14036.8 592.653   5-0.33622-0.33622-0.91326 0.91331-0.23227 0.22780
  -8   0  -1 30.5510 53.0561   5-0.31504-0.35790-0.92068 0.92072-0.23253 0.15336
  -8   0  -1 66.5615 101.094   4-0.23293-0.44030 0.03717-0.03734-0.97349 0.89387
  -8   0  -2 12409.8 765.797   4-0.13374-0.54004-0.01265 0.01256-0.99188 0.83756
  -8   0  -2 13817.2 604.701   5-0.30213-0.37131-0.92495 0.92499-0.23263 0.07876
  -8   0  -3-12.9211 53.1465   5-0.29752-0.37641-0.92643 0.92646-0.23265 0.00409
  -8   0  -3-60.3225 129.968   4-0.04295-0.63137-0.05737 0.05736-0.99766 0.76864
  -8   0  -4 12984.5 779.836   4 0.03677-0.71164-0.09598 0.09604-0.99431 0.69059
  -8   0  -4 13229.9 599.129   5-0.30123-0.37321-0.92525 0.92526-0.23263-0.07062
  -8   0  -5 144.015 76.9367   5-0.31327-0.36166-0.92128 0.92129-0.23254-0.14540
  -8   0  -5-184.503 122.883   4 0.10432-0.77973-0.12821 0.12834-0.98532 0.60691
   8   0   5 131.271 67.9360   3 0.64215 0.03313 0.67429-0.67466-0.35988 0.73774
  -8   0  -6 9629.81 685.199   4 0.15979-0.83575-0.15434 0.15454-0.97365 0.52054
   8   0   6 9373.59 503.112   3 0.66744 0.00834 0.69246-0.69286-0.26869 0.72121
  -8   0  -6 9244.22 508.770   5-0.33373-0.34170-0.91416 0.91416-0.23231-0.22033
   8   0   7 96.4662 77.9895   3 0.68517-0.00888 0.70347-0.70388-0.18315 0.71032
  -8   0  -7-77.1660 108.206   4 0.20401-0.88051-0.17494 0.17522-0.96150 0.43369
  -8   0  -8 5158.76 532.432   4 0.23811-0.91517-0.19069 0.19104-0.95036 0.34785
   8   0   8 5410.14 427.366   3 0.69685-0.02004 0.70881-0.70924-0.10285 0.70467
  -8  -1   8 191.253 121.840   3 0.23449-0.90309 0.15868-0.23086 0.96061-0.36799
   8  -1  -8 97.7342 82.6565   2 0.06801 0.60081 0.72146-0.79383-0.68821 0.09483
  -8  -1   7 207.637 113.335   3 0.20238-0.87149 0.12541-0.19758 0.97257-0.45459
   8  -1  -7 74.0876 71.3200   2 0.07595 0.59337 0.71333-0.78565-0.69576 0.17712
  -8  -1   6 154.087 106.713   3 0.16048-0.83010 0.08228-0.15444 0.98466-0.54133
   8  -1  -6 28.3213 65.4201   2 0.08970 0.58013 0.69889-0.77116-0.70856 0.26465
   8  -1  -5 105.991 75.8905   2 0.11045 0.55988 0.67625-0.74847-0.72721 0.35803
  -8  -1   5 7.35169 86.3437   3 0.10754-0.77767 0.02823-0.10037 0.99451-0.62583
  -8   1   5 19.1434 88.4317   4-0.74037 0.07045 0.31411-0.24232-0.59986 0.96836
  -8  -1   5 35.7291 63.4432   4-0.77650 0.10652 0.33657-0.40960-0.53853 0.90717
   8  -1  -4 30.9709 50.6906   2 0.13976 0.53107 0.64249-0.71466-0.75215 0.45770
  -8  -1   4 122.992 112.873   3 0.04284-0.71348-0.03721-0.03491 0.99867-0.70465
   8   1  -4 240.896 80.7149   2 0.03303 0.63790 0.75555-0.68285-0.65356 0.35920
  -8   1   4 167.657 112.730   4-0.67879 0.00832 0.27735-0.20548-0.68507 0.97887
  -8  -1   4 210.211 95.1284   4-0.71806 0.04754 0.30060-0.37356-0.63313 0.92708
  -8  -1   3 1588.22 225.727   4-0.64501-0.02606 0.25778-0.33067-0.72426 0.94351
   8  -1  -3 1546.68 199.471   2 0.17925 0.49209 0.59359-0.66571-0.78303 0.56332
  -8   1   3 1931.96 272.478   4-0.60538-0.06563 0.23525-0.16330-0.76495 0.98405
   8   1  -3 1436.43 179.628   2 0.06900 0.60243 0.72045-0.64771-0.68916 0.46954
  -8  -1   3 1382.52 187.033   5-0.35573-0.31522-0.90596 0.83366-0.23193 0.45153
  -8  -1   2 195.427 87.2709   5-0.30803-0.36342-0.92303 0.85071-0.23259 0.37749
  -8   1   2 258.934 128.675   4-0.52114-0.15042 0.18854-0.11651-0.83633 0.98073
  -8  -1   2 7.57639 69.4758   4-0.55761-0.11400 0.20858-0.28139-0.80768 0.95223
   8  -1  -2-49.1835 50.4188   2 0.23053 0.44131 0.52382-0.59589-0.81823 0.67324
  -8  -1   1 101.412 66.2964   5-0.26896-0.40298-0.93507 0.86275-0.23268 0.30289
  -8   1   1-65.1576 92.2012   4-0.42840-0.24371 0.13859-0.06649-0.89613 0.96583
  -8  -1   1-2.69621 63.2009   4-0.45809-0.21407 0.15443-0.22717-0.87884 0.94869
   8  -1  -1-9.65655 35.0233   2 0.29489 0.37746 0.42512-0.49714-0.85357 0.78332
  -8  -1   0 79.0298 61.4842   5-0.23858-0.43386-0.94328 0.87095-0.23249 0.22801
  -8   1   0 160.256 136.361   4-0.33081-0.34185 0.08737-0.01520-0.94212 0.93712
  -8  -1   0 41.3473 84.1514   4-0.35079-0.32192 0.09776-0.17042-0.93396 0.92912
  -8  -1  -1 788.130 147.906   5-0.21687-0.45607-0.94854 0.87620-0.23222 0.15304
  -8   1  -1 735.361 204.436   4-0.23281-0.44039 0.03711 0.03514-0.97352 0.89383
  -8  -1  -1 1000.44 223.055   4-0.24157-0.43169 0.04156-0.11414-0.97127 0.89173
  -8  -1  -2 9.34154 69.6808   5-0.20375-0.46969-0.95148 0.87913-0.23200 0.07813
  -8  -1  -2-146.175 121.138   4-0.13651-0.53730-0.01127-0.06124-0.99154 0.83729
  -8   1  -2 235.800 136.048   4-0.13885-0.53490-0.01010 0.08243-0.99124 0.83685
  -8  -1  -3-36.7069 54.0202   5-0.19914-0.47479-0.95247 0.88011-0.23191 0.00334
  -8  -1  -3-33.4458 96.8428   4-0.04054-0.63381-0.05855-0.01388-0.99767 0.76873
  -8   1  -3 53.1662 111.231   4-0.05256-0.62174-0.05268 0.12508-0.99753 0.76844
  -8  -1  -4 288.594 102.349   5-0.20298-0.47145-0.95165 0.87928-0.23198-0.07128
  -8  -1  -4 258.993 131.533   4 0.04327-0.71817-0.09910 0.02675-0.99369 0.69005
  -8   1  -4-42.1668 105.272   4 0.02369-0.69853-0.08969 0.16216-0.99540 0.69161
  -8  -1  -5 150.719 73.7208   5-0.21522-0.45971-0.94892 0.87655-0.23219-0.14576
  -8  -1  -5 380.840 158.536   4 0.11377-0.78921-0.13268 0.06040-0.98361 0.60527
  -8   1  -5 284.424 145.703   4 0.08882-0.76421-0.12086 0.19340-0.98789 0.60940
  -8  -1  -6 103.736 70.6715   5-0.23591-0.43951-0.94396 0.87157-0.23246-0.22018
   8   1   6 11.8889 62.4240   3 0.64749 0.02826 0.67828-0.60631-0.34253 0.79503
  -8  -1  -6 104.653 104.093   4 0.17118-0.84717-0.15966 0.08745-0.97077 0.51773
  -8   1  -6 104.760 87.0689   4 0.14278-0.81871-0.14636 0.21898-0.97765 0.52446
  -8  -1  -7 382.029 117.869   5-0.26520-0.41072-0.93614 0.86375-0.23267-0.29467
   8   1   7 586.900 155.755   3 0.67054 0.00572 0.69453-0.62257-0.25554 0.78269
  -8  -1  -7 670.743 196.490   4 0.21655-0.89308-0.18074 0.10861-0.95759 0.42985
  -8   1  -7 166.504 119.160   4 0.18618-0.86266-0.16666 0.23935-0.96671 0.43883
   8   1   8-95.9650 89.3916   3 0.68695-0.01018 0.70444-0.63249-0.17273 0.77453
  -8  -1  -8 235.979 136.481   4 0.25124-0.92832-0.19672 0.12466-0.94564 0.34320
  -8  -2   8 8716.21 641.715   3 0.21617-0.88474 0.13967-0.28422 0.96773-0.37509
  -8  -2   7 207.173 122.629   3 0.18524-0.85432 0.10773-0.25227 0.97798-0.45999
   8  -2  -7 269.079 110.486   2 0.12168 0.54760 0.66357-0.80832-0.73696 0.21827
  -8  -2   6 8727.51 629.698   3 0.14552-0.81511 0.06696-0.21148 0.98804-0.54470
  -8   2   6 8730.03 609.601   4-0.77972 0.11037 0.33861-0.19448-0.53252 0.97565
   8  -2  -6 8658.00 539.207   2 0.13743 0.53235 0.64525-0.78995-0.75022 0.30626
   8  -2  -5 461.356 130.995   2 0.15982 0.51046 0.61815-0.76280-0.76823 0.39900
  -8  -2   5 493.336 175.569   3 0.09611-0.76621 0.01661-0.16112 0.99586-0.62718
  -8   2   5 629.264 174.282   4-0.72915 0.05926 0.30729-0.16308-0.61697 0.98540
  -8  -2   4 7841.92 590.189   3 0.03653-0.70714-0.04355-0.10094 0.99862-0.70459
  -8   2   4 8633.70 602.700   4-0.66782-0.00262 0.27096-0.12667-0.69830 0.99202
  -8  -2   4 9231.45 486.248   4-0.74669 0.07614 0.31798-0.46335-0.58986 0.88388
   8  -2  -4 9108.84 507.171   2 0.18995 0.48083 0.57962-0.72423-0.79085 0.49636
  -8  -2   4 8638.51 462.421   5-0.32175-0.34870-0.91839 0.77371-0.23246 0.52674
  -8  -2   3-20.0946 48.2461   5-0.26354-0.40741-0.93661 0.79193-0.23267 0.45226
  -8   2   3-18.0941 76.9887   4-0.59586-0.07512 0.22990-0.08553-0.77398 0.99301
  -8  -2   3-42.8916 59.2146   4-0.67635 0.00525 0.27593-0.42122-0.68806 0.90738
   8  -2  -3 5.94774 44.7929   2 0.22888 0.44241 0.52619-0.67074-0.81718 0.59742
  -8   2   2 11803.5 702.313   4-0.51439-0.15715 0.18485-0.04042-0.84128 0.98561
  -8  -2   2 15803.1 638.255   4-0.58945-0.08219 0.22630-0.37152-0.77992 0.92454
   8  -2  -2 14375.3 586.531   2 0.27744 0.39435 0.45322-0.59772-0.84504 0.70001
  -8  -2   2 13347.9 582.478   5-0.21467-0.45678-0.94905 0.80436-0.23218 0.37708
  -8  -2   1 724.684 146.971   5-0.17507-0.49687-0.95728 0.81258-0.23137 0.30157
  -8   2   1 584.950 166.857   4-0.42562-0.24646 0.13712 0.00739-0.89766 0.96729
  -8  -2   1 669.264 145.213   4-0.48777-0.18441 0.17041-0.31556-0.85986 0.92978
  -8   2   0 13249.4 781.379   4-0.33284-0.33979 0.08843 0.05616-0.94132 0.93625
  -8  -2   0 14273.5 675.934   4-0.37585-0.29688 0.11086-0.25593-0.92284 0.91807
  -8  -2   0 12749.5 580.026   5-0.14459-0.52785-0.96252 0.81781-0.23050 0.22600
  -8  -2  -1 141.639 74.5062   5-0.12304-0.54989-0.96565 0.82093-0.22975 0.15056
  -8   2  -1 248.654 148.448   4-0.23992-0.43326 0.04072 0.10394-0.97170 0.89194
  -8  -2  -1 207.467 108.018   4-0.26040-0.41288 0.05115-0.19615-0.96607 0.88660
  -8  -2  -2 13619.9 745.392   4-0.14865-0.52517-0.00522-0.13970-0.98993 0.83576
  -8   2  -2 13280.4 823.679   4-0.15071-0.52301-0.00420 0.14893-0.98964 0.83518
  -8  -2  -2 14233.1 621.252   5-0.11022-0.56321-0.96730 0.82257-0.22925 0.07537
  -8  -2  -3 784.363 160.765   5-0.10595-0.56798-0.96781 0.82307-0.22908 0.00050
  -8  -2  -3 534.883 163.874   4-0.04659-0.62779-0.05560-0.08925-0.99762 0.76875
  -8   2  -3 435.850 160.024   4-0.06840-0.60587-0.04492 0.18973-0.99708 0.76791
  -8  -2  -4 8163.30 595.818   4 0.04219-0.71711-0.09858-0.04619-0.99380 0.69023
  -8   2  -4 9025.42 679.060   4 0.00483-0.67964-0.08059 0.22547-0.99659 0.69273
  -8  -2  -4 8252.31 483.110   5-0.11007-0.56435-0.96732 0.82257-0.22924-0.07402
  -8  -2  -5-13.7507 55.3621   5-0.12252-0.55240-0.96572 0.82097-0.22973-0.14824
  -8  -2  -5 76.1926 100.778   4 0.11637-0.79183-0.13391-0.01079-0.98312 0.60485
  -8   2  -5 200.962 130.015   4 0.06791-0.74327-0.11089 0.25585-0.99087 0.61231
  -8  -2  -6 6369.00 547.048   4 0.17631-0.85232-0.16206 0.01743-0.96941 0.51644
  -8   2  -6 7319.50 609.170   4 0.12065-0.79656-0.13593 0.28097-0.98229 0.52903
  -8  -2  -6 7314.46 462.355   5-0.14329-0.53212-0.96272 0.81795-0.23045-0.22220
  -8  -2  -7 147.774 81.8526   5-0.17253-0.50339-0.95775 0.81298-0.23131-0.29604
   8   2   7 312.566 118.527   3 0.65557 0.02066 0.68418-0.53986-0.31460 0.84174
  -8  -2  -7 257.647 138.814   4 0.22331-0.89987-0.18387 0.03932-0.95539 0.42772
  -8   2  -7 13.0510 117.024   4 0.16348-0.83994-0.15606 0.30117-0.97273 0.44478
  -8  -2  -8 5895.31 560.996   4 0.25896-0.93607-0.20025 0.05578-0.94276 0.34039
   8   2   8 6378.95 484.227   3 0.67594 0.00080 0.69801-0.55370-0.23102 0.83281
  -8  -3   8 194.395 131.077   3 0.19513-0.86366 0.11792-0.33484 0.97494-0.38228
   8  -3  -7 345.471 124.388   2 0.16678 0.50244 0.60946-0.82664-0.77363 0.25489
  -8  -3   7 123.905 109.658   3 0.16516-0.83420 0.08708-0.30399 0.98350-0.46549
   8  -3  -6 191.332 94.4979   2 0.18380 0.48593 0.58769-0.80482-0.78639 0.34238
  -8  -3   6-24.5230 88.7434   3 0.12724-0.79679 0.04828-0.26517 0.99153-0.54818
  -8   3   6 318.822 157.116   4-0.77272 0.10340 0.33418-0.11763-0.54545 0.98850
   8  -3  -5-13.5117 54.4893   2 0.20693 0.46330 0.55684-0.77393-0.80275 0.43348
  -8  -3   5 129.658 74.1617   5-0.30310-0.36685-0.92464 0.70760-0.23262 0.60159
  -8  -3   5 96.9777 108.031   3 0.08070-0.75077 0.00100-0.21787 0.99727-0.62857
  -8   3   5 155.665 95.6487   4-0.72236 0.05249 0.30319-0.08656-0.62695 0.99530
  -8  -3   4 466.663 119.431   5-0.23395-0.43650-0.94445 0.72739-0.23244 0.52672
  -8  -3   4 305.179 154.440   3 0.02530-0.69588-0.05484-0.16202 0.99834-0.70429
  -8   3   4 522.284 167.215   4-0.66212-0.00830 0.26765-0.05095-0.70498 0.99863
   8  -3  -4 306.734 111.369   2 0.23687 0.43386 0.51468-0.73172-0.82216 0.52762
  -8  -3   3 178.585 86.9342   5-0.17509-0.49585-0.95728 0.74021-0.23137 0.45095
  -8   3   3 218.597 120.303   4-0.59230-0.07866 0.22790-0.01112-0.77729 0.99625
   8  -3  -3 239.182 104.904   2 0.27428 0.39696 0.45820-0.67518-0.84341 0.62360
  -8  -3   2 315.612 110.760   5-0.12625-0.54519-0.96522 0.74814-0.22986 0.37475
   8  -3  -2 434.272 113.097   2 0.31919 0.35255 0.38417-0.60110-0.86401 0.71893
  -8   3   2 307.120 138.185   4-0.51405-0.15746 0.18467 0.03218-0.84153 0.98579
  -8  -3   1 153.573 78.9103   5-0.08709-0.58484-0.96985 0.75277-0.22826 0.29845
  -8   3   1 169.317 95.5326   4-0.42943-0.24263 0.13914 0.07779-0.89555 0.96511
  -8  -3   1 39.8686 57.2608   4-0.52968-0.14254 0.19321-0.41077-0.82990 0.89990
  -8  -3   0 3.63208 63.8375   5-0.05728-0.61515-0.97237 0.75528-0.22681 0.22230
  -8   3   0 43.8624 92.8869   4-0.34136-0.33125 0.09285 0.12415-0.93789 0.93275
  -8  -3   0 42.4365 67.9942   4-0.41375-0.25901 0.13082-0.34831-0.90406 0.89935
  -8  -3  -1 634.420 139.432   5-0.03646-0.63647-0.97360 0.75650-0.22567 0.14648
  -8   3  -1 376.024 151.701   4-0.25322-0.41993 0.04749 0.16959-0.96811 0.88827
  -8  -3  -1 501.432 134.165   4-0.29166-0.38164 0.06716-0.28458-0.95633 0.87693
  -8  -3  -2 754.403 164.416   5-0.02433-0.64910-0.97413 0.75702-0.22497 0.07108
  -8   3  -2 639.594 200.738   4-0.16839-0.50531 0.00464 0.21251-0.98692 0.83238
  -8  -3  -2 520.950 156.307   4-0.17220-0.50165 0.00655-0.22389-0.98628 0.83218
  -8  -3  -3 246.640 96.4619   5-0.02061-0.65331-0.97426 0.75714-0.22474-0.00384
  -8  -3  -3 193.126 113.382   4-0.06276-0.61163-0.04768-0.16958-0.99727 0.76847
  -8   3  -3 110.704 110.594   4-0.08971-0.58453-0.03444 0.25167-0.99597 0.76673
  -8  -3  -4 652.027 149.206   5-0.02512-0.64930-0.97410 0.75697-0.22501-0.07827
  -8  -3  -4 614.677 180.986   4 0.03217-0.70712-0.09377-0.12341-0.99472 0.69122
  -8   3  -4 734.537 199.870   4-0.01919-0.65560-0.06895 0.28625-0.99748 0.69355
  -8  -3  -5 75.3132 66.3466   5-0.03774-0.63718-0.97354 0.75640-0.22574-0.15223
  -8  -3  -5 237.759 136.053   4 0.11105-0.78654-0.13139-0.08572-0.98411 0.60592
  -8   3  -5 73.8276 102.020   4 0.04209-0.71742-0.09853 0.31591-0.99381 0.61518
  -8  -3  -6 89.7994 99.3599   5-0.05845-0.61696-0.97228 0.75514-0.22687-0.22580
  -8  -3  -6-58.9241 86.7483   4 0.17434-0.85038-0.16114-0.05590-0.96994 0.51704
  -8   3  -6 33.4410 114.469   4 0.09381-0.76969-0.12322 0.34067-0.98709 0.53376
  -8  -3  -7 189.765 89.4056   5-0.08738-0.58853-0.96983 0.75267-0.22827-0.29909
  -8  -3  -7 161.521 118.773   4 0.22361-0.90020-0.18400-0.03296-0.95529 0.42770
  -8   3  -7 82.4137 105.463   4 0.13623-0.81266-0.14328 0.36080-0.97909 0.45106
   8   3   7 319.083 119.227   3 0.64150 0.03470 0.67380-0.45711-0.36193 0.88905
   8  -4  -7 385.226 133.378   2 0.21052 0.45865 0.55192-0.84154-0.80519 0.28640
  -8  -4   7 177.718 132.885   3 0.14255-0.81156 0.06392-0.35318 0.98866-0.47064
  -8  -4   6 8077.99 676.530   3 0.10615-0.77568 0.02681-0.31607 0.99468-0.55132
  -8   4   6 8822.48 668.927   4-0.76917 0.09988 0.33195-0.04298-0.55184 0.99482
   8  -4  -6 8428.49 572.956   2 0.22810 0.44158 0.52730-0.81687-0.81669 0.37263
  -8  -4   5 1316.32 187.299   5-0.22073-0.44921-0.94764 0.65822-0.23228 0.60124
  -8  -4   5 915.622 243.587   3 0.06206-0.73210-0.01784-0.27139 0.99832-0.62960
  -8   4   5 1024.96 236.350   4-0.71973 0.04989 0.30161-0.01257-0.63075 0.99903
   8  -4  -5 1519.45 247.036   2 0.25125 0.41894 0.49349-0.78301-0.83074 0.46142
  -8  -4   4 5479.67 527.457   3 0.01016-0.68071-0.07001-0.21921 0.99756-0.70349
  -8   4   4 5131.84 497.553   4-0.66122-0.00917 0.26713 0.02198-0.70602 0.99960
   8  -4  -4 5894.21 452.839   2 0.28031 0.39037 0.44866-0.73813-0.84651 0.55191
  -8  -4   4 5150.32 372.139   5-0.15147-0.51897-0.96142 0.67198-0.23071 0.52498
  -8  -4   3 711.664 146.760   5-0.09322-0.57772-0.96923 0.67979-0.22853 0.44811
  -8   4   3 818.034 203.826   4-0.59404-0.07689 0.22888 0.06032-0.77568 0.99456
   8  -4  -3 727.772 158.875   2 0.31543 0.35576 0.39065-0.68007-0.86251 0.64265
  -8   4   2 11056.0 705.809   4-0.51932-0.15217 0.18754 0.10173-0.83767 0.98186
  -8  -4   2 9858.05 528.578   5-0.04539-0.62604-0.97312 0.68367-0.22617 0.37105
  -8   4   1 1509.88 273.569   4-0.43893-0.23310 0.14420 0.14514-0.89018 0.95967
  -8  -4   1 1496.31 211.483   5-0.00743-0.66450-0.97461 0.68515-0.22393 0.29411
  -8   4   0 7298.21 591.497   4-0.35546-0.31712 0.10019 0.18922-0.93197 0.92676
  -8  -4   0 6906.13 449.736   5 0.02117-0.69360-0.97481 0.68534-0.22202 0.21751
  -8  -4  -1 242.043 98.7283   5 0.04088-0.71381-0.97447 0.68499-0.22061 0.14140
  -8   4  -1 231.548 140.833   4-0.27188-0.40125 0.05702 0.23247-0.96266 0.88275
  -8   4  -2 13252.8 834.225   4-0.19115-0.48251 0.01606 0.27350-0.98282 0.82821
  -8  -4  -2 13053.0 630.964   5 0.05210-0.72552-0.97411 0.68462-0.21976 0.06586
  -8  -4  -3 399.089 127.426   5 0.05514-0.72905-0.97399 0.68450-0.21953-0.00907
  -8   4  -3 394.547 168.640   4-0.11585-0.55837-0.02153 0.31117-0.99383 0.76453
  -8   4  -4 9043.85 703.791   4-0.04783-0.62693-0.05499 0.34471-0.99761 0.69360
  -8  -4  -4 8724.51 530.162   5 0.05023-0.72464-0.97418 0.68467-0.21990-0.08338
  -8  -4  -5 284.623 104.985   5 0.03751-0.71242-0.97456 0.68504-0.22086-0.15713
  -8   4  -5 449.102 174.470   4 0.01179-0.68710-0.08395 0.37374-0.99620 0.61750
  -8   4  -6 5560.41 557.671   4 0.06260-0.73845-0.10836 0.39822-0.99154 0.53814
  -8  -4  -6 6549.71 468.510   5 0.01700-0.69241-0.97483 0.68530-0.22231-0.23036
  -8  -4  -7 680.659 161.503   5-0.01142-0.66448-0.97452 0.68499-0.22418-0.30319
  -8  -5   6 45.8863 139.485   3 0.08269-0.75218 0.00300-0.36462 0.99711-0.55373
  -8   5   6-35.7139 103.575   4-0.76889 0.09962 0.33177 0.02961-0.55235 0.99526
   8  -5  -6 4.66813 62.6320   2 0.27002 0.39961 0.46486-0.82686-0.84117 0.39706
  -8  -5   5 197.110 151.847   3 0.04073-0.71073-0.03934-0.32226 0.99866-0.62993
  -8   5   5 269.802 138.841   4-0.72093 0.05111 0.30233 0.05913-0.62902 0.99723
   8  -5  -5 2.38931 64.2971   2 0.29259 0.37754 0.42888-0.79083-0.85250 0.48313
  -8  -5   4 93.6689 65.0175   5-0.07667-0.59377-0.97083 0.60902-0.22777 0.52203
   8  -5  -4 19.2067 69.7099   2 0.32014 0.35050 0.38252-0.74442-0.86439 0.56975
  -8   5   4 204.288 163.238   4-0.66464-0.00572 0.26912 0.09241-0.70203 0.99554
  -8  -5   3 53.8437 66.3480   5-0.01995-0.65098-0.97428 0.61246-0.22470 0.44427
  -8   5   3 43.6134 95.8987   4-0.60048-0.07043 0.23249 0.12912-0.76964 0.98845
  -8  -5   2 177.935 88.7534   5 0.02618-0.69761-0.97476 0.61293-0.22167 0.36654
  -8   5   2 132.411 110.324   4-0.52948-0.14198 0.19310 0.16858-0.83005 0.97417
  -8  -5   1-31.0741 57.2352   5 0.06246-0.73439-0.97367 0.61183-0.21895 0.28913
  -8   5   1 156.072 113.988   4-0.45336-0.21864 0.15190 0.20985-0.88170 0.95112
  -8  -5   0 257.909 104.458   5 0.08954-0.76196-0.97202 0.61016-0.21673 0.21221
  -8   5   0 234.531 134.897   4-0.37439-0.29816 0.11010 0.25173-0.92352 0.91823
  -8  -5  -1 289.237 109.937   5 0.10796-0.78088-0.97048 0.60861-0.21513 0.13591
  -8   5  -1 488.711 191.942   4-0.29519-0.37790 0.06898 0.29293-0.95514 0.87516
  -8  -5  -2 109.951 90.1426   5 0.11816-0.79158-0.96948 0.60761-0.21420 0.06030
  -8   5  -2 42.6604 106.786   4-0.21839-0.45525 0.02980 0.33218-0.97701 0.82232
  -8  -5  -3 662.516 141.459   5 0.12051-0.79442-0.96923 0.60735-0.21399-0.01461
  -8   5  -3 563.485 204.731   4-0.14629-0.52790-0.00640 0.36845-0.99026 0.76088
  -8  -5  -4 252.637 117.784   5 0.11524-0.78965-0.96977 0.60788-0.21447-0.08883
  -8   5  -4 81.5873 122.779   4-0.08066-0.59407-0.03889 0.40102-0.99651 0.69243
  -8  -5  -5 50.9883 65.6046   5 0.10250-0.77741-0.97097 0.60907-0.21561-0.16238
  -8   5  -5-69.2938 110.592   4-0.02262-0.65266-0.06728 0.42948-0.99755 0.61877
  -8  -5  -6-145.728 87.8834   5 0.08231-0.75772-0.97253 0.61062-0.21734-0.23534
  -8   5  -6-293.703 165.435   4 0.02732-0.70315-0.09144 0.45372-0.99512 0.54164
  -8  -5  -7 94.7776 72.6953   5 0.05456-0.73046-0.97402 0.61210-0.21957-0.30781
  -8  -6   5 1407.42 322.998   3 0.01710-0.68707-0.06306-0.37090 0.99797-0.62923
  -8   6   5 1538.99 285.152   4-0.72560 0.05581 0.30514 0.12873-0.62223 0.99036
  -8   6   4 6428.90 564.351   4-0.67193 0.00159 0.27335 0.16060-0.69341 0.98684
  -8  -6   4 6146.81 431.406   5-0.01101-0.65942-0.97453 0.54034-0.22415 0.51840
  -8   6   3 1642.04 281.634   4-0.61104-0.05985 0.23844 0.19558-0.75946 0.97820
  -8  -6   3 1611.90 226.586   5 0.04359-0.71451-0.97440 0.54019-0.22041 0.43996
  -8   6   2 8611.89 623.921   4-0.54391-0.12752 0.20102 0.23307-0.81882 0.96286
  -8  -6   2 8176.87 504.047   5 0.08764-0.75906-0.97216 0.53794-0.21689 0.36175
  -8  -6   1 1584.43 233.277   5 0.12202-0.79394-0.96907 0.53485-0.21385 0.28401
  -8   6   1 1631.77 278.960   4-0.47208-0.19990 0.16194 0.27223-0.87012 0.93946
  -8   6   0 6229.92 541.169   4-0.39754-0.27499 0.12226 0.31199-0.91239 0.90704
  -8  -6   0 5588.94 430.357   5 0.14746-0.81987-0.96603 0.53180-0.21142 0.20689
  -8  -6  -1 1432.63 221.975   5 0.16454-0.83745-0.96362 0.52938-0.20971 0.13048
  -8   6  -1 1344.06 274.436   4-0.32259-0.35048 0.08312 0.35120-0.94529 0.86523
  -8   6  -2 8898.91 685.544   4-0.24957-0.42404 0.04563 0.38876-0.96912 0.81437
  -8  -6  -2 8008.46 529.731   5 0.17376-0.84717-0.96220 0.52795-0.20875 0.05484
  -8  -6  -3 666.006 163.684   5 0.17546-0.84937-0.96192 0.52766-0.20857-0.02004
  -8   6  -3 164.338 135.629   4-0.18059-0.49357 0.01076 0.42371-0.98480 0.75535
  -8   6  -4 5501.34 577.018   4-0.11730-0.55741-0.02081 0.45535-0.99369 0.68954
  -8  -6  -4 5931.05 465.281   5 0.16991-0.84432-0.96280 0.52853-0.20915-0.09415
  -8  -6  -5 1558.92 242.871   5 0.15724-0.83214-0.96468 0.53041-0.21045-0.16755
  -8   6  -5 1366.11 292.745   4-0.06083-0.61443-0.04863 0.48325-0.99733 0.61848
  -8  -6  -6 4520.72 412.691   5 0.13747-0.81287-0.96730 0.53302-0.21239-0.24030
  -8  -7   4-98.8133 70.5037   5 0.04483-0.71525-0.97436 0.46779-0.22031 0.51455
  -8   7   4 523.609 169.173   4-0.68261 0.01230 0.27959 0.22677-0.68034 0.97371
  -8  -7   3 324.771 104.426   5 0.09704-0.76796-0.97143 0.46485-0.21609 0.43563
  -8   7   3 179.924 120.783   4-0.62521-0.04565 0.24647 0.25996-0.74525 0.96391
  -8  -7   2 287.879 107.573   5 0.13889-0.81031-0.96713 0.46053-0.21225 0.35711
  -8   7   2 64.8799 91.7131   4-0.56206-0.10935 0.21104 0.29547-0.80397 0.94794
  -8  -7   1-150.475 93.8439   5 0.17134-0.84325-0.96258 0.45598-0.20900 0.27916
  -8   7   1 58.7812 97.0631   4-0.49451-0.17744 0.17405 0.33253-0.85530 0.92457
  -8  -7   0 276.668 112.641   5 0.19517-0.86758-0.95855 0.45194-0.20646 0.20193
  -8   7   0 134.595 109.700   4-0.42434-0.24816 0.13643 0.37023-0.89836 0.89293
  -8  -7  -1-16.4214 59.0894   5 0.21099-0.88390-0.95555 0.44893-0.20470 0.12547
  -8   7  -1 220.370 146.942   4-0.35356-0.31949 0.09920 0.40753-0.93278 0.85266
  -8  -7  -2-49.0716 77.8298   5 0.21930-0.89271-0.95387 0.44724-0.20375 0.04982
  -8   7  -2 158.130 133.834   4-0.28426-0.38933 0.06336 0.44345-0.95876 0.80393
  -8  -7  -3 49.5828 79.1121   5 0.22046-0.89437-0.95363 0.44699-0.20361-0.02500
  -8   7  -3-121.863 123.980   4-0.21836-0.45578 0.02979 0.47710-0.97701 0.74749
  -8  -7  -4 389.398 130.290   5 0.21472-0.88912-0.95481 0.44816-0.20427-0.09904
  -8   7  -4 362.264 179.195   4-0.15741-0.51727-0.00085 0.50781-0.98866 0.68443
  -8  -8   3 2372.52 288.142   5 0.14062-0.81153-0.96691 0.38795-0.21209 0.43162
  -8   8   2 4442.54 448.836   4-0.58341-0.08797 0.22292 0.35600-0.78540 0.92929
  -8  -8   2 4027.58 383.115   5 0.18033-0.85174-0.96113 0.38215-0.20806 0.35290
  -8  -8   1 997.241 198.047   5 0.21096-0.88287-0.95556 0.37658-0.20470 0.27485
  -8   8   1 946.192 211.760   4-0.52016-0.15176 0.18800 0.39100-0.83705 0.90624
  -8   8   0 3796.18 414.307   4-0.45432-0.21815 0.15242 0.42666-0.88113 0.87562
  -8  -8   0 3363.11 363.778   5 0.23331-0.90572-0.95088 0.37189-0.20211 0.19756
  -8  -8  -1 2075.79 290.367   5 0.24801-0.92091-0.94751 0.36851-0.20034 0.12110
  -8   8  -1 2187.88 338.682   4-0.38767-0.28535 0.11707 0.46208-0.91725 0.83704
  -8   8  -2 4416.52 485.101   4-0.32207-0.35150 0.08285 0.49638-0.94549 0.79059
   9   0  -7 82.1744 70.4893   2 0.07529 0.67820 0.71401-0.71384-0.69514 0.17710
   9   0  -6-28.9506 59.5359   2 0.08893 0.66506 0.69971-0.69949-0.70786 0.26456
   9   0  -5 198.353 89.0066   2 0.10957 0.64492 0.67723-0.67696-0.72644 0.35787
  -9   0   5-7.73330 69.3945   4-0.75348-0.00056 0.32216-0.32281-0.57880 0.94676
   9   0  -4-6.63489 40.0852   2 0.13883 0.61616 0.64359-0.64327-0.75138 0.45755
  -9   0   4 123.168 88.7645   4-0.69669-0.05789 0.28788-0.28845-0.66233 0.95559
  -9   0   3 118.004 98.6994   4-0.62934-0.12578 0.24883-0.24933-0.74097 0.95953
  -9   0   2 81.5517 95.7615   4-0.55234-0.20333 0.20567-0.20609-0.81202 0.95588
  -9   0   1 141.126 82.0855   4-0.46768-0.28853 0.15958-0.15993-0.87290 0.94206
  -9   0   0-85.8764 74.5597   5-0.37825-0.37825-0.89696 0.89702-0.23140 0.22637
  -9   0   0 183.792 122.910   4-0.37838-0.37838 0.11219-0.11246-0.92167 0.91613
  -9   0  -1 72.8294 68.4666   5-0.35954-0.39746-0.90448 0.90452-0.23185 0.15212
  -9   0  -1 32.2548 125.887   4-0.28810-0.46921 0.06534-0.06553-0.95751 0.87727
  -9   0  -2 1486.49 210.388   5-0.34817-0.40933-0.90884 0.90888-0.23207 0.07765
  -9   0  -2 1100.50 259.867   4-0.20057-0.55728 0.02081-0.02093-0.98092 0.82598
  -9   0  -3 160.738 83.4839   5-0.34417-0.41383-0.91034 0.91037-0.23214 0.00303
  -9   0  -3-96.0130 122.050   4-0.11900-0.63941-0.01996 0.01992-0.99352 0.76389
  -9   0  -4 1355.88 208.866   5-0.34758-0.41091-0.90906 0.90908-0.23208-0.07173
  -9   0  -4 743.154 222.976   4-0.04566-0.71329-0.05605 0.05608-0.99763 0.69330
  -9   0  -5-55.2209 68.3345   5-0.35845-0.40053-0.90490 0.90491-0.23187-0.14663
  -9   0  -5 294.413 157.885   4 0.01818-0.77768-0.08703 0.08713-0.99579 0.61676
  -9   0  -6 33.0538 60.6671   5-0.37688-0.38261-0.89753 0.89753-0.23144-0.22176
  -9   0  -6-91.9021 122.316   4 0.07213-0.83217-0.11291 0.11308-0.99031 0.53658
   9  -1  -7 7736.58 546.090   2 0.11678 0.63666 0.66914-0.74140-0.73274 0.21466
   9   1  -7 8106.16 546.096   2 0.03438 0.71916 0.75429-0.68168-0.65493 0.13695
   9  -1  -6 42.2805 75.3728   2 0.13231 0.62163 0.65128-0.72349-0.74596 0.30262
   9   1  -6 17.6216 46.4803   2 0.04580 0.70824 0.74343-0.67078-0.66647 0.22321
  -9   1   6 149.882 103.939   4-0.78631 0.03285 0.34283-0.27114-0.51988 0.96246
  -9   1   5 9748.91 640.385   4-0.73865-0.01536 0.31306-0.24129-0.60255 0.97044
  -9  -1   5 9558.54 569.125   4-0.77261 0.01855 0.33411-0.40718-0.54565 0.91368
   9  -1  -5 9497.66 550.135   2 0.15441 0.60003 0.62481-0.69697-0.76398 0.39536
   9   1  -5 9648.01 534.913   2 0.06431 0.69023 0.72521-0.65250-0.68465 0.31613
   9  -1  -4 146.912 81.8905   2 0.18446 0.57048 0.58682-0.65893-0.78688 0.49299
  -9   1   4 147.869 100.642   4-0.68122-0.07334 0.27877-0.20693-0.68207 0.97525
  -9  -1   4-112.454 90.7110   4-0.71765-0.03695 0.30036-0.37335-0.63371 0.92704
  -9   1   3 9840.04 645.771   4-0.61429-0.14081 0.24028-0.16836-0.75625 0.97474
  -9  -1   3 10366.4 591.158   4-0.65095-0.10420 0.26120-0.33412-0.71768 0.93632
  -9  -1   2-30.4751 57.0610   5-0.35454-0.40096-0.90641 0.83411-0.23195 0.37630
  -9   1   2 80.5161 92.8323   4-0.53891-0.21673 0.19827-0.12628-0.82277 0.96655
  -9  -1   2-25.5327 67.7294   4-0.57316-0.18253 0.21721-0.29005-0.79446 0.93839
  -9   1   1 8066.40 598.039   4-0.45704-0.29915 0.15387-0.08181-0.87948 0.94857
  -9  -1   1 10183.0 608.668   4-0.48622-0.27002 0.16957-0.24233-0.86089 0.93013
  -9  -1   1 9250.14 518.525   5-0.31992-0.43608-0.91902 0.84670-0.23248 0.30213
  -9  -1   0 155.320 84.0389   5-0.29293-0.46357-0.92788 0.85556-0.23267 0.22763
  -9   1   0 101.427 101.632   4-0.37144-0.38530 0.10855-0.03640-0.92488 0.91927
  -9  -1   0-206.308 112.410   4-0.39336-0.36343 0.12006-0.19275-0.91447 0.90900
  -9   1  -1 9074.30 684.146   4-0.28534-0.47194 0.06392 0.00830-0.95841 0.87810
  -9  -1  -1 10419.9 687.011   4-0.29871-0.45863 0.07079-0.14340-0.95394 0.87377
  -9  -1  -1 9904.06 544.860   5-0.27358-0.48341-0.93374 0.86140-0.23269 0.15295
  -9  -1  -2 255.444 109.454   5-0.26185-0.49564-0.93708 0.86474-0.23266 0.07823
  -9   1  -2 352.920 156.055   4-0.20203-0.55581 0.02154 0.05075-0.98061 0.82561
  -9  -1  -2 357.279 167.060   4-0.20658-0.55130 0.02384-0.09638-0.97965 0.82478
  -9  -1  -3 6331.53 582.909   4-0.12069-0.63774-0.01913-0.05334-0.99334 0.76378
  -9   1  -3 6528.63 616.217   4-0.12428-0.63410-0.01734 0.08971-0.99296 0.76326
  -9  -1  -3 6470.21 444.113   5-0.25771-0.50028-0.93823 0.86588-0.23264 0.00351
  -9  -1  -4 123.578 92.7585   5-0.26114-0.49735-0.93728 0.86492-0.23266-0.07116
  -9  -1  -4-196.088 130.095   4-0.04366-0.71532-0.05703-0.01536-0.99765 0.69339
  -9   1  -4 56.8574 123.890   4-0.05415-0.70478-0.05190 0.12434-0.99750 0.69310
  -9  -1  -5 9223.78 721.778   4 0.02311-0.78263-0.08941 0.01710-0.99544 0.61648
  -9   1  -5 9558.36 754.594   4 0.00722-0.76669-0.08174 0.15426-0.99647 0.61736
  -9  -1  -5 9347.43 545.397   5-0.27213-0.48685-0.93416 0.86179-0.23269-0.14582
  -9  -1  -6 255.984 98.9023   5-0.29076-0.46872-0.92856 0.85618-0.23268-0.22053
  -9  -1  -6 193.994 136.064   4 0.07922-0.83929-0.11629 0.04405-0.98932 0.53567
  -9   1  -6-11.9745 94.3432   4 0.05938-0.81940-0.10682 0.17941-0.99193 0.53813
  -9  -1  -7 5782.73 580.981   4 0.12503-0.88564-0.13800 0.06583-0.98142 0.45307
   9  -2  -6 56.3929 69.4370   2 0.17494 0.57895 0.59912-0.74376-0.77982 0.33642
  -9  -2   6-78.9441 121.017   3 0.07068-0.82436-0.00914-0.13535 0.99792-0.55516
  -9   2   6 399.982 150.729   4-0.77631 0.02287 0.33645-0.19234-0.53888 0.98139
   9  -2  -5 63.2372 64.7210   2 0.19793 0.55646 0.56901-0.71361-0.79653 0.42786
  -9  -2   5 90.0711 100.593   3 0.02179-0.77598-0.05836-0.08611 0.99820-0.63009
  -9   2   5 169.248 136.292   4-0.72812-0.02586 0.30666-0.16248-0.61851 0.98632
   9  -2  -4-81.0776 71.5659   2 0.22789 0.52701 0.52760-0.67215-0.81656 0.52263
  -9  -2   4 212.821 88.8361   5-0.36816-0.38634-0.90107 0.75640-0.23165 0.52538
  -9   2   4 69.1146 92.3290   4-0.67096-0.08357 0.27279-0.12853-0.69456 0.98767
  -9  -2   3 215.708 90.9485   5-0.31658-0.43842-0.92016 0.77549-0.23251 0.45154
  -9   2   3 262.522 146.772   4-0.60524-0.14983 0.23517-0.09084-0.76509 0.98350
  -9  -2   3 188.741 85.5662   4-0.67961-0.07557 0.27784-0.42316-0.68405 0.90276
   9  -2  -3 181.142 81.1456   2 0.26577 0.48963 0.47143-0.61593-0.83889 0.61969
  -9  -2   2 90.2801 75.4783   5-0.27309-0.48241-0.93388 0.78919-0.23269 0.37703
  -9   2   2 85.0770 98.0980   4-0.53206-0.22356 0.19451-0.05011-0.82808 0.97179
  -9  -2   2 68.2359 78.9516   4-0.60226-0.15346 0.23349-0.37875-0.76794 0.91195
  -9  -2   1 15.0033 75.0099   5-0.23769-0.51831-0.94351 0.79881-0.23248 0.30213
  -9   2   1 135.664 117.683   4-0.45329-0.30288 0.15186-0.00738-0.88175 0.95077
  -9  -2   1 47.5814 72.4835   4-0.51385-0.24242 0.18456-0.32974-0.84168 0.91098
  -9  -2   0 174.466 87.2000   5-0.21030-0.54619-0.95004 0.80533-0.23211 0.22706
  -9   2   0 73.0527 86.5291   4-0.37142-0.38530 0.10854 0.03602-0.92489 0.91920
  -9  -2   0 116.933 86.2792   4-0.41773-0.33908 0.13293-0.27804-0.90194 0.89654
  -9  -2  -1 29.2982 64.0561   5-0.19081-0.56618-0.95420 0.80949-0.23174 0.15199
  -9   2  -1 214.729 141.579   4-0.28934-0.46792 0.06597 0.07866-0.95710 0.87672
  -9  -2  -1 420.363 150.156   4-0.31856-0.43880 0.08103-0.22606-0.94681 0.86672
  -9  -2  -2 45.6197 55.5982   5-0.17910-0.57839-0.95652 0.81179-0.23147 0.07703
  -9   2  -2 187.586 119.204   4-0.20992-0.54789 0.02552 0.11918-0.97892 0.82384
  -9  -2  -2 168.080 115.011   4-0.22136-0.53655 0.03130-0.17626-0.97631 0.82152
  -9  -2  -3 19.2012 47.9574   5-0.17506-0.58292-0.95728 0.81255-0.23137 0.00224
  -9  -2  -3 26.1166 87.8359   4-0.13051-0.62795-0.01425-0.13063-0.99226 0.76277
  -9   2  -3 22.5947 129.134   4-0.13564-0.62271-0.01170 0.15648-0.99164 0.76187
  -9  -2  -4 700.228 154.651   5-0.17862-0.57986-0.95661 0.81187-0.23146-0.07237
  -9  -2  -4 674.604 207.160   4-0.04913-0.70988-0.05436-0.09045-0.99759 0.69341
  -9   2  -4 368.870 186.129   4-0.06835-0.69055-0.04495 0.18980-0.99708 0.69260
  -9  -2  -5 185.617 94.8099   5-0.18975-0.56923-0.95442 0.80967-0.23172-0.14681
  -9  -2  -5-73.4429 112.290   4 0.02117-0.78072-0.08847-0.05625-0.99558 0.61670
  -9   2  -5-11.6330 110.514   4-0.00914-0.75031-0.07383 0.21876-0.99720 0.61802
  -9  -2  -6 317.384 111.977   5-0.20847-0.55100-0.95044 0.80568-0.23208-0.22114
  -9  -2  -6 114.536 121.893   4 0.07997-0.84007-0.11665-0.02801-0.98922 0.53563
  -9   2  -6 197.165 145.434   4 0.04153-0.80152-0.09827 0.24327-0.99386 0.53999
   9   2   7 311.205 118.064   3 0.65747 0.10285 0.68554-0.54126-0.30765 0.83537
  -9  -2  -7 164.608 127.364   4 0.12773-0.88837-0.13927-0.00531-0.98087 0.45259
  -9  -3   7 8444.55 702.050   3 0.09643-0.84957 0.01694-0.23381 0.99583-0.47840
   9  -3  -6 138.042 91.0924   2 0.21636 0.53748 0.54385-0.76092-0.80908 0.36564
  -9  -3   6 105.021 125.773   3 0.05821-0.81185-0.02173-0.19512 0.99845-0.55567
  -9  -3   5 5989.81 575.559   3 0.01252-0.76667-0.06765-0.14919 0.99771-0.62958
  -9   3   5 6248.01 561.106   4-0.72175-0.03221 0.30282-0.08622-0.62784 0.99558
   9  -3  -5 6862.82 508.316   2 0.23945 0.51489 0.51093-0.72795-0.82374 0.45503
  -9  -3   5 6558.15 433.763   5-0.35330-0.40070-0.90689 0.68985-0.23198 0.60039
  -9  -3   4 697.911 147.325   5-0.29187-0.46263-0.92822 0.71117-0.23267 0.52639
  -9   3   4 605.141 178.888   4-0.66556-0.08895 0.26965-0.05297-0.70096 0.99400
   9  -3  -4 1023.76 192.444   2 0.26876 0.48609 0.46681-0.68379-0.84050 0.54652
  -9   3   3 7647.89 615.532   4-0.60162-0.15343 0.23313-0.01639-0.76855 0.98689
   9  -3  -3 8878.69 530.770   2 0.30461 0.45073 0.40899-0.62592-0.85796 0.63871
  -9  -3   3 8490.41 504.724   5-0.23925-0.51574-0.94311 0.72605-0.23250 0.45152
  -9  -3   2 420.505 121.871   5-0.19531-0.56018-0.95327 0.73621-0.23183 0.37616
  -9   3   2 586.878 192.629   4-0.53105-0.22455 0.19396 0.02286-0.82886 0.97250
  -9   3   1 8090.28 634.517   4-0.45556-0.30058 0.15308 0.06382-0.88038 0.94932
  -9  -3   1 9073.82 538.614   5-0.15984-0.59615-0.96002 0.74294-0.23096 0.30059
  -9  -3   0 190.261 87.5845   5-0.13261-0.62388-0.96432 0.74723-0.23009 0.22503
  -9   3   0 121.286 129.176   4-0.37743-0.37926 0.11168 0.10529-0.92211 0.91636
  -9   3  -1 7106.11 629.032   4-0.29920-0.45803 0.07104 0.14600-0.95377 0.87331
  -9  -3  -1 7990.81 502.962   5-0.11341-0.64358-0.96691 0.74981-0.22938 0.14962
  -9  -3  -2 732.394 157.195   5-0.10202-0.65546-0.96827 0.75116-0.22891 0.07446
  -9   3  -2 678.742 229.352   4-0.22344-0.53434 0.03236 0.18476-0.97582 0.82067
  -9   3  -3 9707.80 771.248   4-0.15236-0.60597-0.00338 0.22057-0.98940 0.75955
  -9  -3  -3 9073.32 552.087   5-0.09828-0.65970-0.96868 0.75157-0.22875-0.00039
  -9  -3  -4 163.410 87.8627   5-0.10207-0.65641-0.96826 0.75114-0.22892-0.07492
  -9   3  -4 147.175 140.631   4-0.08763-0.67124-0.03546 0.25273-0.99610 0.69155
  -9   3  -5 7405.91 684.372   4-0.03035-0.72907-0.06352 0.28086-0.99765 0.61840
  -9  -3  -5 7134.61 493.946   5-0.11331-0.64566-0.96692 0.74979-0.22937-0.14916
  -9  -3  -6-121.811 78.6330   5-0.13203-0.62744-0.96440 0.74726-0.23007-0.22315
  -9  -4   6 323.081 171.431   3 0.04234-0.79595-0.03772-0.25149 0.99867-0.55587
  -9  -4   5 242.160 128.661   3-0.00065-0.75347-0.08082-0.20837 0.99672-0.62858
  -9   4   5-137.067 117.662   4-0.71928-0.03465 0.30134-0.01233-0.63139 0.99906
   9  -4  -5 124.752 80.3671   2 0.27881 0.47549 0.45105-0.74051-0.84574 0.47698
  -9  -4   4-83.9622 73.0041   5-0.21959-0.53491-0.94791 0.65848-0.23226 0.52597
  -9   4   4 11.4420 111.926   4-0.66460-0.08987 0.26909 0.01999-0.70208 0.99505
   9  -4  -4 43.5623 74.5610   2 0.30683 0.44796 0.40526-0.69467-0.85892 0.56490
  -9  -4   3 26.5553 57.8777   5-0.16685-0.58814-0.95878 0.66935-0.23116 0.45017
  -9   4   3-81.5138 102.652   4-0.60289-0.15213 0.23385 0.05531-0.76734 0.98561
  -9  -4   2 296.041 104.056   5-0.12319-0.63229-0.96563 0.67619-0.22975 0.37407
  -9   4   2 350.262 152.164   4-0.53520-0.22037 0.19623 0.09300-0.82566 0.96923
  -9  -4   1 63.4972 66.5803   5-0.08823-0.66775-0.96974 0.68028-0.22831 0.29794
  -9   4   1 133.129 122.622   4-0.46312-0.29299 0.15713 0.13218-0.87575 0.94462
  -9  -4   0 358.683 121.885   5-0.06162-0.69486-0.97205 0.68259-0.22703 0.22196
  -9   4   0 438.300 164.930   4-0.38870-0.36796 0.11761 0.17178-0.91675 0.91092
  -9  -4  -1 90.4062 78.1606   5-0.04303-0.71395-0.97326 0.68378-0.22604 0.14628
  -9   4  -1-127.661 111.988   4-0.31420-0.44300 0.07878 0.21068-0.94842 0.86790
  -9  -4  -2-16.6320 64.7231   5-0.03218-0.72529-0.97380 0.68432-0.22543 0.07097
  -9   4  -2 63.6068 116.642   4-0.24191-0.51584 0.04173 0.24780-0.97118 0.81596
  -9  -4  -3 135.496 92.7724   5-0.02887-0.72911-0.97395 0.68445-0.22523-0.00392
  -9   4  -3 178.851 146.679   4-0.17382-0.58448 0.00736 0.28225-0.98600 0.75608
  -9  -4  -4 722.535 169.064   5-0.03292-0.72555-0.97377 0.68427-0.22547-0.07838
  -9   4  -4 885.573 257.891   4-0.11150-0.64734-0.02368 0.31336-0.99425 0.68963
  -9  -4  -5 151.233 86.4259   5-0.04425-0.71472-0.97319 0.68368-0.22611-0.15243
   9  -5  -5 6370.32 527.846   2 0.31569 0.43855 0.39019-0.75208-0.86262 0.49381
  -9  -5   4 264.523 98.9068   5-0.15312-0.60137-0.96115 0.59934-0.23076 0.52446
  -9   5   4 580.429 200.948   4-0.66769-0.08676 0.27088 0.09062-0.69845 0.99134
  -9   5   3 6315.58 572.940   4-0.60852-0.14648 0.23702 0.12455-0.76192 0.98011
  -9  -5   3 6029.57 444.844   5-0.10101-0.65398-0.96838 0.60656-0.22887 0.44788
  -9  -5   2 1470.42 226.583   5-0.05820-0.69728-0.97230 0.61048-0.22685 0.37116
  -9   5   2 1576.66 295.449   4-0.54392-0.21163 0.20103 0.16062-0.81882 0.96231
  -9   5   1 5890.98 543.669   4-0.47533-0.28075 0.16370 0.19803-0.86803 0.93683
  -9  -5   1 6729.05 486.082   5-0.02418-0.73180-0.97413 0.61230-0.22496 0.29457
  -9  -5   0 917.425 191.067   5 0.00152-0.75800-0.97476 0.61292-0.22335 0.21827
  -9   5   0 1190.21 265.430   4-0.40459-0.35204 0.12598 0.23582-0.90882 0.90292
  -9   5  -1 6006.39 578.384   4-0.33373-0.42345 0.08889 0.27299-0.94096 0.86036
  -9  -5  -1 6566.61 485.318   5 0.01930-0.77627-0.97482 0.61297-0.22215 0.14238
  -9  -5  -2 704.443 166.947   5 0.02948-0.78695-0.97471 0.61285-0.22144 0.06697
  -9   5  -2 736.256 248.395   4-0.26477-0.49295 0.05338 0.30857-0.96479 0.80949
  -9   5  -3 6541.06 639.061   4-0.19955-0.55872 0.02029 0.34173-0.98113 0.75113
  -9  -5  -3 7094.73 515.305   5 0.03232-0.79028-0.97467 0.61279-0.22123-0.00793
  -9  -5  -4 298.689 122.940   5 0.02800-0.78647-0.97473 0.61285-0.22154-0.08231
  -9  -6   4 222.565 91.8412   5-0.09377-0.66072-0.96917 0.53498-0.22856 0.52225
  -9  -6   3 132.917 80.7394   5-0.04278-0.71220-0.97327 0.53907-0.22603 0.44502
  -9  -6   2 198.416 98.1297   5-0.00121-0.75427-0.97472 0.54052-0.22353 0.36783
  -9   6   2 147.958 120.186   4-0.55667-0.19885 0.20806 0.22600-0.80847 0.95189
  -9  -6   1 78.6961 68.9300   5 0.03162-0.78760-0.97468 0.54046-0.22128 0.29089
  -9   6   1 258.258 152.245   4-0.49163-0.26443 0.17250 0.26164-0.85726 0.92598
  -9  -6   0 67.5081 74.2662   5 0.05624-0.81271-0.97395 0.53972-0.21944 0.21435
  -9   6   0 272.460 136.225   4-0.42456-0.33205 0.13655 0.29766-0.89824 0.89227
  -9  -6  -1 337.102 130.905   5 0.07310-0.83007-0.97311 0.53887-0.21810 0.13832
  -9   6  -1 87.6155 105.779   4-0.35725-0.39990 0.10113 0.33316-0.93119 0.85052
  -9  -6  -2 96.7406 74.0411   5 0.08257-0.84004-0.97251 0.53827-0.21732 0.06284
  -9   6  -2 231.264 152.170   4-0.29155-0.46615 0.06711 0.36726-0.95637 0.80100
  -9  -7   3 3348.93 354.311   5 0.00727-0.76224-0.97481 0.46824-0.22297 0.44196
 -10   0   5-112.443 91.3771   4-0.75593-0.08219 0.32368-0.32436-0.57473 0.94207
 -10   0   4 6944.93 542.966   4-0.70348-0.13518 0.29190-0.29250-0.65331 0.94595
 -10   0   3-48.1051 89.3899   4-0.64242-0.19679 0.25630-0.25683-0.72708 0.94502
 -10   0   2 6787.16 540.775   4-0.57368-0.26608 0.21750-0.21795-0.79401 0.93726
 -10   0   1-166.792 111.994   4-0.49891-0.34139 0.17644-0.17682-0.85227 0.92082
 -10   0   0 7907.49 611.756   4-0.42043-0.42043 0.13436-0.13466-0.90049 0.89434
 -10   0  -1 32.8741 98.2234   4-0.34096-0.50044 0.09264-0.09287-0.93805 0.85720
 -10   0  -2 8204.91 681.836   4-0.26330-0.57865 0.05263-0.05278-0.96523 0.80968
 -10   0  -3 23.9021 112.978   4-0.18993-0.65256 0.01545-0.01553-0.98305 0.75281
 -10   0  -4 5262.55 594.008   4-0.12280-0.72024-0.01808 0.01808-0.99312 0.68817
 -10   0  -5 71.1003 131.450   4-0.06314-0.78044-0.04750 0.04757-0.99726 0.61762
 -10   1   5 241.849 131.597   4-0.74193-0.09616 0.31507-0.24333-0.59742 0.96469
 -10   1   4 252.262 125.345   4-0.68892-0.14971 0.28330-0.21149-0.67238 0.96495
 -10  -1   4 247.936 117.958   4-0.72307-0.11562 0.30361-0.37663-0.62593 0.91864
 -10   1   3 76.6376 94.7417   4-0.62816-0.21103 0.24815-0.17626-0.74221 0.96008
 -10  -1   3 85.2741 81.1822   4-0.66262-0.17662 0.26794-0.34088-0.70440 0.92241
 -10   1   2 461.708 159.788   4-0.56063-0.27910 0.21025-0.13829-0.80517 0.94834
 -10  -1   2 211.972 109.650   4-0.59337-0.24641 0.22850-0.30136-0.77630 0.91962
 -10  -1   1 252.804 104.566   5-0.36924-0.47082-0.90063 0.82832-0.23163 0.30072
 -10   1   1 47.8678 87.5298   4-0.48797-0.35231 0.17052-0.09848-0.85972 0.92820
 -10  -1   1-275.764 129.000   4-0.51696-0.32337 0.18625-0.25905-0.83941 0.90803
 -10  -1   0 273.173 111.097   5-0.34503-0.49553-0.91002 0.83770-0.23213 0.22653
 -10   1   0 20.5962 90.6613   4-0.41232-0.42851 0.13006-0.05795-0.90481 0.89859
 -10  -1   0-187.398 116.511   4-0.43585-0.40503 0.14255-0.21527-0.89194 0.88586
 -10  -1  -1 787.591 165.219   5-0.32765-0.51340-0.91633 0.84400-0.23239 0.15209
 -10   1  -1 520.174 204.707   4-0.33612-0.50525 0.09013-0.01794-0.94001 0.85909
 -10  -1  -1 483.938 174.609   4-0.35307-0.48836 0.09895-0.17159-0.93300 0.85222
 -10  -1  -2 223.404 104.028   5-0.31712-0.52443-0.91998 0.84764-0.23251 0.07752
 -10   1  -2 42.6876 105.517   4-0.26186-0.58006 0.05189 0.02037-0.96565 0.81003
 -10  -1  -2 160.317 133.004   4-0.27178-0.57019 0.05697-0.12954-0.96268 0.80721
 -10  -1  -3 533.430 141.749   5-0.31343-0.52861-0.92123 0.84888-0.23254 0.00286
 -10   1  -3-169.963 143.188   4-0.19173-0.65073 0.01635 0.05598-0.98270 0.75238
 -10  -1  -3 48.1102 99.8570   4-0.19486-0.64766 0.01793-0.09042-0.98208 0.75191
 -10  -1  -4 211.923 103.486   5-0.31660-0.52594-0.92015 0.84780-0.23251-0.07187
 -10  -1  -4-180.559 158.089   4-0.12450-0.71857-0.01724-0.05518-0.99294 0.68806
 -10   1  -4 6.55274 125.758   4-0.12746-0.71556-0.01577 0.08818-0.99261 0.68759
 -10  -1  -5 537.294 215.002   4-0.06210-0.78151-0.04801-0.02434-0.99729 0.61772
 -10   2   4 7690.63 639.176   4-0.67916-0.15945 0.27757-0.13335-0.68461 0.97711
 -10  -2   3 448.523 126.206   5-0.36765-0.47141-0.90127 0.75660-0.23167 0.45014
 -10   2   3 591.948 185.161   4-0.61935-0.21981 0.24315-0.09885-0.75120 0.96899
 -10   2   2 8284.30 648.000   4-0.55356-0.28615 0.20634-0.06197-0.81103 0.95413
 -10  -2   2 8712.43 541.915   5-0.32856-0.51100-0.91601 0.77133-0.23238 0.37615
 -10  -2   1-57.0403 74.3419   5-0.29663-0.54342-0.92672 0.78203-0.23265 0.30174
 -10   2   1-155.457 118.681   4-0.48332-0.35693 0.16800-0.02355-0.86282 0.93122
 -10   2   0 6638.69 599.954   4-0.41060-0.43020 0.12916 0.01537-0.90571 0.89941
 -10  -2   0 7918.03 522.125   5-0.27184-0.56871-0.93424 0.78955-0.23269 0.22708
 -10  -2  -1 568.876 147.710   5-0.25413-0.58691-0.93920 0.79450-0.23262 0.15231
 -10   2  -1 625.946 210.980   4-0.33761-0.50373 0.09091 0.05370-0.93941 0.85841
 -10   2  -2 7691.35 694.180   4-0.26656-0.57533 0.05430 0.09038-0.96426 0.80857
 -10  -2  -2 8154.70 535.194   5-0.24344-0.59810-0.94204 0.79732-0.23254 0.07754
 -10  -2  -3 67.5604 70.0757   5-0.23972-0.60232-0.94299 0.79827-0.23250 0.00281
 -10   2  -3 107.183 120.945   4-0.19941-0.64302 0.02022 0.12453-0.98116 0.75076
 -10  -3   4 224.874 100.462   5-0.34702-0.49154-0.90927 0.69223-0.23209 0.52525
 -10  -3   3 282.423 111.407   5-0.29954-0.53951-0.92579 0.70874-0.23264 0.45110
 -10   3   3 172.102 126.287   4-0.61553-0.22360 0.24099-0.02427-0.75502 0.97274
 -10  -3   2 261.291 103.136   5-0.25971-0.57984-0.93768 0.72062-0.23265 0.37642
 -10   3   2 149.885 124.761   4-0.55183-0.28784 0.20539 0.01140-0.81244 0.95546
 -10  -3   1 280.868 118.933   5-0.22739-0.61266-0.94606 0.72899-0.23237 0.30144
 -10   3   1 326.868 162.989   4-0.48423-0.35600 0.16849 0.04837-0.86222 0.93055
 -10  -3   0-44.3827 63.4942   5-0.20244-0.63810-0.95176 0.73468-0.23197 0.22635
 -10   3   0 258.550 100.849   4-0.41451-0.42626 0.13122 0.08572-0.90365 0.89728
 -10  -3  -1 70.2907 73.7588   5-0.18474-0.65630-0.95542 0.73833-0.23160 0.15129
 -10   3  -1 111.251 149.911   4-0.34466-0.49666 0.09457 0.12244-0.93653 0.85546
 -10  -3  -2 291.244 134.477   5-0.17413-0.66741-0.95745 0.74036-0.23135 0.07634
 -10   3  -2 76.6237 129.716   4-0.27667-0.56519 0.05947 0.15762-0.96117 0.80541
 -10  -4   4 6858.80 486.557   5-0.28331-0.55524-0.93085 0.64143-0.23269 0.52584
 -10  -4   3 667.591 167.923   5-0.23527-0.60378-0.94412 0.65469-0.23246 0.45091
 -10  -4   2 7412.25 518.641   5-0.19525-0.64430-0.95329 0.66385-0.23183 0.37559
 -10  -4   1 65.8278 70.4055   5-0.16299-0.67705-0.95947 0.67002-0.23105 0.30012
 -10   4   1 371.863 164.127   4-0.49008-0.35012 0.17165 0.11763-0.85831 0.92657
 -10   4   0 4307.28 500.486   4-0.42339-0.41736 0.13593 0.15342-0.89888 0.89244
 -10  -4   0 4519.94 416.532   5-0.13826-0.70228-0.96349 0.67403-0.23029 0.22466
 -11   0   2 350.744 130.059   4-0.59811-0.32573 0.23116-0.23164-0.77187 0.91450
 -11   0   1-80.6415 84.7851   4-0.53183-0.39256 0.19439-0.19479-0.82826 0.89619
 -11   0   0 127.774 114.176   4-0.46247-0.46247 0.15678-0.15712-0.87615 0.86938
 -11   0  -1 88.2461 121.824   4-0.39213-0.53335 0.11941-0.11967-0.91507 0.83361
 -11   0  -2-99.8785 128.369   4-0.32296-0.60306 0.08331-0.08349-0.94515 0.78898
 -11   1   1 6946.15 615.354   4-0.52058-0.40378 0.18823-0.11622-0.83674 0.90460
 -11   1   0-344.312 163.280   4-0.45338-0.47153 0.15191-0.07983-0.88169 0.87485
;
_shelx_hkl_checksum              78655
loop_
_space_group_symop_operation_xyz
'x, y, z'
'-x, y+1/2, -z+1/2'
'-x, -y, -z'
'x, -y-1/2, z-1/2'
loop_
_atom_site_label
_atom_site_type_symbol
_atom_site_fract_x
_atom_site_fract_y
_atom_site_fract_z
_atom_site_U_iso_or_equiv
_atom_site_adp_type
_atom_site_occupancy
_atom_site_site_symmetry_order
_atom_site_calc_flag
_atom_site_refinement_flags_posn
_atom_site_refinement_flags_adp
C1 C 0.4333(7) 0.5195(6) -0.0541(6) 0.0181(13) Uani 1 1 d . .
C2 C 0.0238(6) 0.5716(6) 0.5237(6) 0.0171(13) Uani 1 1 d . .
C3 C 0.5257(6) 0.5738(6) 0.4837(5) 0.0161(12) Uani 1 1 d . .
O1 O 0.2934(5) 0.5211(4) -0.0081(4) 0.0236(10) Uani 1 1 d . .
O2 O 0.4766(4) 0.5458(4) -0.1765(4) 0.0219(9) Uani 1 1 d . .
O3 O 0.1256(5) 0.6316(4) 0.4502(4) 0.0229(10) Uani 1 1 d . .
O4 O -0.0420(4) 0.6212(4) 0.6288(4) 0.0192(9) Uani 1 1 d . .
O5 O 0.4480(5) 0.6363(4) 0.3920(4) 0.0232(9) Uani 1 1 d . .
O6 O 0.6393(4) 0.6214(4) 0.5539(4) 0.0198(9) Uani 1 1 d . .
O7 O 0.2910(6) 0.7448(4) 0.1795(5) 0.0274(11) Uani 1 1 d D .
H7A H 0.345(7) 0.801(6) 0.228(6) 0.041 Uiso 1 1 d D U
H7B H 0.261(7) 0.778(6) 0.108(5) 0.041 Uiso 1 1 d D U
O8 O -0.0130(5) 0.5873(4) 0.1529(5) 0.0291(11) Uani 1 1 d D .
H8A H -0.079(7) 0.536(6) 0.120(7) 0.044 Uiso 1 1 d D U
H8B H -0.019(8) 0.669(4) 0.135(7) 0.044 Uiso 1 1 d D U
O9 O 0.2046(6) 0.2865(5) 0.1464(5) 0.0379(13) Uani 1 1 d D .
H9B H 0.250(8) 0.240(7) 0.083(6) 0.057 Uiso 1 1 d D U
H9A H 0.162(8) 0.227(6) 0.206(7) 0.057 Uiso 1 1 d D U
Sm1 Sm 0.25243(3) 0.51101(3) 0.25099(3) 0.01288(11) Uani 1 1 d . .
loop_
_atom_site_aniso_label
_atom_site_aniso_U_11
_atom_site_aniso_U_22
_atom_site_aniso_U_33
_atom_site_aniso_U_23
_atom_site_aniso_U_13
_atom_site_aniso_U_12
C1 0.016(3) 0.022(3) 0.017(3) -0.001(2) -0.001(3) 0.002(3)
C2 0.015(3) 0.023(3) 0.014(3) 0.000(2) -0.002(2) -0.002(3)
C3 0.015(3) 0.020(3) 0.014(3) -0.002(2) 0.002(2) 0.003(3)
O1 0.016(2) 0.037(3) 0.018(2) -0.0014(18) 0.0023(17) 0.0002(19)
O2 0.017(2) 0.035(2) 0.014(2) 0.0043(18) 0.0029(17) 0.0049(19)
O3 0.026(2) 0.023(2) 0.020(2) -0.0067(17) 0.0102(18) -0.0112(19)
O4 0.017(2) 0.023(2) 0.018(2) -0.0050(17) 0.0051(17) -0.0037(18)
O5 0.028(2) 0.023(2) 0.019(2) 0.0049(17) -0.0099(18) -0.002(2)
O6 0.017(2) 0.022(2) 0.020(2) 0.0034(17) -0.0051(17) -0.0087(18)
O7 0.035(3) 0.022(3) 0.025(3) 0.0129(19) -0.015(2) -0.005(2)
O8 0.022(2) 0.025(3) 0.041(3) 0.007(2) -0.009(2) -0.003(2)
O9 0.049(3) 0.026(3) 0.039(3) -0.014(2) 0.028(2) -0.007(2)
Sm1 0.01180(17) 0.01742(18) 0.00945(17) 0.00033(13) 0.00144(11) -0.00002(14)
loop_
_atom_type_symbol
_atom_type_description
_atom_type_scat_dispersion_real
_atom_type_scat_dispersion_imag
_atom_type_scat_source
C C 0.0033 0.0016 'International Tables Vol C Tables 4.2.6.8 and 6.1.1.4'
H H 0.0000 0.0000 'International Tables Vol C Tables 4.2.6.8 and 6.1.1.4'
O O 0.0106 0.0060 'International Tables Vol C Tables 4.2.6.8 and 6.1.1.4'
Sm Sm -0.1638 3.4418 'International Tables Vol C Tables 4.2.6.8 and 6.1.1.4'
loop_
_geom_angle_atom_site_label_1
_geom_angle_atom_site_label_2
_geom_angle_atom_site_label_3
_geom_angle
_geom_angle_site_symmetry_1
_geom_angle_site_symmetry_3
O2 C1 O1 126.9(5) . .
O2 C1 C1 116.7(6) . 3_665
O1 C1 C1 116.4(6) . 3_665
O4 C2 O3 125.0(5) . .
O4 C2 C2 118.6(6) . 3_566
O3 C2 C2 116.4(6) . 3_566
O5 C3 O6 125.8(5) . .
O5 C3 C3 117.0(6) . 3_666
O6 C3 C3 117.2(6) . 3_666
C1 O1 Sm1 118.6(4) . .
C1 O2 Sm1 119.9(3) . 3_665
C2 O3 Sm1 120.1(4) . .
C2 O4 Sm1 119.3(3) . 3_566
C3 O5 Sm1 119.0(4) . .
C3 O6 Sm1 119.2(3) . 3_666
O7 Sm1 O6 132.03(13) . 3_666
O7 Sm1 O9 139.65(16) . .
O6 Sm1 O9 83.68(15) 3_666 .
O7 Sm1 O5 65.54(13) . .
O6 Sm1 O5 66.60(13) 3_666 .
O9 Sm1 O5 141.43(16) . .
O7 Sm1 O2 90.37(15) . 3_665
O6 Sm1 O2 75.75(12) 3_666 3_665
O9 Sm1 O2 80.27(15) . 3_665
O5 Sm1 O2 69.31(13) . 3_665
O7 Sm1 O3 79.75(15) . .
O6 Sm1 O3 80.49(13) 3_666 .
O9 Sm1 O3 131.86(13) . .
O5 Sm1 O3 68.68(13) . .
O2 Sm1 O3 137.18(13) 3_665 .
O7 Sm1 O4 136.34(15) . 3_566
O6 Sm1 O4 68.75(12) 3_666 3_566
O9 Sm1 O4 66.48(13) . 3_566
O5 Sm1 O4 119.44(12) . 3_566
O2 Sm1 O4 133.06(13) 3_665 3_566
O3 Sm1 O4 65.40(12) . 3_566
O7 Sm1 O1 70.38(15) . .
O6 Sm1 O1 136.02(13) 3_666 .
O9 Sm1 O1 69.99(14) . .
O5 Sm1 O1 115.05(13) . .
O2 Sm1 O1 65.76(12) 3_665 .
O3 Sm1 O1 143.03(13) . .
O4 Sm1 O1 125.45(12) 3_566 .
O7 Sm1 O8 74.75(14) . .
O6 Sm1 O8 139.77(14) 3_666 .
O9 Sm1 O8 88.46(16) . .
O5 Sm1 O8 130.10(14) . .
O2 Sm1 O8 141.43(14) 3_665 .
O3 Sm1 O8 75.80(15) . .
O4 Sm1 O8 71.93(14) 3_566 .
O1 Sm1 O8 75.71(14) . .
loop_
_geom_bond_atom_site_label_1
_geom_bond_atom_site_label_2
_geom_bond_distance
_geom_bond_site_symmetry_2
C1 O2 1.248(6) .
C1 O1 1.262(6) .
C1 C1 1.566(11) 3_665
C2 O4 1.244(6) .
C2 O3 1.257(6) .
C2 C2 1.526(12) 3_566
C3 O5 1.248(6) .
C3 O6 1.254(6) .
C3 C3 1.541(11) 3_666
O1 Sm1 2.489(4) .
O2 Sm1 2.462(4) 3_665
O3 Sm1 2.479(4) .
O4 Sm1 2.482(4) 3_566
O5 Sm1 2.448(4) .
O6 Sm1 2.435(4) 3_666
O7 Sm1 2.412(4) .
O8 Sm1 2.533(4) .
O9 Sm1 2.446(4) .
loop_
_geom_torsion_atom_site_label_1
_geom_torsion_atom_site_label_2
_geom_torsion_atom_site_label_3
_geom_torsion_atom_site_label_4
_geom_torsion
_geom_torsion_site_symmetry_1
_geom_torsion_site_symmetry_4
O2 C1 O1 Sm1 -167.4(5) . .
C1 C1 O1 Sm1 12.4(8) 3_665 .
O1 C1 O2 Sm1 -167.2(5) . 3_665
C1 C1 O2 Sm1 12.9(8) 3_665 3_665
O4 C2 O3 Sm1 177.1(4) . .
C2 C2 O3 Sm1 -4.5(8) 3_566 .
O3 C2 O4 Sm1 176.1(4) . 3_566
C2 C2 O4 Sm1 -2.2(8) 3_566 3_566
O6 C3 O5 Sm1 172.8(4) . .
C3 C3 O5 Sm1 -9.1(8) 3_666 .
O5 C3 O6 Sm1 171.6(4) . 3_666
C3 C3 O6 Sm1 -6.5(8) 3_666 3_666
