#------------------------------------------------------------------------------
#$Date: 2017-07-22 08:53:15 +0300 (Sat, 22 Jul 2017) $
#$Revision: 198922 $
#$URL: file:///home/coder/svn-repositories/cod/cif/1/54/65/1546588.cif $
#------------------------------------------------------------------------------
#
# This file is available in the Crystallography Open Database (COD),
# http://www.crystallography.net/. The original data for this entry
# were provided by IUCr Journals, http://journals.iucr.org/.
#
# The file may be used within the scientific community so long as
# proper attribution is given to the journal article from which the
# data were obtained.
#
data_1546588
loop_
_publ_author_name
'Sebhaoui, Jihad'
'El Bakri, Youness'
'Essassi, El Mokhtar'
'Mague, Joel T.'
_publ_section_title
;
 (4<i>Z</i>)-4-(2-Oxopropylidene)-2,3,4,5-tetrahydro-1<i>H</i>-1,5-benzodiazepin-2-one
;
_journal_coeditor_code           SJ4127
_journal_issue                   7
_journal_name_full               IUCrData
_journal_page_first              x171057
_journal_paper_doi               10.1107/S2414314617010574
_journal_volume                  2
_journal_year                    2017
_chemical_formula_iupac          'C12 H12 N2 O2'
_chemical_formula_moiety         'C12 H12 N2 O2'
_chemical_formula_sum            'C12 H12 N2 O2'
_chemical_formula_weight         216.24
_chemical_name_systematic
(4<i>Z</i>)-4-(2-Oxopropylidene)-2,3,4,5-tetrahydro-1<i>H</i>-1,5-benzodiazepin-2-one
_space_group_crystal_system      triclinic
_space_group_IT_number           2
_space_group_name_Hall           '-P 1'
_space_group_name_H-M_alt        'P -1'
_symmetry_space_group_name_Hall  '-P 1'
_symmetry_space_group_name_H-M   'P -1'
_atom_sites_solution_hydrogens   difmap
_atom_sites_solution_primary     direct
_atom_sites_solution_secondary   difmap
_audit_creation_method           SHELXL-2014/7
_cell_angle_alpha                101.043(3)
_cell_angle_beta                 98.854(3)
_cell_angle_gamma                99.868(3)
_cell_formula_units_Z            2
_cell_length_a                   4.5801(9)
_cell_length_b                   10.870(2)
_cell_length_c                   10.971(2)
_cell_measurement_reflns_used    8186
_cell_measurement_temperature    100(2)
_cell_measurement_theta_max      28.5712
_cell_measurement_theta_min      2.4166
_cell_volume                     518.21(17)
_computing_cell_refinement
;
<i>SAINT</i> (Bruker, 2016)
;
_computing_data_collection
;
<i>APEX3</i> (Bruker, 2016)
;
_computing_data_reduction
;
<i>SAINT</i> (Bruker, 2016), <i>CELL_NOW</i> (Sheldrick,
2008a)
;
_computing_molecular_graphics
;
<i>DIAMOND</i> (Brandenburg & Putz, 2012)
;
_computing_publication_material
;
<i>SHELXTL</i> (Sheldrick, 2008b)
;
_computing_structure_refinement
;
<i>SHELXL2014</i> (Sheldrick, 2015<i>b</i>)
;
_computing_structure_solution
;
<i>SHELXT</i> (Sheldrick, 2015<i>a</i>)
;
_diffrn_ambient_temperature      100(2)
_diffrn_detector_area_resol_mean 8.3333
_diffrn_measured_fraction_theta_full 0.996
_diffrn_measured_fraction_theta_max 0.994
_diffrn_measurement_device_type  'Bruker SMART APEX CCD'
_diffrn_measurement_method       '\f and \w scans'
_diffrn_radiation_monochromator  graphite
_diffrn_radiation_type           MoK\a
_diffrn_radiation_wavelength     0.71073
_diffrn_reflns_av_R_equivalents  0.0408
_diffrn_reflns_limit_h_max       6
_diffrn_reflns_limit_h_min       -6
_diffrn_reflns_limit_k_max       14
_diffrn_reflns_limit_k_min       -14
_diffrn_reflns_limit_l_max       14
_diffrn_reflns_limit_l_min       -14
_diffrn_reflns_number            26238
_diffrn_reflns_theta_full        28.700
_diffrn_reflns_theta_max         28.720
_diffrn_reflns_theta_min         1.928
_exptl_absorpt_coefficient_mu    0.096
_exptl_absorpt_correction_T_max  0.99
_exptl_absorpt_correction_T_min  0.96
_exptl_absorpt_correction_type   multi-scan
_exptl_absorpt_process_details
;
(<i>TWINABS</i>; Sheldrick, 2009)
;
_exptl_crystal_colour            colourless
_exptl_crystal_density_diffrn    1.386
_exptl_crystal_density_method    'not measured'
_exptl_crystal_description       'thick plate'
_exptl_crystal_F_000             228
_exptl_crystal_size_max          0.440
_exptl_crystal_size_mid          0.261
_exptl_crystal_size_min          0.110
_refine_diff_density_max         0.338
_refine_diff_density_min         -0.363
_refine_ls_extinction_method     none
_refine_ls_goodness_of_fit_ref   1.028
_refine_ls_hydrogen_treatment    refall
_refine_ls_matrix_type           full
_refine_ls_number_parameters     195
_refine_ls_number_reflns         26238
_refine_ls_number_restraints     0
_refine_ls_restrained_S_all      1.028
_refine_ls_R_factor_all          0.1079
_refine_ls_R_factor_gt           0.0902
_refine_ls_shift/su_max          0.000
_refine_ls_shift/su_mean         0.000
_refine_ls_structure_factor_coef Fsqd
_refine_ls_weighting_details
'w=1/[\s^2^(Fo^2^)+(0.0477P)^2^+1.0312P] where P=(Fo^2^+2Fc^2^)/3'
_refine_ls_weighting_scheme      calc
_refine_ls_wR_factor_gt          0.2708
_refine_ls_wR_factor_ref         0.2811
_reflns_number_gt                19750
_reflns_number_total             26238
_reflns_threshold_expression     'I > 2\s(I)'
_cod_data_source_file            sj4127sup1.cif
_cod_data_source_block           I
_cod_original_cell_volume        518.20(18)
_cod_database_code               1546588
_shelx_space_group_comment
;
The symmetry employed for this shelxl refinement is uniquely defined
by the following loop, which should always be used as a source of
symmetry information in preference to the above space-group names.
They are only intended as comments.
;
_shelx_estimated_absorpt_t_min   0.959
_shelx_estimated_absorpt_t_max   0.989
_shelx_hkl_file
;
  -1   0   0 390.702 39.8963  -3
  -1   0   0 390.702 39.8963   1
  -1   0   0 106.737 11.6122   2
  -1   0   0 459.442 42.9832  -2
  -1   0   0 459.442 42.9832   1
  -1   0   0 196.495 19.6113   3
   1   0   0 119.144 12.1131   2
   1   0   0 116.413 10.6597   2
   1   0   0 113.046 12.5924   2
   1   0   0 197.919 22.3083   3
   1   0   0 242.137 23.2159   3
   1   0   0 199.529 19.6463   3
   1   0   0 192.507 22.0810   1
   1   0   0 193.566 18.6845   1
   1   0   0 213.498 21.2235   1
  -2   0   0 70.1854 6.14499   2
  -2   0   0 64.0982 6.71133   2
  -2   0   0 128.703 10.6010   1
  -2   0   0 111.384 11.5814   1
  -2   0   0 108.739 10.9649   3
  -2   0   0 108.093 10.0398   3
   2   0   0 68.7289 6.16489   2
   2   0   0 61.6340 7.26585   2
   2   0   0 65.3573 7.02095   2
   2   0   0 61.9381 6.16190   2
   2   0   0 104.920 11.4366   3
   2   0   0 107.931 10.0642   3
   2   0   0 105.272 11.8774   3
   2   0   0 107.137 10.6335   1
   2   0   0 114.280 10.6284   1
   2   0   0 107.281 12.0848   1
   2   0   0 106.233 12.5499   1
  -3   0   0 146.370 14.2821   2
  -3   0   0 146.285 15.5991   2
  -3   0   0 241.631 22.7570   1
  -3   0   0 250.606 24.8630   1
  -3   0   0 232.111 23.7663   3
  -3   0   0 228.062 21.7635   3
   3   0   0 235.025 25.9302   1
   3   0   0 243.630 22.8113   1
   3   0   0 244.569 21.8144   3
   3   0   0 223.696 24.7814   3
   3   0   0 161.052 16.3128   2
   3   0   0 158.232 14.3223   2
  -4   0   0 10.0952 1.10351   3
  -4   0   0 7.05023 1.26596   3
  -4   0   0 4.73879 0.99559   2
  -4   0   0 5.27705 0.80385   2
  -4   0   0 10.1917 1.36584   1
  -4   0   0 7.10630 1.05257   1
   4   0   0 8.99336 1.47661   3
   4   0   0 9.46689 1.18693   3
   4   0   0 10.4116 1.18558   1
   4   0   0 13.1317 1.50655   1
   4   0   0 7.72488 0.96675   2
   4   0   0 6.12457 1.18843   2
  -5   0   0 5.84084 0.90252   3
  -5   0   0 3.92015 0.83237   2
  -5   0   0 4.34845 0.78191   1
   5   0   0 3.47847 1.04476   1
   5   0   0 2.17046 1.37933   1
   5   0   0 2.95169 1.42523   2
   5   0   0 4.56583 1.23165   2
   5   0   0 7.37249 1.42643   3
   5   0   0 3.21952 1.22861   3
   6  -1   0 4.20881 2.18196   2
   6  -1   0 0.37228 1.43134   2
   6  -1   0 0.46513 1.60443   3
   6  -1   0 1.50566 1.94903   3
   6  -1   0 1.10178 1.33942   1
   6  -1   0 0.43957 1.70060   1
  -6   1   0 1.67104 0.93698   2
   5  -1   0 -1.9545 1.41440   2
   5  -1   0 -0.4018 1.02289   2
   5  -1   0 -1.1897 0.95532   3
   5  -1   0 -0.6032 1.27484   3
   5  -1   0 0.54687 1.12784   1
   5  -1   0 0.21620 0.83337   1
  -5   1   0 -0.6508 0.55898   2
  -5   1   0 1.29275 0.60235   3
  -5   1   0 0.38931 0.55683   1
   4  -1   0 2.69300 0.69742   2
   4  -1   0 0.44467 1.09405   2
   4  -1   0 2.11921 0.65319   3
   4  -1   0 1.78640 0.94917   3
   4  -1   0 2.12097 0.98418   1
   4  -1   0 3.02342 0.69356   1
  -4   1   0 1.49077 0.76600   2
  -4   1   0 1.75999 0.53604   2
  -4   1   0 2.85808 0.53404   1
  -4   1   0 3.11353 0.89810   1
  -4   1   0 0.72943 0.76987   3
  -4   1   0 2.00587 0.52735   3
   3  -1   0 0.79089 0.70179   1
   3  -1   0 0.76119 0.42513   1
   3  -1   0 0.86144 0.44792   2
   3  -1   0 0.78176 0.64375   2
   3  -1   0 0.91676 0.56772   3
   3  -1   0 0.83532 0.45199   3
  -3   1   0 1.28915 0.31795   1
  -3   1   0 1.40572 0.55641   1
  -3   1   0 0.47132 0.34234   3
  -3   1   0 0.01074 0.49182   3
  -3   1   0 -0.1033 0.29829   2
  -3   1   0 0.59107 0.49537   2
   2  -1   0 3.38237 0.66894   2
   2  -1   0 4.39571 0.57576   2
   2  -1   0 5.12070 0.54068   2
   2  -1   0 7.91989 1.03280   1
   2  -1   0 8.48685 0.89597   1
   2  -1   0 7.19547 1.05375   1
   2  -1   0 7.04232 1.04355   3
   2  -1   0 7.57672 1.03137   3
   2  -1   0 9.31484 0.87896   3
  -2   1   0 4.37038 0.59437   2
  -2   1   0 5.75820 0.54846   2
  -2   1   0 4.15490 0.49097   2
  -2   1   0 10.2500 0.86710   1
  -2   1   0 10.5555 0.91018   1
  -2   1   0 6.83336 0.98774   1
  -2   1   0 11.0392 0.90176   3
  -2   1   0 7.79980 0.86636   3
  -2   1   0 7.87434 0.98065   3
   1  -1   0 269.649 28.5665   2
   1  -1   0 260.749 25.1509   2
   1  -1   0 396.679 42.6632   3
   1  -1   0 399.547 37.5716   3
   1  -1   0 401.474 37.5701   3
   1  -1   0 457.186 47.0115   1
   1  -1   0 426.694 41.3980   1
  -1   1   0 442.616 41.3285   1
  -1   1   0 405.760 37.5057   3
  -1   1   0 834.716 79.7774  -3
  -1   1   0 834.716 79.7774   1
  -1   1   0 871.370 87.0681  -3
  -1   1   0 871.370 87.0681   1
  -1   1   0 261.225 25.1072   2
  -1   1   0 294.763 25.1056   2
  -1   1   0 253.994 27.4100   2
   0  -1   0 51.2955 5.22855  -3
   0  -1   0 51.2955 5.22855   1
   0  -1   0 10.5586 1.08420   2
   0  -1   0 10.4432 0.98837   2
   0   1   0 47.1984 5.64004  -3
   0   1   0 47.1984 5.64004  -2
   0   1   0 47.1984 5.64004   1
   0   1   0 53.8213 4.75816  -3
   0   1   0 53.8213 4.75816  -2
   0   1   0 53.8213 4.75816   1
   0   1   0 50.8930 5.22923  -3
   0   1   0 50.8930 5.22923   1
   0   1   0 10.4197 1.08473   2
  -1  -1   0 1778.42 170.332   3
  -1  -1   0 1789.95 170.048   3
  -1  -1   0 1825.05 185.576   3
  -1  -1   0 3052.53 293.409  -2
  -1  -1   0 3052.53 293.409   1
  -1  -1   0 3211.03 292.923  -2
  -1  -1   0 3211.03 292.923   1
  -1  -1   0 1619.81 179.809   1
  -1  -1   0 1112.12 115.912   2
   1   1   0 1838.75 165.040   1
   1   1   0 1829.32 164.770   1
   1   1   0 1729.63 187.360   1
   1   1   0 1790.15 195.080   1
   1   1   0 1780.49 170.331   3
   1   1   0 1911.83 201.334   3
   1   1   0 1773.12 193.364   3
   1   1   0 1866.94 170.051   3
   1   1   0 1182.17 106.216   2
   1   1   0 1153.52 125.754   2
   1   1   0 1082.29 120.782   2
   1   1   0 1146.56 106.390   2
  -2  -1   0 9.90958 1.20754   2
  -2  -1   0 10.7010 1.09036   2
  -2  -1   0 11.5088 1.13285   2
  -2  -1   0 22.2983 1.85807   1
  -2  -1   0 23.5347 1.90720   1
  -2  -1   0 20.0432 2.05589   1
  -2  -1   0 14.6870 1.66983   3
  -2  -1   0 14.9553 1.79144   3
  -2  -1   0 15.1474 1.64216   3
   2   1   0 10.4539 1.30792   2
   2   1   0 10.1283 1.31618   2
   2   1   0 11.9724 1.14450   2
   2   1   0 10.6904 1.13124   2
   2   1   0 14.1309 1.71326   3
   2   1   0 16.3680 1.87287   3
   2   1   0 17.1607 1.65753   3
   2   1   0 23.3795 1.96893   3
   2   1   0 15.0061 1.94055   1
   2   1   0 15.5375 2.23474   1
   2   1   0 17.8984 2.17176   1
   2   1   0 17.8126 1.89878   1
  -3  -1   0 106.674 10.2396   3
  -3  -1   0 115.792 11.1905   3
  -3  -1   0 111.366 10.9443   1
  -3  -1   0 101.075 10.0014   1
  -3  -1   0 59.8884 6.11915   2
  -3  -1   0 71.4442 6.69405   2
   3   1   0 60.8489 7.01029   2
   3   1   0 66.0836 6.14827   2
   3   1   0 102.737 10.0382   1
   3   1   0 113.814 11.4502   1
   3   1   0 104.699 12.1168   3
   3   1   0 110.177 11.6799   3
   3   1   0 107.777 10.2750   3
  -4  -1   0 12.8273 1.41384   3
  -4  -1   0 10.4311 1.55924   3
  -4  -1   0 14.6225 1.33622   1
  -4  -1   0 11.0588 1.55678   1
  -4  -1   0 7.46226 0.99634   2
  -4  -1   0 7.05012 1.10261   2
   4   1   0 10.8369 1.48257   3
   4   1   0 16.1950 1.81419   3
   4   1   0 8.06261 1.64350   1
   4   1   0 12.1553 1.42095   1
   4   1   0 7.84877 1.10311   2
   4   1   0 6.46997 1.52430   2
  -5  -1   0 4.31071 0.93570   2
  -5  -1   0 7.98047 1.07976   3
  -5  -1   0 5.51648 0.87174   1
   5   1   0 4.72016 1.31348   2
   5   1   0 5.89264 1.57238   2
   5   1   0 4.93068 1.30541   3
   5   1   0 3.33300 1.58742   3
   5   1   0 4.97616 1.54938   1
   5   1   0 3.52292 1.15387   1
   6  -2   0 2.69483 1.70258   3
   6  -2   0 1.65402 1.56632   3
   6  -2   0 12.9613 2.58223   2
   6  -2   0 10.6954 1.79621   2
   6  -2   0 2.75779 1.85628   1
   6  -2   0 1.43719 1.25518   1
   5  -2   0 11.4385 1.54319   3
   5  -2   0 12.8860 1.98101   3
   5  -2   0 7.22891 1.82383   2
   5  -2   0 9.65620 1.41324   2
   5  -2   0 12.3911 1.96125   1
   5  -2   0 12.8222 1.52976   1
  -5   2   0 10.7007 1.15916   2
   4  -2   0 4.00342 0.69426   1
   4  -2   0 2.70160 0.97182   1
   4  -2   0 3.33811 0.90043   3
   4  -2   0 1.98762 0.64101   3
   4  -2   0 1.54754 0.65329   2
   4  -2   0 1.46685 1.08357   2
  -4   2   0 1.57023 0.77927   2
  -4   2   0 1.48536 0.42190   2
  -4   2   0 4.61815 0.90194   3
  -4   2   0 1.91760 0.47853   3
  -4   2   0 3.81781 0.88015   1
   3  -2   0 2.89538 0.62423   3
   3  -2   0 1.73931 0.48252   3
   3  -2   0 0.69814 0.42402   2
   3  -2   0 0.90823 0.62618   2
   3  -2   0 2.49330 0.44718   1
   3  -2   0 2.08024 0.70347   1
  -3   2   0 1.95892 0.32426   1
  -3   2   0 2.98469 0.56096   1
  -3   2   0 0.69899 0.41391   1
  -3   2   0 1.89662 0.35407   3
  -3   2   0 1.32373 0.41954   3
  -3   2   0 2.83440 0.57954   3
  -3   2   0 1.49186 0.51019   2
  -3   2   0 0.01483 0.30096   2
  -3   2   0 -1.7585 0.40309   2
   2  -2   0 78.3778 7.85080   3
   2  -2   0 81.0634 8.94092   3
   2  -2   0 82.1943 7.85489   3
   2  -2   0 170.449 18.9081  -3
   2  -2   0 170.449 18.9081   1
   2  -2   0 95.6960 8.96727   1
   2  -2   0 99.9039 8.97265   1
   2  -2   0 92.1407 10.2156   1
   2  -2   0 51.6716 4.71017   2
   2  -2   0 43.9197 5.55069   2
   2  -2   0 50.3499 4.70615   2
   2  -2   0 49.0270 5.37898   2
  -2   2   0 53.6098 4.68729   2
  -2   2   0 48.3885 5.14248   2
  -2   2   0 51.3849 4.68119   2
  -2   2   0 94.4725 8.57759   3
  -2   2   0 92.5737 9.79500   1
   1  -2   0 635.743 64.8693   1
   1  -2   0 73.4579 7.44572   3
   1  -2   0 30.5849 3.68059   2
   1  -2   0 32.6375 3.21666   2
  -1   2   0 61.6541 7.74839   3
  -1   2   0 74.4854 7.44323   3
  -1   2   0 39.0957 3.53864   2
  -1   2   0 37.4228 3.68332   2
  -1   2   0 572.588 62.2592   1
  -1   2   0 620.508 64.8652   1
  -1   2   0 791.633 87.6794  -2
  -1   2   0 791.633 87.6794   1
   0  -2   0 43.0625 3.99209   2
   0  -2   0 363.223 36.2357  -3
   0  -2   0 363.223 36.2357   1
   0   2   0 329.692 37.7442  -3
   0   2   0 329.692 37.7442   1
   0   2   0 373.279 36.2376  -3
   0   2   0 373.279 36.2376   1
   0   2   0 32.5354 4.14840   2
   0   2   0 42.7699 3.99307   2
  -1  -2   0 1713.65 168.266   3
  -1  -2   0 1600.71 154.439   3
  -1  -2   0 1761.48 154.183   3
  -1  -2   0 1527.18 165.031   1
  -1  -2   0 2525.53 248.291  -2
  -1  -2   0 2525.53 248.291   1
  -1  -2   0 2774.87 247.882  -2
  -1  -2   0 2774.87 247.882   1
  -1  -2   0 1163.09 111.375   2
   1   2   0 1664.39 175.318   3
   1   2   0 1623.60 182.551   3
   1   2   0 1599.41 154.183   3
   1   2   0 1575.58 154.435   3
   1   2   0 1677.41 151.225   1
   1   2   0 1634.49 151.470   1
   1   2   0 1622.00 179.048   1
   1   2   0 1621.92 171.954   1
   1   2   0 1052.87 116.044   2
   1   2   0 1058.21 120.830   2
   1   2   0 1087.32 102.220   2
   1   2   0 1093.68 102.052   2
  -2  -2   0 5.07145 0.59593   3
  -2  -2   0 5.52546 0.64069   3
  -2  -2   0 3.55272 0.66232   3
  -2  -2   0 2.01003 0.41553   2
  -2  -2   0 2.75693 0.46190   2
  -2  -2   0 3.29842 0.53486   2
   2   2   0 7.60165 0.96945   1
   2   2   0 6.41693 0.83718   1
   2   2   0 7.77160 1.03394   1
   2   2   0 7.53570 0.90294   1
   2   2   0 3.15221 0.51434   2
   2   2   0 2.66604 0.68074   2
   2   2   0 2.41839 0.61717   2
   2   2   0 2.45018 0.52165   2
  -3  -2   0 40.0444 4.10663   3
  -3  -2   0 42.2506 3.75093   3
  -3  -2   0 24.4424 2.62792   2
  -3  -2   0 30.0864 3.27831   1
  -3  -2   0 32.0111 3.61411   1
   3   2   0 24.2432 2.43351   2
   3   2   0 26.2884 2.80564   2
   3   2   0 21.9700 2.85954   2
   3   2   0 23.6125 2.50070   2
   3   2   0 39.2643 3.36864   1
   3   2   0 39.1447 3.99833   1
   3   2   0 35.7784 3.81993   1
   3   2   0 38.2296 4.27860   3
   3   2   0 36.4323 3.77856   3
   3   2   0 36.5919 4.45741   3
  -4  -2   0 72.6680 6.90336   3
  -4  -2   0 68.2642 7.53009   3
  -4  -2   0 71.3800 7.08329   1
  -4  -2   0 63.3996 6.42987   1
  -4  -2   0 44.2152 4.27444   2
  -4  -2   0 44.3739 4.67994   2
   4   2   0 69.8811 6.96012   3
   4   2   0 79.3192 7.91355   3
   4   2   0 40.2037 4.93469   2
   4   2   0 45.3433 4.31714   2
   4   2   0 65.6288 6.49982   1
   4   2   0 73.0594 7.44899   1
  -5  -2   0 -0.2780 0.69277   2
  -5  -2   0 0.67734 0.81676   3
  -5  -2   0 0.09017 0.64403   1
   5   2   0 0.12904 1.32985   3
   5   2   0 2.19158 1.29941   3
   5   2   0 0.60048 1.30592   1
   5   2   0 0.57922 1.48739   2
   6  -3   0 -0.9933 1.25038   2
   6  -3   0 -0.3367 2.19557   2
   6  -3   0 1.10788 1.67057   3
   6  -3   0 -0.9710 1.53048   3
   6  -3   0 2.09667 1.25855   1
   6  -3   0 1.56701 1.65583   1
   5  -3   0 11.3057 1.47265   3
   5  -3   0 11.4266 1.88620   3
   5  -3   0 5.41533 1.15099   2
   5  -3   0 8.40510 1.54154   2
   5  -3   0 11.1080 1.37657   1
   5  -3   0 10.0392 1.86855   1
  -5   3   0 4.13268 2.01283   2
   4  -3   0 0.20564 0.94095   1
   4  -3   0 0.56295 0.54639   1
   4  -3   0 -0.2428 0.56172   2
   4  -3   0 0.08686 0.88484   2
   4  -3   0 0.15544 0.51898   3
   4  -3   0 1.12184 0.91850   3
  -4   3   0 0.10132 0.83433   3
  -4   3   0 0.62494 0.88816   1
  -4   3   0 0.77504 0.87281   2
   3  -3   0 197.694 21.4354   1
   3  -3   0 200.686 18.8360   1
   3  -3   0 177.691 19.1216   3
   3  -3   0 177.163 16.8072   3
   3  -3   0 116.942 11.0063   2
   3  -3   0 111.485 12.5483   2
  -3   3   0 203.356 20.5598   1
  -3   3   0 121.744 12.0223   2
  -3   3   0 182.224 18.3376   3
   2  -3   0 142.785 13.2546   2
   2  -3   0 137.678 13.2536   2
   2  -3   0 141.649 15.6667   2
   2  -3   0 133.076 15.0783   2
   2  -3   0 227.975 21.4792   3
   2  -3   0 226.245 21.4802   3
   2  -3   0 224.988 24.4161   3
   2  -3   0 218.461 25.4037   3
   2  -3   0 280.934 30.0485   1
   2  -3   0 274.558 31.2604   1
   2  -3   0 281.689 26.4372   1
   2  -3   0 281.075 26.4399   1
  -2   3   0 236.378 25.4016   3
  -2   3   0 230.391 24.4112   3
  -2   3   0 240.568 23.4337   3
  -2   3   0 294.334 31.2616   1
  -2   3   0 279.235 28.8399   1
  -2   3   0 154.395 15.6698   2
  -2   3   0 134.816 14.4653   2
   1  -3   0 89.1024 9.95420   2
  -1   3   0 176.849 18.4684   3
  -1   3   0 169.701 19.2402   3
  -1   3   0 1392.54 154.230  -2
  -1   3   0 1392.54 154.230   1
  -1   3   0 95.7432 9.95436   2
  -1   3   0 95.3452 9.56418   2
  -1   3   0 1117.24 115.215   1
  -1   3   0 1048.10 110.591   1
   0  -3   0 313.857 30.2891  -3
   0  -3   0 313.857 30.2891   1
   0   3   0 280.907 31.5394  -3
   0   3   0 280.907 31.5394   1
  -1  -3   0 70.2496 6.61485   3
  -1  -3   0 70.0509 7.20844   3
  -1  -3   0 71.0116 6.59718   3
  -1  -3   0 43.7483 4.42006   2
  -1  -3   0 115.786 10.6757  -2
  -1  -3   0 115.786 10.6757   1
  -1  -3   0 111.561 10.6954  -2
  -1  -3   0 111.561 10.6954   1
  -1  -3   0 66.0842 6.98301   1
   1   3   0 67.0603 6.60129   3
   1   3   0 71.5637 6.61150   3
   1   3   0 70.8947 7.49678   3
   1   3   0 69.3898 7.82541   3
   1   3   0 71.6276 6.40935   1
   1   3   0 67.9586 7.58972   1
   1   3   0 62.1084 6.40072   1
   1   3   0 71.6576 7.27533   1
   1   3   0 42.2552 4.60208   2
   1   3   0 40.1980 4.04733   2
   1   3   0 44.5602 4.81357   2
   1   3   0 43.2182 4.05468   2
  -2  -3   0 8.56731 0.91233   2
  -2  -3   0 5.09747 0.79559   2
  -2  -3   0 7.41846 0.81773   2
  -2  -3   0 14.7263 1.47390   3
  -2  -3   0 12.6815 1.59442   3
  -2  -3   0 13.8927 1.48934   3
   2   3   0 21.2581 2.52080   1
   2   3   0 16.3174 2.64531   1
   2   3   0 23.7035 2.20436   1
   2   3   0 27.9910 2.26364   1
   2   3   0 6.78115 1.05991   2
   2   3   0 7.84873 0.85831   2
   2   3   0 7.28032 0.86801   2
   2   3   0 8.06709 1.06127   2
  -3  -3   0 1.73544 0.49751   2
  -3  -3   0 3.83767 0.72062   2
  -3  -3   0 3.82835 0.80179   3
  -3  -3   0 6.79231 0.97502   3
  -3  -3   0 5.73088 0.89163   1
  -3  -3   0 3.83106 0.62189   1
   3   3   0 2.19107 0.66972   2
   3   3   0 1.69122 0.83713   2
   3   3   0 2.07067 0.75120   2
   3   3   0 2.92456 0.84065   2
   3   3   0 5.80982 1.10308   3
   3   3   0 6.62586 0.94107   3
   3   3   0 7.04462 0.99753   3
   3   3   0 3.37525 0.97273   3
   3   3   0 4.59745 0.95329   1
   3   3   0 4.89795 0.93312   1
   3   3   0 5.66480 1.04174   1
   3   3   0 4.76491 0.81885   1
  -4  -3   0 64.6873 7.15599   1
  -4  -3   0 70.9135 6.55030   1
  -4  -3   0 70.5242 7.62033   3
  -4  -3   0 71.3362 6.98329   3
  -4  -3   0 40.1099 4.09706   2
  -4  -3   0 47.0447 4.50219   2
   4   3   0 74.8173 8.00504   3
   4   3   0 77.2121 7.08195   3
   4   3   0 37.0810 4.67650   2
   4   3   0 66.7645 6.60583   1
   4   3   0 72.6964 7.56220   1
  -5  -3   0 0.91290 0.92107   1
  -5  -3   0 -1.2308 0.97479   3
  -5  -3   0 0.45661 1.03145   2
   5   3   0 0.18887 1.30275   3
   5   3   0 -0.1592 1.29739   1
   5   3   0 -0.7203 1.42701   2
   6  -4   0 -0.8566 1.84425   2
   6  -4   0 0.87735 1.20677   2
   6  -4   0 0.47553 1.43772   3
   6  -4   0 2.48159 2.06826   3
   6  -4   0 -1.8897 1.86969   1
   6  -4   0 0.33413 1.22361   1
   5  -4   0 62.5379 6.21059   1
   5  -4   0 50.3731 5.31606   1
   5  -4   0 57.8423 5.83079   3
   5  -4   0 63.2340 6.72597   3
   5  -4   0 34.6616 4.21951   2
   5  -4   0 34.0721 3.52608   2
  -5   4   0 37.1411 4.30744   2
   4  -4   0 14.0535 1.62516   2
   4  -4   0 18.6326 2.10333   2
   4  -4   0 26.1766 2.98975   3
   4  -4   0 26.0349 2.51643   3
   4  -4   0 24.1122 2.42486   1
   4  -4   0 23.0974 2.93429   1
  -4   4   0 25.7560 2.79981   1
  -4   4   0 22.3093 2.80472   3
  -4   4   0 15.2164 1.87799   2
   3  -4   0 3.32384 0.78540   3
   3  -4   0 3.13883 0.51349   3
   3  -4   0 2.13609 0.42672   2
   3  -4   0 1.93211 0.68273   2
   3  -4   0 4.59766 0.85165   1
  -3   4   0 4.19618 0.73847   3
  -3   4   0 4.71467 0.80310   1
  -3   4   0 2.10359 0.57286   2
   2  -4   0 1183.10 115.034   1
   2  -4   0 1262.53 130.628   1
   2  -4   0 785.117 73.4582   2
   2  -4   0 770.155 73.4567   2
   2  -4   0 791.878 83.4270   2
   2  -4   0 2437.08 228.323  -3
   2  -4   0 2437.08 228.323   1
   2  -4   0 1161.99 126.464   3
  -2   4   0 769.854 80.0680   2
  -2   4   0 803.093 86.8449   2
  -2   4   0 1205.68 126.461   3
  -2   4   0 1188.44 131.667   3
  -2   4   0 1198.85 121.378   3
  -2   4   0 1262.67 125.379   1
  -2   4   0 1174.08 135.998   1
  -2   4   0 1261.81 130.621   1
  -1   4   0 207.826 20.3793  -3
  -1   4   0 207.826 20.3793   1
  -1   4   0 192.330 21.1977  -3
  -1   4   0 192.330 21.1977   1
  -1   4   0 46.2670 4.67990   2
  -1   4   0 44.5488 4.85225   2
  -1   4   0 84.3408 9.39994   3
  -1   4   0 194.353 21.5775  -2
  -1   4   0 194.353 21.5775   1
   0  -4   0 140.189 14.6728   2
   0  -4   0 142.236 13.4456   2
   0  -4   0 389.143 41.2108  -3
   0  -4   0 389.143 41.2108   1
   0  -4   0 379.670 37.8065  -3
   0  -4   0 379.670 37.8065   1
   0   4   0 559.556 53.9908  -3
   0   4   0 559.556 53.9908  -2
   0   4   0 559.556 53.9908   1
   0   4   0 596.520 63.9580  -3
   0   4   0 596.520 63.9580  -2
   0   4   0 596.520 63.9580   1
   0   4   0 417.855 37.7407  -3
   0   4   0 417.855 37.7407   1
   0   4   0 425.347 42.9209  -3
   0   4   0 425.347 42.9209   1
   0   4   0 152.477 13.4216   2
   0   4   0 133.380 14.6737   2
   0   4   0 145.214 15.2694   2
  -1  -4   0 663.083 58.9104  -3
  -1  -4   0 663.083 58.9104   1
  -1  -4   0 208.237 21.2952   2
  -1  -4   0 232.126 19.5026   2
  -1  -4   0 303.933 31.4959   1
  -1  -4   0 314.475 29.6162   3
  -1  -4   0 317.004 32.2785   3
  -1  -4   0 493.619 46.2824  -2
  -1  -4   0 493.619 46.2824   1
   1   4   0 311.022 34.1788   1
   1   4   0 309.227 28.8974   1
   1   4   0 192.833 22.1726   2
   1   4   0 204.271 19.4987   2
   1   4   0 204.878 19.5286   2
   1   4   0 206.418 23.1034   2
   1   4   0 598.144 58.9120  -3
   1   4   0 598.144 58.9120   1
   1   4   0 627.013 66.9864  -3
   1   4   0 627.013 66.9864   1
   1   4   0 318.598 29.6105   3
   1   4   0 312.355 35.0153   3
  -2  -4   0 3.07968 0.68832   3
  -2  -4   0 2.52004 0.63080   3
  -2  -4   0 4.62341 0.60607   3
  -2  -4   0 3.24223 0.56996   1
  -2  -4   0 4.01934 0.57110   1
  -2  -4   0 1.30251 0.55449   2
  -2  -4   0 1.38431 0.46158   2
  -2  -4   0 1.23312 0.48762   2
   2   4   0 4.60844 0.67083   3
   2   4   0 4.28504 0.67988   3
   2   4   0 3.35513 0.71602   3
   2   4   0 3.65816 0.78593   1
   2   4   0 2.85397 0.60493   1
   2   4   0 3.47716 0.66346   1
   2   4   0 5.22848 0.90772   1
   2   4   0 1.93954 0.54419   2
   2   4   0 1.50053 0.67531   2
   2   4   0 0.86580 0.64455   2
   2   4   0 1.05596 0.51529   2
  -3  -4   0 1.93457 0.65220   1
  -3  -4   0 2.41567 0.60811   1
  -3  -4   0 1.02940 0.64181   2
  -3  -4   0 1.13558 0.67043   2
  -3  -4   0 0.71749 0.65663   3
  -3  -4   0 0.25324 0.77702   3
   3   4   0 0.74655 0.73158   2
   3   4   0 1.03558 0.90188   2
   3   4   0 0.89623 0.87105   2
   3   4   0 -0.4112 0.74311   1
   3   4   0 1.78697 0.72383   1
   3   4   0 1.72856 0.94701   1
   3   4   0 2.62406 0.80422   1
   3   4   0 1.41259 0.79541   3
   3   4   0 1.56139 0.75420   3
   3   4   0 2.04539 0.98749   3
   3   4   0 0.37540 0.81720   3
  -4  -4   0 11.9117 1.54068   1
  -4  -4   0 7.95069 1.19366   1
  -4  -4   0 12.2281 1.84887   3
  -4  -4   0 13.9064 1.66152   3
  -4  -4   0 6.10734 1.05113   2
  -4  -4   0 7.76273 1.24317   2
   4   4   0 16.5043 2.06134   3
   4   4   0 7.39326 1.54433   2
   4   4   0 11.4444 1.64758   1
  -5  -4   0 3.84969 1.30680   2
  -5  -4   0 6.66057 1.27729   1
  -5  -4   0 15.0718 1.82875   3
   5   4   0 11.2875 2.25384   3
   5   4   0 5.77106 1.81603   1
   5   4   0 5.59428 1.94511   2
   6  -5   0 11.4691 2.59115   1
   6  -5   0 13.7638 1.74525   1
   6  -5   0 24.3117 3.43969   3
   6  -5   0 22.0508 2.68454   3
   6  -5   0 14.2213 2.64938   2
   6  -5   0 9.24799 1.65913   2
   5  -5   0 3.56010 0.87213   1
   5  -5   0 1.35631 1.21733   1
   5  -5   0 0.40583 1.29857   2
   5  -5   0 -0.8293 0.78380   2
   5  -5   0 -1.1323 0.78824   3
   5  -5   0 0.44073 1.11085   3
  -5   5   0 -1.1730 1.60033   2
   4  -5   0 80.0752 7.64512   1
   4  -5   0 85.1843 8.78755   1
   4  -5   0 49.3764 5.74000   2
   4  -5   0 52.3929 4.94406   2
   4  -5   0 90.8536 8.34327   3
   4  -5   0 90.2831 9.55811   3
  -4   5   0 52.0274 5.44676   2
  -4   5   0 78.2407 8.40479   1
  -4   5   0 82.4494 9.14359   3
   3  -5   0 1.21797 0.61443   3
   3  -5   0 0.68281 0.33047   3
   3  -5   0 0.12523 0.34225   2
   3  -5   0 1.04469 0.64980   2
   3  -5   0 2.54694 0.38825   1
   3  -5   0 2.57477 0.75410   1
  -3   5   0 0.29287 0.57906   2
  -3   5   0 0.74020 0.77882   1
  -3   5   0 0.63466 0.73410   3
  -3   5   0 0.05969 0.63847   3
   2  -5   0 417.503 45.0331   1
   2  -5   0 -0.8821 0.48416   2
   2  -5   0 1.06299 0.19422   2
   2  -5   0 1.12236 0.23081   2
   2  -5   0 2.23213 0.58646   3
  -2   5   0 424.034 45.0270   1
  -2   5   0 427.766 43.2435   1
  -2   5   0 -1.4944 0.48998   2
  -2   5   0 0.14647 0.48175   2
  -2   5   0 3.35938 0.59046   3
  -2   5   0 2.88323 0.65850   3
  -2   5   0 441.703 48.9702  -2
  -2   5   0 441.703 48.9702   1
   1  -5   0 610.866 57.2375   3
   1  -5   0 1146.59 108.992  -3
   1  -5   0 1146.59 108.992   1
   1  -5   0 356.255 32.3394   2
   1  -5   0 334.202 32.3390   2
   1  -5   0 612.467 57.3870   1
  -1   5   0 337.947 36.7283   2
  -1   5   0 353.070 35.2806   2
  -1   5   0 1224.64 118.795  -3
  -1   5   0 1224.64 118.795   1
  -1   5   0 1123.07 123.737  -3
  -1   5   0 1123.07 123.737   1
   0  -5   0 5.87597 0.61111   2
   0  -5   0 5.09546 0.75072   2
   0  -5   0 27.5398 2.88897  -3
   0  -5   0 27.5398 2.88897   1
   0  -5   0 26.4291 3.18289  -3
   0  -5   0 26.4291 3.18289   1
   0   5   0 4.79238 0.70805   2
   0   5   0 5.73927 0.62065   2
   0   5   0 4.97445 0.77201   2
   0   5   0 32.5779 3.28102  -3
   0   5   0 32.5779 3.28102   1
   0   5   0 33.2979 2.88770  -3
   0   5   0 33.2979 2.88770   1
   0   5   0 27.7652 3.04148  -3
   0   5   0 27.7652 3.04148  -2
   0   5   0 27.7652 3.04148   1
   0   5   0 24.3128 2.42993  -3
   0   5   0 24.3128 2.42993  -2
   0   5   0 24.3128 2.42993   1
  -1  -5   0 119.759 12.2738   3
  -1  -5   0 126.964 11.2562   3
  -1  -5   0 78.8562 7.74516   2
  -1  -5   0 77.0893 7.08172   2
  -1  -5   0 306.019 28.6858  -3
  -1  -5   0 306.019 28.6858  -2
  -1  -5   0 306.019 28.6858   1
  -1  -5   0 105.811 10.6283   1
  -1  -5   0 98.2797 9.73308   1
   1   5   0 111.109 13.3116   3
   1   5   0 232.901 23.9982  -3
   1   5   0 232.901 23.9982   1
   1   5   0 217.200 21.1042  -3
   1   5   0 217.200 21.1042   1
   1   5   0 74.5191 7.06526   2
   1   5   0 67.8600 8.03679   2
   1   5   0 77.9898 8.40690   2
   1   5   0 107.856 11.5535   1
  -2  -5   0 8.43925 1.02935   1
  -2  -5   0 11.7821 1.25679   1
  -2  -5   0 8.17641 1.07461   1
  -2  -5   0 13.2581 1.42972   3
  -2  -5   0 15.8204 1.59568   3
  -2  -5   0 12.4784 1.37344   3
  -2  -5   0 7.26789 0.86810   2
  -2  -5   0 6.85210 1.00065   2
  -2  -5   0 7.01258 0.88159   2
   2   5   0 11.8881 1.72785   3
   2   5   0 10.8400 1.41469   3
   2   5   0 13.1618 1.59972   3
   2   5   0 9.54354 1.15078   1
   2   5   0 13.9546 1.36972   1
   2   5   0 9.60643 1.43635   1
   2   5   0 6.11413 0.88879   2
   2   5   0 6.27634 1.15652   2
   2   5   0 7.90682 1.09745   2
  -3  -5   0 0.01517 0.81064   1
  -3  -5   0 -0.0969 0.63386   1
  -3  -5   0 1.32221 0.87643   3
  -3  -5   0 -0.3280 0.65816   3
  -3  -5   0 1.03837 0.80242   2
  -3  -5   0 0.50684 0.76229   2
   3   5   0 0.17059 1.03410   3
   3   5   0 -0.5541 0.81417   3
   3   5   0 -0.3475 0.84675   3
   3   5   0 0.63546 1.01333   2
   3   5   0 0.07213 0.98489   2
   3   5   0 0.02734 0.75998   2
   3   5   0 -0.3988 0.79854   1
   3   5   0 0.19209 0.96917   1
   3   5   0 0.27649 1.06598   1
  -4  -5   0 96.1639 11.0637   1
  -4  -5   0 113.696 10.1450   1
  -4  -5   0 62.1632 6.01007   2
  -4  -5   0 59.1782 6.52310   2
  -4  -5   0 113.176 10.4181   3
  -4  -5   0 110.775 11.3885   3
   4   5   0 112.322 11.6258   1
   4   5   0 104.146 11.8687   3
   4   5   0 65.1038 6.89702   2
  -5  -5   0 7.15311 1.55753   2
  -5  -5   0 13.3107 1.80095   1
  -5  -5   0 20.0458 2.37295   3
   5   5   0 12.5363 2.20472   2
   5   5   0 15.7331 2.58002   1
   5   5   0 17.6224 2.83325   3
   5  -6   0 6.36771 1.16075   3
   5  -6   0 5.59543 1.57561   3
   5  -6   0 5.66245 1.01211   1
   5  -6   0 7.78028 1.58298   1
   5  -6   0 3.53610 0.87576   2
   5  -6   0 2.57912 1.56757   2
  -5   6   0 7.70875 2.44893   2
   4  -6   0 8.16947 1.49651   2
   4  -6   0 9.69128 1.05799   2
   4  -6   0 15.0804 1.92563   3
   4  -6   0 14.1285 1.44225   3
   4  -6   0 15.8954 1.51797   1
   4  -6   0 12.6561 1.82183   1
  -4   6   0 11.1010 1.83376   1
  -4   6   0 6.86525 1.24315   2
  -4   6   0 11.2166 1.75901   3
   3  -6   0 -0.0666 0.35794   2
   3  -6   0 -0.0926 0.68777   2
   3  -6   0 -0.1415 0.69976   3
   3  -6   0 -0.1461 0.62729   3
   3  -6   0 0.62243 0.32780   3
   3  -6   0 1.51055 0.74637   1
   3  -6   0 1.33847 0.33278   1
  -3   6   0 -0.0054 0.65287   2
  -3   6   0 0.34830 0.67815   3
  -3   6   0 -0.2130 0.65655   3
  -3   6   0 0.38451 0.73611   1
   2  -6   0 47.4527 5.03025   2
   2  -6   0 43.2556 4.36454   2
   2  -6   0 45.2519 4.35805   2
   2  -6   0 75.3872 8.76308   3
   2  -6   0 116.354 12.6456   1
  -2   6   0 85.1167 8.76511   3
  -2   6   0 80.9688 8.44789   3
  -2   6   0 86.6561 9.16727   3
  -2   6   0 47.0264 5.02303   2
  -2   6   0 55.4617 5.26160   2
  -2   6   0 47.5108 4.83931   2
  -2   6   0 118.807 12.1728   1
  -2   6   0 118.713 13.1894   1
  -2   6   0 119.196 12.6342   1
   1  -6   0 71.3092 6.48705   2
   1  -6   0 67.7497 6.48866   2
   1  -6   0 230.858 24.1425  -3
   1  -6   0 230.858 24.1425   1
   1  -6   0 232.833 22.1008  -3
   1  -6   0 232.833 22.1008   1
   1  -6   0 227.530 22.1043  -3
   1  -6   0 227.530 22.1043   1
  -1   6   0 69.4404 7.13074   2
  -1   6   0 67.1226 7.38155   2
  -1   6   0 255.602 24.1576  -3
  -1   6   0 255.602 24.1576   1
  -1   6   0 237.312 25.1016  -3
  -1   6   0 237.312 25.1016   1
   0  -6   0 33.4133 3.88614  -3
   0  -6   0 33.4133 3.88614   1
   0  -6   0 33.2234 3.52888  -3
   0  -6   0 33.2234 3.52888   1
   0  -6   0 6.21393 0.72306   2
   0  -6   0 6.48009 0.88447   2
   0   6   0 6.02267 0.94805   2
   0   6   0 7.03339 0.72611   2
   0   6   0 6.65504 0.86920   2
   0   6   0 31.1294 3.41241  -3
   0   6   0 31.1294 3.41241  -2
   0   6   0 31.1294 3.41241   1
   0   6   0 26.7550 2.68492  -3
   0   6   0 26.7550 2.68492  -2
   0   6   0 26.7550 2.68492   1
   0   6   0 38.4438 3.52344  -3
   0   6   0 38.4438 3.52344   1
   0   6   0 41.2963 4.00484  -3
   0   6   0 41.2963 4.00484   1
  -1  -6   0 66.8494 6.40572   2
  -1  -6   0 69.4769 7.01283   2
  -1  -6   0 199.364 19.5786  -3
  -1  -6   0 199.364 19.5786   1
  -1  -6   0 114.955 11.8521   3
  -1  -6   0 104.324 10.7426   1
   1   6   0 63.5673 7.59849   2
   1   6   0 71.8299 7.28525   2
   1   6   0 66.0973 6.38016   2
   1   6   0 208.977 23.1886  -3
   1   6   0 208.977 23.1886   1
   1   6   0 199.012 19.5459  -3
   1   6   0 199.012 19.5459   1
   1   6   0 226.604 22.2329  -3
   1   6   0 226.604 22.2329   1
  -2  -6   0 0.48916 0.49412   1
  -2  -6   0 0.78958 0.64490   1
  -2  -6   0 0.88203 0.67954   3
  -2  -6   0 2.13207 0.72270   3
  -2  -6   0 0.58833 0.68077   2
  -2  -6   0 -0.1512 0.52266   2
   2   6   0 1.31966 0.66123   1
   2   6   0 1.59763 0.94285   1
   2   6   0 0.20551 0.70886   1
   2   6   0 0.38512 0.69955   3
   2   6   0 0.17183 0.89905   3
   2   6   0 0.71278 0.64993   3
   2   6   0 0.63220 0.87722   2
   2   6   0 -0.1487 0.55559   2
   2   6   0 -0.7360 0.72157   2
  -3  -6   0 -0.2410 0.74903   2
  -3  -6   0 1.01521 0.78338   1
  -3  -6   0 1.62027 0.85361   3
   3   6   0 1.02436 0.87917   3
   3   6   0 2.01465 0.97906   3
   3   6   0 -0.5252 1.14603   3
   3   6   0 0.64893 1.28674   2
   3   6   0 0.40159 0.74209   2
   3   6   0 1.42085 1.05411   2
   3   6   0 0.82690 1.00411   1
   3   6   0 1.04073 0.89377   1
   3   6   0 -0.2484 1.19785   1
  -4  -6   0 12.6747 1.84806   1
  -4  -6   0 26.5655 2.37819   1
  -4  -6   0 24.4991 3.03279   3
  -4  -6   0 23.6490 2.69418   3
  -4  -6   0 11.8726 1.80224   2
   4   6   0 28.9540 3.24489   3
   4   6   0 21.1964 2.54164   1
   4   6   0 11.9225 2.06963   2
   5  -7   0 37.3119 4.66126   1
   5  -7   0 40.4688 3.89079   1
   5  -7   0 44.5219 5.21630   3
   5  -7   0 44.9624 4.43848   3
   5  -7   0 30.4182 3.50194   2
   5  -7   0 25.0487 2.83325   2
   4  -7   0 -0.0386 1.00180   2
   4  -7   0 0.55598 0.53577   2
   4  -7   0 1.85006 0.64489   3
   4  -7   0 2.24032 1.09512   3
   4  -7   0 3.23895 0.56754   1
   4  -7   0 3.21901 1.10006   1
  -4   7   0 3.39533 1.29658   1
  -4   7   0 -0.2146 0.95969   2
  -4   7   0 2.42547 1.03661   3
   3  -7   0 6.49869 1.10547   3
   3  -7   0 6.09442 0.67990   3
   3  -7   0 5.54938 1.09392   1
   3  -7   0 7.02958 0.70476   1
   3  -7   0 2.11023 0.89453   2
   3  -7   0 3.07498 0.44344   2
  -3   7   0 5.20941 1.11298   1
  -3   7   0 5.97082 1.42038   1
  -3   7   0 4.93227 1.11192   3
  -3   7   0 7.08413 1.18829   3
  -3   7   0 2.35027 0.77434   2
   2  -7   0 69.8625 7.42921   1
   2  -7   0 66.1921 6.48632   1
   2  -7   0 68.1949 6.48309   1
   2  -7   0 23.2698 2.29299   2
   2  -7   0 24.3025 2.70992   2
   2  -7   0 22.9905 2.30629   2
   2  -7   0 43.1981 5.00413   3
  -2   7   0 50.1899 5.30197   3
  -2   7   0 47.8144 4.99709   3
  -2   7   0 44.2958 4.86611   3
  -2   7   0 68.9267 7.40848   1
  -2   7   0 75.3193 7.19503   1
  -2   7   0 72.1458 7.79767   1
  -2   7   0 24.2705 2.71815   2
  -2   7   0 29.1148 2.90064   2
  -2   7   0 25.0594 2.65201   2
   1  -7   0 16.4162 1.86080   2
   1  -7   0 16.0918 1.61643   2
   1  -7   0 13.9726 1.59556   2
   1  -7   0 67.7879 5.67420  -3
   1  -7   0 67.7879 5.67420   1
   1  -7   0 57.9983 5.67971  -3
   1  -7   0 57.9983 5.67971   1
   1  -7   0 54.8036 6.27563  -3
   1  -7   0 54.8036 6.27563   1
  -1   7   0 64.6412 6.84209  -3
  -1   7   0 64.6412 6.84209   1
  -1   7   0 55.8544 6.29192  -3
  -1   7   0 55.8544 6.29192   1
  -1   7   0 56.4046 6.43557  -3
  -1   7   0 56.4046 6.43557   1
  -1   7   0 18.0406 2.01997   2
  -1   7   0 14.5590 1.85669   2
  -1   7   0 19.1937 1.85308   2
   0  -7   0 157.148 14.8493   2
   0  -7   0 162.291 16.2278   2
   0  -7   0 461.509 44.9083  -3
   0  -7   0 461.509 44.9083   1
   0  -7   0 459.075 48.9652  -3
   0  -7   0 459.075 48.9652   1
   0   7   0 159.778 14.7991   2
   0   7   0 154.091 16.8580   2
   0   7   0 157.178 14.8063   2
   0   7   0 496.130 44.8177  -3
   0   7   0 496.130 44.8177   1
   0   7   0 460.145 44.8142  -3
   0   7   0 460.145 44.8142   1
   0   7   0 515.157 50.9779  -3
   0   7   0 515.157 50.9779   1
  -1  -7   0 0.59784 0.63546   1
  -1  -7   0 0.37765 0.62513   2
  -1  -7   0 -0.3211 0.45898   2
  -1  -7   0 1.97894 0.83174   3
  -1  -7   0 3.56143 1.09233  -3
  -1  -7   0 3.56143 1.09233   1
   1   7   0 -0.4318 1.15751  -3
   1   7   0 -0.4318 1.15751   1
   1   7   0 3.21106 1.10370  -3
   1   7   0 3.21106 1.10370   1
   1   7   0 1.17318 1.73026  -3
   1   7   0 1.17318 1.73026   1
   1   7   0 -0.0246 0.69598   2
   1   7   0 -0.2524 0.80381   2
   1   7   0 0.17750 0.46046   2
  -2  -7   0 42.8167 4.62767   3
  -2  -7   0 41.8830 4.26941   3
  -2  -7   0 34.7550 4.03935   1
  -2  -7   0 33.0846 3.69562   1
  -2  -7   0 21.8711 2.56374   2
  -2  -7   0 22.8015 2.75984   2
   2   7   0 37.3555 4.24354   1
   2   7   0 44.1683 3.76727   1
   2   7   0 42.4797 4.51399   1
   2   7   0 24.8226 2.95348   2
   2   7   0 26.3559 2.58046   2
   2   7   0 31.7056 3.24070   2
   2   7   0 43.8216 4.74608   3
   2   7   0 42.1815 5.00534   3
   2   7   0 42.2229 4.17193   3
  -3  -7   0 1.96523 0.91955   2
  -3  -7   0 2.38038 1.03054   3
  -3  -7   0 2.77136 1.04517   1
   3   7   0 2.31539 0.95680   2
   3   7   0 2.02631 1.15898   2
   3   7   0 2.34868 1.35560   2
   3   7   0 3.09225 1.17922   1
   3   7   0 1.70028 0.97175   1
   3   7   0 2.26839 1.60837   1
   3   7   0 2.60036 1.16059   3
   3   7   0 0.51000 1.34614   3
   3   7   0 3.05883 0.99588   3
  -4  -7   0 6.05602 1.57627   3
  -4  -7   0 2.77135 1.32918   2
  -4  -7   0 3.78807 1.38131   1
   4   7   0 3.83288 1.66705   2
   4   7   0 3.87915 1.61339   3
   4   7   0 5.74776 1.60296   1
   5  -8   0 0.45190 0.70536   1
   5  -8   0 -0.2131 0.84939   3
   5  -8   0 0.29142 1.46809   3
   5  -8   0 -0.0437 0.76004   2
   4  -8   0 15.8610 1.71426   2
   4  -8   0 20.3508 2.39475   2
   4  -8   0 29.4331 3.52833   3
   4  -8   0 29.5828 2.90955   3
   4  -8   0 28.9373 2.97004   1
   4  -8   0 34.4674 3.74019   1
  -4   8   0 29.5300 3.45020   3
  -4   8   0 33.9787 3.62818   1
  -4   8   0 14.0558 2.01441   2
   3  -8   0 50.8921 4.57412   3
   3  -8   0 45.9097 5.36168   3
   3  -8   0 71.2006 8.04534   1
   3  -8   0 77.5103 6.95659   1
   3  -8   0 30.1897 3.52532   2
   3  -8   0 27.6542 2.68003   2
  -3   8   0 28.1834 3.15310   2
  -3   8   0 58.1878 7.72941   1
  -3   8   0 89.1378 8.63914   1
  -3   8   0 49.2959 5.62865   3
  -3   8   0 46.5576 5.30862   3
  -3   8   0 42.9194 5.18710   3
   2  -8   0 1.84638 0.40074   2
   2  -8   0 3.93835 0.71378   3
   2  -8   0 4.02296 1.10560   3
   2  -8   0 6.54021 0.97036  -3
   2  -8   0 6.54021 0.97036   1
  -2   8   0 4.61342 1.04338   1
  -2   8   0 2.36422 1.04524   1
  -2   8   0 3.42298 0.98339   1
  -2   8   0 2.51119 1.08196   3
  -2   8   0 2.71148 0.71011   3
  -2   8   0 3.32899 0.92601   3
  -2   8   0 3.20355 0.80574   2
  -2   8   0 2.71813 0.87693   2
   1  -8   0 109.663 10.9102   2
   1  -8   0 121.560 11.9645   2
   1  -8   0 419.918 41.3661  -3
   1  -8   0 419.918 41.3661   1
  -1   8   0 397.029 41.3642  -3
  -1   8   0 397.029 41.3642   1
  -1   8   0 395.581 44.8735  -3
  -1   8   0 395.581 44.8735   1
  -1   8   0 116.897 11.9600   2
  -1   8   0 119.940 12.9628   2
   0  -8   0 28.7529 2.20218  -3
   0  -8   0 28.7529 2.20218   1
   0  -8   0 21.8651 2.46074  -3
   0  -8   0 21.8651 2.46074   1
   0  -8   0 5.68448 0.84881   2
   0  -8   0 3.56425 0.60721   2
   0   8   0 3.42974 0.99647   2
   0   8   0 3.32609 0.53757   2
   0   8   0 2.96199 0.46354   2
   0   8   0 12.0830 2.73871  -3
   0   8   0 12.0830 2.73871   1
   0   8   0 20.1541 2.07319  -3
   0   8   0 20.1541 2.07319   1
  -1  -8   0 11.2054 1.50489   1
  -1  -8   0 5.92664 0.88068   2
  -1  -8   0 7.73003 1.10652   2
  -1  -8   0 25.2286 2.74702  -3
  -1  -8   0 25.2286 2.74702   1
  -1  -8   0 17.0574 2.09611   3
   1   8   0 6.41046 0.84181   2
   1   8   0 4.71674 1.18017   2
   1   8   0 23.6215 2.71550  -3
   1   8   0 23.6215 2.71550   1
   1   8   0 29.2627 3.55761  -3
   1   8   0 29.2627 3.55761   1
  -2  -8   0 3.97210 1.07753   2
  -2  -8   0 6.90840 0.97874   2
  -2  -8   0 15.7375 1.70515   3
  -2  -8   0 14.4629 1.86072   3
  -2  -8   0 11.8968 1.67741   1
  -2  -8   0 12.7174 1.45356   1
   2   8   0 12.3277 2.13952   1
   2   8   0 13.1525 1.55917   1
   2   8   0 11.4319 1.62054   3
   2   8   0 15.6798 2.09669   3
   2   8   0 6.84807 1.03701   2
   2   8   0 7.92091 1.43912   2
  -3  -8   0 14.4038 2.16334   1
  -3  -8   0 16.5325 2.61630   3
  -3  -8   0 8.67825 1.52986   2
   3   8   0 22.0138 2.50087   3
   3   8   0 33.7502 3.25958   3
   3   8   0 23.1838 2.18108   1
   3   8   0 15.8709 2.62183   1
   3   8   0 9.95814 1.48228   2
   3   8   0 12.0550 1.94310   2
  -4  -8   0 21.5164 2.79850   1
  -4  -8   0 9.93771 1.82321   2
   4   8   0 12.5007 1.90722   2
   5  -9   0 10.4884 1.32218   2
   5  -9   0 20.8885 2.25418   1
   5  -9   0 22.1638 2.31481   3
   4  -9   0 7.51463 0.89354   3
   4  -9   0 14.9076 1.53301   1
   4  -9   0 2.48807 0.54070   2
  -4   9   0 5.88504 1.54587   3
  -4   9   0 13.0140 2.12899   1
  -4   9   0 2.65042 1.26723   2
   3  -9   0 7.13584 0.79168   2
   3  -9   0 15.9987 1.70753   3
   3  -9   0 24.3095 2.40893   1
  -3   9   0 20.7120 2.42478   3
  -3   9   0 15.2663 2.19517   3
  -3   9   0 7.19130 1.27256   2
  -3   9   0 24.5664 3.62299   1
  -3   9   0 25.8363 2.97292   1
   2  -9   0 3.15864 0.99008   1
   2  -9   0 0.05280 0.82800   3
   2  -9   0 -0.1424 0.38806   2
   2  -9   0 4.72275 0.99352  -3
   2  -9   0 4.72275 0.99352   1
  -2   9   0 -0.6776 1.05689   3
  -2   9   0 0.81527 0.90852   3
  -2   9   0 2.77018 1.06145   1
  -2   9   0 2.32481 1.10575   1
  -2   9   0 -0.2827 0.89337   2
  -2   9   0 0.39131 0.79517   2
   1  -9   0 94.2960 9.60491   2
   1  -9   0 94.3244 8.73771   2
   1  -9   0 301.049 31.9174  -3
   1  -9   0 301.049 31.9174   1
  -1   9   0 93.2586 10.4004   2
  -1   9   0 86.9115 9.59908   2
  -1   9   0 322.172 34.6431  -3
  -1   9   0 322.172 34.6431   1
   0  -9   0 232.239 24.8219  -3
   0  -9   0 232.239 24.8219   1
   0  -9   0 240.493 22.7308  -3
   0  -9   0 240.493 22.7308   1
   0  -9   0 75.7692 7.10656   2
   0  -9   0 71.1703 7.80253   2
   0   9   0 256.942 26.9579  -3
   0   9   0 256.942 26.9579   1
   0   9   0 240.420 22.6500  -3
   0   9   0 240.420 22.6500   1
   0   9   0 76.9758 8.48862   2
  -1  -9   0 4.80965 1.55329  -3
  -1  -9   0 4.80965 1.55329   1
  -1  -9   0 5.29793 1.72724  -3
  -1  -9   0 5.29793 1.72724   1
  -1  -9   0 0.71952 0.88094   2
  -1  -9   0 1.88446 0.70848   2
   1   9   0 0.68416 1.13023   2
   1   9   0 1.77186 0.58865   2
   1   9   0 3.86557 2.40454  -3
   1   9   0 3.86557 2.40454   1
   1   9   0 5.82323 1.39878  -3
   1   9   0 5.82323 1.39878   1
  -2  -9   0 34.8945 3.96084   1
  -2  -9   0 41.9640 4.34594   1
  -2  -9   0 26.4091 3.01007   2
  -2  -9   0 21.3382 2.61023   2
  -2  -9   0 47.4967 4.93331   3
  -2  -9   0 38.0332 4.50513   3
   2   9   0 30.0840 3.41896   2
   2   9   0 27.3866 2.73599   2
   2   9   0 41.6083 4.92086   1
   2   9   0 41.3772 4.02255   1
   2   9   0 46.6557 5.43879   3
   2   9   0 46.3814 4.45235   3
  -3  -9   0 0.23301 1.26849   2
  -3  -9   0 -0.0985 1.21591   1
  -3  -9   0 0.58227 1.33630   3
   3   9   0 -0.9264 1.42639   2
   3   9   0 -0.5197 1.11891   2
   3   9   0 1.50126 1.27287   1
   3   9   0 0.14672 1.81870   1
   3   9   0 -0.3934 1.62849   3
   3   9   0 -0.6332 1.18943   3
   5 -10   0 16.3318 1.80189   3
   5 -10   0 18.4505 1.99469   1
   5 -10   0 5.90531 1.04588   2
   4 -10   0 -0.0217 0.51124   2
   4 -10   0 -0.0025 0.56550   3
   4 -10   0 0.89784 0.55781   1
  -4  10   0 -0.3828 1.36990   2
  -4  10   0 2.01408 1.52231   3
  -4  10   0 2.23294 1.60767   1
   3 -10   0 18.2485 1.75407   3
   3 -10   0 10.4836 1.17344   2
   3 -10   0 13.6704 1.48258   1
  -3  10   0 12.2138 2.29414   3
  -3  10   0 18.9972 3.16240   3
  -3  10   0 16.5210 2.13274   1
  -3  10   0 13.4525 1.79984   2
   2 -10   0 35.7746 3.95785   1
   2 -10   0 22.4116 2.47335   2
   2 -10   0 18.4165 2.01088   2
   2 -10   0 37.3551 4.13357   3
   2 -10   0 66.4597 6.08124  -3
   2 -10   0 66.4597 6.08124   1
  -2  10   0 19.1170 2.56913   2
  -2  10   0 22.5586 2.48256   2
  -2  10   0 62.9264 6.93116  -3
  -2  10   0 62.9264 6.93116   1
  -2  10   0 56.1651 7.46737  -3
  -2  10   0 56.1651 7.46737   1
   1 -10   0 241.042 22.8876  -3
   1 -10   0 241.042 22.8876   1
   1 -10   0 237.117 25.0160  -3
   1 -10   0 237.117 25.0160   1
   1 -10   0 84.2859 8.39780   2
   1 -10   0 77.2784 7.57456   2
  -1  10   0 80.2704 8.40672   2
  -1  10   0 80.2556 9.05451   2
  -1  10   0 254.591 27.1758  -3
  -1  10   0 254.591 27.1758   1
   0 -10   0 7.95020 1.23112  -3
   0 -10   0 7.95020 1.23112   1
   0 -10   0 9.08123 1.70300  -3
   0 -10   0 9.08123 1.70300   1
   0 -10   0 -0.3495 0.83500   2
   0 -10   0 0.87116 0.61224   2
   0  10   0 0.91973 0.96918   2
   0  10   0 2.81870 1.93576  -3
   0  10   0 2.81870 1.93576   1
  -1 -10   0 6.22751 0.97875   2
  -1 -10   0 4.03705 1.16939   2
  -1 -10   0 25.1537 2.76830  -3
  -1 -10   0 25.1537 2.76830   1
  -1 -10   0 19.4824 3.07851  -3
  -1 -10   0 19.4824 3.07851   1
   1  10   0 26.0174 3.81128  -3
   1  10   0 26.0174 3.81128   1
   1  10   0 21.8269 2.61900  -3
   1  10   0 21.8269 2.61900   1
   1  10   0 4.71917 1.44202   2
   1  10   0 4.09010 0.74363   2
  -2 -10   0 32.1390 3.11010   3
  -2 -10   0 24.3065 3.35434   3
  -2 -10   0 22.8078 3.01520   1
  -2 -10   0 21.8161 2.64095   1
  -2 -10   0 12.1429 1.79018   2
  -2 -10   0 11.5480 1.57018   2
   2  10   0 31.4669 3.75555   3
   2  10   0 28.5451 3.07174   3
   2  10   0 14.1283 1.55099   2
   2  10   0 12.5976 2.07827   2
   2  10   0 30.1309 3.51392   1
   2  10   0 29.4907 2.83941   1
  -3 -10   0 3.71628 1.55787   2
  -3 -10   0 2.57454 1.56313   1
  -3 -10   0 3.43897 1.70902   3
   3  10   0 7.30638 2.05144   3
   3  10   0 2.62886 1.36359   3
   3  10   0 1.06846 1.20288   2
   3  10   0 2.61464 1.68466   2
   3  10   0 4.81062 2.07191   1
   3  10   0 6.08168 1.51547   1
   4 -11   0 0.95629 0.68870   3
   4 -11   0 2.07144 0.72204   1
   4 -11   0 0.26211 0.61729   2
  -4  11   0 3.76309 1.87150   1
  -4  11   0 0.38634 1.48035   3
  -4  11   0 1.66560 1.56288   2
   3 -11   0 22.9455 2.39597   1
   3 -11   0 25.8918 2.91616   1
   3 -11   0 3.48974 1.27826   3
   3 -11   0 3.11155 0.69600   3
   3 -11   0 1.05421 0.52832   2
  -3  11   0 1.29539 1.32887   3
  -3  11   0 1.43896 1.15637   2
  -3  11   0 23.0258 2.95272   1
   2 -11   0 64.5733 6.85606   1
   2 -11   0 44.6724 4.24752   2
   2 -11   0 46.4716 4.82380   2
   2 -11   0 73.9245 7.86457   3
  -2  11   0 37.1672 4.79302   2
  -2  11   0 47.9900 5.29163   2
  -2  11   0 152.556 15.9236  -3
  -2  11   0 152.556 15.9236   1
  -2  11   0 129.888 14.5962  -3
  -2  11   0 129.888 14.5962   1
   1 -11   0 19.5949 1.91764   2
   1 -11   0 17.5610 2.32581   2
   1 -11   0 59.4988 6.28672  -3
   1 -11   0 59.4988 6.28672   1
   1 -11   0 58.6601 5.66517  -3
   1 -11   0 58.6601 5.66517   1
  -1  11   0 16.0518 2.37027   2
  -1  11   0 15.5505 2.42816   2
  -1  11   0 56.6971 6.97421  -3
  -1  11   0 56.6971 6.97421   1
   0 -11   0 67.8018 7.04833  -3
   0 -11   0 67.8018 7.04833   1
   0 -11   0 63.6751 6.30687  -3
   0 -11   0 63.6751 6.30687   1
   0 -11   0 23.6065 2.42613   2
   0 -11   0 17.5020 1.93154   2
   0  11   0 15.6224 2.42765   2
   0  11   0 66.1122 7.70245  -3
   0  11   0 66.1122 7.70245   1
  -1 -11   0 14.6517 2.41885  -3
  -1 -11   0 14.6517 2.41885   1
  -1 -11   0 12.2119 2.71736  -3
  -1 -11   0 12.2119 2.71736   1
  -1 -11   0 4.77699 1.41966   2
  -1 -11   0 2.25365 0.94782   2
   1  11   0 10.2613 1.81828  -3
   1  11   0 10.2613 1.81828   1
   1  11   0 15.6250 3.23847  -3
   1  11   0 15.6250 3.23847   1
   1  11   0 1.76736 0.66603   2
   1  11   0 2.12145 1.29850   2
  -2 -11   0 5.38172 1.69151   3
  -2 -11   0 4.39252 1.55333   3
  -2 -11   0 3.64419 1.11765   2
  -2 -11   0 1.96617 1.22814   2
  -2 -11   0 1.71628 1.23279   1
  -2 -11   0 5.45406 1.56311   1
   2  11   0 5.46681 1.14195   3
   2  11   0 1.63496 1.72533   3
   2  11   0 2.03768 1.60624   2
   2  11   0 2.15946 0.89943   2
   2  11   0 3.53410 1.21334   1
   2  11   0 4.96002 1.99647   1
   4 -12   0 16.5055 2.58975   3
   4 -12   0 7.74572 1.10274   2
   4 -12   0 14.5292 2.39744   1
   4 -12   0 10.8625 1.37634   1
  -4  12   0 7.58970 1.83822   2
  -4  12   0 12.9033 2.43873   3
  -4  12   0 10.9016 2.44434   1
   3 -12   0 0.31743 1.36942   3
   3 -12   0 0.54104 0.80226   3
   3 -12   0 4.55312 0.86672   1
   3 -12   0 3.86614 1.48695   1
   3 -12   0 0.41661 0.63066   2
   3 -12   0 -0.3032 1.43143   2
  -3  12   0 0.43392 1.45723   3
  -3  12   0 4.29001 1.62403   1
  -3  12   0 0.43684 1.29495   2
   2 -12   0 1.05057 1.11326   1
   2 -12   0 -0.1441 0.65609   2
   2 -12   0 -0.0043 1.28853   2
   2 -12   0 -0.7158 1.16905   3
   2 -12   0 1.79942 1.38995  -3
   2 -12   0 1.79942 1.38995   1
  -2  12   0 3.72135 3.12485  -3
  -2  12   0 3.72135 3.12485   1
  -2  12   0 1.10099 1.24412   2
  -2  12   0 2.92040 1.50827   2
   1 -12   0 2.02205 1.29363  -3
   1 -12   0 2.02205 1.29363   1
   1 -12   0 1.64680 1.97024  -3
   1 -12   0 1.64680 1.97024   1
   1 -12   0 1.00842 1.32553   2
   1 -12   0 0.21104 0.75844   2
  -1  12   0 3.02569 2.53043  -3
  -1  12   0 3.02569 2.53043   1
  -1  12   0 0.53944 1.28859   2
   0 -12   0 1.99186 0.85294   2
   0 -12   0 0.98251 1.17846   2
   0 -12   0 11.0241 1.77838  -3
   0 -12   0 11.0241 1.77838   1
   0 -12   0 12.1317 2.15761  -3
   0 -12   0 12.1317 2.15761   1
   0  12   0 7.29835 2.97062  -3
   0  12   0 7.29835 2.97062   1
   0  12   0 1.18503 1.40071   2
  -1 -12   0 -1.6563 1.15483   2
  -1 -12   0 -1.0840 1.23340   2
  -1 -12   0 0.05578 2.44039  -3
  -1 -12   0 0.05578 2.44039   1
  -1 -12   0 -1.4645 2.33968  -3
  -1 -12   0 -1.4645 2.33968   1
   1  12   0 -0.2491 1.47403   2
   1  12   0 0.65829 0.65244   2
   1  12   0 1.00453 3.52892  -3
   1  12   0 1.00453 3.52892   1
   1  12   0 1.22136 1.56681  -3
   1  12   0 1.22136 1.56681   1
  -2 -12   0 14.8234 2.60674   3
  -2 -12   0 5.74710 1.84034   2
  -2 -12   0 8.07067 1.48866   2
  -2 -12   0 11.1663 1.99483   1
   2  12   0 10.6212 1.65441   1
   2  12   0 10.1615 2.81468   1
   2  12   0 6.37242 1.20715   2
   2  12   0 5.81444 2.08504   2
   2  12   0 20.7321 2.94019   3
   2  12   0 12.7639 1.84145   3
   3 -13   0 1.02447 0.87667   3
   3 -13   0 -0.2005 1.75530   3
   3 -13   0 2.60547 0.87609   1
   3 -13   0 4.97647 1.81308   1
   3 -13   0 0.75989 0.80696   2
   3 -13   0 1.45679 1.57736   2
  -3  13   0 2.79649 1.91303   1
  -3  13   0 0.55975 1.64563   3
  -3  13   0 0.60346 1.55514   2
   2 -13   0 77.7150 9.49760  -3
   2 -13   0 77.7150 9.49760   1
   2 -13   0 91.7514 8.43503  -3
   2 -13   0 91.7514 8.43503   1
   2 -13   0 22.4363 2.50153   2
   2 -13   0 20.7029 3.01188   2
  -2  13   0 87.9244 10.5650  -3
  -2  13   0 87.9244 10.5650   1
  -2  13   0 22.9421 3.08572   2
  -2  13   0 28.0231 3.31637   2
   1 -13   0 5.17773 1.55505   2
   1 -13   0 3.48663 0.94725   2
   1 -13   0 15.2165 2.55942  -3
   1 -13   0 15.2165 2.55942   1
   1 -13   0 15.4174 2.00925  -3
   1 -13   0 15.4174 2.00925   1
  -1  13   0 11.4021 3.16870  -3
  -1  13   0 11.4021 3.16870   1
  -1  13   0 2.83505 1.59900   2
   0 -13   0 59.8540 6.27937  -3
   0 -13   0 59.8540 6.27937   1
   0 -13   0 54.7316 5.51162  -3
   0 -13   0 54.7316 5.51162   1
   0 -13   0 12.0744 2.25629   2
   0 -13   0 17.8536 1.91223   2
   0  13   0 16.4189 2.61875   2
   0  13   0 48.7322 6.85430  -3
   0  13   0 48.7322 6.85430   1
  -1 -13   0 1.26758 2.39212  -3
  -1 -13   0 1.26758 2.39212   1
  -1 -13   0 1.27890 3.30911  -3
  -1 -13   0 1.27890 3.30911   1
  -1 -13   0 1.42060 1.29251   2
  -1 -13   0 -0.9168 1.69707   2
   1  13   0 -1.5139 4.28288  -3
   1  13   0 -1.5139 4.28288   1
   1  13   0 0.14365 1.52051  -3
   1  13   0 0.14365 1.52051   1
   1  13   0 -0.0124 1.94128   2
   2 -14   0 19.0586 2.59550  -3
   2 -14   0 19.0586 2.59550   1
   2 -14   0 4.08620 1.81495   3
   2 -14   0 3.16321 1.12087   2
   2 -14   0 5.20189 2.05182   2
   2 -14   0 6.26628 2.01102   1
  -2  14   0 4.13154 2.07599   2
  -2  14   0 4.23078 2.19445   2
  -2  14   0 11.8232 4.77613  -3
  -2  14   0 11.8232 4.77613   1
   1 -14   0 4.24680 1.94918  -3
   1 -14   0 4.24680 1.94918   1
   1 -14   0 1.29226 2.47471  -3
   1 -14   0 1.29226 2.47471   1
   1 -14   0 -2.1408 1.74435   2
   1 -14   0 0.29683 0.87733   2
  -1  14   0 1.36961 3.31181  -3
  -1  14   0 1.36961 3.31181   1
  -1  14   0 0.31825 1.89629   2
   0 -14   0 3.02844 2.12233   2
   0 -14   0 2.55105 1.28304   2
   0  14   0 0.50514 1.93354   2
   0  14  -1 16.2466 3.78707  -3
   0  14  -1 16.2466 3.78707   1
   0  14  -1 1.92667 1.89886   2
   0 -14   1 2.36310 1.86790   2
   0 -14   1 5.68681 1.40685   2
   0 -14   1 12.5102 2.98019  -3
   0 -14   1 12.5102 2.98019   1
   0 -14   1 17.9832 2.40384  -3
   0 -14   1 17.9832 2.40384   1
  -1  14  -1 1.58378 1.85393   2
  -1  14  -1 9.27087 3.59279  -3
  -1  14  -1 9.27087 3.59279   1
   1 -14   1 8.13539 2.02014  -3
   1 -14   1 8.13539 2.02014   1
   1 -14   1 8.65615 2.97136  -3
   1 -14   1 8.65615 2.97136   1
   1 -14   1 -0.5913 1.63024   2
   1 -14   1 2.00371 1.00710   2
  -2  14  -1 10.3973 4.47860  -3
  -2  14  -1 10.3973 4.47860   1
  -2  14  -1 2.47249 1.89572   2
   2 -14   1 8.99477 2.10380  -3
   2 -14   1 8.99477 2.10380   1
   2 -14   1 5.42235 3.48120  -3
   2 -14   1 5.42235 3.48120   1
   2 -14   1 4.17429 1.80802   2
   2 -14   1 1.92045 0.88479   2
   1  13  -1 0.53021 1.79936   2
   1  13  -1 -0.0275 1.27185  -3
   1  13  -1 -0.0275 1.27185   1
   1  13  -1 -0.2366 3.80052  -3
   1  13  -1 -0.2366 3.80052   1
  -1 -13   1 -0.9491 2.50391  -3
  -1 -13   1 -0.9491 2.50391   1
  -1 -13   1 0.23812 2.84397  -3
  -1 -13   1 0.23812 2.84397   1
  -1 -13   1 0.30665 1.00420   2
  -1 -13   1 0.29512 1.37303   2
   0  13  -1 7.23634 1.93056   2
   0  13  -1 25.5513 4.10392  -3
   0  13  -1 25.5513 4.10392   1
   0 -13   1 24.7033 2.93475  -3
   0 -13   1 24.7033 2.93475   1
   0 -13   1 24.7792 3.40799  -3
   0 -13   1 24.7792 3.40799   1
   0 -13   1 5.46077 1.13055   2
   0 -13   1 4.34996 1.54831   2
  -1  13  -1 1.93525 1.61124   2
  -1  13  -1 15.3645 3.54463  -3
  -1  13  -1 15.3645 3.54463   1
   1 -13   1 5.13933 0.89700   2
   1 -13   1 3.73444 1.56925   2
   1 -13   1 15.6333 2.18652  -3
   1 -13   1 15.6333 2.18652   1
   1 -13   1 20.7687 2.87774  -3
   1 -13   1 20.7687 2.87774   1
  -2  13  -1 9.52966 3.77769  -3
  -2  13  -1 9.52966 3.77769   1
  -2  13  -1 1.33645 1.56870   2
  -2  13  -1 2.33269 1.59120   2
   2 -13   1 1.08719 0.78298   2
   2 -13   1 0.80112 1.44406   2
   2 -13   1 8.73428 1.63635  -3
   2 -13   1 8.73428 1.63635   1
   2 -13   1 7.04081 2.91236  -3
   2 -13   1 7.04081 2.91236   1
  -3  13  -1 8.22090 1.95986   2
  -3  13  -1 6.46286 2.16637   3
  -3  13  -1 12.5691 2.48781   1
   3 -13   1 18.0420 1.75531   1
   3 -13   1 14.8606 2.41995   1
   3 -13   1 13.0594 2.20654   3
   3 -13   1 14.9263 1.49374   3
   3 -13   1 6.99578 1.79644   2
   2  12  -1 20.3938 2.20456   2
   2  12  -1 25.4222 3.21598   2
   2  12  -1 37.1369 5.21795   1
   2  12  -1 43.9638 4.24134   1
   2  12  -1 48.5279 5.90745   3
   2  12  -1 43.4388 4.59930   3
  -2 -12   1 39.7268 4.79169   1
  -2 -12   1 16.3694 2.31135   2
  -2 -12   1 21.5172 2.77829   2
  -2 -12   1 46.7652 5.34428   3
   1  12  -1 11.8064 2.06847   2
   1  12  -1 51.0175 6.40206  -3
   1  12  -1 51.0175 6.40206   1
   1  12  -1 48.4968 4.80066  -3
   1  12  -1 48.4968 4.80066   1
  -1 -12   1 8.86139 1.34573   2
  -1 -12   1 9.78951 1.72997   2
  -1 -12   1 50.1174 5.70449  -3
  -1 -12   1 50.1174 5.70449   1
  -1 -12   1 46.8812 5.04770  -3
  -1 -12   1 46.8812 5.04770   1
   0  12  -1 3.93730 1.45738   2
   0  12  -1 18.6871 3.07429  -3
   0  12  -1 18.6871 3.07429   1
   0 -12   1 2.60112 0.87040   2
   0 -12   1 4.28849 1.18719   2
   0 -12   1 18.2649 2.44153  -3
   0 -12   1 18.2649 2.44153   1
   0 -12   1 16.2132 2.14753  -3
   0 -12   1 16.2132 2.14753   1
  -1  12  -1 41.5222 5.00398  -3
  -1  12  -1 41.5222 5.00398   1
  -1  12  -1 10.7003 1.90893   2
   1 -12   1 11.0886 1.29076   2
   1 -12   1 11.8607 1.80773   2
   1 -12   1 37.4544 3.73769  -3
   1 -12   1 37.4544 3.73769   1
   1 -12   1 34.3959 4.34754  -3
   1 -12   1 34.3959 4.34754   1
  -2  12  -1 11.5714 3.18287  -3
  -2  12  -1 11.5714 3.18287   1
  -2  12  -1 5.08995 1.52065   1
  -2  12  -1 -0.0685 1.33894   2
  -2  12  -1 -0.0947 1.39366   2
  -2  12  -1 0.00993 1.23814   3
   2 -12   1 -0.1435 1.26635   2
   2 -12   1 0.20675 0.54271   2
   2 -12   1 9.22369 2.43623  -3
   2 -12   1 9.22369 2.43623   1
   2 -12   1 4.59867 1.40890  -3
   2 -12   1 4.59867 1.40890   1
  -3  12  -1 1.77587 1.38545   3
  -3  12  -1 0.87738 2.28317   3
  -3  12  -1 -0.1560 1.46932   2
  -3  12  -1 1.98380 1.64586   1
   3 -12   1 4.74092 1.39791   1
   3 -12   1 0.74323 0.56207   3
   3 -12   1 0.28945 1.28124   3
   3 -12   1 0.10282 1.40377   2
   3 -12   1 0.23751 0.54168   2
  -4  12  -1 2.03370 1.75231   2
  -4  12  -1 7.58092 2.36788   1
   4 -12   1 1.83885 1.78106   2
   4 -12   1 13.2020 2.34320   1
   3  11  -1 0.08447 1.30875   3
   3  11  -1 2.22615 1.25757   2
   3  11  -1 0.55512 2.07524   2
   3  11  -1 1.39416 1.38723   1
  -3 -11   1 -0.2704 1.64938   1
  -3 -11   1 -0.8507 1.64565   2
  -3 -11   1 0.14695 1.58337   3
   2  11  -1 1.25710 2.11733  -3
   2  11  -1 1.25710 2.11733   1
   2  11  -1 0.64706 0.84438   2
   2  11  -1 0.17299 1.55464   2
   2  11  -1 2.40974 1.86937   1
   2  11  -1 2.26508 1.66489   3
  -2 -11   1 0.72723 0.93418   2
  -2 -11   1 -0.3585 1.27380   2
  -2 -11   1 0.55967 0.99178   1
  -2 -11   1 1.20400 1.36764   1
  -2 -11   1 0.52625 1.08779   3
  -2 -11   1 2.09553 1.34221   3
   1  11  -1 158.471 16.4635  -3
   1  11  -1 158.471 16.4635   1
   1  11  -1 149.200 13.6872  -3
   1  11  -1 149.200 13.6872   1
   1  11  -1 38.2411 4.82989   2
   1  11  -1 39.2282 3.83646   2
  -1 -11   1 40.3955 4.39776   2
  -1 -11   1 40.3386 3.97336   2
  -1 -11   1 147.300 15.1052  -3
  -1 -11   1 147.300 15.1052   1
  -1 -11   1 129.790 13.7710  -3
  -1 -11   1 129.790 13.7710   1
   0  11  -1 4.64587 2.29408  -3
   0  11  -1 4.64587 2.29408   1
   0  11  -1 1.46031 1.25582   2
   0 -11   1 7.47751 1.29832  -3
   0 -11   1 7.47751 1.29832   1
   0 -11   1 6.68456 1.51351  -3
   0 -11   1 6.68456 1.51351   1
   0 -11   1 1.02718 0.66703   2
   0 -11   1 -0.4462 1.06589   2
  -1  11  -1 2.29242 2.12771  -3
  -1  11  -1 2.29242 2.12771   1
  -1  11  -1 0.57292 1.17381   2
   1 -11   1 1.68211 1.02937  -3
   1 -11   1 1.68211 1.02937   1
   1 -11   1 1.97546 1.59037  -3
   1 -11   1 1.97546 1.59037   1
   1 -11   1 0.47892 0.98381   2
   1 -11   1 -0.5611 0.56759   2
  -2  11  -1 62.7794 6.22572  -3
  -2  11  -1 62.7794 6.22572   1
  -2  11  -1 14.2705 2.31987   2
  -2  11  -1 19.6764 2.50377   2
  -2  11  -1 22.6929 2.76460   1
  -2  11  -1 21.9591 2.74387   3
   2 -11   1 48.0803 5.55478  -3
   2 -11   1 48.0803 5.55478   1
   2 -11   1 46.5943 4.74026  -3
   2 -11   1 46.5943 4.74026   1
   2 -11   1 19.2200 2.33205   2
  -3  11  -1 1.40907 2.21826   1
  -3  11  -1 -0.0525 1.31660   1
  -3  11  -1 1.03730 1.46336   3
  -3  11  -1 4.19073 1.48905   3
  -3  11  -1 2.66574 1.32959   2
   3 -11   1 3.43958 1.25617   3
   3 -11   1 2.79468 1.30514   2
   3 -11   1 5.13179 1.39057   1
  -4  11  -1 1.61531 1.46595   2
  -4  11  -1 3.24487 1.80226   1
   4 -11   1 6.95748 1.81025   1
   4 -11   1 -0.0867 0.52350   2
   3  10  -1 0.76059 1.06400   2
   3  10  -1 0.50594 1.66560   2
   3  10  -1 1.26382 1.30998   1
   3  10  -1 1.50626 1.23158   3
   3  10  -1 0.66818 1.93526   3
  -3 -10   1 0.13430 1.21048   1
  -3 -10   1 0.77862 1.51849   3
  -3 -10   1 -0.8822 1.35658   2
   2  10  -1 17.0249 2.68254   1
   2  10  -1 18.6978 1.96875   1
   2  10  -1 9.51832 1.83813   2
   2  10  -1 9.21203 1.29338   2
   2  10  -1 15.1062 2.67607   3
   2  10  -1 18.9579 2.11464   3
  -2 -10   1 15.0811 2.19960   1
  -2 -10   1 17.4548 1.96171   1
  -2 -10   1 11.8196 1.39348   2
  -2 -10   1 10.0341 1.58663   2
  -2 -10   1 21.3458 2.20572   3
  -2 -10   1 21.5573 2.57073   3
   1  10  -1 11.7502 1.34129   2
   1  10  -1 10.4562 1.87595   2
   1  10  -1 44.1878 4.50771  -3
   1  10  -1 44.1878 4.50771   1
   1  10  -1 53.4525 5.75537  -3
   1  10  -1 53.4525 5.75537   1
  -1 -10   1 11.0720 1.74850   2
  -1 -10   1 17.4348 1.59130   2
  -1 -10   1 43.0396 5.13916  -3
  -1 -10   1 43.0396 5.13916   1
  -1 -10   1 46.5520 4.66385  -3
  -1 -10   1 46.5520 4.66385   1
   0  10  -1 0.93922 1.10824   2
   0  10  -1 22.0700 3.21898  -3
   0  10  -1 22.0700 3.21898   1
   0 -10   1 1.90175 0.92138   2
   0 -10   1 2.67588 0.63721   2
   0 -10   1 24.1669 2.83193  -3
   0 -10   1 24.1669 2.83193   1
   0 -10   1 23.3654 2.42095  -3
   0 -10   1 23.3654 2.42095   1
  -1  10  -1 103.690 10.8593   2
  -1  10  -1 88.3398 10.0067   2
  -1  10  -1 347.760 37.7180  -3
  -1  10  -1 347.760 37.7180   1
   1 -10   1 332.807 31.8244  -3
   1 -10   1 332.807 31.8244   1
   1 -10   1 339.247 34.7635  -3
   1 -10   1 339.247 34.7635   1
   1 -10   1 99.4360 10.0117   2
   1 -10   1 94.6777 9.07940   2
  -2  10  -1 1.47116 1.05228   2
  -2  10  -1 0.83116 0.91361   2
  -2  10  -1 15.8795 2.96010  -3
  -2  10  -1 15.8795 2.96010   1
  -2  10  -1 2.56196 1.04717   3
  -2  10  -1 16.6428 1.94391   1
   2 -10   1 0.50809 0.41626   2
   2 -10   1 1.52668 0.89693   2
   2 -10   1 12.8453 1.84860   1
   2 -10   1 1.21971 0.96069   3
  -3  10  -1 0.30871 1.20337   3
  -3  10  -1 2.04631 1.21981   3
  -3  10  -1 18.4017 2.67716   1
  -3  10  -1 18.5103 2.53715   1
  -3  10  -1 -0.7896 0.99727   2
   3 -10   1 24.3507 2.56286   1
   3 -10   1 1.05390 1.03744   3
  -4  10  -1 5.26378 1.67659   1
  -4  10  -1 1.43505 1.32554   2
  -4  10  -1 1.11892 1.66789   3
   4 -10   1 1.14398 0.50479   2
   4 -10   1 5.03969 0.70538   1
   5 -10   1 39.2565 3.90780   3
   5 -10   1 36.1843 3.58208   1
   5 -10   1 22.0368 2.39424   2
   4   9  -1 13.7425 2.32363   1
   4   9  -1 19.7489 2.61899   3
   4   9  -1 11.8027 1.99089   2
  -4  -9   1 18.8788 2.82708   3
  -4  -9   1 9.78668 2.07620   2
  -4  -9   1 15.7827 2.37334   1
   3   9  -1 6.98735 1.37924   2
   3   9  -1 10.9343 1.87496   2
   3   9  -1 24.1778 2.42921   3
   3   9  -1 22.5455 2.98521   3
   3   9  -1 16.2460 1.88359   1
   3   9  -1 15.3426 2.64263   1
  -3  -9   1 9.84861 1.55939   2
  -3  -9   1 16.4947 2.68398   3
  -3  -9   1 11.3844 1.91600   1
   2   9  -1 13.6929 2.25752   3
   2   9  -1 5.50310 1.37778   2
   2   9  -1 5.57066 1.02463   2
   2   9  -1 19.8111 2.62793  -3
   2   9  -1 19.8111 2.62793   1
   2   9  -1 8.88361 1.82055   1
  -2  -9   1 18.2572 1.82018   3
  -2  -9   1 11.3424 1.99179   3
  -2  -9   1 6.31526 1.18255   2
  -2  -9   1 6.32510 1.01180   2
  -2  -9   1 7.21853 1.44188   1
  -2  -9   1 12.2503 1.32227   1
   1   9  -1 1.73632 1.01380   2
   1   9  -1 0.81293 0.53009   2
   1   9  -1 17.7886 3.38992  -3
   1   9  -1 17.7886 3.38992   1
   1   9  -1 19.2438 2.47524  -3
   1   9  -1 19.2438 2.47524   1
  -1  -9   1 34.8922 2.69566  -3
  -1  -9   1 34.8922 2.69566   1
  -1  -9   1 22.7613 2.95554  -3
  -1  -9   1 22.7613 2.95554   1
  -1  -9   1 2.28971 0.98672   2
  -1  -9   1 0.89085 0.72276   2
   0   9  -1 478.978 46.2449  -3
   0   9  -1 478.978 46.2449   1
   0   9  -1 128.713 13.7355   2
   0  -9   1 122.656 11.5539   2
   0  -9   1 116.577 12.6510   2
   0  -9   1 383.595 39.0349  -3
   0  -9   1 383.595 39.0349   1
   0  -9   1 400.030 42.5881  -3
   0  -9   1 400.030 42.5881   1
  -1   9  -1 78.0117 8.78211  -3
  -1   9  -1 78.0117 8.78211   1
  -1   9  -1 17.7668 2.25317   2
  -1   9  -1 17.1739 2.34309   2
   1  -9   1 21.4285 2.27471   2
   1  -9   1 18.2480 1.86026   2
   1  -9   1 74.8421 7.29045  -3
   1  -9   1 74.8421 7.29045   1
   1  -9   1 80.3502 8.07828  -3
   1  -9   1 80.3502 8.07828   1
  -2   9  -1 53.0562 5.08954   1
  -2   9  -1 5.44823 1.07583   2
  -2   9  -1 1.61407 0.84247   2
  -2   9  -1 51.6268 6.14622  -3
  -2   9  -1 51.6268 6.14622   1
  -2   9  -1 7.01157 1.27246   3
   2  -9   1 2.96648 0.44735   2
   2  -9   1 1.87412 0.92169   2
   2  -9   1 44.8069 4.43690   1
   2  -9   1 50.6250 5.04383   1
   2  -9   1 5.53691 1.19558   3
   2  -9   1 6.09897 0.72303   3
  -3   9  -1 0.63733 0.90644   2
  -3   9  -1 3.72412 1.10157   1
  -3   9  -1 1.63497 1.06117   1
  -3   9  -1 1.15378 1.01063   3
  -3   9  -1 0.86554 0.95645   3
  -3   9  -1 1.77183 1.09709   3
   3  -9   1 3.85731 1.87718   3
  -4   9  -1 6.22915 1.69223   3
  -4   9  -1 2.87288 1.28625   2
   4  -9   1 3.09229 0.59797   2
   4  -9   1 10.1594 1.03616   3
   4  -9   1 6.94919 1.77234   3
   5  -9   1 61.6803 5.95661   3
   5  -9   1 49.7907 4.83871   1
   5  -9   1 28.1384 2.93791   2
   4   8  -1 1.50935 1.36959   2
   4   8  -1 5.55541 2.13606   1
  -4  -8   1 2.08117 1.42363   2
  -4  -8   1 4.44879 1.62834   3
  -4  -8   1 3.51227 1.38080   1
   3   8  -1 4.11298 1.17424   1
   3   8  -1 5.95223 1.61351   1
   3   8  -1 4.81146 1.48706   1
   3   8  -1 6.38535 1.28571   3
   3   8  -1 8.17316 1.77972   3
   3   8  -1 9.90551 1.62002   3
   3   8  -1 4.20220 1.36879   2
   3   8  -1 2.32223 1.36548   2
   3   8  -1 3.85549 0.97781   2
  -3  -8   1 3.41805 1.09120   1
  -3  -8   1 4.63641 1.26705   3
  -3  -8   1 2.26776 1.02219   2
   2   8  -1 17.5175 2.38927   1
   2   8  -1 16.0095 1.85294   1
   2   8  -1 46.1309 5.37786  -3
   2   8  -1 46.1309 5.37786   1
   2   8  -1 12.7745 1.78982   2
   2   8  -1 12.0248 1.37651   2
   2   8  -1 11.9284 1.73449   2
   2   8  -1 28.8257 2.92369   3
   2   8  -1 32.0621 3.55327   3
  -2  -8   1 15.9659 2.04077   1
  -2  -8   1 17.6758 1.82088   1
  -2  -8   1 8.65538 1.53123   2
  -2  -8   1 13.5849 1.41675   2
  -2  -8   1 22.7205 2.85102   3
  -2  -8   1 31.4714 3.26062   3
   1   8  -1 35.4476 4.80504  -3
   1   8  -1 35.4476 4.80504   1
   1   8  -1 45.5120 5.19673  -3
   1   8  -1 45.5120 5.19673   1
   1   8  -1 42.3743 4.19477  -3
   1   8  -1 42.3743 4.19477   1
   1   8  -1 7.62503 1.08466   2
   1   8  -1 8.88144 1.48129   2
   1   8  -1 11.2513 1.50589   2
  -1  -8   1 10.6592 1.41186   2
  -1  -8   1 15.2344 1.26216   2
  -1  -8   1 47.8723 4.26605  -3
  -1  -8   1 47.8723 4.26605   1
  -1  -8   1 45.4002 4.69056  -3
  -1  -8   1 45.4002 4.69056   1
   0   8  -1 12.1796 1.50969   2
   0   8  -1 10.2183 1.58030   2
   0   8  -1 55.8165 5.19770  -3
   0   8  -1 55.8165 5.19770   1
   0   8  -1 55.2329 5.20525  -3
   0   8  -1 55.2329 5.20525   1
   0   8  -1 68.6191 5.99952  -3
   0   8  -1 68.6191 5.99952   1
   0   8  -1 56.8654 6.36328  -3
   0   8  -1 56.8654 6.36328   1
   0  -8   1 49.3772 5.77249  -3
   0  -8   1 49.3772 5.77249   1
   0  -8   1 47.9458 5.24024  -3
   0  -8   1 47.9458 5.24024   1
   0  -8   1 12.5516 1.25194   2
   0  -8   1 11.7170 1.49880   2
  -1   8  -1 28.9020 3.31916   2
  -1   8  -1 28.5259 3.03621   2
  -1   8  -1 28.8681 3.08621   2
  -1   8  -1 121.048 12.5831  -3
  -1   8  -1 121.048 12.5831   1
  -1   8  -1 130.518 13.1990  -3
  -1   8  -1 130.518 13.1990   1
   1  -8   1 109.576 11.0621  -3
   1  -8   1 109.576 11.0621   1
   1  -8   1 115.452 12.1460  -3
   1  -8   1 115.452 12.1460   1
   1  -8   1 24.6053 3.01466   2
  -2   8  -1 -0.4045 0.76155   2
  -2   8  -1 0.61143 0.81177   2
  -2   8  -1 0.47352 0.67365   2
  -2   8  -1 1.46432 0.89454   3
  -2   8  -1 0.63963 0.74217   3
  -2   8  -1 1.76987 0.68707   3
  -2   8  -1 4.50782 0.98366   1
  -2   8  -1 3.42136 1.02093   1
  -2   8  -1 6.28941 0.89999   1
   2  -8   1 5.27231 0.95370   1
   2  -8   1 0.40982 0.79750   3
   2  -8   1 0.93769 0.71904   2
  -3   8  -1 97.9840 9.79406   3
  -3   8  -1 90.7105 9.43645   3
  -3   8  -1 86.8120 10.1993   3
  -3   8  -1 137.491 15.2275   1
  -3   8  -1 134.490 14.6009   1
  -3   8  -1 145.664 14.1026   1
  -3   8  -1 54.2418 5.47353   2
   3  -8   1 49.1889 5.70727   2
   3  -8   1 51.3649 4.85711   2
   3  -8   1 130.513 14.6181   1
   3  -8   1 89.1374 10.2965   3
   3  -8   1 88.0553 9.78527   3
  -4   8  -1 68.2311 6.85395   3
  -4   8  -1 57.5549 6.11517   1
  -4   8  -1 37.2654 4.16208   2
   4  -8   1 40.9566 4.41971   2
   4  -8   1 36.7152 3.63491   2
   4  -8   1 53.7338 5.36855   1
   4  -8   1 65.3744 6.32935   1
   4  -8   1 71.5278 7.10521   3
   4  -8   1 60.2213 6.08752   3
   5  -8   1 2.48558 1.39366   1
   5  -8   1 1.23826 0.73224   1
   5  -8   1 2.35614 1.41953   3
   5  -8   1 0.45974 0.92160   3
   5  -8   1 1.06553 0.80764   2
   5  -8   1 0.80035 1.56605   2
   4   7  -1 7.29555 1.71985   3
   4   7  -1 3.67690 1.65202   2
   4   7  -1 7.23613 1.50233   2
   4   7  -1 5.09833 1.70079   1
  -4  -7   1 3.94657 1.26376   2
  -4  -7   1 4.66156 1.52423   3
  -4  -7   1 7.87171 1.53743   1
   3   7  -1 18.9109 2.21524   1
   3   7  -1 20.7040 2.50960   1
   3   7  -1 23.1610 2.69239   1
   3   7  -1 10.7016 1.72951   2
   3   7  -1 11.9576 1.75998   2
   3   7  -1 12.9045 1.51893   2
   3   7  -1 24.2398 2.81101   3
   3   7  -1 19.4357 2.43301   3
   3   7  -1 27.7954 2.99005   3
  -3  -7   1 10.2583 1.55856   2
  -3  -7   1 15.8392 2.27468   1
  -3  -7   1 19.5236 2.67821   3
   2   7  -1 0.96122 0.87411   1
   2   7  -1 0.22089 1.05335   1
   2   7  -1 -0.6518 0.72584   1
   2   7  -1 -0.5169 0.60855   2
   2   7  -1 -0.1114 0.82355   2
   2   7  -1 0.32995 0.92539   2
   2   7  -1 0.40186 0.85672   3
   2   7  -1 -0.2074 0.68867   3
   2   7  -1 -0.6662 0.95772   3
  -2  -7   1 0.13463 0.68547   1
  -2  -7   1 -0.0007 0.57670   1
  -2  -7   1 -0.0362 0.54808   2
  -2  -7   1 -0.2994 0.65548   2
  -2  -7   1 0.13927 0.67380   3
  -2  -7   1 -0.1936 0.82981   3
   1   7  -1 201.205 21.6916  -3
   1   7  -1 201.205 21.6916   1
   1   7  -1 189.673 19.0574  -3
   1   7  -1 189.673 19.0574   1
   1   7  -1 203.034 22.6327  -3
   1   7  -1 203.034 22.6327   1
   1   7  -1 53.4471 6.14390   2
   1   7  -1 58.4008 5.35807   2
   1   7  -1 53.1390 6.39245   2
  -1  -7   1 56.2154 5.38999   2
  -1  -7   1 60.0995 5.90213   2
  -1  -7   1 212.144 20.8494  -3
  -1  -7   1 212.144 20.8494   1
  -1  -7   1 211.958 19.1077  -3
  -1  -7   1 211.958 19.1077   1
   0   7  -1 34.1394 3.19350   2
   0   7  -1 33.3688 3.72499   2
   0   7  -1 158.351 14.6427  -3
   0   7  -1 158.351 14.6427   1
   0   7  -1 169.876 16.6935  -3
   0   7  -1 169.876 16.6935   1
   0   7  -1 162.088 14.6451  -3
   0   7  -1 162.088 14.6451   1
   0  -7   1 129.590 16.0340  -3
   0  -7   1 129.590 16.0340   1
   0  -7   1 32.7472 3.59259   2
   0  -7   1 33.9157 3.23901   2
  -1   7  -1 34.9570 3.76017  -3
  -1   7  -1 34.9570 3.76017   1
  -1   7  -1 37.5857 4.05008  -3
  -1   7  -1 37.5857 4.05008   1
  -1   7  -1 36.4671 3.72854  -3
  -1   7  -1 36.4671 3.72854   1
  -1   7  -1 4.66356 0.80505   2
  -1   7  -1 4.87332 0.91612   2
  -1   7  -1 5.45897 0.84991   2
   1  -7   1 5.32805 0.58919   2
   1  -7   1 5.38966 0.58516   2
   1  -7   1 5.24410 0.82044   2
   1  -7   1 34.7322 3.25937  -3
   1  -7   1 34.7322 3.25937   1
   1  -7   1 27.5725 3.65451  -3
   1  -7   1 27.5725 3.65451   1
  -2   7  -1 73.9390 8.13847   1
  -2   7  -1 82.0589 7.88538   1
  -2   7  -1 73.0634 8.51698   1
  -2   7  -1 17.4996 2.04364   3
  -2   7  -1 17.1314 2.03860   3
  -2   7  -1 17.7671 2.17995   3
  -2   7  -1 10.3632 1.33655   2
  -2   7  -1 9.60119 1.27670   2
  -2   7  -1 9.36861 1.25393   2
   2  -7   1 8.20619 1.26817   2
  -3   7  -1 23.7846 2.61832   3
  -3   7  -1 20.3234 2.41847   3
  -3   7  -1 20.3912 2.50784   3
  -3   7  -1 57.8051 6.42245   1
  -3   7  -1 60.4440 6.91137   1
  -3   7  -1 63.3906 6.62085   1
  -3   7  -1 11.1332 1.45705   2
   3  -7   1 59.9533 6.96903   1
   3  -7   1 61.9899 6.64580   1
   3  -7   1 9.54385 1.55350   2
   3  -7   1 12.0362 1.16745   2
   3  -7   1 21.3130 2.64495   3
   3  -7   1 19.3577 2.51578   3
  -4   7  -1 1.32649 1.10537   3
  -4   7  -1 1.51498 1.02847   2
  -4   7  -1 0.36966 1.15464   1
   4  -7   1 3.90170 0.56998   1
   4  -7   1 1.86932 1.13768   1
   4  -7   1 1.15414 1.06278   2
   4  -7   1 1.14892 0.55252   2
   4  -7   1 1.13979 1.07563   3
   4  -7   1 1.10488 0.49347   3
   5  -7   1 1.29043 1.41993   3
   5  -7   1 0.88525 0.83922   3
   5  -7   1 0.67641 0.84737   2
   5  -7   1 2.28467 1.53201   2
   5  -7   1 0.67975 0.81454   1
   5  -7   1 0.07724 1.38039   1
   5   6  -1 2.94237 2.22271   2
   5   6  -1 0.14736 1.90155   3
   5   6  -1 1.97926 1.78368   1
  -5  -6   1 0.10554 1.32102   1
  -5  -6   1 -1.1412 1.75398   2
  -5  -6   1 1.29503 1.46685   3
   4   6  -1 39.5389 4.37028   1
   4   6  -1 40.5654 4.78739   3
   4   6  -1 19.1260 2.74949   2
  -4  -6   1 35.7256 3.76902   1
  -4  -6   1 34.6110 4.04037   1
  -4  -6   1 45.8532 4.30332   3
  -4  -6   1 39.7031 4.68252   3
  -4  -6   1 20.0288 2.46451   2
   3   6  -1 -0.1673 1.02028   2
   3   6  -1 -0.0967 0.94909   2
   3   6  -1 0.15767 0.87170   2
   3   6  -1 -0.0141 0.89609   1
   3   6  -1 -0.3387 0.85746   1
   3   6  -1 0.40555 1.16413   1
   3   6  -1 -0.4946 0.80817   3
   3   6  -1 -0.2197 1.17596   3
   3   6  -1 -0.3865 0.92551   3
  -3  -6   1 -0.8270 0.74734   1
  -3  -6   1 0.36890 0.92585   3
  -3  -6   1 -0.0375 0.74735   2
   2   6  -1 56.1806 6.61273   1
   2   6  -1 58.7594 6.31930   1
   2   6  -1 53.8876 5.57291   1
   2   6  -1 34.7268 3.58017   2
   2   6  -1 35.7524 4.25846   2
   2   6  -1 37.1684 4.08260   2
   2   6  -1 57.9660 6.12468   3
   2   6  -1 64.1377 6.95792   3
   2   6  -1 68.3280 7.29385   3
  -2  -6   1 41.0907 3.90688   2
  -2  -6   1 33.5796 3.56111   2
  -2  -6   1 57.8928 5.55415   1
  -2  -6   1 62.9787 6.07971   1
  -2  -6   1 67.1836 6.69278   3
  -2  -6   1 63.3969 6.14201   3
   1   6  -1 -0.1410 0.37762   2
   1   6  -1 -0.8471 0.57084   2
   1   6  -1 0.58549 0.67300   2
   1   6  -1 24.2061 2.80491  -3
   1   6  -1 24.2061 2.80491   1
   1   6  -1 12.5106 2.54245  -3
   1   6  -1 12.5106 2.54245   1
   1   6  -1 22.8987 2.27053  -3
   1   6  -1 22.8987 2.27053   1
  -1  -6   1 24.0111 2.49989  -3
  -1  -6   1 24.0111 2.49989   1
  -1  -6   1 28.4563 2.30458  -3
  -1  -6   1 28.4563 2.30458   1
  -1  -6   1 0.21407 0.45458   2
  -1  -6   1 -0.4354 0.51901   2
   0   6  -1 1115.34 113.610  -3
   0   6  -1 1115.34 113.610   1
   0   6  -1 1089.00 99.8903  -3
   0   6  -1 1089.00 99.8903   1
   0   6  -1 1086.61 99.8889  -3
   0   6  -1 1086.61 99.8889   1
   0   6  -1 1126.44 118.326  -3
   0   6  -1 1126.44 118.326   1
   0   6  -1 348.439 33.3256   2
   0   6  -1 364.606 33.3277   2
   0   6  -1 364.882 37.9341   2
   0   6  -1 375.783 39.5125   2
   0  -6   1 351.771 33.3990   2
   0  -6   1 344.524 33.3971   2
   0  -6   1 344.823 36.4261   2
   0  -6   1 1047.74 109.056  -3
   0  -6   1 1047.74 109.056   1
   0  -6   1 946.145 100.062  -3
   0  -6   1 946.145 100.062   1
  -1   6  -1 6.19986 0.73193  -3
  -1   6  -1 6.19986 0.73193   1
  -1   6  -1 0.48010 0.44670   2
  -1   6  -1 -0.3605 0.37128   2
  -1   6  -1 4.42500 0.72337   1
  -1   6  -1 1.04025 0.53973   3
  -1   6  -1 7.14497 1.72951  -3
  -1   6  -1 7.14497 1.72951  -2
  -1   6  -1 7.14497 1.72951   1
   1  -6   1 3.83206 0.66371   1
   1  -6   1 0.73698 0.48775   3
   1  -6   1 -0.1919 0.19416   2
   1  -6   1 -0.1786 0.20588   2
   1  -6   1 -0.1346 0.41073   2
   1  -6   1 1.50731 0.41721  -3
   1  -6   1 1.50731 0.41721   1
   1  -6   1 2.37371 0.40408  -3
   1  -6   1 2.37371 0.40408   1
  -2   6  -1 3.53433 0.76365   3
  -2   6  -1 7.53219 0.97658   3
  -2   6  -1 4.85737 0.81410   3
  -2   6  -1 -0.5032 0.55442   2
  -2   6  -1 0.74038 0.61999   2
  -2   6  -1 3.14251 0.61878   2
  -2   6  -1 222.554 23.3641   1
  -2   6  -1 228.877 24.3427   1
  -2   6  -1 205.628 22.4542   1
   2  -6   1 0.11561 0.64023   2
   2  -6   1 218.007 23.3724   1
  -3   6  -1 5.01930 0.96226   3
  -3   6  -1 9.59288 1.13159   3
  -3   6  -1 5.90867 0.98355   3
  -3   6  -1 1.43613 0.72709   2
   3  -6   1 4.00000 0.59177   3
   3  -6   1 8.67813 1.08406   3
   3  -6   1 5.12117 1.14100   3
   3  -6   1 3.76731 0.57295   3
   3  -6   1 4.71079 0.48472   2
   3  -6   1 1.35383 0.81756   2
  -4   6  -1 16.2964 2.69398   3
  -4   6  -1 10.1980 1.46522   2
  -4   6  -1 20.7457 2.54196   1
   4  -6   1 21.4283 2.19016   1
   4  -6   1 23.4915 2.68142   1
   4  -6   1 11.6844 1.20143   2
   4  -6   1 8.96755 1.58235   2
   4  -6   1 25.5156 2.62336   3
   4  -6   1 19.8415 2.11782   3
   5  -6   1 19.8546 2.43517   1
   5  -6   1 16.5386 1.87849   1
   5  -6   1 14.3970 1.56016   2
   5  -6   1 9.79859 1.96605   2
   5  -6   1 19.3102 2.11802   3
   5  -6   1 21.0794 2.64727   3
   5   5  -1 -0.7206 1.64769   3
   5   5  -1 1.06042 1.80661   1
   5   5  -1 0.01481 1.89563   2
  -5  -5   1 -0.2221 1.26442   2
  -5  -5   1 -0.0009 1.47456   2
  -5  -5   1 -1.0300 1.29068   3
  -5  -5   1 1.24247 1.13814   1
   4   5  -1 0.02034 1.13797   2
   4   5  -1 1.38540 1.27016   1
   4   5  -1 1.31997 1.15151   3
  -4  -5   1 1.10524 1.16672   3
  -4  -5   1 0.93220 0.88114   3
  -4  -5   1 0.69021 0.95523   2
  -4  -5   1 0.24136 0.91795   2
  -4  -5   1 0.91127 1.06792   1
  -4  -5   1 0.99515 0.75771   1
   3   5  -1 0.05389 0.80641   2
   3   5  -1 0.99635 0.93130   2
   3   5  -1 0.37692 0.96298   2
   3   5  -1 1.88854 0.79966   3
   3   5  -1 1.51345 1.00567   3
   3   5  -1 1.27256 0.80374   3
   3   5  -1 0.38236 0.92838   1
   3   5  -1 1.39976 0.94651   1
   3   5  -1 1.03789 1.06254   1
  -3  -5   1 1.34169 0.70941   1
  -3  -5   1 0.31265 0.47507   1
  -3  -5   1 1.85935 0.68281   3
  -3  -5   1 2.35733 0.91863   3
  -3  -5   1 0.99764 0.74378   2
  -3  -5   1 0.16618 0.57278   2
   2   5  -1 60.2695 5.97919   3
   2   5  -1 63.3138 7.08368   3
   2   5  -1 66.3722 6.78879   3
   2   5  -1 66.1124 7.03954   1
   2   5  -1 60.9764 6.70406   1
   2   5  -1 63.6459 5.92859   1
   2   5  -1 34.1863 3.44581   2
   2   5  -1 31.0893 3.90467   2
   2   5  -1 37.1484 4.10758   2
  -2  -5   1 60.0136 5.89563   1
  -2  -5   1 64.0162 5.87300   1
  -2  -5   1 57.9448 6.41789   1
  -2  -5   1 36.3031 3.74762   2
  -2  -5   1 37.3385 3.44965   2
  -2  -5   1 36.6343 3.44983   2
  -2  -5   1 60.6736 5.99258   3
  -2  -5   1 60.9040 5.97371   3
  -2  -5   1 64.4303 6.52356   3
   1   5  -1 238.296 26.4683   1
   1   5  -1 492.528 50.5840  -3
   1   5  -1 492.528 50.5840   1
   1   5  -1 456.902 44.4761  -3
   1   5  -1 456.902 44.4761   1
   1   5  -1 156.305 16.7633   2
   1   5  -1 148.742 14.1328   2
   1   5  -1 142.750 16.0876   2
   1   5  -1 245.194 27.2333   3
  -1  -5   1 159.541 14.1427   2
  -1  -5   1 142.862 15.4463   2
  -1  -5   1 153.178 14.1618   2
  -1  -5   1 469.091 48.5595  -3
  -1  -5   1 469.091 48.5595   1
  -1  -5   1 497.497 44.4774  -3
  -1  -5   1 497.497 44.4774   1
  -1  -5   1 459.491 44.5501  -3
  -1  -5   1 459.491 44.5501   1
   0   5  -1 135.258 14.8038   2
   0   5  -1 145.791 12.9901   2
   0   5  -1 135.825 12.9905   2
   0   5  -1 437.613 40.2764  -3
   0   5  -1 437.613 40.2764   1
   0   5  -1 465.980 45.8231  -3
   0   5  -1 465.980 45.8231   1
   0   5  -1 423.731 40.2742  -3
   0   5  -1 423.731 40.2742   1
   0  -5   1 139.450 13.0240   2
   0  -5   1 138.767 13.0245   2
   0  -5   1 134.930 14.2237   2
   0  -5   1 404.110 40.3489  -3
   0  -5   1 404.110 40.3489   1
   0  -5   1 422.465 43.9916  -3
   0  -5   1 422.465 43.9916   1
  -1   5  -1 869.823 91.2002   2
  -1   5  -1 771.985 87.5766   2
  -1   5  -1 828.978 84.0664   2
  -1   5  -1 2678.06 286.732  -3
  -1   5  -1 2678.06 286.732   1
  -1   5  -1 2501.10 275.354  -3
  -1   5  -1 2501.10 275.354   1
  -1   5  -1 1351.25 133.789   1
  -1   5  -1 1373.81 139.454   3
   1  -5   1 1269.69 133.782   1
   1  -5   1 1357.74 139.451   3
  -2   5  -1 3.26123 0.59739   1
  -2   5  -1 4.01294 0.70990   1
  -2   5  -1 2.40515 0.64437   2
  -2   5  -1 2.53572 0.56714   2
  -2   5  -1 4.11216 0.67346   3
  -2   5  -1 2.82152 0.55145   3
  -2   5  -1 5.36025 1.34193  -2
  -2   5  -1 5.36025 1.34193   1
   2  -5   1 2.46509 0.56948   3
   2  -5   1 3.15828 0.66139   2
   2  -5   1 3.62898 0.66170   1
  -3   5  -1 28.0484 3.26150   3
  -3   5  -1 36.2617 3.45727   3
  -3   5  -1 32.6826 3.35739   1
  -3   5  -1 16.9513 1.99859   2
   3  -5   1 17.2402 1.74147   2
   3  -5   1 19.4686 2.17936   2
   3  -5   1 27.0640 3.67042   1
   3  -5   1 32.6435 2.96782   1
   3  -5   1 29.1133 3.47442   1
   3  -5   1 34.2356 3.48434   3
   3  -5   1 28.7869 3.65356   3
   3  -5   1 29.3582 2.93152   3
  -4   5  -1 78.7733 8.32149   2
  -4   5  -1 132.476 13.5013   1
   4  -5   1 127.121 12.3224   1
   4  -5   1 135.981 14.1034   1
   4  -5   1 124.682 11.4166   3
   4  -5   1 115.907 13.0202   3
   4  -5   1 80.7203 8.75378   2
   4  -5   1 80.7071 7.59226   2
   5  -5   1 14.2826 2.13565   2
   5  -5   1 13.9781 1.65575   2
   5  -5   1 25.4116 2.74585   3
   5  -5   1 26.3063 3.20172   3
   5  -5   1 21.9463 2.40204   1
   5  -5   1 22.5410 2.83875   1
   5   4  -1 8.37561 1.99297   2
   5   4  -1 11.9771 2.18210   1
   5   4  -1 12.7681 2.33503   3
  -5  -4   1 10.5221 1.45044   1
  -5  -4   1 7.35242 1.55999   2
  -5  -4   1 1.43165 1.07654   2
  -5  -4   1 15.7423 1.89069   3
   4   4  -1 78.6974 9.28859   2
   4   4  -1 144.989 15.0253   1
   4   4  -1 152.224 16.0788   3
  -4  -4   1 144.197 13.1261   1
  -4  -4   1 129.215 14.3449   1
  -4  -4   1 87.1206 8.13369   2
  -4  -4   1 88.7320 8.89025   2
  -4  -4   1 150.532 14.1201   3
  -4  -4   1 145.831 15.4049   3
   3   4  -1 7.64022 0.90218   1
   3   4  -1 6.65293 1.32481   1
   3   4  -1 2.94247 0.95354   1
   3   4  -1 4.62284 0.96670   1
   3   4  -1 2.31047 0.89278   3
   3   4  -1 5.34384 0.92945   3
   3   4  -1 3.75556 0.87855   3
   3   4  -1 5.05655 1.03582   3
   3   4  -1 1.43792 0.81201   2
   3   4  -1 0.87994 0.81458   2
   3   4  -1 2.89346 0.88026   2
  -3  -4   1 4.50758 0.93249   3
  -3  -4   1 5.38999 0.76349   3
  -3  -4   1 3.46811 0.68694   1
  -3  -4   1 5.67276 0.87353   1
  -3  -4   1 1.30767 0.50134   2
  -3  -4   1 3.02840 0.75223   2
   2   4  -1 124.853 11.9228   3
   2   4  -1 118.104 14.1035   3
   2   4  -1 128.946 13.5556   3
   2   4  -1 139.199 11.9418   3
   2   4  -1 131.215 13.3495   1
   2   4  -1 126.258 13.8889   1
   2   4  -1 120.071 11.7365   1
   2   4  -1 127.081 11.7368   1
   2   4  -1 79.2626 8.69985   2
   2   4  -1 79.2535 7.34529   2
   2   4  -1 75.5912 7.33778   2
   2   4  -1 86.3820 8.36702   2
  -2  -4   1 128.522 13.0131   3
  -2  -4   1 120.059 11.9096   3
  -2  -4   1 128.227 11.9435   3
  -2  -4   1 71.5571 7.99305   2
  -2  -4   1 81.2316 7.34355   2
  -2  -4   1 71.7555 7.32607   2
  -2  -4   1 123.788 11.7088   1
  -2  -4   1 117.039 12.7932   1
  -2  -4   1 128.103 11.7419   1
   1   4  -1 706.925 65.1042   3
   1   4  -1 183.885 20.8014   2
   1   4  -1 191.988 21.6629   2
   1   4  -1 187.956 18.2822   2
   1   4  -1 498.464 44.9094   1
   1   4  -1 1135.83 101.285  -3
   1   4  -1 1135.83 101.285   1
  -1  -4   1 465.540 44.8296   1
  -1  -4   1 473.595 44.9076   1
  -1  -4   1 186.242 19.9693   2
  -1  -4   1 215.998 18.2846   2
  -1  -4   1 202.471 18.3140   2
  -1  -4   1 1028.04 110.544  -3
  -1  -4   1 1028.04 110.544   1
  -1  -4   1 689.093 65.1104   3
  -1  -4   1 687.617 64.9976   3
   0   4  -1 0.89208 0.33410  -3
   0   4  -1 0.89208 0.33410   1
   0   4  -1 1.51058 0.50079  -3
   0   4  -1 1.51058 0.50079   1
   0   4  -1 1.26267 0.29583  -3
   0   4  -1 1.26267 0.29583   1
   0   4  -1 0.29090 0.19003   2
   0   4  -1 0.36911 0.14731   2
   0   4  -1 0.87105 0.31271   2
   0  -4   1 0.30052 0.17736   2
   0  -4   1 0.02016 0.21362   2
   0  -4   1 0.36516 0.29310   2
   0  -4   1 1.32940 0.41031  -3
   0  -4   1 1.32940 0.41031   1
   0  -4   1 0.95495 0.31750  -3
   0  -4   1 0.95495 0.31750   1
  -1   4  -1 107.093 11.9421   1
  -1   4  -1 118.025 11.4828   1
  -1   4  -1 65.6274 6.69747   3
  -1   4  -1 64.2053 6.95381   3
  -1   4  -1 65.4290 7.26372   3
  -1   4  -1 162.522 18.0499  -2
  -1   4  -1 162.522 18.0499   1
  -1   4  -1 37.1637 4.04812   2
  -1   4  -1 37.8884 3.88725   2
  -2   4  -1 0.89254 0.51669   3
  -2   4  -1 2.17120 0.56131   3
  -2   4  -1 -0.5616 0.45325   2
  -2   4  -1 0.33209 0.39038   2
  -2   4  -1 352.862 36.6327  -2
  -2   4  -1 352.862 36.6327   1
   2  -4   1 -0.5872 0.48181   2
   2  -4   1 0.20135 0.17828   2
   2  -4   1 -0.5547 0.17432   2
   2  -4   1 308.625 36.6237  -2
   2  -4   1 308.625 36.6237   1
   2  -4   1 2.09628 0.49964   3
   2  -4   1 2.66669 0.59225   3
   2  -4   1 123.652 13.2168   1
  -3   4  -1 18.4813 2.09516   3
  -3   4  -1 12.8156 1.40804   2
  -3   4  -1 18.9157 2.12759   1
   3  -4   1 18.0148 1.85372   3
   3  -4   1 20.7811 2.21547   3
   3  -4   1 12.2652 1.56297   2
   3  -4   1 10.8084 1.22665   2
   3  -4   1 19.1973 2.25470   1
   3  -4   1 18.5934 1.84824   1
  -4   4  -1 67.7159 7.33304   2
  -4   4  -1 115.913 11.7401   1
   4  -4   1 106.870 10.1395   3
   4  -4   1 108.019 11.5751   3
   4  -4   1 112.239 10.7241   1
   4  -4   1 113.457 12.2475   1
   4  -4   1 70.5354 6.70213   2
   4  -4   1 74.5417 7.74331   2
   5  -4   1 -0.4791 1.09738   3
   5  -4   1 -0.3822 0.84993   3
   5  -4   1 -1.1597 0.77527   2
   5  -4   1 -0.0347 1.40750   2
   5  -4   1 -0.2667 0.74690   1
   5  -4   1 -0.4092 1.28274   1
   6  -4   1 7.84065 2.24788   1
   6  -4   1 5.96330 1.69532   1
   6  -4   1 8.57351 2.05487   3
   6  -4   1 5.03830 1.49928   3
   6  -4   1 4.09228 1.40400   2
   6  -4   1 5.21093 2.30819   2
   5   3  -1 0.40186 1.53229   1
   5   3  -1 0.25736 1.36012   3
   5   3  -1 -0.5798 1.60473   2
  -5  -3   1 1.27896 1.87396   1
  -5  -3   1 -0.1366 0.69262   1
  -5  -3   1 -1.4512 0.86781   3
  -5  -3   1 -0.0187 0.77949   2
  -5  -3   1 1.13154 1.24176   2
   4   3  -1 181.623 16.9421   3
   4   3  -1 187.977 19.2478   3
   4   3  -1 98.9826 11.3536   2
   4   3  -1 190.893 18.9757   1
   4   3  -1 171.452 16.6715   1
  -4  -3   1 175.593 18.1669   1
  -4  -3   1 172.003 16.6076   1
  -4  -3   1 176.114 16.8913   3
  -4  -3   1 172.945 18.4463   3
  -4  -3   1 101.430 10.8464   2
  -4  -3   1 113.014 9.94390   2
   3   3  -1 162.295 15.7207   1
   3   3  -1 135.233 13.8159   1
   3   3  -1 150.219 13.8190   1
   3   3  -1 159.812 14.2533   3
   3   3  -1 150.704 16.1822   3
   3   3  -1 152.988 16.8428   3
   3   3  -1 151.937 14.2434   3
   3   3  -1 81.7878 8.26517   2
   3   3  -1 89.2096 8.27386   2
   3   3  -1 106.182 9.44904   2
   3   3  -1 75.0932 9.76448   2
  -3  -3   1 142.799 13.7727   1
  -3  -3   1 144.139 15.0516   1
  -3  -3   1 90.1314 8.99480   2
  -3  -3   1 85.7737 8.23410   2
  -3  -3   1 151.348 15.5226   3
  -3  -3   1 141.305 14.2045   3
   2   3  -1 262.984 25.0249   2
   2   3  -1 274.676 29.6250   2
   2   3  -1 267.406 25.0617   2
   2   3  -1 257.754 28.4691   2
   2   3  -1 398.956 44.1155   1
   2   3  -1 416.733 38.8470   1
   2   3  -1 412.194 45.9177   1
   2   3  -1 424.011 38.7940   1
   2   3  -1 421.298 48.1819   3
   2   3  -1 430.587 46.2868   3
   2   3  -1 435.985 40.7061   3
   2   3  -1 431.542 40.7689   3
  -2  -3   1 439.335 44.4285   3
  -2  -3   1 447.522 40.6972   3
  -2  -3   1 436.464 40.7717   3
  -2  -3   1 262.948 27.3117   2
  -2  -3   1 273.220 25.0660   2
  -2  -3   1 268.936 25.0193   2
  -2  -3   1 416.478 38.8522   1
  -2  -3   1 410.298 38.7739   1
  -2  -3   1 420.574 42.3344   1
   1   3  -1 1380.83 132.705   3
   1   3  -1 1414.42 132.489   3
   1   3  -1 1441.32 150.654   3
   1   3  -1 1410.17 156.868   3
   1   3  -1 905.687 83.1231   2
   1   3  -1 870.380 83.2578   2
   1   3  -1 877.800 98.4236   2
   1   3  -1 923.289 94.5294   2
   1   3  -1 1402.18 129.013   1
   1   3  -1 1342.23 129.219   1
   1   3  -1 1415.99 152.755   1
   1   3  -1 1356.68 146.701   1
  -1  -3   1 1434.96 132.710   3
  -1  -3   1 2790.25 284.826  -3
  -1  -3   1 2790.25 284.826   1
  -1  -3   1 865.399 90.7237   2
  -1  -3   1 2142.60 200.746  -2
  -1  -3   1 2142.60 200.746   1
  -1  -3   1 3761.60 351.828  -3
  -1  -3   1 3761.60 351.828  -2
  -1  -3   1 3761.60 351.828   1
   0   3  -1 35.9759 3.24909   2
   0   3  -1 34.5818 3.25044   2
   0   3  -1 37.0412 3.72526   2
   0   3  -1 175.887 15.6905  -3
   0   3  -1 175.887 15.6905   1
   0   3  -1 177.341 15.6920  -3
   0   3  -1 177.341 15.6920   1
   0   3  -1 180.307 17.8617  -3
   0   3  -1 180.307 17.8617   1
   0   3  -1 222.779 24.7120  -3
   0   3  -1 222.779 24.7120  -2
   0   3  -1 222.779 24.7120   1
   0  -3   1 161.257 17.1444  -3
   0  -3   1 161.257 17.1444   1
   0  -3   1 144.420 15.7169  -3
   0  -3   1 144.420 15.7169   1
   0  -3   1 33.3809 3.57443   2
   0  -3   1 35.6741 3.25816   2
   0  -3   1 31.2242 3.25793   2
  -1   3  -1 8.37705 1.02106   2
  -1   3  -1 10.0111 1.07598   2
  -1   3  -1 1638.18 181.430  -2
  -1   3  -1 1638.18 181.430   1
  -1   3  -1 1202.25 141.117   1
  -1   3  -1 1453.41 135.445   1
  -2   3  -1 71.3333 7.11819   1
  -2   3  -1 72.6850 6.83055   1
  -2   3  -1 71.2758 7.32651   3
  -2   3  -1 67.6818 7.01485   3
  -2   3  -1 41.0774 4.16573   2
  -2   3  -1 43.1161 4.36307   2
   2  -3   1 63.6155 6.23097   1
   2  -3   1 65.3644 7.12263   1
   2  -3   1 63.0075 6.23448   1
   2  -3   1 39.5120 4.36272   2
   2  -3   1 38.2668 3.79452   2
   2  -3   1 40.0146 3.79773   2
   2  -3   1 40.9711 4.51207   2
   2  -3   1 67.4892 6.41279   3
   2  -3   1 70.3050 7.33358   3
   2  -3   1 66.5500 6.41322   3
   2  -3   1 130.479 14.5150  -3
   2  -3   1 130.479 14.5150   1
  -3   3  -1 89.0710 9.28189   3
  -3   3  -1 56.2446 5.53603   2
  -3   3  -1 94.0486 9.36063   1
   3  -3   1 88.1529 9.77090   1
   3  -3   1 90.2253 8.55764   1
   3  -3   1 51.5723 5.04836   2
   3  -3   1 52.4514 5.80516   2
   3  -3   1 88.6662 8.50451   3
   3  -3   1 89.1957 9.70731   3
   3  -3   1 93.9750 10.0742   3
  -4   3  -1 3.72369 0.91194   1
  -4   3  -1 0.94918 0.81896   2
   4  -3   1 0.08225 0.59692   2
   4  -3   1 -0.9687 1.01327   2
   4  -3   1 0.35697 0.60694   3
   4  -3   1 0.65440 0.88976   3
   4  -3   1 1.93462 0.92731   1
   5  -3   1 1.98928 1.16719   3
   5  -3   1 0.97438 0.87732   3
   5  -3   1 2.63002 1.49064   2
   5  -3   1 0.39040 0.84019   2
   5  -3   1 -0.5319 1.14664   1
   5  -3   1 1.09096 0.79357   1
   6  -3   1 5.79023 2.09997   1
   6  -3   1 3.46202 1.37164   1
   6  -3   1 6.36987 2.25544   3
   6  -3   1 6.99739 1.56841   3
   6  -3   1 2.84711 1.37952   2
   6  -3   1 3.04340 1.93592   2
   5   2  -1 4.07017 1.40956   1
   5   2  -1 1.33058 1.47087   1
   5   2  -1 2.12873 1.54625   2
   5   2  -1 4.36557 1.42004   3
   5   2  -1 5.92544 1.61413   3
  -5  -2   1 5.36172 1.39406   1
  -5  -2   1 2.37747 0.84168   1
  -5  -2   1 4.41681 1.12345   2
  -5  -2   1 1.64336 0.98059   2
  -5  -2   1 4.20633 1.10926   3
   4   2  -1 21.1208 2.66567   3
   4   2  -1 20.0731 2.33221   3
   4   2  -1 19.8228 2.19862   1
   4   2  -1 17.3836 2.49500   1
   4   2  -1 12.2301 1.90236   2
   4   2  -1 17.3034 1.68240   2
  -4  -2   1 12.5634 1.66634   2
  -4  -2   1 12.1537 1.49545   2
  -4  -2   1 19.9004 2.17774   1
  -4  -2   1 24.6173 2.44730   1
  -4  -2   1 22.6755 2.39036   3
  -4  -2   1 24.4646 2.59387   3
   3   2  -1 118.745 11.2696   2
   3   2  -1 120.170 11.2718   2
   3   2  -1 123.487 12.8395   2
   3   2  -1 205.311 17.9609   1
   3   2  -1 175.128 20.4048   1
   3   2  -1 189.805 17.9566   1
   3   2  -1 187.796 21.0878   3
   3   2  -1 198.448 18.6000   3
   3   2  -1 201.556 18.5742   3
  -3  -2   1 119.970 12.2812   2
  -3  -2   1 115.826 11.2399   2
  -3  -2   1 206.482 20.2393   3
  -3  -2   1 193.352 18.5282   3
  -3  -2   1 206.580 19.5786   1
  -3  -2   1 179.367 17.9067   1
   2   2  -1 981.852 107.934   1
   2   2  -1 1059.03 103.687   1
   2   2  -1 982.101 91.3194   1
   2   2  -1 985.253 91.1769   1
   2   2  -1 989.432 108.019   3
   2   2  -1 990.558 91.2490   3
   2   2  -1 931.674 103.759   3
   2   2  -1 966.160 91.3961   3
   2   2  -1 604.466 67.1593   2
   2   2  -1 610.826 56.8257   2
   2   2  -1 615.782 56.7369   2
   2   2  -1 656.581 64.5324   2
  -2  -2   1 590.213 61.9157   2
  -2  -2   1 562.092 56.8268   2
  -2  -2   1 904.936 91.3222   1
  -2  -2   1 924.515 91.1624   1
  -2  -2   1 986.821 99.5002   1
  -2  -2   1 969.814 91.3983   3
  -2  -2   1 1001.17 91.2454   3
  -2  -2   1 976.550 99.5811   3
   1   2  -1 407.788 37.6975   3
   1   2  -1 386.374 42.7967   3
   1   2  -1 406.292 37.6367   3
   1   2  -1 399.265 44.5576   3
   1   2  -1 248.316 28.0164   2
   1   2  -1 263.132 24.6706   2
   1   2  -1 268.087 29.1640   2
   1   2  -1 275.477 24.6325   2
   1   2  -1 381.781 42.8277   1
   1   2  -1 419.121 44.5900   1
   1   2  -1 409.114 37.7202   1
   1   2  -1 399.079 37.6618   1
  -1  -2   1 418.998 37.6327   3
  -1  -2   1 393.632 37.6977   3
  -1  -2   1 816.626 83.3829  -3
  -1  -2   1 816.626 83.3829   1
  -1  -2   1 648.859 64.5316  -2
  -1  -2   1 648.859 64.5316   1
  -1  -2   1 728.173 64.4241  -2
  -1  -2   1 728.173 64.4241   1
  -1  -2   1 259.643 26.8858   2
   0   2  -1 525.517 47.8597  -3
   0   2  -1 525.517 47.8597   1
   0   2  -1 137.477 13.1113   2
   0   2  -1 145.487 13.1108   2
   0   2  -1 144.018 14.9265   2
   0   2  -1 226.438 24.0950   3
   0   2  -1 329.108 33.3208   1
   0  -2   1 497.767 47.9372  -3
   0  -2   1 497.767 47.9372   1
   0  -2   1 138.367 13.1333   2
   0  -2   1 135.059 14.3224   2
   0  -2   1 297.338 31.9765   1
   0  -2   1 226.295 23.1278   3
  -1   2  -1 113.612 10.4777   3
  -1   2  -1 90.5325 10.9221   3
  -1   2  -1 34.3329 3.67606   2
  -1   2  -1 33.5363 3.51548   2
  -1   2  -1 187.940 19.2061   1
   1  -2   1 34.7169 3.67727   2
   1  -2   1 798.499 88.4435  -3
   1  -2   1 798.499 88.4435  -2
   1  -2   1 798.499 88.4435   1
  -2   2  -1 3.65414 0.66703   1
  -2   2  -1 3.61132 0.58843   1
  -2   2  -1 1.82694 0.40825   2
  -2   2  -1 1.20305 0.20659   2
  -2   2  -1 1.59781 0.24531   2
  -2   2  -1 3.58001 0.52532   3
   2  -2   1 2.05000 0.50302   2
   2  -2   1 1.82690 0.39590   2
   2  -2   1 1.79697 0.28658   2
   2  -2   1 1.78571 0.32083   2
   2  -2   1 4.50497 0.67397   1
   2  -2   1 1.86506 0.37008   3
   2  -2   1 2.59847 0.53694   3
   2  -2   1 3.09473 0.41545   3
   2  -2   1 9.48086 1.34739  -3
   2  -2   1 9.48086 1.34739   1
  -3   2  -1 1.82636 0.40483   2
  -3   2  -1 1.73332 0.33486   2
  -3   2  -1 2.72152 0.57062   2
  -3   2  -1 2.60320 0.43137   3
  -3   2  -1 3.28828 0.41184   3
  -3   2  -1 3.71883 0.66694   3
  -3   2  -1 4.44146 0.73041   1
  -3   2  -1 3.62775 0.48422   1
   3  -2   1 1.41306 0.42867   2
   3  -2   1 0.90956 0.67372   2
   3  -2   1 1.66343 0.86613   1
   3  -2   1 2.49380 0.83455   1
   3  -2   1 3.35516 0.68275   3
   3  -2   1 2.29175 0.53220   3
   3  -2   1 3.06132 0.69665   3
  -4   2  -1 1.56807 0.89915   1
  -4   2  -1 1.33809 0.36401   1
  -4   2  -1 -0.2818 0.71652   2
  -4   2  -1 0.23084 0.37076   2
  -4   2  -1 -0.0031 0.37290   3
   4  -2   1 0.24454 1.01299   2
   4  -2   1 -0.0590 0.63142   2
   4  -2   1 -0.3256 0.84915   1
   4  -2   1 0.21541 0.59205   1
   4  -2   1 -0.3342 0.63610   3
   4  -2   1 -0.6446 0.77789   3
  -5   2  -1 59.2519 5.88833   2
   5  -2   1 104.372 10.3659   1
   5  -2   1 116.832 11.9005   1
   5  -2   1 64.3518 6.02742   2
   5  -2   1 67.5262 6.97862   2
   5  -2   1 111.550 12.4781   3
   5  -2   1 118.211 10.9532   3
   6  -2   1 13.7989 2.47369   3
   6  -2   1 8.88923 1.82201   3
   6  -2   1 8.99587 1.84373   2
   6  -2   1 8.36781 2.59091   2
   6  -2   1 9.69472 1.73761   1
   6  -2   1 13.8004 2.70075   1
   5   1  -1 6.15246 1.39386   1
   5   1  -1 2.77649 1.15061   1
   5   1  -1 4.43287 1.45096   3
   5   1  -1 2.33381 1.21386   3
   5   1  -1 1.55908 1.28524   2
   5   1  -1 4.00036 1.12976   2
  -5  -1   1 4.07732 0.84579   1
  -5  -1   1 3.19863 1.28604   1
  -5  -1   1 4.83282 1.24554   2
  -5  -1   1 3.11274 0.84189   2
  -5  -1   1 3.41902 0.87153   3
   4   1  -1 3.22118 1.21159   2
   4   1  -1 2.75950 0.95280   2
   4   1  -1 5.51607 0.98130   3
   4   1  -1 2.79974 1.11421   3
   4   1  -1 4.85703 1.17800   1
   4   1  -1 6.62143 0.99319   1
  -4  -1   1 7.68672 1.14319   1
  -4  -1   1 5.83083 0.88820   1
  -4  -1   1 5.21437 0.76622   3
  -4  -1   1 6.29115 1.03419   3
  -4  -1   1 4.58253 0.76332   2
  -4  -1   1 3.48971 0.84771   2
   3   1  -1 15.4422 2.48441   1
   3   1  -1 21.3729 2.16676   1
   3   1  -1 14.6469 1.49435   3
   3   1  -1 14.0292 1.70616   3
   3   1  -1 10.0324 1.17131   2
   3   1  -1 8.27489 1.24656   2
   3   1  -1 9.25164 1.02888   2
  -3  -1   1 9.41425 1.09083   2
  -3  -1   1 6.72927 0.95755   2
  -3  -1   1 12.7081 1.61098   3
  -3  -1   1 14.1429 1.44581   3
  -3  -1   1 22.3884 2.36957   1
  -3  -1   1 24.9423 2.13333   1
   2   1  -1 406.041 44.2659   3
   2   1  -1 412.651 46.0601   3
   2   1  -1 418.000 38.9244   3
   2   1  -1 409.471 38.9846   3
   2   1  -1 424.299 40.1651   1
   2   1  -1 430.657 40.1068   1
   2   1  -1 424.395 47.4594   1
   2   1  -1 438.921 45.6149   1
   2   1  -1 251.097 24.3381   2
   2   1  -1 249.281 28.7509   2
   2   1  -1 261.303 27.6528   2
   2   1  -1 268.768 24.3057   2
  -2  -1   1 263.612 24.2946   2
  -2  -1   1 262.843 24.3389   2
  -2  -1   1 260.608 26.5218   2
  -2  -1   1 424.468 43.7665   1
  -2  -1   1 431.128 40.1681   1
  -2  -1   1 425.838 40.0898   1
  -2  -1   1 416.792 42.4785   3
  -2  -1   1 420.275 38.9155   3
  -2  -1   1 426.679 38.9860   3
   1   1  -1 2267.24 213.794   2
   1   1  -1 2233.58 242.710   2
   1   1  -1 2339.16 213.443   2
   1   1  -1 2283.10 252.704   2
   1   1  -1 3860.58 360.605   1
   1   1  -1 3898.99 426.941   1
   1   1  -1 3983.28 410.042   1
   1   1  -1 3679.87 361.195   1
   1   1  -1 3643.55 394.464   3
   1   1  -1 3775.07 346.907   3
   1   1  -1 3623.48 347.477   3
   1   1  -1 3696.31 410.721   3
  -1  -1   1 6557.52 594.825  -2
  -1  -1   1 6557.52 594.825   1
  -1  -1   1 6162.35 595.804  -2
  -1  -1   1 6162.35 595.804   1
  -1  -1   1 3697.47 347.479   3
  -1  -1   1 3820.03 346.930   3
  -1  -1   1 2286.66 232.931   2
  -1  -1   1 7405.53 755.856  -3
  -1  -1   1 7405.53 755.856   1
   0   1  -1 2666.74 292.874   1
   0   1  -1 2899.08 257.565   1
   0   1  -1 1903.65 177.319   3
   0   1  -1 1911.94 201.633   3
   0   1  -1 1320.83 136.502   2
   0   1  -1 1287.43 120.037   2
   0  -1   1 5349.57 501.218  -3
   0  -1   1 5349.57 501.218  -2
   0  -1   1 5349.57 501.218   1
   0  -1   1 1871.94 193.517   3
   0  -1   1 2694.60 281.102   1
   0  -1   1 1242.39 130.998   2
  -1   1  -1 354.678 36.3887   3
  -1   1  -1 317.375 31.9864   3
  -1   1  -1 476.925 45.3018   1
  -1   1  -1 513.264 51.5290   1
  -1   1  -1 460.069 49.4422   1
  -1   1  -1 183.052 16.5514   2
  -1   1  -1 187.163 18.8419   2
  -1   1  -1 170.729 18.0672   2
  -1   1  -1 2141.31 200.285  -2
  -1   1  -1 2141.31 200.285   1
   1  -1   1 171.628 18.8408   2
   1  -1   1 161.141 16.5802   2
   1  -1   1 188.634 19.6037   2
   1  -1   1 1034.35 114.558  -3
   1  -1   1 1034.35 114.558   1
   1  -1   1 503.061 51.5322   1
   1  -1   1 470.892 45.3783   1
   1  -1   1 356.342 36.3907   3
  -2   1  -1 119.254 12.8066   3
  -2   1  -1 135.240 11.7331   3
  -2   1  -1 129.763 11.7277   3
  -2   1  -1 78.0824 6.79479   2
  -2   1  -1 75.5026 6.78539   2
  -2   1  -1 72.1420 7.41607   2
  -2   1  -1 143.270 14.4583   1
  -2   1  -1 145.740 13.2426   1
   2  -1   1 124.635 15.0800   1
   2  -1   1 148.746 13.2648   1
   2  -1   1 121.006 13.3681   3
   2  -1   1 118.793 11.7549   3
   2  -1   1 68.1712 8.04323   2
   2  -1   1 70.6955 6.80743   2
   2  -1   1 67.0297 7.75555   2
   2  -1   1 303.674 33.6671  -3
   2  -1   1 303.674 33.6671   1
  -3   1  -1 155.984 15.5043   3
  -3   1  -1 154.812 14.1883   3
  -3   1  -1 157.283 14.7198   1
  -3   1  -1 131.074 13.4480   1
  -3   1  -1 94.0820 9.72606   2
  -3   1  -1 90.1262 8.88875   2
   3  -1   1 152.516 16.1870   3
   3  -1   1 137.616 16.8004   3
   3  -1   1 157.402 14.2368   3
   3  -1   1 145.698 15.3600   1
   3  -1   1 133.647 15.9516   1
   3  -1   1 155.654 13.5005   1
   3  -1   1 97.0938 10.1983   2
   3  -1   1 99.2324 8.92978   2
  -4   1  -1 3.89830 0.86154   2
  -4   1  -1 2.84905 0.58548   2
  -4   1  -1 9.48592 0.93485   3
  -4   1  -1 5.99291 0.80009   1
  -4   1  -1 7.17880 1.14272   1
   4  -1   1 4.59447 0.80353   2
   4  -1   1 3.08978 1.17877   2
   4  -1   1 4.33064 1.01084   3
   4  -1   1 7.06950 1.23477   3
   4  -1   1 8.54368 1.00556   1
   4  -1   1 6.18963 1.23418   1
  -5   1  -1 32.7061 3.37500   1
  -5   1  -1 18.9040 2.31590   2
  -5   1  -1 31.8906 3.39644   3
   5  -1   1 44.0868 4.26485   3
   5  -1   1 34.7590 3.61355   3
   5  -1   1 35.3253 3.56314   1
   5  -1   1 38.2178 4.12729   1
   5  -1   1 27.2797 2.48055   2
   5  -1   1 24.5757 3.07604   2
   6   0  -1 -2.1825 1.83380   3
   6   0  -1 -0.8176 1.67419   3
   6   0  -1 2.73215 2.05736   2
   6   0  -1 4.57935 2.18236   2
   6   0  -1 0.12107 1.68873   1
   6   0  -1 0.49615 1.38802   1
  -6   0   1 0.51545 0.88757   1
  -6   0   1 1.85552 0.98770   2
  -6   0   1 -0.3868 0.95482   3
   5   0  -1 1.63878 1.28583   3
   5   0  -1 0.79299 1.10582   3
   5   0  -1 0.40538 1.12672   1
   5   0  -1 0.50696 1.02718   1
   5   0  -1 2.98406 1.49847   2
   5   0  -1 2.86026 1.11205   2
  -5   0   1 0.39564 1.17966   1
  -5   0   1 0.56991 0.62866   1
  -5   0   1 -0.1320 0.65204   3
  -5   0   1 3.55264 1.16877   2
  -5   0   1 3.12492 0.76349   2
   4   0  -1 24.5072 2.76201   3
   4   0  -1 27.4572 3.15722   3
   4   0  -1 19.1790 1.78177   2
   4   0  -1 17.9457 2.12285   2
   4   0  -1 26.7984 2.66640   1
   4   0  -1 27.6330 3.04140   1
  -4   0   1 26.7869 2.65955   3
  -4   0   1 27.3012 2.93006   3
  -4   0   1 13.0585 1.87700   2
  -4   0   1 15.0770 1.66739   2
  -4   0   1 24.3577 2.56414   1
  -4   0   1 25.5326 2.90719   1
   3   0  -1 15.3253 1.54846   3
   3   0  -1 13.7062 1.78793   3
   3   0  -1 13.1972 1.62508   1
   3   0  -1 12.6815 1.36114   1
   3   0  -1 7.68310 1.18416   2
   3   0  -1 8.57636 0.98516   2
  -3   0   1 12.6928 1.32888   1
  -3   0   1 13.6943 1.55871   1
  -3   0   1 8.15385 0.93140   2
  -3   0   1 9.26381 1.10434   2
  -3   0   1 13.1983 1.68108   3
  -3   0   1 16.3086 1.52755   3
   2   0  -1 11.2130 1.07125   3
   2   0  -1 12.0398 1.09348   3
   2   0  -1 9.40220 1.22101   3
   2   0  -1 10.3131 1.19322   3
   2   0  -1 6.73412 0.64697   2
   2   0  -1 6.11126 0.60684   2
   2   0  -1 6.39186 0.80576   2
   2   0  -1 4.64540 0.63931   2
   2   0  -1 10.4470 1.16786   1
   2   0  -1 11.0387 1.35852   1
   2   0  -1 12.1491 1.19269   1
  -2   0   1 10.0036 1.03142   3
  -2   0   1 8.82953 1.14062   3
  -2   0   1 3.49415 0.53164   2
  -2   0   1 7.57436 0.68327   2
  -2   0   1 12.1670 1.14890   1
  -2   0   1 11.4462 1.28670   1
   1   0  -1 1.74619 0.25553   2
   1   0  -1 1.58073 0.35172   2
   1   0  -1 3.02520 0.38270   3
   1   0  -1 14.6167 1.60190   1
  -1   0   1 3.67686 0.38290   3
  -1   0   1 2.22805 0.28410   2
  -1   0   1 22.6920 2.35739  -3
  -1   0   1 22.6920 2.35739   1
  -1   0   1 173.225 16.2151  -2
  -1   0   1 173.225 16.2151   1
   0   0  -1 55.8100 5.23397   3
   0   0  -1 32.5813 3.17976   2
   0   0  -1 54.0643 5.02083   1
   0   0   1 137.266 15.2128  -3
   0   0   1 137.266 15.2128  -2
   0   0   1 137.266 15.2128   1
   0   0   1 34.8243 3.17948   2
   0   0   1 53.0273 5.02672   1
  -1   0  -1 257.049 23.3588   2
  -1   0  -1 262.850 25.4890   2
  -1   0  -1 464.894 51.2333   3
  -1   0  -1 916.401 106.572  -3
  -1   0  -1 916.401 106.572   1
  -1   0  -1 442.143 46.9267   1
   1   0   1 233.763 26.5733   2
   1   0   1 253.454 23.3997   2
   1   0   1 239.157 27.6592   2
   1   0   1 446.512 41.3307   1
   1   0   1 434.112 46.9297   1
   1   0   1 1174.30 115.635  -3
   1   0   1 1174.30 115.635   1
   1   0   1 631.915 51.3224   3
  -2   0  -1 30.6009 3.22824   2
  -2   0  -1 29.4512 2.95288   2
  -2   0  -1 51.7547 4.84122   3
  -2   0  -1 53.4239 5.28332   3
  -2   0  -1 50.0887 5.22337   1
  -2   0  -1 48.5114 4.77222   1
   2   0   1 54.0212 4.82488   1
   2   0   1 56.9345 4.80744   1
   2   0   1 47.7840 5.68065   1
   2   0   1 48.7249 5.47063   1
   2   0   1 53.5138 4.86049   3
   2   0   1 53.7462 4.88439   3
   2   0   1 48.1936 5.73285   3
   2   0   1 47.6494 5.52110   3
   2   0   1 31.3296 2.99915   2
   2   0   1 34.6680 2.98697   2
   2   0   1 27.2227 3.51549   2
   2   0   1 37.4564 3.44353   2
  -3   0  -1 36.4259 3.41565   1
  -3   0  -1 36.8271 3.76108   1
  -3   0  -1 31.8763 3.21079   3
  -3   0  -1 32.5871 3.51478   3
  -3   0  -1 16.4533 1.85162   2
  -3   0  -1 21.6663 2.05056   2
   3   0   1 16.0467 2.19442   2
   3   0   1 16.6146 2.38914   2
   3   0   1 20.1362 1.90191   2
   3   0   1 31.6574 3.27194   3
   3   0   1 35.2245 3.73328   3
   3   0   1 36.3357 3.83610   3
   3   0   1 31.0449 4.09984   1
   3   0   1 36.2621 3.46060   1
   3   0   1 37.9887 3.97747   1
  -4   0  -1 39.7099 3.77130   1
  -4   0  -1 39.0840 4.19232   1
  -4   0  -1 26.0467 2.84312   2
  -4   0  -1 24.9049 2.56746   2
  -4   0  -1 44.5144 4.26986   3
   4   0   1 44.9860 4.92599   3
   4   0   1 42.7220 4.33277   3
   4   0   1 28.9031 3.21472   2
   4   0   1 23.7656 2.66784   2
   4   0   1 37.0853 4.42425   1
   4   0   1 39.9251 3.86262   1
  -5   0  -1 5.39405 0.93316   2
  -5   0  -1 8.56720 1.13118   3
  -5   0  -1 7.60380 1.04985   1
   5   0   1 8.62186 1.44501   3
   5   0   1 7.92352 1.79283   3
   5   0   1 6.59994 1.28071   1
   5   0   1 9.00413 1.60292   1
   5   0   1 6.05591 1.25349   2
   5   0   1 8.64554 1.64024   2
   6  -1  -1 29.0757 3.36110   1
   6  -1  -1 24.3529 4.05910   1
   6  -1  -1 19.0597 2.31400   2
   6  -1  -1 15.8400 2.72192   2
   6  -1  -1 31.9478 4.45697   3
   6  -1  -1 38.9770 3.94445   3
  -6   1   1 17.6747 1.94445   2
  -6   1   1 37.2145 3.26987   1
  -6   1   1 37.1446 3.62635   3
   5  -1  -1 20.1667 2.05026   2
   5  -1  -1 18.4292 2.58167   2
   5  -1  -1 30.6617 3.10098   3
   5  -1  -1 27.5278 3.38989   3
   5  -1  -1 29.4289 3.36002   1
   5  -1  -1 27.3379 2.93550   1
  -5   1   1 26.7609 2.75067   1
  -5   1   1 27.1274 3.20577   1
  -5   1   1 19.0613 2.24960   2
  -5   1   1 15.8274 1.85476   2
  -5   1   1 27.2460 2.83779   3
   4  -1  -1 24.7700 2.76471   1
   4  -1  -1 24.7361 2.38041   1
   4  -1  -1 23.0821 2.63581   3
   4  -1  -1 21.0245 2.26176   3
   4  -1  -1 15.5963 2.00534   2
   4  -1  -1 15.8029 1.61498   2
  -4   1   1 21.8878 2.27803   1
  -4   1   1 21.8309 2.65953   1
  -4   1   1 12.8931 1.47176   2
  -4   1   1 15.1821 1.77975   2
  -4   1   1 20.8806 2.20408   3
  -4   1   1 23.3669 2.51798   3
   3  -1  -1 2.71065 0.79485   2
   3  -1  -1 1.56406 0.48643   2
   3  -1  -1 2.95682 0.73339   3
   3  -1  -1 2.98362 0.61852   3
   3  -1  -1 5.31543 0.61655   1
   3  -1  -1 3.51137 0.79033   1
  -3   1   1 3.43140 0.50878   1
  -3   1   1 3.97899 0.74785   1
  -3   1   1 5.08489 0.69810   3
  -3   1   1 4.25566 0.53711   3
  -3   1   1 2.11640 0.57699   2
  -3   1   1 1.59485 0.38307   2
   2  -1  -1 41.0864 4.06060   3
   2  -1  -1 39.8477 4.63050   3
   2  -1  -1 24.0216 2.46537   2
   2  -1  -1 23.8831 2.13576   2
   2  -1  -1 45.0263 5.48632   1
   2  -1  -1 53.3632 4.80776   1
  -2   1   1 44.8590 4.06206   3
  -2   1   1 47.3930 4.44965   3
  -2   1   1 42.1543 4.04315   3
  -2   1   1 53.4027 4.81063   1
  -2   1   1 44.3254 5.25113   1
  -2   1   1 54.9617 4.78793   1
  -2   1   1 15.9388 2.32034   2
  -2   1   1 24.8518 2.11161   2
   1  -1  -1 111.906 11.7916   1
   1  -1  -1 109.558 10.3753   1
   1  -1  -1 50.6552 4.88204   2
   1  -1  -1 47.0544 5.55135   2
   1  -1  -1 79.9477 7.49273   3
   1  -1  -1 79.6618 8.51434   3
  -1   1   1 211.279 19.4423  -3
  -1   1   1 211.279 19.4423   1
  -1   1   1 203.731 21.2318  -3
  -1   1   1 203.731 21.2318   1
  -1   1   1 55.2794 4.87049   2
  -1   1   1 54.0201 5.33121   2
   0  -1  -1 475.887 43.4703  -2
   0  -1  -1 475.887 43.4703   1
   0  -1  -1 232.638 21.7118   3
   0   1   1 705.208 65.1532  -3
   0   1   1 705.208 65.1532  -2
   0   1   1 705.208 65.1532   1
   0   1   1 687.654 77.1458  -3
   0   1   1 687.654 77.1458  -2
   0   1   1 687.654 77.1458   1
   0   1   1 230.596 23.6560   3
   0   1   1 451.765 47.3632  -2
   0   1   1 451.765 47.3632   1
  -1  -1  -1 305.981 31.6214  -2
  -1  -1  -1 305.981 31.6214   1
  -1  -1  -1 313.184 28.9765  -2
  -1  -1  -1 313.184 28.9765   1
  -1  -1  -1 147.616 16.3966   3
  -1  -1  -1 150.317 15.0271   3
  -1  -1  -1 147.027 15.0573   3
  -1  -1  -1 104.889 8.94760   2
   1   1   1 93.9114 10.5798   2
   1   1   1 93.2598 10.1626   2
   1   1   1 93.7411 8.93401   2
   1   1   1 90.2030 8.94376   2
   1   1   1 169.757 15.0549   3
   1   1   1 171.362 17.0916   3
   1   1   1 167.291 15.0336   3
   1   1   1 170.899 17.7987   3
   1   1   1 145.743 15.4901   1
   1   1   1 144.017 13.6387   1
   1   1   1 140.929 16.1290   1
   1   1   1 150.634 13.6220   1
  -2  -1  -1 31.2285 3.24194   3
  -2  -1  -1 36.0063 3.01597   3
  -2  -1  -1 29.4900 2.98162   3
  -2  -1  -1 21.0184 2.14424   2
  -2  -1  -1 21.6828 2.00524   2
  -2  -1  -1 20.5657 1.98424   2
  -2  -1  -1 34.1710 3.09503   1
  -2  -1  -1 33.2413 3.12361   1
  -2  -1  -1 31.7962 3.38158   1
   2   1   1 19.4546 1.99751   2
   2   1   1 20.2565 2.02701   2
   2   1   1 18.5644 2.28039   2
   2   1   1 19.7829 2.38233   2
   2   1   1 31.7935 3.71126   1
   2   1   1 33.2409 3.12133   1
   2   1   1 30.8773 3.55485   1
   2   1   1 31.4050 3.15535   1
   2   1   1 30.5752 2.99945   3
   2   1   1 30.0339 3.39439   3
   2   1   1 30.9309 3.54226   3
   2   1   1 30.1837 3.03129   3
  -3  -1  -1 1.99492 0.52019   3
  -3  -1  -1 3.14336 0.66876   3
  -3  -1  -1 1.98328 0.41531   1
  -3  -1  -1 4.02231 0.64451   1
  -3  -1  -1 1.85525 0.56879   2
  -3  -1  -1 -0.0643 0.29689   2
   3   1   1 1.84596 0.69036   2
   3   1   1 2.49722 0.60631   2
   3   1   1 1.48778 0.75224   2
   3   1   1 2.92322 0.84895   1
   3   1   1 1.70771 0.61231   1
   3   1   1 2.39165 0.80831   1
   3   1   1 3.77982 0.65919   3
   3   1   1 4.07462 0.80810   3
   3   1   1 3.50435 0.81196   3
  -4  -1  -1 3.85321 0.67124   1
  -4  -1  -1 3.94878 1.09441   1
  -4  -1  -1 2.21229 0.82602   2
  -4  -1  -1 3.02441 0.67316   2
  -4  -1  -1 6.31368 0.99217   3
   4   1   1 1.23687 1.04218   2
   4   1   1 3.56498 0.85648   2
   4   1   1 3.74489 1.10164   1
   4   1   1 4.64885 0.86765   1
   4   1   1 8.00503 1.12362   3
   4   1   1 7.12800 1.39483   3
  -5  -1  -1 0.25016 0.69333   3
  -5  -1  -1 -0.3590 0.85005   2
  -5  -1  -1 2.72956 0.82781   1
   5   1   1 0.02191 1.14549   3
   5   1   1 1.69901 1.25026   3
   5   1   1 0.66780 1.09397   1
   5   1   1 -1.0789 1.21035   1
   5   1   1 0.99388 1.59588   2
   5   1   1 1.96181 1.13311   2
   6  -2  -1 1.13676 1.34879   2
   6  -2  -1 0.72092 1.79055   2
   6  -2  -1 -0.2191 1.50585   3
   6  -2  -1 -0.4952 1.85373   3
   6  -2  -1 0.71495 1.18496   1
   6  -2  -1 -0.7411 1.85699   1
  -6   2   1 0.05795 0.74093   2
   5  -2  -1 -0.0076 1.21095   3
   5  -2  -1 -0.3413 0.95373   3
   5  -2  -1 -0.7867 0.78093   1
   5  -2  -1 0.77459 1.01991   1
   5  -2  -1 -0.4486 0.83699   2
   5  -2  -1 -0.4831 1.24379   2
  -5   2   1 1.18820 1.09787   2
  -5   2   1 0.15305 0.53722   2
  -5   2   1 -0.2002 0.51712   1
  -5   2   1 -0.5939 1.20211   1
   4  -2  -1 33.6711 3.80725   2
   4  -2  -1 31.6389 3.26645   2
   4  -2  -1 51.2198 6.32725   1
   4  -2  -1 53.4633 5.52443   1
   4  -2  -1 46.8605 4.92560   3
   4  -2  -1 55.8921 5.67009   3
  -4   2   1 51.7816 5.39268   3
  -4   2   1 51.1969 4.84525   3
  -4   2   1 32.9607 3.18704   2
  -4   2   1 33.9647 3.59420   2
  -4   2   1 56.8009 6.07028   1
  -4   2   1 64.0049 5.46559   1
   3  -2  -1 306.275 29.2224   1
   3  -2  -1 319.363 33.2220   1
   3  -2  -1 182.870 19.2238   2
   3  -2  -1 179.393 16.8905   2
   3  -2  -1 292.713 27.5011   3
   3  -2  -1 288.935 31.2503   3
  -3   2   1 307.410 29.1646   1
  -3   2   1 330.827 31.8742   1
  -3   2   1 299.881 29.1578   1
  -3   2   1 176.692 16.8440   2
  -3   2   1 177.928 16.8518   2
  -3   2   1 184.258 18.4302   2
  -3   2   1 297.819 27.4362   3
  -3   2   1 289.453 27.4329   3
  -3   2   1 295.977 29.9821   3
   2  -2  -1 -0.1129 0.28436   3
   2  -2  -1 -0.0540 0.28025   3
   2  -2  -1 0.01559 0.34060   3
   2  -2  -1 0.23529 0.24536   3
   2  -2  -1 -0.0259 0.27007   2
   2  -2  -1 -0.1097 0.40157   2
   2  -2  -1 0.60983 0.39854   1
  -2   2   1 -0.9605 0.17511   3
  -2   2   1 -0.9221 0.21390   3
  -2   2   1 0.53967 0.44547   3
  -2   2   1 0.06956 0.26876   3
  -2   2   1 -0.0501 0.17802   2
  -2   2   1 0.09388 0.30693   2
  -2   2   1 -0.4847 0.24881   2
  -2   2   1 1.20621 0.23743   1
  -2   2   1 1.42216 0.44910   1
   1  -2  -1 47.1961 4.17584   3
   1  -2  -1 35.7506 3.66723   3
   1  -2  -1 2219.73 238.414   1
   1  -2  -1 2102.89 210.014   1
   1  -2  -1 2251.60 215.881  -3
   1  -2  -1 2251.60 215.881   1
  -1   2   1 2285.83 209.660   1
  -1   2   1 2240.57 209.660   1
  -1   2   1 2359.55 248.248   1
  -1   2   1 51.7500 5.75539   2
  -1   2   1 53.9862 5.25287   2
  -1   2   1 60.6955 5.25229   2
  -1   2   1 35.1114 4.34845   3
  -1   2   1 2357.83 235.217  -3
  -1   2   1 2357.83 235.217   1
   0  -2  -1 1379.65 136.131  -3
   0  -2  -1 1379.65 136.131  -2
   0  -2  -1 1379.65 136.131   1
   0   2   1 1428.67 135.908  -3
   0   2   1 1428.67 135.908  -2
   0   2   1 1428.67 135.908   1
   0   2   1 1552.46 160.926  -3
   0   2   1 1552.46 160.926  -2
   0   2   1 1552.46 160.926   1
  -1  -2  -1 1.18254 0.32436   3
  -1  -2  -1 1.65786 0.31734   3
  -1  -2  -1 1.38588 0.31147   3
  -1  -2  -1 0.47079 0.51059  -2
  -1  -2  -1 0.47079 0.51059   1
  -1  -2  -1 1.40004 0.50718  -2
  -1  -2  -1 1.40004 0.50718   1
  -1  -2  -1 2.16688 0.53723  -2
  -1  -2  -1 2.16688 0.53723   1
   1   2   1 0.94108 0.39501   2
   1   2   1 0.42366 0.28298   2
   1   2   1 0.60733 0.32018   2
   1   2   1 0.88285 0.29296   2
   1   2   1 1.80645 0.32688   3
   1   2   1 1.20336 0.34107   3
   1   2   1 1.52093 0.40063   3
   1   2   1 0.86452 0.30312   3
   1   2   1 1.04930 0.28228   1
   1   2   1 1.64215 0.34197   1
   1   2   1 0.68610 0.31939   1
   1   2   1 0.84706 0.39151   1
  -2  -2  -1 78.4299 7.58610   2
  -2  -2  -1 77.8807 6.95672   2
  -2  -2  -1 75.2161 6.96890   2
  -2  -2  -1 120.133 10.9969   3
  -2  -2  -1 118.649 11.9648   3
  -2  -2  -1 112.065 10.9593   3
  -2  -2  -1 123.896 11.3037   1
  -2  -2  -1 125.847 12.3456   1
  -2  -2  -1 118.689 11.3329   1
   2   2   1 117.684 12.4779   3
   2   2   1 114.575 12.9881   3
   2   2   1 116.706 10.9891   3
   2   2   1 117.297 10.9816   3
   2   2   1 70.0858 6.96303   2
   2   2   1 70.5368 7.93683   2
   2   2   1 69.3012 8.24344   2
   2   2   1 72.9107 6.96729   2
   2   2   1 123.731 11.3385   1
   2   2   1 114.898 11.3286   1
   2   2   1 124.066 12.8914   1
   2   2   1 110.532 13.4071   1
  -3  -2  -1 79.7906 7.99893   1
  -3  -2  -1 85.1443 8.75027   1
  -3  -2  -1 82.1764 8.34135   3
  -3  -2  -1 88.5178 9.10215   3
  -3  -2  -1 47.0318 4.90135   2
  -3  -2  -1 54.2866 5.34859   2
   3   2   1 86.5245 9.16036   1
   3   2   1 86.1109 9.52213   1
   3   2   1 88.4810 8.04965   1
   3   2   1 85.4024 9.88470   3
   3   2   1 96.7088 9.52926   3
   3   2   1 90.3788 8.37410   3
   3   2   1 56.4353 5.65777   2
   3   2   1 52.9955 4.94662   2
   3   2   1 47.7351 5.84279   2
  -4  -2  -1 14.0328 1.60227   2
  -4  -2  -1 14.3621 1.80592   2
  -4  -2  -1 25.7715 2.56275   3
  -4  -2  -1 25.4557 2.96161   1
  -4  -2  -1 22.5333 2.37391   1
   4   2   1 22.2306 2.59152   3
   4   2   1 26.2952 2.97521   3
   4   2   1 14.5850 2.03312   2
   4   2   1 14.4556 1.71877   2
   4   2   1 20.4433 2.39642   1
   4   2   1 24.7481 2.81785   1
  -5  -2  -1 6.14743 1.20102   3
  -5  -2  -1 3.12059 0.86732   1
  -5  -2  -1 3.18326 1.02580   2
   5   2   1 9.65334 1.82102   3
   5   2   1 6.07750 1.50396   1
   5   2   1 4.07724 1.55623   2
   6  -3  -1 5.60061 1.85594   1
   6  -3  -1 6.11780 1.37851   1
   6  -3  -1 3.82924 2.16697   2
   6  -3  -1 1.50454 1.32358   2
   6  -3  -1 7.23206 1.62456   3
   6  -3  -1 7.41876 1.87954   3
   5  -3  -1 18.1198 2.51013   1
   5  -3  -1 17.8351 2.07317   1
   5  -3  -1 20.3450 2.38010   3
   5  -3  -1 23.5886 2.81477   3
   5  -3  -1 11.4001 1.45410   2
   5  -3  -1 12.1914 1.98952   2
  -5   3   1 11.7424 1.72784   2
  -5   3   1 23.3868 2.54146   1
   4  -3  -1 74.9924 7.29259   2
   4  -3  -1 73.6515 6.34326   2
   4  -3  -1 120.998 12.7549   3
   4  -3  -1 116.556 11.1950   3
   4  -3  -1 120.513 11.0626   1
   4  -3  -1 120.404 12.6198   1
  -4   3   1 110.227 12.0866   1
  -4   3   1 60.0455 6.92593   2
  -4   3   1 63.3125 6.25408   2
  -4   3   1 118.731 12.2347   3
   3  -3  -1 10.9791 1.69303   1
   3  -3  -1 16.3236 1.42438   1
   3  -3  -1 5.61040 0.73346   2
   3  -3  -1 5.33484 1.02106   2
   3  -3  -1 11.1341 1.35295   3
   3  -3  -1 9.83881 1.07161   3
  -3   3   1 12.6679 1.64773   1
  -3   3   1 9.56945 1.25257   3
  -3   3   1 6.71324 0.91458   2
  -3   3   1 5.97117 0.65108   2
  -3   3   1 6.78333 0.67976   2
   2  -3  -1 124.321 11.2747   1
   2  -3  -1 109.146 11.2625   1
   2  -3  -1 30.7703 3.06305   2
   2  -3  -1 33.8428 3.07682   2
   2  -3  -1 28.1349 3.52130   2
   2  -3  -1 52.7545 5.00307   3
   2  -3  -1 47.3196 5.68791   3
   2  -3  -1 53.2192 4.99430   3
  -2   3   1 55.4965 5.48209   3
  -2   3   1 56.1648 5.91123   3
  -2   3   1 31.3042 3.37344   2
  -2   3   1 35.9282 3.62742   2
  -2   3   1 128.272 13.3226   1
   1  -3  -1 637.580 59.4158  -3
   1  -3  -1 637.580 59.4158   1
   1  -3  -1 322.795 35.3282   3
   1  -3  -1 328.451 31.1154   3
   1  -3  -1 217.139 22.7448   2
   1  -3  -1 203.427 20.0288   2
   1  -3  -1 587.491 55.0506  -2
   1  -3  -1 587.491 55.0506   1
   1  -3  -1 355.378 36.9310   1
  -1   3   1 338.277 38.4660   1
  -1   3   1 630.341 64.7589  -3
  -1   3   1 630.341 64.7589   1
  -1   3   1 213.062 23.6929   2
  -1   3   1 222.972 21.8486   2
  -1   3   1 350.518 36.8011   3
  -1   3   1 327.873 35.3263   3
   0  -3  -1 1245.86 119.203  -3
   0  -3  -1 1245.86 119.203  -2
   0  -3  -1 1245.86 119.203   1
   0   3   1 1361.65 140.921  -3
   0   3   1 1361.65 140.921  -2
   0   3   1 1361.65 140.921   1
   0   3   1 1212.05 119.003  -3
   0   3   1 1212.05 119.003  -2
   0   3   1 1212.05 119.003   1
  -1  -3  -1 3.28069 0.72391  -2
  -1  -3  -1 3.28069 0.72391   1
  -1  -3  -1 4.58534 0.71879  -2
  -1  -3  -1 4.58534 0.71879   1
  -1  -3  -1 3.87459 0.66917  -2
  -1  -3  -1 3.87459 0.66917   1
  -1  -3  -1 2.81973 0.43170   3
  -1  -3  -1 2.80597 0.43315   3
  -1  -3  -1 4.15270 0.54625   3
   1   3   1 2.67459 0.46073   3
   1   3   1 2.36263 0.57184   3
   1   3   1 2.49448 0.47619   3
   1   3   1 3.28148 0.47782   1
   1   3   1 3.50333 0.52050   1
   1   3   1 3.05139 0.63586   1
   1   3   1 1.57335 0.38078   2
   1   3   1 1.64397 0.42265   2
   1   3   1 1.68527 0.36393   2
   1   3   1 2.73690 0.54308   2
   1   3   1 4.35878 0.85678  -3
   1   3   1 4.35878 0.85678   1
  -2  -3  -1 0.59360 0.63861   3
  -2  -3  -1 0.68155 0.58704   3
  -2  -3  -1 -0.3046 0.45374   3
  -2  -3  -1 0.61253 0.34913   1
  -2  -3  -1 0.38788 0.30369   1
  -2  -3  -1 0.93717 0.40901   1
  -2  -3  -1 0.38866 0.39740   2
  -2  -3  -1 0.02757 0.33152   2
  -2  -3  -1 -0.0551 0.37431   2
   2   3   1 1.04617 0.60549   3
   2   3   1 0.22604 0.51827   3
   2   3   1 0.94493 0.48124   3
   2   3   1 0.42132 0.52254   3
   2   3   1 0.71467 0.53806   1
   2   3   1 -0.2591 0.54915   1
   2   3   1 0.57625 0.48555   1
   2   3   1 1.31575 0.65337   1
   2   3   1 0.71320 0.48016   2
   2   3   1 0.49089 0.62611   2
   2   3   1 0.50742 0.50953   2
   2   3   1 0.02611 0.61520   2
  -3  -3  -1 11.3390 1.38938   2
  -3  -3  -1 11.0457 1.47645   2
  -3  -3  -1 17.2132 2.41214   3
  -3  -3  -1 23.5172 2.23634   3
  -3  -3  -1 25.5550 2.71443   1
  -3  -3  -1 25.6769 2.48265   1
   3   3   1 12.2547 1.75528   2
   3   3   1 11.6450 1.46549   2
   3   3   1 14.7611 1.72930   2
   3   3   1 12.8659 1.40718   2
   3   3   1 21.9201 2.28157   3
   3   3   1 26.1370 2.55648   3
   3   3   1 18.6125 2.64960   3
   3   3   1 24.2016 2.54906   1
   3   3   1 23.4757 2.90009   1
   3   3   1 23.0995 3.00903   1
  -4  -3  -1 53.4825 5.08518   1
  -4  -3  -1 35.0043 3.52046   2
  -4  -3  -1 33.7782 3.88023   2
  -4  -3  -1 54.2126 5.42421   3
   4   3   1 56.9454 6.26905   3
   4   3   1 59.1065 5.61259   3
   4   3   1 38.1025 4.22264   2
   4   3   1 42.5265 5.42982   1
   4   3   1 57.1700 5.92455   1
  -5  -3  -1 0.97368 1.05673   3
  -5  -3  -1 0.55002 1.09191   2
  -5  -3  -1 2.74545 1.01386   1
   5   3   1 1.71206 1.48175   1
   5   3   1 -0.9926 1.61530   2
   5   3   1 2.02106 1.45240   3
   6  -4  -1 2.39750 1.93658   3
   6  -4  -1 -0.7952 1.31491   3
   6  -4  -1 -0.2527 1.12711   1
   6  -4  -1 2.70658 1.82134   1
   6  -4  -1 -0.4892 1.28322   2
   6  -4  -1 -0.9547 2.10579   2
   5  -4  -1 0.38234 0.79768   2
   5  -4  -1 2.19382 1.21718   2
   5  -4  -1 -0.0958 1.33568   1
   5  -4  -1 2.48356 0.76761   1
   5  -4  -1 0.16631 0.85969   3
   5  -4  -1 1.06111 1.31224   3
  -5   4   1 2.30939 1.32690   1
  -5   4   1 1.32477 1.09663   2
   4  -4  -1 107.843 10.0997   3
   4  -4  -1 110.542 11.5301   3
   4  -4  -1 118.941 12.4003   1
   4  -4  -1 112.610 10.8405   1
   4  -4  -1 65.2337 6.15354   2
   4  -4  -1 74.1333 7.13636   2
  -4   4   1 57.4139 6.75651   2
  -4   4   1 102.198 11.0463   3
  -4   4   1 115.077 11.8965   1
   3  -4  -1 23.2766 2.12495   1
   3  -4  -1 20.6970 2.51388   1
   3  -4  -1 16.7525 1.82699   3
   3  -4  -1 19.6377 2.16144   3
   3  -4  -1 10.8387 1.45795   2
   3  -4  -1 12.3680 1.18162   2
  -3   4   1 20.0413 2.40992   1
  -3   4   1 19.3833 2.05276   3
  -3   4   1 10.0023 1.38689   2
   2  -4  -1 4.56716 0.69671   1
   2  -4  -1 4.35471 0.49772   1
   2  -4  -1 7.25965 0.91166  -3
   2  -4  -1 7.25965 0.91166   1
   2  -4  -1 3.04392 0.41702   2
   2  -4  -1 2.50710 0.36249   2
   2  -4  -1 2.89290 0.54479   2
   2  -4  -1 4.57250 0.72061   3
   2  -4  -1 4.58310 0.55311   3
  -2   4   1 4.99422 0.70065   1
  -2   4   1 4.95531 0.74240   1
  -2   4   1 2.97816 0.53690   2
  -2   4   1 2.61565 0.52214   2
  -2   4   1 6.08700 0.78035   3
  -2   4   1 6.68284 0.81629   3
   1  -4  -1 303.434 28.1203  -3
   1  -4  -1 303.434 28.1203   1
   1  -4  -1 291.554 31.9249  -3
   1  -4  -1 291.554 31.9249   1
   1  -4  -1 74.9880 8.15018   2
   1  -4  -1 72.6911 7.17650   2
  -1   4   1 75.3609 8.14798   2
  -1   4   1 86.7404 7.86281   2
  -1   4   1 120.311 13.3777   3
  -1   4   1 315.249 30.6789  -3
  -1   4   1 315.249 30.6789   1
  -1   4   1 292.824 31.9221  -3
  -1   4   1 292.824 31.9221   1
  -1   4   1 204.857 22.7364   1
   0   4   1 1161.62 113.590  -3
   0   4   1 1161.62 113.590  -2
   0   4   1 1161.62 113.590   1
   0   4   1 1269.53 134.519  -3
   0   4   1 1269.53 134.519  -2
   0   4   1 1269.53 134.519   1
  -1  -4  -1 37.9938 3.84537   3
  -1  -4  -1 38.4048 3.84029   3
  -1  -4  -1 38.7375 4.20996   3
  -1  -4  -1 70.4614 6.52119  -2
  -1  -4  -1 70.4614 6.52119   1
  -1  -4  -1 67.4424 6.52811  -2
  -1  -4  -1 67.4424 6.52811   1
  -1  -4  -1 22.4628 2.33254   2
  -1  -4  -1 51.6040 4.63309   1
   1   4   1 22.3882 2.55934   2
   1   4   1 19.9332 2.13244   2
   1   4   1 22.6179 2.42180   2
   1   4   1 45.8748 3.85451   3
   1   4   1 91.8882 8.92893  -3
   1   4   1 91.8882 8.92893   1
   1   4   1 78.8023 7.49358  -3
   1   4   1 78.8023 7.49358   1
   1   4   1 72.7037 8.48539  -3
   1   4   1 72.7037 8.48539   1
   1   4   1 38.4911 4.23651   1
  -2  -4  -1 26.3991 2.29181   2
  -2  -4  -1 22.7474 2.26977   2
  -2  -4  -1 24.5526 2.42252   2
  -2  -4  -1 44.1219 4.12641   3
  -2  -4  -1 35.9997 4.41877   3
  -2  -4  -1 40.2153 4.08990   3
  -2  -4  -1 54.3619 4.37489   1
  -2  -4  -1 60.7831 4.35836   1
  -2  -4  -1 41.6757 4.72386   1
   2   4   1 37.2265 4.08176   3
   2   4   1 39.7021 4.58341   3
   2   4   1 50.6820 4.07592   3
   2   4   1 48.1413 4.83526   3
   2   4   1 35.1135 5.18755   1
   2   4   1 47.3385 4.37189   1
   2   4   1 36.0649 4.38457   1
   2   4   1 40.9490 4.94738   1
   2   4   1 26.3652 2.28669   2
   2   4   1 21.4888 2.27944   2
   2   4   1 19.3993 2.75989   2
   2   4   1 17.0247 2.50754   2
  -3  -4  -1 161.171 15.3886   2
  -3  -4  -1 148.684 16.7812   2
  -3  -4  -1 288.677 26.6208   3
  -3  -4  -1 263.042 29.0535   3
  -3  -4  -1 258.924 27.6367   1
  -3  -4  -1 273.095 25.3115   1
   3   4   1 264.444 30.0085   1
   3   4   1 266.123 25.4099   1
   3   4   1 286.760 28.8267   1
   3   4   1 273.359 31.5335   3
   3   4   1 299.972 30.2905   3
   3   4   1 298.846 26.7199   3
   3   4   1 177.909 17.5360   2
   3   4   1 167.755 18.2534   2
   3   4   1 166.307 15.4170   2
  -4  -4  -1 0.12607 0.58510   2
  -4  -4  -1 0.83687 0.97145   2
  -4  -4  -1 0.30259 0.72407   3
  -4  -4  -1 0.25173 0.57284   1
   4   4   1 -0.4193 1.17954   3
   4   4   1 0.32860 1.22897   2
   4   4   1 -1.2062 1.04618   1
  -5  -4  -1 -1.2999 1.18619   3
  -5  -4  -1 -0.5801 1.06461   2
  -5  -4  -1 0.66944 0.91514   1
   5   4   1 -0.6337 1.72630   1
   5   4   1 1.49189 1.46931   3
   5   4   1 -1.1662 1.83803   2
   6  -5  -1 -0.7045 1.90598   1
   6  -5  -1 -0.7181 1.09319   1
   6  -5  -1 -0.0016 1.67125   3
   6  -5  -1 -0.3036 1.29751   3
   6  -5  -1 0.50673 1.19142   2
   6  -5  -1 2.33353 1.96322   2
   5  -5  -1 208.459 19.5056   3
   5  -5  -1 205.153 22.2039   3
   5  -5  -1 211.096 19.9414   1
   5  -5  -1 171.477 17.4459   1
   5  -5  -1 127.238 12.7341   2
   5  -5  -1 109.005 11.0661   2
  -5   5   1 183.419 19.0898   1
  -5   5   1 119.395 12.1207   2
   4  -5  -1 -0.0410 0.57616   3
   4  -5  -1 0.61808 0.92895   3
   4  -5  -1 0.27365 0.53524   2
   4  -5  -1 1.13604 0.90660   2
   4  -5  -1 1.11647 0.49499   1
   4  -5  -1 1.58151 0.93280   1
  -4   5   1 -0.4905 0.93728   1
  -4   5   1 -1.0131 0.68822   2
  -4   5   1 0.23261 0.85318   3
   3  -5  -1 0.29086 0.67454   2
   3  -5  -1 -0.3277 0.36193   2
   3  -5  -1 -0.4361 0.64443   3
   3  -5  -1 0.03552 0.39190   3
   3  -5  -1 2.66461 0.39543   1
   3  -5  -1 3.16124 0.72530   1
  -3   5   1 0.19363 0.64696   2
  -3   5   1 0.11452 0.62042   3
  -3   5   1 -0.1743 0.68137   1
   2  -5  -1 12.2311 1.55254   2
   2  -5  -1 11.6046 1.33347   2
   2  -5  -1 13.9825 1.29934   2
   2  -5  -1 114.041 12.0906   1
   2  -5  -1 105.738 10.6195   1
   2  -5  -1 126.567 11.8881  -3
   2  -5  -1 126.567 11.8881   1
   2  -5  -1 22.0077 2.53317   3
   2  -5  -1 22.2151 2.19000   3
  -2   5   1 13.3791 1.56599   2
  -2   5   1 15.1998 1.63205   2
  -2   5   1 117.786 11.6432   1
  -2   5   1 120.221 12.5998   1
  -2   5   1 25.1074 2.69053   3
  -2   5   1 23.9644 2.48267   3
   1  -5  -1 23.7488 2.82835   2
   1  -5  -1 26.1860 2.49398   2
   1  -5  -1 26.9545 2.49639   2
   1  -5  -1 237.762 23.3317  -3
   1  -5  -1 237.762 23.3317   1
   1  -5  -1 279.600 23.3404  -3
   1  -5  -1 279.600 23.3404   1
  -1   5   1 280.061 25.4851  -3
  -1   5   1 280.061 25.4851   1
  -1   5   1 211.716 26.4786  -3
  -1   5   1 211.716 26.4786   1
  -1   5   1 25.5946 2.77132   2
  -1   5   1 27.8707 2.82883   2
   0   5   1 149.768 16.4903  -3
   0   5   1 149.768 16.4903  -2
   0   5   1 149.768 16.4903   1
   0   5   1 151.947 13.8939  -3
   0   5   1 151.947 13.8939  -2
   0   5   1 151.947 13.8939   1
   0   5   1 143.345 13.8833  -3
   0   5   1 143.345 13.8833  -2
   0   5   1 143.345 13.8833   1
  -1  -5  -1 3.79632 0.71213   3
  -1  -5  -1 2.01716 0.42554   1
  -1  -5  -1 4.00402 0.58030   1
  -1  -5  -1 1.65005 0.55860   2
  -1  -5  -1 1.83156 0.43194   2
  -1  -5  -1 19.3955 2.07674  -2
  -1  -5  -1 19.3955 2.07674   1
   1   5   1 -0.1549 0.49123   2
   1   5   1 1.29581 0.41659   2
   1   5   1 1.97034 0.72246   2
   1   5   1 1.95062 0.52423   2
   1   5   1 15.4917 1.17938  -3
   1   5   1 15.4917 1.17938   1
   1   5   1 2.18199 1.08910  -3
   1   5   1 2.18199 1.08910   1
   1   5   1 1.20994 0.78452   1
   1   5   1 2.33968 0.59578   1
  -2  -5  -1 0.17000 0.61019   2
  -2  -5  -1 -0.1085 0.72609   2
  -2  -5  -1 0.64228 0.67895   2
  -2  -5  -1 0.96596 0.65237   1
  -2  -5  -1 0.38739 0.60162   1
  -2  -5  -1 1.37711 0.63604   1
  -2  -5  -1 0.59050 0.77041   3
  -2  -5  -1 0.06894 0.61945   3
  -2  -5  -1 0.83681 0.77081   3
   2   5   1 0.53734 0.62825   3
   2   5   1 1.53151 0.69308   3
   2   5   1 0.21243 0.92436   3
   2   5   1 1.04152 0.68754   1
   2   5   1 0.37783 0.64975   1
   2   5   1 0.99646 0.93400   1
   2   5   1 0.16292 0.58221   2
   2   5   1 -0.3333 0.66478   2
   2   5   1 0.27385 0.86149   2
  -3  -5  -1 87.6636 9.84534   2
  -3  -5  -1 95.3947 9.03605   2
  -3  -5  -1 153.959 14.3490   3
  -3  -5  -1 153.269 15.6631   3
  -3  -5  -1 150.002 14.1156   1
  -3  -5  -1 146.541 15.4218   1
   3   5   1 94.4750 10.3028   2
   3   5   1 97.2856 9.06649   2
   3   5   1 102.275 10.7321   2
   3   5   1 155.393 16.7735   1
   3   5   1 144.826 14.1713   1
   3   5   1 152.877 16.0947   1
   3   5   1 158.524 17.0060   3
   3   5   1 148.584 14.3737   3
   3   5   1 146.443 16.3044   3
  -4  -5  -1 -0.2052 0.75114   2
  -4  -5  -1 -0.0420 1.00192   2
  -4  -5  -1 -0.5667 0.64092   1
  -4  -5  -1 -0.2374 0.85324   3
   4   5   1 -0.3817 1.39802   2
   4   5   1 -0.0966 1.06842   3
   4   5   1 -0.0056 1.33492   1
  -5  -5  -1 -0.2548 1.29817   2
  -5  -5  -1 -0.8786 1.34005   3
  -5  -5  -1 -0.3686 1.11933   1
   5   5   1 -0.0473 1.71398   3
   5   5   1 0.02573 2.12897   2
   5   5   1 -1.4176 1.97349   1
   6  -6  -1 10.4419 2.46645   3
   6  -6  -1 9.57276 2.28088   1
   6  -6  -1 11.0931 2.39338   2
   5  -6  -1 16.8227 2.16760   1
   5  -6  -1 13.3743 1.61866   1
   5  -6  -1 7.30423 1.18800   2
   5  -6  -1 9.26526 1.75292   2
   5  -6  -1 14.6143 2.39069   3
   5  -6  -1 17.8457 1.88685   3
  -5   6   1 15.6044 2.23616   1
  -5   6   1 12.0064 1.63349   2
   4  -6  -1 98.6114 9.44694   1
   4  -6  -1 79.9768 8.21446   1
   4  -6  -1 92.8502 8.91107   3
   4  -6  -1 99.5440 10.2030   3
   4  -6  -1 50.8636 4.89616   2
   4  -6  -1 57.7303 5.70812   2
  -4   6   1 91.1367 9.79584   3
  -4   6   1 46.5474 5.39603   2
  -4   6   1 89.7995 9.06771   1
   3  -6  -1 3.75715 0.83616   3
   3  -6  -1 4.45513 0.57698   3
   3  -6  -1 2.72562 0.41641   2
   3  -6  -1 1.53576 0.79121   2
   3  -6  -1 4.48835 0.87335   1
   3  -6  -1 3.18352 0.48812   1
  -3   6   1 3.68447 0.91617   3
  -3   6   1 0.66790 0.63359   2
  -3   6   1 5.13609 0.98391   1
   2  -6  -1 68.1924 6.33300   2
   2  -6  -1 67.3788 7.23042   2
   2  -6  -1 61.5495 6.34047   2
   2  -6  -1 120.489 12.9924   3
   2  -6  -1 117.816 11.4169   3
   2  -6  -1 255.478 23.9583  -3
   2  -6  -1 255.478 23.9583   1
   2  -6  -1 190.605 19.8351   1
   2  -6  -1 181.082 17.4467   1
  -2   6   1 71.3338 6.97679   2
  -2   6   1 71.2525 7.54312   2
  -2   6   1 125.771 13.5616   3
  -2   6   1 125.193 12.5267   3
  -2   6   1 122.060 12.9852   3
  -2   6   1 190.054 20.6786   1
  -2   6   1 183.321 19.0790   1
   1  -6  -1 8.79715 0.84768   2
   1  -6  -1 8.01383 0.94257   2
   1  -6  -1 6.82026 0.80648   2
   1  -6  -1 24.1252 2.34102  -3
   1  -6  -1 24.1252 2.34102   1
   1  -6  -1 24.3074 2.35468  -3
   1  -6  -1 24.3074 2.35468   1
  -1   6   1 7.28378 0.92964   2
  -1   6   1 7.65503 1.01697   2
  -1   6   1 19.7853 2.59583  -3
  -1   6   1 19.7853 2.59583   1
  -1   6   1 25.4741 2.61533  -3
  -1   6   1 25.4741 2.61533   1
   0   6   1 24.0078 2.62857   2
   0   6   1 99.4451 11.3746  -3
   0   6   1 99.4451 11.3746  -2
   0   6   1 99.4451 11.3746   1
   0   6   1 102.510 9.53597  -3
   0   6   1 102.510 9.53597  -2
   0   6   1 102.510 9.53597   1
   0   6   1 84.6006 9.04352  -3
   0   6   1 84.6006 9.04352   1
  -1  -6  -1 3.01136 0.53285   2
  -1  -6  -1 2.60707 0.66319   2
  -1  -6  -1 8.80258 1.05338   3
  -1  -6  -1 9.38732 1.27180   3
  -1  -6  -1 3.95693 0.80313   1
  -1  -6  -1 5.62614 0.68161   1
   1   6   1 1.91319 0.67123   2
   1   6   1 2.97633 0.54515   2
   1   6   1 2.83166 0.78959   2
   1   6   1 11.3656 2.08794  -3
   1   6   1 11.3656 2.08794   1
   1   6   1 9.47289 1.62493  -3
   1   6   1 9.47289 1.62493   1
   1   6   1 14.5870 1.55013  -3
   1   6   1 14.5870 1.55013   1
  -2  -6  -1 41.6996 3.99571   1
  -2  -6  -1 32.4073 3.66002   1
  -2  -6  -1 37.1108 4.01598   3
  -2  -6  -1 40.2560 4.25734   3
  -2  -6  -1 30.6872 2.82218   2
  -2  -6  -1 23.8925 2.64837   2
   2   6   1 41.4504 3.67867   1
   2   6   1 37.2840 4.42291   1
   2   6   1 33.4418 4.10631   1
   2   6   1 40.1753 4.70832   3
   2   6   1 41.9085 3.93722   3
   2   6   1 39.3168 4.39593   3
   2   6   1 26.9886 2.60417   2
   2   6   1 25.1856 3.14754   2
   2   6   1 19.6550 2.90120   2
  -3  -6  -1 23.5690 2.76156   2
  -3  -6  -1 38.0720 4.67616   1
  -3  -6  -1 39.3072 4.91329   3
   3   6   1 46.7224 5.45372   3
   3   6   1 48.9650 5.14950   3
   3   6   1 49.6451 4.58918   3
   3   6   1 51.2650 4.44166   1
   3   6   1 46.9194 5.22205   1
   3   6   1 43.3569 4.95315   1
   3   6   1 24.7706 3.05417   2
   3   6   1 24.8881 2.94342   2
   3   6   1 22.2412 2.50804   2
  -4  -6  -1 3.66598 0.85626   1
  -4  -6  -1 6.01917 1.29308   3
  -4  -6  -1 3.42086 1.23793   2
   4   6   1 4.91287 1.54702   1
   4   6   1 4.16779 1.47615   3
   4   6   1 1.54348 1.48640   2
   5  -7  -1 12.5530 1.52945   1
   5  -7  -1 16.3008 2.21972   1
   5  -7  -1 14.7633 1.75682   3
   5  -7  -1 15.2640 2.25963   3
   5  -7  -1 5.97084 1.02412   2
   5  -7  -1 8.21294 1.85487   2
  -5   7   1 14.8410 2.19439   1
  -5   7   1 7.31013 1.49068   2
   4  -7  -1 15.3913 1.99003   2
   4  -7  -1 14.6617 1.48661   2
   4  -7  -1 34.2034 3.92160   3
   4  -7  -1 34.9308 3.33556   3
   4  -7  -1 27.0945 2.83972   1
   4  -7  -1 32.2370 3.43815   1
  -4   7   1 31.7088 3.81851   3
  -4   7   1 31.6542 3.33670   1
  -4   7   1 11.6506 1.76645   2
   3  -7  -1 3.58471 0.95304   2
   3  -7  -1 3.19056 0.49953   2
   3  -7  -1 23.3140 2.18889   1
   3  -7  -1 21.5077 2.66467   1
   3  -7  -1 9.34873 0.86578   3
   3  -7  -1 5.16146 1.16640   3
  -3   7   1 6.23817 1.21144   3
  -3   7   1 20.6749 2.58007   1
  -3   7   1 3.46687 0.88356   2
   2  -7  -1 154.949 14.5619  -3
   2  -7  -1 154.949 14.5619   1
   2  -7  -1 40.4853 4.27007   2
   2  -7  -1 49.5267 5.00204   2
   2  -7  -1 98.7317 9.92815   1
   2  -7  -1 77.6003 8.70229   3
  -2   7   1 83.7391 9.12631   3
  -2   7   1 78.1273 8.41265   3
  -2   7   1 84.4210 8.69177   3
  -2   7   1 87.0106 10.3631   1
  -2   7   1 91.5918 9.88525   1
  -2   7   1 91.5377 9.57867   1
  -2   7   1 47.3735 5.13649   2
  -2   7   1 50.1271 4.77784   2
   1  -7  -1 1.12614 0.37023   2
   1  -7  -1 1.01720 0.59101   2
   1  -7  -1 2.35296 0.93272  -3
   1  -7  -1 2.35296 0.93272   1
   1  -7  -1 8.77262 0.79181  -3
   1  -7  -1 8.77262 0.79181   1
  -1   7   1 3.16489 0.99758  -3
  -1   7   1 3.16489 0.99758   1
  -1   7   1 0.92553 0.60766   2
   0  -7  -1 3.19421 0.79592   2
   0  -7  -1 7.31750 1.21385  -3
   0  -7  -1 7.31750 1.21385   1
   0   7   1 7.59586 1.95193  -3
   0   7   1 7.59586 1.95193  -2
   0   7   1 7.59586 1.95193   1
   0   7   1 9.55849 1.20412  -3
   0   7   1 9.55849 1.20412  -2
   0   7   1 9.55849 1.20412   1
  -1  -7  -1 30.0300 3.36887  -3
  -1  -7  -1 30.0300 3.36887   1
  -1  -7  -1 0.55185 0.48466   2
  -1  -7  -1 1.55901 0.74201   2
  -1  -7  -1 2.53394 0.78542   1
   1   7   1 30.2436 4.23498  -3
   1   7   1 30.2436 4.23498   1
   1   7   1 38.9830 3.37644  -3
   1   7   1 38.9830 3.37644   1
   1   7   1 0.93094 0.49220   2
   1   7   1 -0.1942 0.83772   2
  -2  -7  -1 2.91004 0.93746   1
  -2  -7  -1 3.34371 0.94237   1
  -2  -7  -1 3.72155 1.10682   3
  -2  -7  -1 3.91144 0.94753   3
  -2  -7  -1 2.23155 0.76721   2
  -2  -7  -1 1.50742 0.86139   2
   2   7   1 6.49146 1.09421   1
   2   7   1 3.37671 0.87830   1
   2   7   1 3.98872 1.26085   1
   2   7   1 3.70544 1.12206   2
   2   7   1 0.58178 0.66882   2
   2   7   1 4.59713 0.85231   3
   2   7   1 2.93628 1.21473   3
  -3  -7  -1 3.99492 1.16359   1
  -3  -7  -1 4.70051 1.12035   3
  -3  -7  -1 3.66869 1.11595   2
   3   7   1 3.61463 1.45236   2
   3   7   1 1.81463 1.00096   2
   3   7   1 2.56011 1.10303   3
   3   7   1 4.98605 1.52237   3
   3   7   1 4.15322 1.56688   1
   3   7   1 4.38659 1.12140   1
  -4  -7  -1 21.1929 2.72598   2
   5  -8  -1 0.76523 0.79638   2
   5  -8  -1 0.10168 0.77849   3
   5  -8  -1 1.11625 0.71583   1
  -5   8   1 -0.1798 1.22816   2
  -5   8   1 0.61320 1.66182   1
   4  -8  -1 -0.0977 0.47168   2
   4  -8  -1 1.12790 0.54497   3
   4  -8  -1 2.21448 0.53362   1
  -4   8   1 1.74114 1.15767   2
  -4   8   1 -0.4608 1.19045   3
  -4   8   1 2.79984 1.36018   1
   3  -8  -1 2.02086 0.47332   1
   3  -8  -1 0.23788 0.41629   3
   3  -8  -1 -0.4278 0.36793   2
  -3   8   1 -0.7883 0.99506   3
  -3   8   1 -0.9848 0.85410   2
  -3   8   1 2.93937 1.13700   1
   2  -8  -1 -0.0287 0.41731   2
   2  -8  -1 0.81126 0.43848   1
   2  -8  -1 0.25059 0.46121   3
  -2   8   1 -0.4018 0.75849   2
  -2   8   1 -1.0619 0.65893   2
  -2   8   1 -0.1872 0.78548   1
  -2   8   1 -0.1067 0.91885   1
  -2   8   1 0.11151 0.79533   3
  -2   8   1 -0.4237 0.91981   3
   1  -8  -1 42.6412 3.74690  -3
   1  -8  -1 42.6412 3.74690   1
   1  -8  -1 37.7045 4.14525  -3
   1  -8  -1 37.7045 4.14525   1
   1  -8  -1 12.2574 1.27807   2
   1  -8  -1 11.9014 1.48172   2
  -1   8   1 8.42103 1.46485   2
  -1   8   1 14.1861 1.67970   2
  -1   8   1 40.2937 4.68222  -3
  -1   8   1 40.2937 4.68222   1
  -1   8   1 33.0591 4.14934  -3
  -1   8   1 33.0591 4.14934   1
   0  -8  -1 1.15756 0.76019   2
   0  -8  -1 5.74550 1.19053  -3
   0  -8  -1 5.74550 1.19053   1
   0   8   1 3.73204 0.95739  -3
   0   8   1 3.73204 0.95739  -2
   0   8   1 3.73204 0.95739   1
   0   8   1 2.48540 1.40016  -3
   0   8   1 2.48540 1.40016   1
   0   8   1 0.26984 0.92998   2
  -1  -8  -1 4.94202 1.07171   3
  -1  -8  -1 1.36267 0.80785   2
  -1  -8  -1 1.87324 0.60130   2
  -1  -8  -1 8.14782 1.50392  -3
  -1  -8  -1 8.14782 1.50392   1
  -1  -8  -1 1.34426 0.77106   1
   1   8   1 7.24334 2.25001  -3
   1   8   1 7.24334 2.25001   1
   1   8   1 6.62806 1.44819  -3
   1   8   1 6.62806 1.44819   1
   1   8   1 1.01832 0.52710   2
   1   8   1 0.88367 1.01783   2
  -2  -8  -1 17.5856 1.90940   3
  -2  -8  -1 10.3157 1.80334   3
  -2  -8  -1 12.6107 1.49785   1
  -2  -8  -1 8.03339 1.37273   1
  -2  -8  -1 4.83221 1.20025   2
  -2  -8  -1 5.23457 1.11404   2
   2   8   1 7.54454 1.01866   2
   2   8   1 8.43924 1.50449   2
   2   8   1 14.3532 1.60463   3
   2   8   1 14.0556 2.11466   3
   2   8   1 10.7866 1.35687   1
   2   8   1 9.56678 1.87756   1
  -3  -8  -1 14.6383 2.08736   1
  -3  -8  -1 8.41226 1.55281   2
  -3  -8  -1 17.0568 2.36548   3
   3   8   1 20.1341 2.69286   3
   3   8   1 16.6359 2.05535   3
   3   8   1 8.60376 1.44812   2
   3   8   1 15.3591 2.26536   2
   3   8   1 15.8558 1.95304   1
   3   8   1 16.0514 2.52895   1
   5  -9  -1 2.99357 0.89707   2
   5  -9  -1 6.54368 1.09701   1
   5  -9  -1 5.14572 1.00942   3
  -5   9   1 7.51882 2.01027   1
  -5   9   1 1.81561 1.40954   2
   4  -9  -1 24.5701 2.47923   2
   4  -9  -1 48.1076 4.62116   1
   4  -9  -1 47.1286 4.62271   3
  -4   9   1 48.1789 5.38627   1
  -4   9   1 24.6319 2.91188   2
  -4   9   1 50.7382 5.26877   3
   3  -9  -1 2.43826 0.55089   2
   3  -9  -1 7.56095 0.95074   1
   3  -9  -1 6.19890 0.79775   3
  -3   9   1 4.56022 1.37165   3
  -3   9   1 3.36419 1.02366   2
  -3   9   1 9.29641 1.53409   1
   2  -9  -1 28.9045 2.79754   1
   2  -9  -1 14.7195 1.49512   2
   2  -9  -1 25.7029 2.54626   3
   2  -9  -1 22.2649 2.91741   3
  -2   9   1 13.6825 1.81529   2
  -2   9   1 12.7582 1.89550   2
  -2   9   1 48.3902 5.86477  -3
  -2   9   1 48.3902 5.86477   1
  -2   9   1 27.3424 3.23156   1
  -2   9   1 29.2640 3.04141   3
   1  -9  -1 0.19375 1.12339  -3
   1  -9  -1 0.19375 1.12339   1
   1  -9  -1 -0.1617 0.76237   2
   1  -9  -1 1.37797 0.51082   2
  -1   9   1 1.17581 0.97944   2
  -1   9   1 1.01156 0.85630   2
  -1   9   1 -0.6089 1.90866  -3
  -1   9   1 -0.6089 1.90866   1
  -1   9   1 3.27428 1.49198  -3
  -1   9   1 3.27428 1.49198   1
   0  -9  -1 285.043 29.2427  -3
   0  -9  -1 285.043 29.2427   1
   0  -9  -1 94.4900 9.82680   2
   0   9   1 410.801 45.6911  -3
   0   9   1 410.801 45.6911  -2
   0   9   1 410.801 45.6911   1
  -1  -9  -1 91.5875 9.57555  -3
  -1  -9  -1 91.5875 9.57555   1
  -1  -9  -1 105.814 10.4917  -3
  -1  -9  -1 105.814 10.4917   1
  -1  -9  -1 30.2096 3.42390   2
  -1  -9  -1 24.7989 3.14046   2
   1   9   1 28.5060 3.84904   2
   1   9   1 36.5263 3.07610   2
   1   9   1 102.263 9.52228  -3
   1   9   1 102.263 9.52228   1
   1   9   1 101.120 11.4588  -3
   1   9   1 101.120 11.4588   1
  -2  -9  -1 0.28296 1.08410   2
  -2  -9  -1 1.26259 0.91374   2
  -2  -9  -1 1.12894 0.84657   1
  -2  -9  -1 0.24725 0.90167   1
  -2  -9  -1 1.03678 1.05695   3
  -2  -9  -1 2.30990 1.26691   3
   2   9   1 0.27867 0.80023   2
   2   9   1 0.82511 1.54683   2
   2   9   1 1.23333 0.83207   3
   2   9   1 1.79012 1.31803   3
   2   9   1 1.75966 1.51367   1
   2   9   1 1.51929 0.97936   1
  -3  -9  -1 0.81537 1.31846   1
  -3  -9  -1 2.15642 1.49563   3
  -3  -9  -1 0.70770 1.33257   2
   3   9   1 3.59162 1.72707   3
   3   9   1 2.50815 1.35071   3
   3   9   1 0.68180 1.73470   2
   3   9   1 -0.2889 1.18668   2
   3   9   1 4.07319 1.41258   1
   3   9   1 1.39221 2.10075   1
   5 -10  -1 -0.4288 0.86786   1
   5 -10  -1 0.91936 0.96121   3
   5 -10  -1 0.25482 0.81832   2
  -5  10   1 -1.2892 2.01609   1
  -5  10   1 1.28981 1.77206   2
   4 -10  -1 2.96990 0.66197   2
   4 -10  -1 10.2298 1.30266   1
   4 -10  -1 3.99017 0.81700   3
  -4  10   1 17.3375 2.26974   1
  -4  10   1 1.43916 1.21908   2
  -4  10   1 4.31006 1.63028   3
   3 -10  -1 38.3292 3.71342   1
   3 -10  -1 15.0068 1.63636   2
   3 -10  -1 23.1194 2.43119   3
  -3  10   1 24.4824 2.89988   3
  -3  10   1 18.5832 2.14035   2
  -3  10   1 37.3579 4.38562   1
   2 -10  -1 27.5342 2.77998   2
   2 -10  -1 25.8961 3.21499   2
   2 -10  -1 69.0430 7.18642   1
   2 -10  -1 67.0100 6.42685   1
   2 -10  -1 54.5897 4.94440   3
   2 -10  -1 45.5695 5.50911   3
  -2  10   1 33.4552 3.50948   2
  -2  10   1 26.3652 3.21467   2
  -2  10   1 133.745 13.3248  -3
  -2  10   1 133.745 13.3248   1
  -2  10   1 121.239 14.4158  -3
  -2  10   1 121.239 14.4158   1
   1 -10  -1 145.324 13.0584  -3
   1 -10  -1 145.324 13.0584   1
   1 -10  -1 120.972 14.2977  -3
   1 -10  -1 120.972 14.2977   1
   1 -10  -1 52.0541 4.66296   2
   1 -10  -1 52.1017 5.18967   2
  -1  10   1 43.9492 5.58766   2
  -1  10   1 43.1265 5.18259   2
  -1  10   1 148.247 15.5955  -3
  -1  10   1 148.247 15.5955   1
   0 -10  -1 83.6037 9.16816  -3
   0 -10  -1 83.6037 9.16816   1
   0 -10  -1 32.8225 3.84271   2
   0  10   1 89.1329 8.24344  -3
   0  10   1 89.1329 8.24344   1
   0  10   1 86.7972 9.96292  -3
   0  10   1 86.7972 9.96292   1
   0  10   1 36.8697 4.28149   2
  -1 -10  -1 152.780 15.8144   3
  -1 -10  -1 90.1270 10.2096   2
  -1 -10  -1 95.2104 9.33669   2
  -1 -10  -1 297.597 30.6208  -3
  -1 -10  -1 297.597 30.6208   1
  -1 -10  -1 175.519 18.1075   1
   1  10   1 350.430 36.3354  -3
   1  10   1 350.430 36.3354   1
   1  10   1 334.852 30.5434  -3
   1  10   1 334.852 30.5434   1
   1  10   1 106.013 11.1477   2
   1  10   1 100.975 9.27403   2
  -2 -10  -1 8.10397 1.79957   2
  -2 -10  -1 15.2114 1.76698   2
  -2 -10  -1 24.4652 3.21031   3
  -2 -10  -1 19.3389 2.70612   1
   2  10   1 27.0808 3.41422   1
   2  10   1 24.4113 2.54887   1
   2  10   1 27.5469 3.68099   3
   2  10   1 28.9742 2.88655   3
   2  10   1 14.8683 2.28270   2
   2  10   1 12.4812 1.57223   2
  -3 -10  -1 11.4154 1.89073   1
  -3 -10  -1 11.8616 2.34468   3
  -3 -10  -1 5.90870 1.69141   2
   3  10   1 10.5482 2.34908   2
   3  10   1 9.37471 1.65128   2
   3  10   1 9.51877 2.69928   1
   3  10   1 11.0711 1.92704   1
   3  10   1 18.1683 2.76648   3
   3  10   1 13.0177 2.09242   3
   4 -11  -1 0.53533 0.87434   1
   4 -11  -1 1.49910 0.91738   3
   4 -11  -1 -0.2392 0.68455   2
  -4  11   1 -0.1582 1.79051   3
  -4  11   1 0.19331 1.79298   1
  -4  11   1 0.94472 1.37883   2
   3 -11  -1 7.19657 1.03993   1
   3 -11  -1 8.46428 1.60322   1
   3 -11  -1 2.00251 0.65784   2
   3 -11  -1 8.61389 1.10445   3
   3 -11  -1 7.97140 1.73521   3
  -3  11   1 1.50694 1.22669   2
  -3  11   1 7.43107 1.66050   1
  -3  11   1 6.15385 1.81421   3
   2 -11  -1 0.96741 0.74324   3
   2 -11  -1 -0.1771 1.12774   3
   2 -11  -1 0.86474 0.67086   1
   2 -11  -1 0.40597 1.06559   1
   2 -11  -1 0.66136 0.66374   2
   2 -11  -1 0.87912 1.03642   2
  -2  11   1 -0.2319 1.20252   1
  -2  11   1 3.79259 2.72661  -3
  -2  11   1 3.79259 2.72661   1
  -2  11   1 -0.5131 1.16806   2
  -2  11   1 0.03875 1.20983   2
  -2  11   1 0.46998 1.20552   3
   1 -11  -1 6.40602 1.54294  -3
   1 -11  -1 6.40602 1.54294   1
   1 -11  -1 7.83110 1.03828  -3
   1 -11  -1 7.83110 1.03828   1
   1 -11  -1 4.17427 1.19743   2
   1 -11  -1 3.52172 0.74826   2
  -1  11   1 4.40595 1.29308   2
  -1  11   1 2.51389 1.25336   2
  -1  11   1 9.70254 2.61673  -3
  -1  11   1 9.70254 2.61673   1
   0 -11  -1 16.6229 1.85279   2
   0 -11  -1 15.7590 2.21987   2
   0 -11  -1 54.8054 5.95101  -3
   0 -11  -1 54.8054 5.95101   1
   0 -11  -1 54.7399 5.28689  -3
   0 -11  -1 54.7399 5.28689   1
   0  11   1 17.8631 2.48302   2
   0  11   1 50.3168 6.38360  -3
   0  11   1 50.3168 6.38360   1
  -1 -11  -1 23.0258 2.45390   2
  -1 -11  -1 21.1561 2.79290   2
  -1 -11  -1 39.8718 4.54618   1
  -1 -11  -1 68.8636 7.87993  -3
  -1 -11  -1 68.8636 7.87993   1
  -1 -11  -1 35.3900 4.12833   3
   1  11   1 85.8209 7.75576  -3
   1  11   1 85.8209 7.75576   1
   1  11   1 86.8911 9.64478  -3
   1  11   1 86.8911 9.64478   1
   1  11   1 23.4140 2.38169   2
   1  11   1 21.3712 3.08644   2
  -2 -11  -1 40.1940 5.06572   2
  -2 -11  -1 73.0443 8.59704   1
  -2 -11  -1 73.3949 8.72464   3
   2  11   1 83.9702 7.87976   3
   2  11   1 85.9017 9.50947   3
   2  11   1 51.5697 5.91635   2
   2  11   1 48.5557 4.62483   2
   2  11   1 87.3494 7.87874   1
   2  11   1 82.4529 9.62547   1
   4 -12  -1 19.3913 2.50665   1
   4 -12  -1 12.9860 1.73302   1
   4 -12  -1 14.9683 2.76831   3
   4 -12  -1 21.1977 2.06967   3
   4 -12  -1 7.62725 1.20026   2
  -4  12   1 10.4781 2.12356   2
  -4  12   1 12.5745 2.62554   1
  -4  12   1 14.5968 2.93640   3
   3 -12  -1 8.33865 1.09991   1
   3 -12  -1 8.38107 1.88617   1
   3 -12  -1 2.38979 0.96010   3
   3 -12  -1 1.08155 1.46293   3
   3 -12  -1 1.44675 1.32428   2
   3 -12  -1 0.23382 0.76107   2
  -3  12   1 0.41120 1.33133   2
  -3  12   1 3.83053 1.78299   3
  -3  12   1 4.71699 1.75518   1
   2 -12  -1 0.35509 1.19153   2
   2 -12  -1 0.04023 1.28948   1
   2 -12  -1 0.08367 1.25856   3
  -2  12   1 0.55141 1.47994   1
  -2  12   1 -0.4512 1.32274   3
  -2  12   1 0.26407 1.37162   2
  -2  12   1 -0.7323 1.26563   2
  -2  12   1 -2.2021 3.00224  -3
  -2  12   1 -2.2021 3.00224   1
   1 -12  -1 77.0174 7.58357  -3
   1 -12  -1 77.0174 7.58357   1
   1 -12  -1 66.9498 6.78004  -3
   1 -12  -1 66.9498 6.78004   1
   1 -12  -1 23.0426 2.84139   2
   1 -12  -1 22.0351 2.28816   2
  -1  12   1 23.8417 2.95026   2
  -1  12   1 18.2409 2.88297   2
  -1  12   1 69.5555 8.44465  -3
  -1  12   1 69.5555 8.44465   1
   0 -12  -1 42.3966 4.52374  -3
   0 -12  -1 42.3966 4.52374   1
   0 -12  -1 48.4810 5.20985  -3
   0 -12  -1 48.4810 5.20985   1
   0 -12  -1 12.6534 1.51992   2
   0 -12  -1 10.9274 1.90254   2
   0  12   1 12.2896 2.07847   2
   0  12   1 44.1965 5.52949  -3
   0  12   1 44.1965 5.52949   1
  -1 -12  -1 23.7481 2.64881   2
  -1 -12  -1 24.9241 3.10014   2
  -1 -12  -1 86.4968 8.59419  -3
  -1 -12  -1 86.4968 8.59419   1
  -1 -12  -1 53.4369 5.94949   1
  -1 -12  -1 38.5992 4.54017   3
   1  12   1 98.2568 10.5443  -3
   1  12   1 98.2568 10.5443   1
   1  12   1 83.2376 8.34062  -3
   1  12   1 83.2376 8.34062   1
   1  12   1 20.1730 3.25303   2
   1  12   1 24.6643 2.51268   2
  -2 -12  -1 48.5568 5.97116   3
  -2 -12  -1 23.9705 2.90332   2
  -2 -12  -1 40.9121 4.63546   1
   2  12   1 36.0618 5.17362   1
   2  12   1 39.0048 4.64265   1
   2  12   1 51.9678 6.42154   3
   2  12   1 52.4167 5.50173   3
   2  12   1 19.2303 3.15053   2
   2  12   1 17.8203 2.64178   2
   3 -13  -1 0.94519 0.97523   2
   3 -13  -1 1.99376 1.62126   2
   3 -13  -1 4.64948 2.01275   3
   3 -13  -1 3.07518 1.71380   1
  -3  13   1 1.73760 1.60618   2
  -3  13   1 3.87657 1.84178   1
  -3  13   1 2.32050 1.78511   3
   2 -13  -1 60.0216 7.13025   2
   2 -13  -1 69.4815 6.38161   2
   2 -13  -1 235.567 22.1608  -3
   2 -13  -1 235.567 22.1608   1
   2 -13  -1 121.504 11.6694   3
   2 -13  -1 113.120 11.5218   1
  -2  13   1 66.6354 7.17473   2
  -2  13   1 63.8042 7.75457   2
  -2  13   1 104.738 11.5373   1
  -2  13   1 233.555 26.4462  -3
  -2  13   1 233.555 26.4462   1
  -2  13   1 100.506 11.6460   3
   1 -13  -1 3.47246 1.50550  -3
   1 -13  -1 3.47246 1.50550   1
   1 -13  -1 4.40673 2.26596  -3
   1 -13  -1 4.40673 2.26596   1
   1 -13  -1 0.49168 0.95338   2
   1 -13  -1 1.46374 1.63755   2
  -1  13   1 12.1996 3.46957  -3
  -1  13   1 12.1996 3.46957   1
  -1  13   1 0.20852 1.57313   2
   0 -13  -1 5.01389 2.19023  -3
   0 -13  -1 5.01389 2.19023   1
   0 -13  -1 11.4826 2.73941  -3
   0 -13  -1 11.4826 2.73941   1
   0 -13  -1 1.44168 1.06979   2
   0 -13  -1 0.24819 1.64105   2
   0  13   1 -0.7567 1.63729   2
   0  13   1 4.10912 2.83242  -3
   0  13   1 4.10912 2.83242   1
  -1 -13  -1 5.22179 3.52677  -3
  -1 -13  -1 5.22179 3.52677   1
  -1 -13  -1 10.2077 3.17308  -3
  -1 -13  -1 10.2077 3.17308   1
  -1 -13  -1 2.82744 1.56538   2
  -1 -13  -1 -0.7554 1.87034   2
   1  13   1 6.77399 1.54913  -3
   1  13   1 6.77399 1.54913   1
   1  13   1 2.09057 1.86155   2
   2 -14  -1 2.49120 1.71956   1
   2 -14  -1 3.62309 2.02283   3
   2 -14  -1 2.78270 1.03613   2
   2 -14  -1 -1.2180 1.76918   2
  -2  14   1 0.44630 1.92025   2
  -2  14   1 2.92305 2.16071   2
  -2  14   1 3.12543 1.92963   1
  -2  14   1 13.5908 4.99261  -3
  -2  14   1 13.5908 4.99261   1
   1 -14  -1 18.0968 2.92618   2
   1 -14  -1 20.6513 2.37922   2
  -1  14   1 24.8684 3.28592   2
  -1  14   1 73.9154 9.10839  -3
  -1  14   1 73.9154 9.10839   1
   0  14  -2 1.31936 1.96116   2
   0  14  -2 1.61268 3.81089  -3
   0  14  -2 1.61268 3.81089   1
   0 -14   2 0.51814 1.66570   2
   0 -14   2 1.82460 0.97969   2
   0 -14   2 1.56057 1.72379  -3
   0 -14   2 1.56057 1.72379   1
   0 -14   2 4.94179 2.12905  -3
   0 -14   2 4.94179 2.12905   1
  -1  14  -2 20.1009 3.12017   2
  -1  14  -2 77.7794 9.12781  -3
  -1  14  -2 77.7794 9.12781   1
   1 -14   2 21.9186 2.36699   2
   1 -14   2 21.6731 3.02085   2
   1 -14   2 73.8236 7.29397  -3
   1 -14   2 73.8236 7.29397   1
   1 -14   2 73.6119 8.23288  -3
   1 -14   2 73.6119 8.23288   1
  -2  14  -2 0.97635 1.79007   2
  -2  14  -2 4.18775 3.89266  -3
  -2  14  -2 4.18775 3.89266   1
   2 -14   2 0.74648 1.91379   2
   2 -14   2 -0.4466 0.75064   2
   2 -14   2 2.68405 3.15410  -3
   2 -14   2 2.68405 3.15410   1
   2 -14   2 2.43589 1.81705  -3
   2 -14   2 2.43589 1.81705   1
   1  13  -2 23.0180 2.93324   2
   1  13  -2 90.3395 10.0220  -3
   1  13  -2 90.3395 10.0220   1
  -1 -13   2 14.2712 2.30309   2
  -1 -13   2 16.7161 2.00771   2
  -1 -13   2 77.4224 8.08716  -3
  -1 -13   2 77.4224 8.08716   1
  -1 -13   2 46.7426 5.39385   3
  -1 -13   2 37.2688 4.27109   1
   0  13  -2 54.4363 6.34195  -3
   0  13  -2 54.4363 6.34195   1
   0  13  -2 8.93458 2.19577   2
   0 -13   2 12.1185 1.41888   2
   0 -13   2 11.3479 1.90209   2
   0 -13   2 50.9626 5.41240  -3
   0 -13   2 50.9626 5.41240   1
   0 -13   2 43.4981 4.73877  -3
   0 -13   2 43.4981 4.73877   1
  -1  13  -2 22.8360 4.25439  -3
  -1  13  -2 22.8360 4.25439   1
  -1  13  -2 8.19596 1.86949   2
   1 -13   2 5.65508 1.53553   2
   1 -13   2 7.19742 1.05111   2
   1 -13   2 26.2260 2.94008  -3
   1 -13   2 26.2260 2.94008   1
   1 -13   2 26.6441 3.68368  -3
   1 -13   2 26.6441 3.68368   1
  -2  13  -2 8.71090 2.02036   2
  -2  13  -2 30.0745 5.29314  -3
  -2  13  -2 30.0745 5.29314   1
   2 -13   2 40.7248 4.58392  -3
   2 -13   2 40.7248 4.58392   1
   2 -13   2 34.2853 3.57351  -3
   2 -13   2 34.2853 3.57351   1
   2 -13   2 11.8773 2.01684   2
   2 -13   2 9.58642 1.15733   2
  -3  13  -2 1.02797 1.95970   3
  -3  13  -2 0.81056 1.79093   3
  -3  13  -2 1.36455 1.63367   1
  -3  13  -2 3.13628 1.88145   2
   3 -13   2 -0.1656 1.63913   1
   3 -13   2 0.64237 0.51662   1
   3 -13   2 0.33250 1.71825   2
   3 -13   2 2.05540 1.49271   3
   2  12  -2 0.66088 1.99451   3
   2  12  -2 1.46809 0.99887   3
   2  12  -2 2.39073 2.22796   1
   2  12  -2 1.18829 1.01836   1
   2  12  -2 0.74988 0.84128   2
   2  12  -2 0.87658 1.88744   2
  -2 -12   2 0.72727 1.33941   1
  -2 -12   2 3.34498 1.59439   3
  -2 -12   2 0.87531 1.06222   2
  -2 -12   2 0.70757 1.39973   2
  -2 -12   2 7.00211 2.77798  -3
  -2 -12   2 7.00211 2.77798   1
   1  12  -2 1.61753 1.28476  -3
   1  12  -2 1.61753 1.28476   1
   1  12  -2 2.89003 3.13889  -3
   1  12  -2 2.89003 3.13889   1
   1  12  -2 -0.4144 1.53494   2
  -1 -12   2 2.10847 1.87368  -3
  -1 -12   2 2.10847 1.87368   1
  -1 -12   2 3.92292 2.35519  -3
  -1 -12   2 3.92292 2.35519   1
  -1 -12   2 -0.3082 1.12358   2
  -1 -12   2 0.98239 0.82048   2
   0  12  -2 1.97115 1.47902   2
   0  12  -2 9.94431 2.72163  -3
   0  12  -2 9.94431 2.72163   1
   0 -12   2 11.0109 2.34005  -3
   0 -12   2 11.0109 2.34005   1
   0 -12   2 11.9954 1.46413  -3
   0 -12   2 11.9954 1.46413   1
   0 -12   2 5.01122 1.35771   2
   0 -12   2 1.61706 0.91878   2
  -1  12  -2 48.7362 7.01031  -3
  -1  12  -2 48.7362 7.01031   1
  -1  12  -2 14.0526 1.97920   2
   1 -12   2 9.57013 1.21473   2
   1 -12   2 10.4594 1.68943   2
   1 -12   2 51.7732 6.32849  -3
   1 -12   2 51.7732 6.32849   1
   1 -12   2 66.2919 5.65813  -3
   1 -12   2 66.2919 5.65813   1
  -2  12  -2 0.42992 1.46105   2
  -2  12  -2 -0.0484 1.32132   2
  -2  12  -2 6.83854 2.91699  -3
  -2  12  -2 6.83854 2.91699   1
  -2  12  -2 8.88847 1.50462   1
   2 -12   2 0.34272 0.57822   2
   2 -12   2 -0.2847 1.27905   2
   2 -12   2 5.66786 0.76310   1
   2 -12   2 6.06937 1.42442   1
   2 -12   2 0.95396 0.60206   3
   2 -12   2 0.87814 1.25334   3
  -3  12  -2 2.17610 1.38046   3
  -3  12  -2 3.57423 1.58319   3
  -3  12  -2 3.17843 1.71790   1
  -3  12  -2 5.73306 1.70767   1
  -3  12  -2 2.60955 1.48637   2
   3 -12   2 0.88016 1.40425   2
   3 -12   2 3.66015 1.48370   1
   3 -12   2 1.78034 1.44861   3
   3  11  -2 0.27857 2.07690   2
   3  11  -2 -0.8682 1.13563   2
   3  11  -2 1.28371 1.32666   1
   3  11  -2 -0.5063 1.23736   3
  -3 -11   2 1.24312 1.41340   1
  -3 -11   2 0.26952 1.35369   2
  -3 -11   2 0.50920 1.55911   3
   2  11  -2 6.07431 1.81168   2
   2  11  -2 4.93564 0.98398   2
   2  11  -2 10.9604 2.15641   1
   2  11  -2 26.6046 3.32468  -3
   2  11  -2 26.6046 3.32468   1
   2  11  -2 12.3699 2.36967   3
  -2 -11   2 5.03378 1.09984   2
  -2 -11   2 8.03751 1.37959   2
  -2 -11   2 12.7436 2.02539   3
  -2 -11   2 9.37733 1.68003   1
  -2 -11   2 24.9669 3.45385  -3
  -2 -11   2 24.9669 3.45385   1
   1  11  -2 21.8089 2.42344  -3
   1  11  -2 21.8089 2.42344   1
   1  11  -2 23.4791 3.75629  -3
   1  11  -2 23.4791 3.75629   1
   1  11  -2 3.39069 1.43385   2
   1  11  -2 2.45186 0.58592   2
  -1 -11   2 2.82985 0.80748   2
  -1 -11   2 3.08915 1.06863   2
  -1 -11   2 24.4136 2.72046  -3
  -1 -11   2 24.4136 2.72046   1
  -1 -11   2 19.6734 3.14117  -3
  -1 -11   2 19.6734 3.14117   1
   0  11  -2 51.3711 6.31168   2
   0  11  -2 209.831 22.3566  -3
   0  11  -2 209.831 22.3566   1
   0 -11   2 54.6287 5.76532   2
   0 -11   2 55.0561 5.22343   2
   0 -11   2 187.937 18.7988  -3
   0 -11   2 187.937 18.7988   1
   0 -11   2 208.268 20.5986  -3
   0 -11   2 208.268 20.5986   1
  -1  11  -2 3.57517 1.30841   2
  -1  11  -2 20.3211 3.14082  -3
  -1  11  -2 20.3211 3.14082   1
   1 -11   2 2.97032 0.57281   2
   1 -11   2 3.37858 1.11710   2
   1 -11   2 17.1304 1.98444  -3
   1 -11   2 17.1304 1.98444   1
   1 -11   2 16.0502 2.53198  -3
   1 -11   2 16.0502 2.53198   1
  -2  11  -2 1.98353 1.15854   2
  -2  11  -2 2.23948 1.23370   2
  -2  11  -2 19.3575 3.33415  -3
  -2  11  -2 19.3575 3.33415   1
  -2  11  -2 11.1533 1.91117   1
  -2  11  -2 6.80551 1.34692   3
   2 -11   2 4.42683 1.32073   3
   2 -11   2 5.25301 0.72027   3
   2 -11   2 13.8864 1.88215   1
   2 -11   2 15.1263 1.49724   1
   2 -11   2 2.27710 1.08213   2
   2 -11   2 1.75147 0.46653   2
  -3  11  -2 19.7071 2.96008   3
  -3  11  -2 18.5997 2.81525   3
  -3  11  -2 10.3105 1.63751   2
  -3  11  -2 23.4089 2.59883   1
  -3  11  -2 15.3090 2.53092   1
   3 -11   2 29.2820 3.44250   3
   3 -11   2 26.9037 2.88127   3
   3 -11   2 9.53632 1.61703   2
   3 -11   2 19.2198 2.46481   1
   3  10  -2 1.59725 1.71033   2
   3  10  -2 0.01256 1.04275   2
   3  10  -2 0.44805 1.09290   3
   3  10  -2 -0.5769 1.12314   1
  -3 -10   2 0.69888 1.33989   1
  -3 -10   2 0.60548 1.35615   2
  -3 -10   2 0.52389 1.39093   3
   2  10  -2 2.65758 1.81221  -3
   2  10  -2 2.65758 1.81221   1
   2  10  -2 1.01289 1.29509   2
   2  10  -2 0.35757 0.72913   2
   2  10  -2 0.84049 1.47919   3
   2  10  -2 1.28511 1.47969   1
  -2 -10   2 0.22991 1.03823   2
  -2 -10   2 0.76141 0.80761   2
  -2 -10   2 1.12143 0.83818   1
  -2 -10   2 1.33351 0.98949   1
  -2 -10   2 0.56314 0.89090   3
  -2 -10   2 -0.0565 1.07369   3
   1  10  -2 61.7379 7.06299  -3
   1  10  -2 61.7379 7.06299   1
   1  10  -2 58.6521 5.63751  -3
   1  10  -2 58.6521 5.63751   1
   1  10  -2 10.6083 1.18109   2
   1  10  -2 9.96669 1.80344   2
  -1 -10   2 54.7304 5.73205  -3
  -1 -10   2 54.7304 5.73205   1
  -1 -10   2 59.8078 6.27511  -3
  -1 -10   2 59.8078 6.27511   1
  -1 -10   2 9.55214 1.26511   2
  -1 -10   2 15.6891 1.66001   2
   0  10  -2 36.3752 4.82506   2
   0  10  -2 169.464 17.2628  -3
   0  10  -2 169.464 17.2628   1
   0 -10   2 43.9206 4.38387   2
   0 -10   2 40.2344 3.93621   2
   0 -10   2 159.531 15.8904  -3
   0 -10   2 159.531 15.8904   1
   0 -10   2 141.379 14.4857  -3
   0 -10   2 141.379 14.4857   1
  -1  10  -2 317.282 33.1249  -3
  -1  10  -2 317.282 33.1249   1
  -1  10  -2 47.8042 5.69352   2
   1 -10   2 277.633 30.5037  -3
   1 -10   2 277.633 30.5037   1
   1 -10   2 298.454 27.9124  -3
   1 -10   2 298.454 27.9124   1
   1 -10   2 49.2611 4.64565   2
   1 -10   2 48.0889 5.20514   2
  -2  10  -2 10.7790 1.91609   3
  -2  10  -2 19.1983 2.37127   1
  -2  10  -2 7.07322 1.38133   2
  -2  10  -2 6.75286 1.23880   2
  -2  10  -2 31.0189 4.16794  -3
  -2  10  -2 31.0189 4.16794   1
   2 -10   2 18.1712 1.87916   1
   2 -10   2 22.6320 2.31834   1
   2 -10   2 19.3083 2.02863   3
   2 -10   2 15.4245 1.55012   3
   2 -10   2 6.72617 1.28987   2
  -3  10  -2 0.70551 0.99489   2
  -3  10  -2 12.0655 1.94568   1
  -3  10  -2 12.8521 1.96357   1
  -3  10  -2 3.24118 1.24637   3
  -3  10  -2 5.94681 1.23119   3
   3 -10   2 11.4490 1.85575   1
   3 -10   2 16.6754 2.24258   1
   3 -10   2 0.81499 0.97983   2
   3 -10   2 2.94591 1.66168   3
   3 -10   2 2.60417 1.26190   3
   4 -10   2 2.60663 0.55472   2
   5 -10   2 1.61876 0.88333   3
   5 -10   2 0.38058 0.85903   2
   5 -10   2 1.13939 0.80268   1
   4   9  -2 -0.0977 1.57043   3
   4   9  -2 -0.1474 1.46310   2
   4   9  -2 -0.3189 1.55362   1
  -4  -9   2 1.35880 1.58558   1
  -4  -9   2 0.43198 1.70682   3
  -4  -9   2 0.31487 1.37588   2
   3   9  -2 17.2784 2.74946   2
   3   9  -2 24.2571 2.28497   2
   3   9  -2 47.1885 4.55175   3
   3   9  -2 39.3534 4.11828   1
   3   9  -2 44.0014 4.68473   1
  -3  -9   2 17.9865 2.46226   2
  -3  -9   2 42.1719 4.90595   3
  -3  -9   2 35.6378 4.33609   1
   2   9  -2 7.72296 1.42233   3
   2   9  -2 9.15506 1.63659   3
   2   9  -2 6.36543 1.06131   3
   2   9  -2 3.06476 1.29916   2
   2   9  -2 4.44020 1.38927   2
   2   9  -2 2.82912 0.77879   2
   2   9  -2 3.57369 0.92173   1
   2   9  -2 8.23195 1.56464   1
   2   9  -2 5.35316 1.39151   1
  -2  -9   2 2.93306 0.94398   2
  -2  -9   2 3.19146 0.80755   2
  -2  -9   2 6.00971 1.13158   1
  -2  -9   2 4.87866 0.95026   1
  -2  -9   2 8.17564 1.36673   3
  -2  -9   2 5.60371 1.09875   3
   1   9  -2 28.3715 3.59586   2
   1   9  -2 31.6381 3.02953   2
   1   9  -2 29.6765 3.78653   2
   1   9  -2 124.740 12.2258  -3
   1   9  -2 124.740 12.2258   1
   1   9  -2 115.773 11.6591  -3
   1   9  -2 115.773 11.6591   1
   1   9  -2 99.5998 10.1675  -3
   1   9  -2 99.5998 10.1675   1
  -1  -9   2 34.8936 3.42669   2
  -1  -9   2 29.6636 3.07801   2
  -1  -9   2 97.6522 10.2188  -3
  -1  -9   2 97.6522 10.2188   1
  -1  -9   2 111.276 11.1802  -3
  -1  -9   2 111.276 11.1802   1
   0   9  -2 248.911 24.0423  -3
   0   9  -2 248.911 24.0423   1
   0   9  -2 229.947 25.0833  -3
   0   9  -2 229.947 25.0833   1
   0   9  -2 67.3987 6.86289   2
   0   9  -2 55.2716 7.14466   2
   0  -9   2 209.114 21.1439  -3
   0  -9   2 209.114 21.1439   1
   0  -9   2 215.423 23.1024  -3
   0  -9   2 215.423 23.1024   1
   0  -9   2 63.8450 5.98092   2
   0  -9   2 64.6661 6.59273   2
  -1   9  -2 0.46098 0.78529   2
  -1   9  -2 -1.0260 0.91153   2
  -1   9  -2 1.12694 0.84037   2
  -1   9  -2 7.08754 2.03793  -3
  -1   9  -2 7.08754 2.03793   1
  -1   9  -2 5.05886 1.37120  -3
  -1   9  -2 5.05886 1.37120   1
   1  -9   2 7.46272 0.95602  -3
   1  -9   2 7.46272 0.95602   1
   1  -9   2 7.96548 1.47974  -3
   1  -9   2 7.96548 1.47974   1
   1  -9   2 1.79972 0.76271   2
   1  -9   2 1.24350 0.40832   2
  -2   9  -2 116.540 12.5884   1
  -2   9  -2 111.567 12.1378   1
  -2   9  -2 114.232 12.5936   3
  -2   9  -2 117.132 12.1563   3
  -2   9  -2 68.1923 7.70852   2
  -2   9  -2 65.8159 7.09030   2
  -2   9  -2 66.4361 7.36058   2
  -2   9  -2 232.155 25.8842  -3
  -2   9  -2 232.155 25.8842   1
   2  -9   2 122.667 12.1602   3
   2  -9   2 124.661 12.1378   1
   2  -9   2 71.5577 7.10098   2
  -3   9  -2 29.9892 3.17962   1
  -3   9  -2 27.0372 3.22394   1
  -3   9  -2 21.1192 3.29875   1
  -3   9  -2 20.6217 2.33315   3
  -3   9  -2 15.7560 2.43784   3
  -3   9  -2 15.3382 2.30166   3
  -3   9  -2 6.69836 1.41438   2
  -3   9  -2 7.47547 1.42466   2
   3  -9   2 15.6869 2.27817   3
   3  -9   2 21.0792 2.38115   3
   3  -9   2 24.4439 2.69686   3
   3  -9   2 28.1852 3.41464   1
   3  -9   2 29.0047 3.25835   1
   3  -9   2 30.0848 3.19053   1
   3  -9   2 10.9018 1.50968   2
   4  -9   2 6.72764 0.91202   2
   4  -9   2 8.46524 1.65101   2
   4  -9   2 14.9847 2.27555   3
   4  -9   2 10.0176 1.07933   1
   4  -9   2 11.1986 1.73826   1
   5  -9   2 2.57517 1.79605   3
   5  -9   2 3.00612 0.88565   3
   5  -9   2 1.88822 1.88825   2
   5  -9   2 2.74097 0.89109   2
   5  -9   2 2.71466 0.83744   1
   5  -9   2 3.21379 1.58368   1
   4   8  -2 10.1960 2.11504   1
   4   8  -2 3.48332 1.69506   1
   4   8  -2 11.3857 1.88083   3
   4   8  -2 11.3372 2.20918   3
   4   8  -2 2.43609 1.35465   2
   4   8  -2 3.80820 1.77218   2
  -4  -8   2 8.76667 1.70902   1
  -4  -8   2 9.06793 1.87051   3
  -4  -8   2 3.74543 1.40409   2
   3   8  -2 0.91822 1.26400   3
   3   8  -2 0.97880 0.96080   3
   3   8  -2 -0.8047 2.26403   3
   3   8  -2 2.83748 1.31920   1
   3   8  -2 1.97895 1.05304   1
   3   8  -2 1.35850 1.27853   2
   3   8  -2 0.33078 0.86520   2
   3   8  -2 1.28686 1.33131   2
  -3  -8   2 0.75675 0.90499   2
  -3  -8   2 2.44159 1.05625   3
  -3  -8   2 1.01768 0.96425   1
   2   8  -2 41.7019 4.83579   3
   2   8  -2 45.6854 4.22965   3
   2   8  -2 45.5063 5.10202   3
   2   8  -2 42.7620 4.66152   1
   2   8  -2 44.2773 4.07312   1
   2   8  -2 42.6545 4.89846   1
   2   8  -2 24.8305 2.50624   2
   2   8  -2 21.3032 3.01038   2
   2   8  -2 25.1024 3.00475   2
  -2  -8   2 44.1104 4.27137   3
  -2  -8   2 38.4914 4.63846   3
  -2  -8   2 35.4349 4.03840   1
  -2  -8   2 41.3877 4.40219   1
  -2  -8   2 26.1295 2.81353   2
  -2  -8   2 24.1098 2.55130   2
   1   8  -2 4.25603 1.96870  -3
   1   8  -2 4.25603 1.96870   1
   1   8  -2 5.78094 1.53371  -3
   1   8  -2 5.78094 1.53371   1
   1   8  -2 4.98415 1.11587  -3
   1   8  -2 4.98415 1.11587   1
   1   8  -2 1.21547 0.94400   2
   1   8  -2 0.55000 0.88401   2
   1   8  -2 0.27676 0.43782   2
  -1  -8   2 8.17047 1.32203  -3
  -1  -8   2 8.17047 1.32203   1
  -1  -8   2 5.27382 1.25230  -3
  -1  -8   2 5.27382 1.25230   1
  -1  -8   2 -0.2286 0.44872   2
  -1  -8   2 1.29499 0.69038   2
   0   8  -2 109.400 12.0441   2
   0   8  -2 110.117 11.5610   2
   0   8  -2 378.902 39.4480  -3
   0   8  -2 378.902 39.4480   1
   0   8  -2 385.294 41.1133  -3
   0   8  -2 385.294 41.1133   1
   0  -8   2 346.899 34.7251  -3
   0  -8   2 346.899 34.7251   1
   0  -8   2 374.653 37.8931  -3
   0  -8   2 374.653 37.8931   1
   0  -8   2 107.626 10.1350   2
   0  -8   2 103.226 11.0966   2
  -1   8  -2 1.57577 0.82532   3
  -1   8  -2 3.22691 1.54456  -3
  -1   8  -2 3.22691 1.54456   1
  -1   8  -2 4.82335 1.10208  -3
  -1   8  -2 4.82335 1.10208   1
  -1   8  -2 0.30035 0.75025   2
  -1   8  -2 0.20347 0.67504   2
  -1   8  -2 -0.1127 0.81702   2
  -1   8  -2 2.43018 0.83631   1
   1  -8   2 0.46445 0.27759   2
   1  -8   2 0.13821 0.34783   2
   1  -8   2 0.33136 0.67412   2
   1  -8   2 2.66992 0.75197   1
   1  -8   2 1.54841 0.74439   3
   1  -8   2 2.95417 0.64900  -3
   1  -8   2 2.95417 0.64900   1
  -2   8  -2 19.1518 2.53417   3
  -2   8  -2 22.7214 2.55608   3
  -2   8  -2 32.1889 2.90404   3
  -2   8  -2 62.0737 6.57082   1
  -2   8  -2 56.8487 5.99987   1
  -2   8  -2 57.7584 6.19025   1
  -2   8  -2 10.3037 1.47222   2
  -2   8  -2 10.6458 1.44359   2
  -2   8  -2 15.2033 1.68646   2
   2  -8   2 52.7904 5.99815   1
   2  -8   2 8.91166 1.39170   2
   2  -8   2 19.6541 2.51742   3
  -3   8  -2 94.1693 8.85698   1
  -3   8  -2 82.2656 9.13417   1
  -3   8  -2 83.2407 9.60077   1
  -3   8  -2 52.2750 5.11561   2
  -3   8  -2 46.0342 5.29928   2
  -3   8  -2 76.6677 8.84294   3
  -3   8  -2 77.2135 9.26166   3
  -3   8  -2 89.0645 8.54315   3
   3  -8   2 87.9113 9.18438   1
   3  -8   2 77.5310 9.59277   1
   3  -8   2 89.8663 8.88017   3
   3  -8   2 76.0094 9.32474   3
   3  -8   2 45.6642 5.32339   2
   4  -8   2 4.22568 1.30942   3
   4  -8   2 2.66700 0.56534   3
   4  -8   2 0.99457 0.53292   2
   4  -8   2 2.15586 1.26618   2
   4  -8   2 5.88780 1.30131   1
   4  -8   2 3.27918 0.57944   1
   5  -8   2 1.19375 0.85207   3
   5  -8   2 -0.0110 1.64193   3
   5  -8   2 1.55747 1.70951   2
   5  -8   2 0.49890 0.91893   2
   5  -8   2 1.38172 0.75434   1
   5  -8   2 1.30272 1.48759   1
   4   7  -2 5.87462 1.40845   2
   4   7  -2 5.86455 1.67857   2
   4   7  -2 10.7310 1.79823   3
   4   7  -2 5.97777 1.71713   1
  -4  -7   2 8.31683 1.50866   1
  -4  -7   2 7.58720 1.70461   3
  -4  -7   2 2.96250 1.21393   2
   3   7  -2 15.6647 1.88216   1
   3   7  -2 17.4076 2.25204   1
   3   7  -2 19.9788 2.60310   3
   3   7  -2 13.8380 2.01436   3
   3   7  -2 17.5607 2.39319   3
   3   7  -2 9.09570 1.47140   2
   3   7  -2 7.53192 1.53264   2
   3   7  -2 8.51712 1.17622   2
  -3  -7   2 5.12245 1.17701   2
  -3  -7   2 22.6764 2.34807   3
  -3  -7   2 15.3362 2.05068   1
   2   7  -2 32.9218 3.69947   3
   2   7  -2 33.2367 3.03703   3
   2   7  -2 29.7753 3.46271   3
   2   7  -2 15.6463 1.96950   2
   2   7  -2 17.5001 2.00016   2
   2   7  -2 15.4510 1.60445   2
   2   7  -2 22.3580 2.99495   1
   2   7  -2 29.0199 2.64608   1
   2   7  -2 28.0125 3.18861   1
  -2  -7   2 20.3191 2.60567   1
  -2  -7   2 28.5531 2.87484   1
  -2  -7   2 28.8011 3.30347   3
  -2  -7   2 26.1679 3.05121   3
  -2  -7   2 12.3870 1.57356   2
  -2  -7   2 13.5850 1.75273   2
   1   7  -2 34.8425 3.57084   2
   1   7  -2 29.6657 3.02326   2
   1   7  -2 27.4644 3.64790   2
   1   7  -2 142.383 13.7700  -3
   1   7  -2 142.383 13.7700   1
   1   7  -2 115.935 12.0567  -3
   1   7  -2 115.935 12.0567   1
   1   7  -2 124.170 14.3673  -3
   1   7  -2 124.170 14.3673   1
  -1  -7   2 130.449 13.2217  -3
  -1  -7   2 130.449 13.2217   1
  -1  -7   2 131.571 12.0991  -3
  -1  -7   2 131.571 12.0991   1
  -1  -7   2 34.1130 3.05651   2
  -1  -7   2 31.7209 3.36565   2
   0   7  -2 105.784 9.74852  -3
   0   7  -2 105.784 9.74852   1
   0   7  -2 119.690 11.1645  -3
   0   7  -2 119.690 11.1645   1
   0   7  -2 92.8811 9.74812  -3
   0   7  -2 92.8811 9.74812   1
   0   7  -2 97.4897 11.6515  -3
   0   7  -2 97.4897 11.6515   1
   0   7  -2 0.66648 0.63957   2
   0   7  -2 1.13389 0.74295   2
   0  -7   2 102.356 10.7382  -3
   0  -7   2 102.356 10.7382   1
   0  -7   2 111.874 9.80009  -3
   0  -7   2 111.874 9.80009   1
   0  -7   2 1.03392 0.35120   2
   0  -7   2 1.27939 0.55576   2
  -1   7  -2 90.1576 8.89025   2
  -1   7  -2 85.9777 9.23812   2
  -1   7  -2 194.062 19.2500   1
  -1   7  -2 154.317 15.4404   3
  -1   7  -2 463.569 51.4390  -3
  -1   7  -2 463.569 51.4390  -2
  -1   7  -2 463.569 51.4390   1
  -1   7  -2 359.412 37.5557  -3
  -1   7  -2 359.412 37.5557   1
   1  -7   2 83.4709 8.88054   2
   1  -7   2 88.1570 8.08417   2
   1  -7   2 83.4479 8.08279   2
   1  -7   2 190.808 19.2455   1
   1  -7   2 181.915 17.6050   1
   1  -7   2 346.875 33.0438  -3
   1  -7   2 346.875 33.0438   1
   1  -7   2 150.899 15.4332   3
   1  -7   2 147.609 14.0996   3
  -2   7  -2 21.9982 2.71517   1
  -2   7  -2 23.9515 2.95874   1
  -2   7  -2 24.0735 2.70621   1
  -2   7  -2 20.5227 2.21447   3
  -2   7  -2 18.6061 2.21077   3
  -2   7  -2 21.2974 2.48624   3
  -2   7  -2 11.6828 1.40322   2
  -2   7  -2 10.5978 1.38924   2
  -2   7  -2 10.6394 1.50998   2
   2  -7   2 27.8322 2.68728   1
   2  -7   2 16.7225 2.15727   3
  -3   7  -2 19.3698 2.22230   2
  -3   7  -2 18.9915 2.79578   2
  -3   7  -2 14.8970 2.29681   2
  -3   7  -2 30.6415 3.86779   3
  -3   7  -2 38.3971 3.78925   3
  -3   7  -2 40.9678 4.21058   3
  -3   7  -2 140.126 16.8314   1
  -3   7  -2 178.570 17.5745   1
   3  -7   2 187.854 21.0138  -3
   3  -7   2 187.854 21.0138   1
   3  -7   2 19.4123 1.82843   2
   3  -7   2 20.3446 2.34542   2
   3  -7   2 157.819 16.8586   1
   3  -7   2 33.0866 3.90289   3
   4  -7   2 0.40255 1.07588   3
   4  -7   2 0.06725 0.53970   3
   4  -7   2 2.79817 1.17199   1
   4  -7   2 2.03276 0.53370   1
   4  -7   2 0.03922 0.47987   2
   4  -7   2 -1.1718 1.13061   2
   5  -7   2 14.9801 2.81105   2
   5  -7   2 25.2780 2.33994   2
   5  -7   2 52.5627 5.57353   3
   5  -7   2 45.2579 4.63289   3
   5  -7   2 42.8879 4.28505   1
   5  -7   2 45.2500 5.05587   1
   5   6  -2 0.85540 1.67595   3
   5   6  -2 1.03845 1.97284   1
   5   6  -2 0.23465 1.81414   2
  -5  -6   2 -3.4223 1.24629   1
  -5  -6   2 -0.3524 1.42940   1
  -5  -6   2 -0.1314 1.65313   2
  -5  -6   2 -0.8080 1.41609   3
  -5  -6   2 0.36622 2.68274   3
   4   6  -2 1.88218 1.23480   1
   4   6  -2 1.74723 1.39735   2
   4   6  -2 -0.0118 1.30219   3
  -4  -6   2 -0.2444 1.07578   2
  -4  -6   2 3.20578 1.24209   3
  -4  -6   2 -0.8957 1.23605   3
  -4  -6   2 1.02600 1.19334   1
   3   6  -2 4.61694 1.56902   3
   3   6  -2 4.43520 1.02097   3
   3   6  -2 4.56078 1.09365   3
   3   6  -2 4.59686 1.17634   1
   3   6  -2 3.41649 0.98288   1
   3   6  -2 3.07760 1.15192   2
   3   6  -2 1.10389 1.00510   2
   3   6  -2 2.59267 0.85932   2
  -3  -6   2 4.75708 1.06980   3
  -3  -6   2 1.98290 0.85414   2
  -3  -6   2 3.95610 0.93584   1
   2   6  -2 9.44987 1.20610   3
   2   6  -2 9.12563 1.49647   3
   2   6  -2 12.0293 1.40778   3
   2   6  -2 7.29670 1.12813   1
   2   6  -2 7.93388 1.46413   1
   2   6  -2 12.1577 1.40981   1
   2   6  -2 5.21036 1.03730   2
   2   6  -2 4.97822 0.83885   2
   2   6  -2 6.55313 1.00448   2
  -2  -6   2 5.12244 0.78453   2
  -2  -6   2 6.11032 0.92131   2
  -2  -6   2 12.7638 1.32019   1
  -2  -6   2 8.15980 1.07382   1
  -2  -6   2 11.0253 1.40356   3
  -2  -6   2 9.33806 1.17341   3
   1   6  -2 43.3392 4.10602   2
   1   6  -2 34.6795 4.23942   2
   1   6  -2 34.6795 3.52916   2
   1   6  -2 66.6767 7.52206   3
   1   6  -2 111.579 11.8661  -3
   1   6  -2 111.579 11.8661   1
   1   6  -2 142.511 13.5434  -3
   1   6  -2 142.511 13.5434   1
   1   6  -2 64.6157 7.29718   1
  -1  -6   2 128.254 12.9872  -3
  -1  -6   2 128.254 12.9872   1
  -1  -6   2 127.505 11.9000  -3
  -1  -6   2 127.505 11.9000   1
  -1  -6   2 34.1659 3.88044   2
  -1  -6   2 39.4872 3.54859   2
   0   6  -2 1.77399 0.66015   2
   0   6  -2 3.86654 0.64515   2
   0   6  -2 8.76517 1.46796  -3
   0   6  -2 8.76517 1.46796   1
   0   6  -2 9.53219 0.97609  -3
   0   6  -2 9.53219 0.97609   1
   0   6  -2 10.9841 1.32377  -3
   0   6  -2 10.9841 1.32377   1
   0   6  -2 8.85586 0.99216  -3
   0   6  -2 8.85586 0.99216   1
   0  -6   2 3.00788 0.56372   2
   0  -6   2 2.91476 0.49314   2
   0  -6   2 2.83792 0.41137   2
   0  -6   2 9.71247 1.06289  -3
   0  -6   2 9.71247 1.06289   1
   0  -6   2 9.82899 1.31074  -3
   0  -6   2 9.82899 1.31074   1
  -1   6  -2 98.9539 10.3524   2
  -1   6  -2 95.0267 9.55010   2
  -1   6  -2 88.9537 9.93333   2
  -1   6  -2 153.777 15.8675   3
  -1   6  -2 157.383 16.5078   3
  -1   6  -2 147.888 15.6458   1
  -1   6  -2 152.025 15.0390   1
  -1   6  -2 326.449 35.3233  -3
  -1   6  -2 326.449 35.3233   1
   1  -6   2 154.428 14.5036   3
   1  -6   2 152.708 15.8658   3
   1  -6   2 141.420 13.7401   1
   1  -6   2 148.913 15.0301   1
   1  -6   2 88.3186 9.54413   2
   1  -6   2 312.271 29.8249  -3
   1  -6   2 312.271 29.8249   1
  -2   6  -2 60.5473 6.52434   1
  -2   6  -2 53.2064 6.01258   1
  -2   6  -2 59.2163 6.23600   1
  -2   6  -2 11.9919 1.48201   2
  -2   6  -2 11.3929 1.39181   2
  -2   6  -2 11.7152 1.44440   2
  -2   6  -2 18.0807 2.25506   3
  -2   6  -2 21.7790 2.41157   3
  -2   6  -2 19.1984 2.19854   3
   2  -6   2 10.4040 1.43401   2
   2  -6   2 11.4650 1.53462   2
   2  -6   2 68.0139 7.80201  -3
   2  -6   2 68.0139 7.80201   1
  -3   6  -2 1.16978 0.87852   2
  -3   6  -2 1.47397 0.72757   2
  -3   6  -2 5.33593 0.91567   3
  -3   6  -2 3.50005 0.85155   3
  -3   6  -2 5.42262 1.02270   1
   3  -6   2 4.52504 1.01820   3
   3  -6   2 4.43733 0.55356   3
   3  -6   2 26.4890 3.72190  -3
   3  -6   2 26.4890 3.72190   1
   3  -6   2 2.83455 0.39870   2
   3  -6   2 2.27774 0.89472   2
   4  -6   2 209.532 19.7152   2
   4  -6   2 210.231 22.4921   2
   4  -6   2 353.345 37.7582   3
   4  -6   2 353.887 33.1870   3
   4  -6   2 354.070 35.2552   1
   4  -6   2 314.148 30.9605   1
   5  -6   2 2.73443 0.87570   2
   5  -6   2 2.93360 1.58474   2
   5  -6   2 2.65838 0.84674   1
   5  -6   2 3.83829 1.47797   1
   5  -6   2 3.10506 0.89966   3
   5  -6   2 3.90624 1.30647   3
   5   5  -2 19.5962 3.05618   2
   5   5  -2 42.5524 4.73803   1
   5   5  -2 46.6139 5.34173   3
  -5  -5   2 37.4952 4.34379   1
  -5  -5   2 34.3603 3.87697   1
  -5  -5   2 47.5798 4.56869   3
  -5  -5   2 39.3291 5.06268   3
  -5  -5   2 22.3586 2.73982   2
   4   5  -2 200.468 22.0145   3
   4   5  -2 146.060 13.7419   2
   4   5  -2 169.537 19.5058   1
  -4  -5   2 123.495 13.0972   2
  -4  -5   2 116.123 11.9824   2
  -4  -5   2 203.639 21.1259   3
  -4  -5   2 211.274 19.3467   3
  -4  -5   2 191.329 18.7006   1
  -4  -5   2 182.827 17.0946   1
   3   5  -2 16.3981 2.35065   2
   3   5  -2 22.4681 2.41111   2
   3   5  -2 19.3013 2.03146   2
   3   5  -2 32.7029 3.52235   3
   3   5  -2 35.0229 3.84305   3
   3   5  -2 35.1482 3.63908   1
   3   5  -2 38.8608 4.06471   1
  -3  -5   2 31.9285 3.37061   3
  -3  -5   2 36.3581 3.69567   3
  -3  -5   2 33.4011 3.49518   1
  -3  -5   2 35.4299 3.84711   1
  -3  -5   2 21.2340 2.18467   2
  -3  -5   2 16.0622 1.93935   2
   2   5  -2 7.70653 1.02092   3
   2   5  -2 6.90702 1.15611   3
   2   5  -2 8.10692 1.24610   3
   2   5  -2 5.29849 1.06978   1
   2   5  -2 8.02007 1.02476   1
   2   5  -2 5.47352 0.85513   1
   2   5  -2 3.55335 0.78640   2
   2   5  -2 4.85321 0.89709   2
   2   5  -2 2.85499 0.64262   2
  -2  -5   2 9.03252 1.17901   3
  -2  -5   2 8.01524 1.00514   3
  -2  -5   2 10.0348 1.03351   3
  -2  -5   2 3.96894 0.74383   2
  -2  -5   2 3.97866 0.61361   2
  -2  -5   2 2.65706 0.55497   2
  -2  -5   2 6.85280 0.75218   1
  -2  -5   2 5.27676 0.76959   1
  -2  -5   2 5.94280 0.90417   1
   1   5  -2 2.12244 0.66722   2
   1   5  -2 2.06807 0.42475   2
   1   5  -2 1.79310 0.62576   2
  -1  -5   2 3.38805 0.49925   2
  -1  -5   2 1.75051 0.48813   2
  -1  -5   2 3.00363 0.42683   2
  -1  -5   2 156.671 17.9445  -3
  -1  -5   2 156.671 17.9445   1
  -1  -5   2 186.086 16.4574  -3
  -1  -5   2 186.086 16.4574   1
  -1  -5   2 180.388 16.4240  -3
  -1  -5   2 180.388 16.4240   1
   0   5  -2 5.10853 1.07383  -3
   0   5  -2 5.10853 1.07383   1
   0   5  -2 4.66593 0.53150  -3
   0   5  -2 4.66593 0.53150   1
   0   5  -2 4.64091 0.82549  -3
   0   5  -2 4.64091 0.82549   1
   0   5  -2 4.43521 0.56012  -3
   0   5  -2 4.43521 0.56012   1
   0   5  -2 0.08928 0.41715   2
   0   5  -2 0.00534 0.48524   2
   0  -5   2 3.82900 0.63291  -3
   0  -5   2 3.82900 0.63291   1
   0  -5   2 3.92031 0.64533  -3
   0  -5   2 3.92031 0.64533   1
   0  -5   2 3.36166 0.79169  -3
   0  -5   2 3.36166 0.79169   1
   0  -5   2 0.04388 0.37465   2
   0  -5   2 0.46104 0.22810   2
   0  -5   2 0.36864 0.26786   2
  -1   5  -2 184.787 18.9848   2
  -1   5  -2 188.857 19.7833   2
  -1   5  -2 440.268 45.5934   1
  -1   5  -2 433.214 43.7687   1
  -1   5  -2 348.418 36.0324   3
  -1   5  -2 335.499 34.5925   3
  -1   5  -2 995.629 110.307  -3
  -1   5  -2 995.629 110.307  -2
  -1   5  -2 995.629 110.307   1
   1  -5   2 411.262 43.7624   1
   1  -5   2 182.844 18.9847   2
   1  -5   2 330.636 34.5915   3
  -2   5  -2 13.6516 1.66251   2
  -2   5  -2 12.7880 1.55809   2
  -2   5  -2 25.6116 2.83530   3
  -2   5  -2 21.2989 2.93806   3
  -2   5  -2 29.0597 3.12299   3
  -2   5  -2 125.395 14.2202   1
  -2   5  -2 184.795 20.5648  -2
  -2   5  -2 184.795 20.5648   1
   2  -5   2 14.3435 1.69174   2
   2  -5   2 14.4911 1.73927   2
   2  -5   2 33.6928 3.17976   3
   2  -5   2 141.621 14.8207   1
  -3   5  -2 85.9563 8.28150   1
  -3   5  -2 78.3828 8.59835   1
  -3   5  -2 82.8149 8.48244   3
  -3   5  -2 77.2117 8.10515   3
  -3   5  -2 45.6693 4.66125   2
   3  -5   2 80.3770 7.51479   1
   3  -5   2 74.8259 8.61206   1
   3  -5   2 150.698 16.8621  -3
   3  -5   2 150.698 16.8621   1
   3  -5   2 44.2681 4.22428   2
   3  -5   2 43.5992 4.90551   2
   3  -5   2 83.2523 8.49876   3
   3  -5   2 75.2008 7.39083   3
   4  -5   2 156.132 14.7571   3
   4  -5   2 157.545 16.8377   3
   4  -5   2 85.8560 8.13377   2
   4  -5   2 85.8909 9.34325   2
   4  -5   2 147.667 15.6528   1
   4  -5   2 144.379 13.7041   1
   5  -5   2 -0.1451 0.85045   3
   5  -5   2 0.63979 1.18173   3
   5  -5   2 0.06758 0.69846   1
   5  -5   2 0.20264 1.15352   1
   5  -5   2 0.37005 1.47588   2
   5  -5   2 -0.5342 0.79847   2
   5   4  -2 13.2913 2.33365   2
   5   4  -2 14.8482 2.64506   1
   5   4  -2 19.1182 2.79160   3
  -5  -4   2 20.1366 2.19208   1
  -5  -4   2 22.3790 2.61322   1
  -5  -4   2 19.4674 2.67827   3
  -5  -4   2 22.8800 2.31964   3
  -5  -4   2 12.0940 1.85119   2
  -5  -4   2 16.8995 2.09653   2
   4   4  -2 21.6620 2.63808   1
   4   4  -2 8.69129 1.78382   2
   4   4  -2 19.1157 2.81425   3
  -4  -4   2 26.8236 2.46946   3
  -4  -4   2 22.1429 2.72701   3
  -4  -4   2 19.8041 2.13068   1
  -4  -4   2 19.0142 2.43463   1
  -4  -4   2 15.2182 1.51993   2
  -4  -4   2 10.9089 1.62421   2
   3   4  -2 125.244 12.3091   1
   3   4  -2 135.405 13.9742   1
   3   4  -2 129.936 12.3061   1
   3   4  -2 127.091 12.6970   3
   3   4  -2 131.296 14.4045   3
   3   4  -2 140.374 12.7014   3
   3   4  -2 80.8699 8.26403   2
   3   4  -2 64.7163 8.57318   2
   3   4  -2 72.5379 7.26632   2
  -3  -4   2 83.5051 7.89476   2
  -3  -4   2 78.4076 7.23177   2
  -3  -4   2 134.284 13.8367   3
  -3  -4   2 139.000 12.6634   3
  -3  -4   2 125.600 12.2441   1
  -3  -4   2 135.320 13.4008   1
   2   4  -2 79.8215 9.49711   2
   2   4  -2 86.7775 9.14993   2
   2   4  -2 84.0793 8.03710   2
   2   4  -2 92.6060 8.04342   2
   2   4  -2 133.341 16.0055   1
   2   4  -2 136.137 13.5344   1
   2   4  -2 141.323 13.5316   1
   2   4  -2 161.352 15.4016   1
   2   4  -2 152.667 13.7967   3
   2   4  -2 147.017 13.7797   3
   2   4  -2 143.680 16.2974   3
   2   4  -2 143.499 15.6587   3
  -2  -4   2 149.348 15.0386   3
  -2  -4   2 147.108 13.7937   3
  -2  -4   2 142.490 13.7672   3
  -2  -4   2 86.6011 8.04195   2
  -2  -4   2 81.5336 8.01562   2
  -2  -4   2 84.7780 8.76294   2
  -2  -4   2 143.989 13.5454   1
  -2  -4   2 145.316 13.5059   1
  -2  -4   2 149.179 14.7696   1
   1   4  -2 32.4754 3.64373   3
   1   4  -2 30.8603 3.79711   3
   1   4  -2 28.7056 3.20641   3
   1   4  -2 32.9646 3.19354   3
   1   4  -2 11.6669 1.65755   2
   1   4  -2 13.1880 1.38290   2
   1   4  -2 15.0251 1.63694   2
   1   4  -2 28.4868 2.69376   1
   1   4  -2 25.9531 3.07392   1
   1   4  -2 31.3674 2.72707   1
   1   4  -2 22.5756 3.19642   1
  -1  -4   2 12.0854 1.49972   2
  -1  -4   2 15.8607 1.40566   2
  -1  -4   2 14.6445 1.37408   2
  -1  -4   2 66.8893 6.79291  -3
  -1  -4   2 66.8893 6.79291   1
  -1  -4   2 64.5284 6.20154  -3
  -1  -4   2 64.5284 6.20154   1
  -1  -4   2 41.6192 3.20583   3
  -1  -4   2 31.4143 2.68956   1
   0   4  -2 492.211 45.3579  -3
   0   4  -2 492.211 45.3579   1
   0   4  -2 512.830 45.3558  -3
   0   4  -2 512.830 45.3558   1
   0   4  -2 230.585 24.1445   3
   0   4  -2 115.613 9.95149   2
   0   4  -2 103.937 11.3572   2
   0   4  -2 343.555 35.1091   1
   0  -4   2 448.723 45.4352  -3
   0  -4   2 448.723 45.4352   1
   0  -4   2 316.185 33.6900   1
   0  -4   2 222.446 23.1779   3
   0  -4   2 105.541 10.8923   2
   0  -4   2 100.754 9.97625   2
   0  -4   2 103.363 9.97371   2
  -1   4  -2 135.435 13.8617   1
  -1   4  -2 123.941 13.3030   1
  -1   4  -2 67.0645 7.13093   2
  -1   4  -2 65.9295 6.83348   2
  -1   4  -2 108.147 11.1661   3
  -1   4  -2 108.649 11.6291   3
  -1   4  -2 329.291 36.5208  -3
  -1   4  -2 329.291 36.5208  -2
  -1   4  -2 329.291 36.5208   1
   1  -4   2 109.900 11.1644   3
   1  -4   2 130.327 13.3017   1
  -2   4  -2 1.16015 0.41383   3
  -2   4  -2 0.99918 0.50571   3
  -2   4  -2 -0.0712 0.40412   2
  -2   4  -2 0.79187 0.47896   2
  -2   4  -2 -1.2099 0.53790   2
   2  -4   2 0.16149 0.20752   2
   2  -4   2 0.19426 0.15888   2
   2  -4   2 -0.6694 0.49269   2
   2  -4   2 0.31107 0.47175   2
   2  -4   2 -0.9196 0.21820   3
   2  -4   2 1.04222 0.50865   3
   2  -4   2 -1.2619 0.22057   3
   2  -4   2 185.374 20.6136  -3
   2  -4   2 185.374 20.6136   1
   2  -4   2 119.036 11.1647   1
  -3   4  -2 13.5064 1.64783   3
  -3   4  -2 12.5302 1.50491   3
  -3   4  -2 7.28847 1.03029   2
  -3   4  -2 11.6366 1.60796   1
  -3   4  -2 14.3769 1.50727   1
   3  -4   2 11.2919 1.28598   1
   3  -4   2 11.9547 1.64664   1
   3  -4   2 14.6728 1.68246   1
   3  -4   2 8.32410 0.85930   2
   3  -4   2 7.26320 1.16926   2
   3  -4   2 13.0113 1.33949   3
   3  -4   2 14.8558 1.74924   3
   3  -4   2 11.7805 1.65717   3
   4  -4   2 102.107 10.5969   1
   4  -4   2 95.2938 9.22169   1
   4  -4   2 104.019 9.45499   3
   4  -4   2 94.4423 10.7791   3
   4  -4   2 63.0672 6.10318   2
   4  -4   2 65.6542 7.06705   2
   5  -4   2 3.32999 1.41297   1
   5  -4   2 0.88556 0.75052   1
   5  -4   2 1.24004 0.89114   3
   5  -4   2 0.13954 1.17165   3
   5  -4   2 0.64057 1.40973   2
   5  -4   2 -0.3546 0.81856   2
   5   3  -2 2.84140 1.51674   2
   5   3  -2 6.66471 1.63727   3
   5   3  -2 4.19355 1.70187   1
  -5  -3   2 7.42410 1.49026   1
  -5  -3   2 3.93719 0.99733   1
  -5  -3   2 3.04664 1.10091   2
  -5  -3   2 2.64653 1.18665   2
  -5  -3   2 4.67705 1.50363   3
  -5  -3   2 8.65012 1.37284   3
   4   3  -2 34.6046 3.24962   1
   4   3  -2 32.1537 3.73484   1
   4   3  -2 32.5805 3.71667   3
   4   3  -2 31.7564 3.39270   3
   4   3  -2 18.4938 2.51936   2
  -4  -3   2 25.7893 3.44010   1
  -4  -3   2 34.4743 3.18774   1
  -4  -3   2 17.3214 2.27410   2
  -4  -3   2 20.4095 2.03158   2
  -4  -3   2 33.9760 3.32480   3
  -4  -3   2 31.1615 3.55864   3
   3   3  -2 84.9847 8.13226   2
   3   3  -2 88.8605 9.26518   2
   3   3  -2 88.5546 8.15333   2
   3   3  -2 136.221 13.5257   1
   3   3  -2 140.085 13.5436   1
   3   3  -2 160.912 15.4070   1
   3   3  -2 151.952 15.8005   3
   3   3  -2 143.722 13.9059   3
   3   3  -2 150.012 13.9191   3
  -3  -3   2 156.116 14.7571   1
  -3  -3   2 131.480 13.4790   1
  -3  -3   2 144.420 13.8757   3
  -3  -3   2 147.230 15.1608   3
  -3  -3   2 86.3875 8.85107   2
  -3  -3   2 81.1031 8.10291   2
   2   3  -2 6.48990 0.99503   1
   2   3  -2 8.60762 1.13889   1
   2   3  -2 7.50171 1.13988   1
   2   3  -2 6.97782 0.95588   1
   2   3  -2 5.94402 0.70334   2
   2   3  -2 5.95488 0.81443   2
   2   3  -2 3.00423 0.63442   2
   2   3  -2 5.00728 0.77104   2
   2   3  -2 6.88358 1.03708   3
   2   3  -2 7.92439 0.96801   3
   2   3  -2 7.88647 1.08274   3
   2   3  -2 7.50254 0.97350   3
  -2  -3   2 7.85202 1.04043   3
  -2  -3   2 10.2089 0.90189   3
  -2  -3   2 7.44349 0.89489   3
  -2  -3   2 9.69752 0.97282   1
  -2  -3   2 12.5336 1.10745   1
  -2  -3   2 9.72715 0.97022   1
  -2  -3   2 4.67776 0.64230   2
  -2  -3   2 4.56501 0.61614   2
  -2  -3   2 5.05480 0.74880   2
   1   3  -2 885.432 96.3187   1
   1   3  -2 846.502 81.4791   1
   1   3  -2 873.288 81.3503   1
   1   3  -2 811.645 92.5091   1
   1   3  -2 601.232 62.2704   2
   1   3  -2 575.682 54.8365   2
   1   3  -2 572.104 54.7486   2
   1   3  -2 575.794 64.8232   2
   1   3  -2 957.446 102.930   3
   1   3  -2 944.386 90.6615   3
   1   3  -2 952.205 107.169   3
   1   3  -2 946.874 90.5129   3
  -1  -3   2 567.887 54.8402   2
  -1  -3   2 620.124 54.7469   2
  -1  -3   2 583.125 59.7575   2
  -1  -3   2 1023.15 90.5147   3
  -1  -3   2 980.689 90.6645   3
  -1  -3   2 1776.24 181.333  -3
  -1  -3   2 1776.24 181.333   1
  -1  -3   2 936.695 81.3433   1
  -1  -3   2 861.575 81.4843   1
   0   3  -2 124.237 13.0481   1
   0   3  -2 5.76558 0.83420   2
   0   3  -2 6.20514 0.66679   2
   0   3  -2 9.53509 0.67270   2
   0   3  -2 13.2802 1.73351   3
   0   3  -2 141.930 12.5779  -3
   0   3  -2 141.930 12.5779   1
   0   3  -2 136.485 12.5796  -3
   0   3  -2 136.485 12.5796   1
   0  -3   2 4.52399 0.66335   2
   0  -3   2 9.04442 0.67234   2
   0  -3   2 4.65454 0.74803   2
   0  -3   2 18.5400 1.67967   3
   0  -3   2 124.286 12.6013  -3
   0  -3   2 124.286 12.6013   1
   0  -3   2 120.500 12.5164   1
  -1   3  -2 648.775 68.4336   3
  -1   3  -2 640.890 65.6716   3
  -1   3  -2 359.913 38.9993   2
  -1   3  -2 372.280 37.4143   2
  -1   3  -2 1705.68 182.239  -3
  -1   3  -2 1705.68 182.239  -2
  -1   3  -2 1705.68 182.239   1
  -1   3  -2 644.938 66.9764   1
  -1   3  -2 667.223 69.7953   1
   1  -3   2 1585.40 182.236  -3
   1  -3   2 1585.40 182.236  -2
   1  -3   2 1585.40 182.236   1
   1  -3   2 639.886 65.6703   3
  -2   3  -2 31.6742 3.23397   2
  -2   3  -2 31.8268 3.06234   2
  -2   3  -2 53.8915 5.15506   3
  -2   3  -2 49.7463 5.39779   3
  -2   3  -2 58.8539 5.73262   1
  -2   3  -2 52.6428 5.98255   1
   2  -3   2 46.5078 4.72002   3
   2  -3   2 52.5501 4.72753   3
   2  -3   2 47.0538 5.40163   3
   2  -3   2 118.339 13.1938  -3
   2  -3   2 118.339 13.1938   1
   2  -3   2 26.5662 2.78394   2
   2  -3   2 29.0596 2.78704   2
   2  -3   2 30.4188 3.33682   2
   2  -3   2 28.3889 3.23403   2
   2  -3   2 50.2393 5.99299   1
   2  -3   2 54.3406 5.23580   1
   2  -3   2 59.1462 5.23354   1
  -3   3  -2 59.1449 6.10224   3
  -3   3  -2 35.9181 3.87427   2
  -3   3  -2 65.1282 6.06595   1
   3  -3   2 38.9440 4.13937   2
   3  -3   2 36.9574 3.54406   2
   3  -3   2 58.5518 5.53130   1
   3  -3   2 52.9765 6.33941   1
   3  -3   2 56.1279 6.58470   1
   3  -3   2 57.5505 6.43278   3
   3  -3   2 57.2884 5.59875   3
   3  -3   2 62.6149 6.66619   3
   4  -3   2 11.0483 1.19726   1
   4  -3   2 9.68849 1.53086   1
   4  -3   2 6.12586 1.42171   2
   4  -3   2 8.00523 0.99862   2
   4  -3   2 13.2658 1.94090   3
   4  -3   2 15.9577 1.63478   3
   5  -3   2 55.8226 5.82767   3
   5  -3   2 66.1558 6.76470   3
   5  -3   2 58.1889 6.07156   1
   5  -3   2 50.6905 5.23454   1
   5  -3   2 43.5704 4.46201   2
   5  -3   2 32.2054 3.68035   2
   5   2  -2 13.8436 2.12995   3
   5   2  -2 12.6080 2.16246   3
   5   2  -2 13.2304 2.17779   1
   5   2  -2 8.84201 1.71985   2
  -5  -2   2 15.7146 2.16267   3
  -5  -2   2 18.5649 1.83621   3
  -5  -2   2 12.2665 1.58211   1
  -5  -2   2 15.5935 1.97734   1
  -5  -2   2 6.92923 1.21222   2
  -5  -2   2 7.83389 1.44844   2
   4   2  -2 1.60537 1.02326   1
   4   2  -2 0.35110 0.82075   1
   4   2  -2 1.29855 0.88351   3
   4   2  -2 0.26815 0.97580   3
   4   2  -2 -0.3552 0.76966   2
   4   2  -2 0.93139 0.97391   2
  -4  -2   2 2.00752 0.82900   1
  -4  -2   2 0.84506 0.68553   1
  -4  -2   2 0.08344 0.74255   2
  -4  -2   2 0.13782 0.70086   2
  -4  -2   2 -0.2224 0.57933   3
  -4  -2   2 1.76278 0.91615   3
   3   2  -2 24.0720 2.31369   1
   3   2  -2 22.8403 2.61854   1
   3   2  -2 24.3069 2.37872   1
   3   2  -2 24.4954 2.43672   3
   3   2  -2 24.0338 2.29206   3
   3   2  -2 21.2466 2.20591   3
   3   2  -2 16.7405 1.86026   2
   3   2  -2 12.5535 1.56328   2
   3   2  -2 16.6111 1.55525   2
  -3  -2   2 19.6874 2.26466   1
  -3  -2   2 23.5849 2.48607   1
  -3  -2   2 19.6009 2.16441   3
  -3  -2   2 16.9073 2.31478   3
  -3  -2   2 13.7014 1.65660   2
  -3  -2   2 12.5834 1.47858   2
   2   2  -2 37.6428 3.80541   2
   2   2  -2 35.4690 4.45912   2
   2   2  -2 45.0748 4.35725   2
   2   2  -2 40.8295 3.79198   2
   2   2  -2 64.9725 6.30304   3
   2   2  -2 64.0268 6.30246   3
   2   2  -2 71.9914 7.15906   3
   2   2  -2 65.1365 7.42452   3
   2   2  -2 84.5683 9.24212   1
   2   2  -2 80.8709 8.91226   1
  -2  -2   2 39.2822 4.12842   2
  -2  -2   2 41.5715 3.78305   2
  -2  -2   2 40.9691 3.79954   2
  -2  -2   2 67.4148 6.30818   3
  -2  -2   2 66.1200 6.86749   3
  -2  -2   2 66.4924 6.28756   3
   1   2  -2 7.44218 0.99059   2
   1   2  -2 8.64442 0.86823   2
   1   2  -2 7.39225 1.00452   2
   1   2  -2 8.60707 0.87033   2
   1   2  -2 16.3389 1.49592   1
   1   2  -2 14.3989 1.49901   1
   1   2  -2 14.3212 1.76094   1
   1   2  -2 16.5673 1.71729   1
   1   2  -2 14.1013 1.63016   3
   1   2  -2 13.8004 1.44066   3
   1   2  -2 13.5217 1.45264   3
   1   2  -2 14.5703 1.70135   3
  -1  -2   2 9.16229 0.92494   2
  -1  -2   2 15.7376 1.44159   3
  -1  -2   2 15.9400 1.45163   3
  -1  -2   2 26.1572 2.65542  -2
  -1  -2   2 26.1572 2.65542   1
  -1  -2   2 29.8159 2.67715  -2
  -1  -2   2 29.8159 2.67715   1
  -1  -2   2 31.7593 3.30603  -3
  -1  -2   2 31.7593 3.30603   1
   0   2  -2 1141.95 106.774   3
   0   2  -2 1115.12 121.426   3
   0   2  -2 758.166 69.9654   2
   0   2  -2 755.214 79.5802   2
   0   2  -2 734.881 69.9684   2
   0   2  -2 1674.39 153.834   1
   0   2  -2 1576.03 174.937   1
   0  -2   2 1682.89 167.885   1
   0  -2   2 3246.08 304.109  -3
   0  -2   2 3246.08 304.109  -2
   0  -2   2 3246.08 304.109   1
   0  -2   2 743.944 76.3634   2
   0  -2   2 1167.40 116.533   3
  -1   2  -2 8.06620 0.97682   1
  -1   2  -2 7.42521 0.91666   1
  -1   2  -2 8.22146 0.89955   3
  -1   2  -2 7.61182 0.82486   3
  -1   2  -2 5.01439 0.50065   2
  -1   2  -2 5.59186 0.61971   2
   1  -2   2 9.30487 0.82535   1
   1  -2   2 3.98670 0.44649   2
   1  -2   2 4.47938 0.58472   2
   1  -2   2 3.38106 0.43345   2
   1  -2   2 6.97876 0.76243   3
   1  -2   2 19.9285 2.06050  -3
   1  -2   2 19.9285 2.06050   1
   1  -2   2 16.3787 1.65058  -3
   1  -2   2 16.3787 1.65058   1
  -2   2  -2 252.061 22.2510   2
  -2   2  -2 245.037 22.2520   2
  -2   2  -2 240.668 25.3528   2
  -2   2  -2 231.114 24.2993   2
  -2   2  -2 399.330 36.2467   3
  -2   2  -2 392.910 41.2581   3
  -2   2  -2 391.658 36.2479   3
  -2   2  -2 388.806 39.5700   3
  -2   2  -2 380.382 37.7455   1
  -2   2  -2 391.039 34.5705   1
  -2   2  -2 371.884 39.3506   1
   2  -2   2 366.873 34.6395   1
   2  -2   2 340.671 34.6374   1
   2  -2   2 364.908 39.3567   1
   2  -2   2 234.630 22.3012   2
   2  -2   2 220.079 26.3672   2
   2  -2   2 231.995 22.3037   2
   2  -2   2 245.223 25.3560   2
   2  -2   2 370.329 36.3205   3
   2  -2   2 374.129 41.2610   3
   2  -2   2 392.716 36.3271   3
   2  -2   2 744.591 82.4983  -3
   2  -2   2 744.591 82.4983   1
  -3   2  -2 3.19414 0.42039   2
  -3   2  -2 3.43614 0.58891   2
  -3   2  -2 6.11319 0.70528   1
  -3   2  -2 7.29122 0.93278   1
  -3   2  -2 7.62939 0.68950   1
  -3   2  -2 6.62792 0.65303   3
  -3   2  -2 6.28744 0.84672   3
   3  -2   2 5.58513 0.75172   3
   3  -2   2 4.88123 0.97215   3
   3  -2   2 3.01807 0.89887   3
   3  -2   2 5.25672 0.72674   1
   3  -2   2 4.85899 1.05225   1
   3  -2   2 3.11525 0.97241   1
   3  -2   2 1.57003 0.77943   2
   3  -2   2 2.09040 0.78699   2
   3  -2   2 2.73434 0.53429   2
  -4   2  -2 30.4135 3.13621   1
  -4   2  -2 20.7764 2.03717   2
  -4   2  -2 31.2020 3.19684   3
   4  -2   2 37.4057 3.24767   1
   4  -2   2 34.3922 3.76494   1
   4  -2   2 32.7872 3.79590   3
   4  -2   2 39.2440 3.34581   3
   4  -2   2 20.5744 2.15607   2
   4  -2   2 18.9110 2.53795   2
  -5   2  -2 16.4556 1.89878   2
   5  -2   2 21.4949 2.30128   1
   5  -2   2 21.6798 2.81880   1
   5  -2   2 29.4166 3.49928   3
   5  -2   2 38.8241 4.11933   3
   5  -2   2 22.5106 2.72880   2
   5  -2   2 19.0124 2.05926   2
   5   1  -2 15.7033 2.07519   3
   5   1  -2 11.8546 1.87198   3
   5   1  -2 17.7392 2.24538   1
   5   1  -2 17.3953 1.81877   1
   5   1  -2 8.63116 1.65545   2
   5   1  -2 8.35862 1.38881   2
  -5  -1   2 16.0121 1.64181   3
  -5  -1   2 10.7688 1.95859   3
  -5  -1   2 9.69732 1.51051   2
  -5  -1   2 6.25831 1.13705   2
  -5  -1   2 11.5813 1.64617   1
  -5  -1   2 17.1277 2.13430   1
   4   1  -2 12.4327 1.72040   2
   4   1  -2 13.8230 1.46732   2
   4   1  -2 22.7701 2.20511   3
   4   1  -2 20.8162 2.47045   3
   4   1  -2 21.2742 2.08496   1
   4   1  -2 17.9391 2.39579   1
  -4  -1   2 19.8266 2.27668   1
  -4  -1   2 18.5796 2.02288   1
  -4  -1   2 18.9422 2.13314   3
  -4  -1   2 18.3353 2.31735   3
  -4  -1   2 11.9634 1.55152   2
  -4  -1   2 10.4283 1.34764   2
   3   1  -2 38.9396 4.43473   1
   3   1  -2 42.0620 3.89777   1
   3   1  -2 24.3867 2.41525   2
   3   1  -2 18.1702 2.63670   2
   3   1  -2 25.0871 2.33469   2
   3   1  -2 39.4604 4.32767   3
   3   1  -2 44.8606 3.82258   3
  -3  -1   2 25.9954 2.51862   2
  -3  -1   2 22.4897 2.31013   2
  -3  -1   2 42.2344 4.14616   3
  -3  -1   2 33.6732 3.74686   3
  -3  -1   2 42.2885 4.24096   1
  -3  -1   2 38.3927 3.86275   1
   2   1  -2 34.9625 4.13602   1
   2   1  -2 40.6182 3.63150   1
   2   1  -2 37.8630 4.26327   1
   2   1  -2 40.5431 3.66078   1
   2   1  -2 24.9266 2.36576   2
   2   1  -2 23.3130 2.76121   2
   2   1  -2 24.5609 2.39437   2
   2   1  -2 20.7370 2.70247   2
   2   1  -2 42.3963 3.90891   3
   2   1  -2 39.9337 4.54607   3
   2   1  -2 41.8988 3.88724   3
   2   1  -2 39.7089 4.41866   3
  -2  -1   2 27.5829 2.58336   2
  -2  -1   2 27.0319 2.37212   2
  -2  -1   2 23.5795 2.34082   2
  -2  -1   2 35.6380 3.60888   1
  -2  -1   2 38.8212 3.96537   1
  -2  -1   2 40.0698 3.63976   1
  -2  -1   2 41.0268 3.86092   3
  -2  -1   2 38.6689 4.22721   3
  -2  -1   2 42.2141 3.88693   3
   1   1  -2 1727.24 161.748   3
   1   1  -2 1734.15 183.622   3
   1   1  -2 1708.55 191.178   3
   1   1  -2 1745.03 161.481   3
   1   1  -2 1641.53 154.653   1
   1   1  -2 1709.64 154.402   1
   1   1  -2 1600.66 175.571   1
   1   1  -2 2780.77 309.446  -2
   1   1  -2 2780.77 309.446   1
   1   1  -2 1037.73 114.976   2
   1   1  -2 1123.96 101.110   2
   1   1  -2 1117.25 101.275   2
  -1  -1   2 1748.97 161.479   3
  -1  -1   2 1694.52 161.746   3
  -1  -1   2 2662.99 309.442  -2
  -1  -1   2 2662.99 309.442   1
  -1  -1   2 2848.47 261.359  -2
  -1  -1   2 2848.47 261.359   1
  -1  -1   2 2885.64 261.795  -2
  -1  -1   2 2885.64 261.795   1
  -1  -1   2 1043.86 110.339   2
  -1  -1   2 3498.89 357.136  -3
  -1  -1   2 3498.89 357.136   1
   0   1  -2 132.141 13.0313   2
   0   1  -2 134.380 14.8279   2
   0   1  -2 320.990 29.9385   1
   0   1  -2 312.938 34.0508   1
   0   1  -2 208.245 20.5564   3
   0   1  -2 218.926 23.3833   3
   0  -1   2 144.494 14.2149   2
   0  -1   2 144.559 13.0508   2
   0  -1   2 645.715 71.5249  -3
   0  -1   2 645.715 71.5249  -2
   0  -1   2 645.715 71.5249   1
   0  -1   2 231.588 22.4318   3
   0  -1   2 520.356 48.7618  -3
   0  -1   2 520.356 48.7618   1
   0  -1   2 325.469 32.6672   1
  -1   1  -2 -0.5032 0.25004   2
  -1   1  -2 0.39969 0.16990   2
  -1   1  -2 0.03795 0.13315   2
  -1   1  -2 0.83175 0.18859   2
  -1   1  -2 1.48461 0.28574   3
  -1   1  -2 -0.2313 0.16698   3
   1  -1   2 -0.0511 0.25740   2
   1  -1   2 0.52295 0.27820   2
   1  -1   2 0.05533 0.19265   2
   1  -1   2 98.0817 10.9112  -3
   1  -1   2 98.0817 10.9112   1
  -2   1  -2 249.737 26.5240   1
  -2   1  -2 256.900 23.3042   1
  -2   1  -2 221.733 25.4267   1
  -2   1  -2 277.931 23.2945   1
  -2   1  -2 112.838 10.8567   2
  -2   1  -2 114.874 11.8539   2
  -2   1  -2 121.895 10.8679   2
  -2   1  -2 237.045 19.1408   3
  -2   1  -2 203.261 19.1337   3
  -2   1  -2 194.930 21.7846   3
  -2   1  -2 200.434 20.8809   3
   2  -1   2 114.264 10.8894   2
   2  -1   2 122.707 12.3978   2
   2  -1   2 110.434 12.8730   2
   2  -1   2 241.010 23.3432   1
   2  -1   2 243.583 26.5311   1
   2  -1   2 204.987 21.7939   3
   2  -1   2 184.648 19.1711   3
   2  -1   2 531.210 58.8730  -3
   2  -1   2 531.210 58.8730   1
  -3   1  -2 1.90759 0.40236   3
  -3   1  -2 0.52416 0.48073   3
  -3   1  -2 5.16238 0.68866   1
  -3   1  -2 0.91154 0.49660   2
  -3   1  -2 1.32581 0.37421   2
   3  -1   2 1.00681 0.51742   3
   3  -1   2 1.17033 0.70269   3
   3  -1   2 1.17666 0.69333   3
   3  -1   2 2.24545 0.83419   1
   3  -1   2 3.70428 0.59743   1
   3  -1   2 2.33856 0.83153   1
   3  -1   2 -0.2625 0.66611   2
   3  -1   2 1.11418 0.62853   2
   3  -1   2 0.10409 0.47320   2
  -4   1  -2 0.86831 0.40402   2
  -4   1  -2 2.07861 0.53527   1
  -4   1  -2 1.49608 0.50478   3
   4  -1   2 3.23466 0.72242   1
   4  -1   2 0.31887 1.02898   1
   4  -1   2 -0.3974 0.92547   2
   4  -1   2 1.45225 0.69527   2
   4  -1   2 1.28749 0.72123   3
   4  -1   2 2.06234 0.90299   3
  -5   1  -2 6.93518 0.93275   3
  -5   1  -2 5.60331 0.85592   1
  -5   1  -2 3.30437 0.78027   2
   5  -1   2 5.09750 1.51318   3
   5  -1   2 6.99898 1.29166   3
   5  -1   2 4.13167 1.09116   2
   5  -1   2 4.10983 1.53704   2
   5  -1   2 6.88415 1.67837   1
   5  -1   2 6.17717 1.10956   1
   6   0  -2 -2.3708 1.79886   3
   6   0  -2 1.20379 1.59701   3
   6   0  -2 0.43843 2.06674   2
   6   0  -2 2.90960 1.41998   1
   6   0  -2 2.09456 1.68899   1
  -6   0   2 0.69102 0.95881   3
  -6   0   2 2.28119 1.03248   2
  -6   0   2 0.67647 0.95252   1
   5   0  -2 92.3088 9.20678   1
   5   0  -2 78.3308 8.01435   1
   5   0  -2 45.7790 5.29215   2
   5   0  -2 45.3948 4.65248   2
   5   0  -2 82.9948 7.94133   3
   5   0  -2 83.8018 9.00990   3
  -5   0   2 75.4643 7.92521   1
  -5   0   2 100.267 8.83562   1
  -5   0   2 47.9080 4.49948   2
  -5   0   2 45.1871 5.07851   2
  -5   0   2 79.6957 8.57788   3
  -5   0   2 82.0467 7.80459   3
   4   0  -2 92.2294 9.27495   1
   4   0  -2 106.369 10.5966   1
   4   0  -2 63.8888 5.86410   2
   4   0  -2 62.1129 6.71496   2
   4   0  -2 100.587 9.44938   3
   4   0  -2 95.4729 10.7208   3
  -4   0   2 101.192 10.2752   3
  -4   0   2 99.7617 9.37630   3
  -4   0   2 106.583 10.1445   1
  -4   0   2 92.0005 9.22189   1
  -4   0   2 64.3907 6.40946   2
  -4   0   2 56.1448 5.80936   2
   3   0  -2 5.86897 1.11001   2
   3   0  -2 8.89368 0.90849   2
   3   0  -2 11.6874 1.33281   3
   3   0  -2 11.3610 1.49007   3
   3   0  -2 15.5475 1.81189   1
   3   0  -2 16.4737 1.54000   1
  -3   0   2 7.82867 1.00974   2
  -3   0   2 6.83224 0.84211   2
  -3   0   2 11.2923 1.24954   3
  -3   0   2 14.2982 1.47493   3
  -3   0   2 11.8370 1.47130   1
  -3   0   2 16.9028 1.73138   1
   2   0  -2 79.3774 7.06233   1
   2   0  -2 66.0211 8.03097   1
   2   0  -2 83.3622 7.05601   1
   2   0  -2 60.2153 5.94475   3
   2   0  -2 60.3663 5.95439   3
   2   0  -2 63.4518 6.76353   3
   2   0  -2 38.0380 3.58628   2
   2   0  -2 39.2120 3.57408   2
   2   0  -2 33.7581 4.07178   2
  -2   0   2 39.2207 3.89392   2
  -2   0   2 39.9538 3.58443   2
  -2   0   2 35.1791 3.55497   2
  -2   0   2 76.7482 7.03857   1
  -2   0   2 66.9769 7.69714   1
  -2   0   2 65.4722 5.92755   3
  -2   0   2 64.4606 6.48423   3
   1   0  -2 1403.96 133.301   3
   1   0  -2 1446.88 151.328   3
   1   0  -2 1417.48 133.081   3
   1   0  -2 1467.25 141.263   1
   1   0  -2 1567.39 160.370   1
   1   0  -2 1489.14 141.033   1
   1   0  -2 923.691 83.6750   2
   1   0  -2 900.723 95.1499   2
   1   0  -2 888.824 83.8097   2
  -1   0   2 3998.56 373.983  -3
  -1   0   2 3998.56 373.983  -2
  -1   0   2 3998.56 373.983   1
  -1   0   2 894.274 91.3140   2
  -1   0   2 865.756 99.0545   2
  -1   0   2 2755.99 272.738  -3
  -1   0   2 2755.99 272.738   1
  -1   0   2 2588.35 295.899  -3
  -1   0   2 2588.35 295.899   1
   0   0  -2 617.242 59.2899   3
   0   0  -2 637.492 67.3031   3
   0   0  -2 633.066 59.1901   3
   0   0  -2 447.954 41.0599   2
   0   0  -2 432.535 41.1262   2
   0   0  -2 433.950 46.6885   2
   0   0  -2 716.518 77.2876   1
   0   0  -2 730.460 67.9704   1
   0   0  -2 700.660 68.0827   1
   0   0   2 738.087 74.1685   1
   0   0   2 758.589 67.9697   1
   0   0   2 714.999 68.0809   1
   0   0   2 603.741 64.5876   3
   0   0   2 631.135 59.2860   3
   0   0   2 674.109 59.1907   3
   0   0   2 1687.38 186.870  -3
   0   0   2 1687.38 186.870  -2
   0   0   2 1687.38 186.870   1
   0   0   2 452.922 44.7991   2
   0   0   2 426.521 41.1237   2
  -1   0  -2 35.5915 4.11471   2
  -1   0  -2 43.2048 3.60903   2
  -1   0  -2 59.8530 6.05417   3
  -1   0  -2 58.2401 5.56221   3
  -1   0  -2 93.7048 10.7537   1
  -1   0  -2 134.661 13.7588  -2
  -1   0  -2 134.661 13.7588   1
   1   0   2 38.5131 3.62105   2
   1   0   2 37.2882 3.64175   2
   1   0   2 36.7896 4.11679   2
   1   0   2 36.7085 4.28531   2
   1   0   2 242.023 26.8420  -3
   1   0   2 242.023 26.8420   1
   1   0   2 96.1872 10.7598   1
   1   0   2 112.103 9.47216   1
  -2   0  -2 149.400 15.3604   1
  -2   0  -2 143.632 14.0724   1
  -2   0  -2 162.458 16.1122   3
  -2   0  -2 154.832 14.7691   3
  -2   0  -2 102.452 10.1994   2
  -2   0  -2 97.4889 9.35103   2
   2   0   2 153.022 14.1104   1
   2   0   2 159.269 14.1006   1
   2   0   2 143.317 16.0396   1
   2   0   2 153.828 16.6905   1
   2   0   2 156.960 14.8060   3
   2   0   2 156.503 16.8185   3
   2   0   2 159.929 14.7949   3
   2   0   2 154.136 17.5021   3
   2   0   2 96.2338 11.0851   2
   2   0   2 98.3599 9.37520   2
   2   0   2 97.2686 9.37609   2
   2   0   2 106.857 10.6781   2
  -3   0  -2 -0.2784 0.48792   3
  -3   0  -2 0.62776 0.38049   3
  -3   0  -2 0.52539 0.49186   2
  -3   0  -2 0.10156 0.27039   2
  -3   0  -2 1.30481 0.30861   1
  -3   0  -2 0.82277 0.49528   1
   3   0   2 0.55991 0.69157   3
   3   0   2 1.11369 0.55975   3
   3   0   2 0.48484 0.67023   3
   3   0   2 0.21073 0.76921   2
   3   0   2 0.46330 0.52325   2
   3   0   2 -0.5700 0.65688   2
   3   0   2 0.74775 0.51462   1
   3   0   2 -0.8569 0.74051   1
   3   0   2 1.28813 0.67823   1
  -4   0  -2 3.74704 0.59687   1
  -4   0  -2 1.92046 0.58824   2
  -4   0  -2 4.89180 0.72641   3
   4   0   2 2.01011 0.77930   1
   4   0   2 2.12705 1.16843   1
   4   0   2 0.90699 1.06675   2
   4   0   2 2.64162 0.82005   2
   4   0   2 3.58776 1.13701   3
   4   0   2 1.91300 0.82706   3
  -5   0  -2 6.31929 1.01266   3
  -5   0  -2 3.13074 0.81054   1
  -5   0  -2 0.80726 0.74952   2
   5   0   2 2.65469 1.47817   2
   5   0   2 1.63871 1.07010   2
   5   0   2 1.74220 1.56258   1
   5   0   2 3.86328 1.11379   1
   5   0   2 5.09738 1.66649   3
   5   0   2 3.39427 1.20949   3
   6  -1  -2 1.80566 1.42613   2
   6  -1  -2 0.87943 2.00315   2
   6  -1  -2 1.80813 1.31201   1
   6  -1  -2 1.10155 1.87881   1
   6  -1  -2 3.52711 1.73392   3
   6  -1  -2 2.99453 1.52561   3
  -6   1   2 1.73275 0.90353   1
  -6   1   2 -0.1351 0.85359   2
  -6   1   2 0.95592 2.61519   2
  -6   1   2 2.00449 0.87805   3
   5  -1  -2 1.08471 0.93668   2
   5  -1  -2 -0.8408 1.17999   2
   5  -1  -2 1.50944 1.29692   1
   5  -1  -2 0.31001 0.80746   1
   5  -1  -2 0.79660 1.05962   3
   5  -1  -2 2.38184 1.26894   3
  -5   1   2 0.67981 0.63718   2
  -5   1   2 2.09358 1.06336   2
  -5   1   2 1.98150 1.11933   3
  -5   1   2 1.50023 0.66151   3
  -5   1   2 1.09630 0.59709   1
  -5   1   2 1.11950 1.05488   1
   4  -1  -2 42.3278 4.67619   3
   4  -1  -2 42.9865 4.14267   3
   4  -1  -2 24.6502 2.72366   2
   4  -1  -2 27.4999 3.25878   2
   4  -1  -2 52.8085 4.40090   1
   4  -1  -2 49.4149 5.05019   1
  -4   1   2 42.4654 4.32775   1
  -4   1   2 39.0123 4.80331   1
  -4   1   2 28.0809 2.66005   2
  -4   1   2 27.2867 3.02044   2
  -4   1   2 42.7907 4.04326   3
  -4   1   2 39.4403 4.48970   3
   3  -1  -2 62.0265 6.64098   3
   3  -1  -2 59.0089 5.83453   3
   3  -1  -2 36.7991 3.39254   2
   3  -1  -2 31.2317 3.89810   2
   3  -1  -2 72.2262 9.31371   1
  -3   1   2 101.910 8.14368   1
  -3   1   2 77.3612 8.92853   1
  -3   1   2 59.3879 6.35696   3
  -3   1   2 63.9473 5.79657   3
  -3   1   2 38.2483 3.70862   2
  -3   1   2 33.9074 3.35342   2
   2  -1  -2 18.3114 2.36538   3
   2  -1  -2 20.8104 2.07737   3
   2  -1  -2 13.0049 1.25626   2
   2  -1  -2 13.1830 1.47388   2
   2  -1  -2 20.9257 1.93516   1
   2  -1  -2 21.2400 2.22272   1
  -2   1   2 22.6344 2.06242   3
  -2   1   2 26.8545 2.13657   3
  -2   1   2 20.1726 2.27236   3
  -2   1   2 21.2955 2.13998   1
  -2   1   2 17.6245 1.92258   1
  -2   1   2 11.8970 1.22733   2
  -2   1   2 11.5525 1.38142   2
   1  -1  -2 3202.99 304.545   2
   1  -1  -2 3208.04 345.725   2
   1  -1  -2 4775.58 497.872   3
   1  -1  -2 4682.15 438.576   3
   1  -1  -2 5091.96 551.646   1
   1  -1  -2 5078.24 485.947   1
  -1   1   2 9999.99 934.413  -3
  -1   1   2 9999.99 934.413   1
  -1   1   2 9981.56 1019.71  -3
  -1   1   2 9981.56 1019.71   1
  -1   1   2 3122.00 359.976   2
  -1   1   2 3293.36 331.808   2
  -1   1   2 3427.73 304.041   2
  -1   1   2 4586.62 518.400   3
  -1   1   2 5390.75 574.400   1
   0  -1  -2 33.5426 3.16610   3
   0  -1  -2 32.9141 3.15798   3
   0  -1  -2 32.2728 3.56773   3
   0  -1  -2 25.9091 2.91672   2
   0  -1  -2 27.8813 2.58222   2
   0  -1  -2 29.3395 2.58275   2
   0   1   2 104.817 11.6452  -3
   0   1   2 104.817 11.6452  -2
   0   1   2 104.817 11.6452   1
   0   1   2 35.2281 3.43595   3
   0   1   2 26.5983 2.80556   2
  -1  -1  -2 0.48328 0.25599   1
  -1  -1  -2 0.07992 0.22453   1
  -1  -1  -2 -0.0612 0.26283   3
  -1  -1  -2 -0.4250 0.28767   3
  -1  -1  -2 0.18465 0.25801   3
  -1  -1  -2 -0.3751 0.19997   3
  -1  -1  -2 -0.0999 0.37350  -2
  -1  -1  -2 -0.0999 0.37350   1
  -1  -1  -2 -0.1520 0.24182   2
  -1  -1  -2 0.26095 0.24050   2
   1   1   2 -0.1237 0.33392   2
   1   1   2 0.20115 0.26880   2
   1   1   2 -0.2251 0.26342   2
   1   1   2 -0.0041 0.26380   2
   1   1   2 0.30787 0.24697   1
   1   1   2 0.40588 0.32369   1
   1   1   2 0.15041 0.28365   1
   1   1   2 -0.2439 0.32983   1
   1   1   2 0.19981 0.29594   3
   1   1   2 0.12862 0.32822   3
   1   1   2 -0.0542 0.29685   3
   1   1   2 0.12662 0.28105   3
  -2  -1  -2 92.7384 9.40590   3
  -2  -1  -2 94.2791 8.63750   3
  -2  -1  -2 94.2461 8.67458   3
  -2  -1  -2 92.5022 8.64081   1
  -2  -1  -2 86.5562 8.66494   1
  -2  -1  -2 96.4938 9.43612   1
  -2  -1  -2 62.0308 5.35031   2
  -2  -1  -2 57.0840 5.79459   2
  -2  -1  -2 52.6537 5.31699   2
   2   1   2 53.1582 6.33156   2
   2   1   2 59.6150 5.35789   2
   2   1   2 51.3571 6.08163   2
   2   1   2 58.7266 5.34313   2
   2   1   2 88.5980 8.65419   3
   2   1   2 95.8449 8.65518   3
   2   1   2 87.0758 10.2260   3
   2   1   2 89.0854 9.82145   3
   2   1   2 95.9944 8.67735   1
   2   1   2 90.8626 8.68389   1
   2   1   2 90.3486 9.87089   1
   2   1   2 90.1718 10.2792   1
  -3  -1  -2 30.9411 2.83999   2
  -3  -1  -2 27.1609 3.05736   2
  -3  -1  -2 48.2809 5.01904   1
  -3  -1  -2 54.1014 4.58790   1
  -3  -1  -2 46.6903 4.24218   3
  -3  -1  -2 41.7005 4.62649   3
   3   1   2 47.7150 4.64146   1
   3   1   2 45.4739 5.52746   1
   3   1   2 41.7343 5.27171   1
   3   1   2 46.7385 4.29981   3
   3   1   2 42.8254 4.85624   3
   3   1   2 43.6128 5.07375   3
   3   1   2 30.1344 2.86435   2
   3   1   2 27.3443 3.39754   2
   3   1   2 28.2418 3.27915   2
  -4  -1  -2 2.08913 0.65180   3
  -4  -1  -2 0.01239 0.65002   2
  -4  -1  -2 3.45248 0.64624   1
   4   1   2 1.05724 0.82700   2
   4   1   2 1.35524 1.24029   2
   4   1   2 1.43959 0.88791   3
   4   1   2 1.81993 1.07620   3
   4   1   2 0.46567 0.83780   1
   4   1   2 1.77036 1.20383   1
  -5  -1  -2 0.16759 0.85318   3
  -5  -1  -2 -0.1271 0.77252   2
  -5  -1  -2 -0.2983 0.64950   1
   5   1   2 0.42305 1.16483   2
   5   1   2 0.87101 1.74349   2
   5   1   2 -0.5104 1.28792   3
   5   1   2 -0.2637 1.13045   3
   5   1   2 1.13075 1.17805   1
   5   1   2 -0.0891 1.46958   1
   6  -2  -2 0.27047 1.44733   3
   6  -2  -2 1.99837 1.67446   3
   6  -2  -2 1.03330 1.32385   2
   6  -2  -2 3.45499 2.00418   2
   6  -2  -2 1.72091 1.69047   1
   6  -2  -2 -0.8401 1.19074   1
  -6   2   2 3.37317 1.86276   2
  -6   2   2 2.50795 0.82934   2
   5  -2  -2 4.60971 1.23724   3
   5  -2  -2 5.30829 1.11558   3
   5  -2  -2 4.00639 1.33997   2
   5  -2  -2 4.01909 0.99931   2
   5  -2  -2 3.80623 0.92973   1
   5  -2  -2 5.45588 1.44370   1
  -5   2   2 4.65536 0.74518   3
  -5   2   2 4.90766 1.34514   3
  -5   2   2 3.60677 0.71164   1
  -5   2   2 4.28433 1.39393   1
  -5   2   2 3.57667 0.68180   2
  -5   2   2 1.07923 1.03345   2
   4  -2  -2 2.12056 0.95819   1
   4  -2  -2 2.63952 0.62778   1
   4  -2  -2 4.38165 1.02497   3
   4  -2  -2 0.82374 0.74536   3
   4  -2  -2 2.38727 0.65399   2
   4  -2  -2 0.36037 1.08159   2
  -4   2   2 1.00146 0.43197   2
  -4   2   2 2.00657 0.75444   2
  -4   2   2 2.80172 0.51840   1
  -4   2   2 2.92917 0.83884   1
  -4   2   2 0.63238 0.77896   3
  -4   2   2 3.83333 0.53707   3
   3  -2  -2 52.6140 5.96385   3
   3  -2  -2 56.1203 5.22509   3
   3  -2  -2 55.6911 7.12793   1
   3  -2  -2 73.4817 6.25375   1
   3  -2  -2 31.2771 3.85069   2
   3  -2  -2 36.3217 3.34200   2
  -3   2   2 55.3746 5.18071   3
  -3   2   2 55.2078 5.72419   3
  -3   2   2 54.4669 5.19900   3
  -3   2   2 63.3673 6.24371   1
  -3   2   2 73.6401 6.22648   1
  -3   2   2 58.5351 6.84156   1
  -3   2   2 33.2584 3.29356   2
  -3   2   2 38.0153 3.67932   2
   2  -2  -2 400.351 44.1059   3
   2  -2  -2 410.374 38.8405   3
   2  -2  -2 571.044 55.1092   1
   2  -2  -2 562.342 62.5788   1
   2  -2  -2 255.428 24.7050   2
   2  -2  -2 263.089 28.0672   2
  -2   2   2 267.998 24.6564   2
  -2   2   2 268.102 26.9382   2
  -2   2   2 262.768 29.1825   2
  -2   2   2 263.376 24.6606   2
  -2   2   2 583.967 55.0152   1
  -2   2   2 628.955 60.0721   1
  -2   2   2 599.810 55.0137   1
  -2   2   2 584.394 65.1264   1
  -2   2   2 411.550 38.7669   3
  -2   2   2 420.166 42.3404   3
  -2   2   2 427.350 38.7691   3
  -2   2   2 415.288 45.8893   3
   1  -2  -2 79.8822 8.69573   3
   1  -2  -2 81.9994 7.66519   3
   1  -2  -2 119.506 13.0248   1
   1  -2  -2 195.588 18.3459  -2
   1  -2  -2 195.588 18.3459   1
   1  -2  -2 46.8789 5.66890   2
  -1   2   2 53.3759 4.98457   2
  -1   2   2 59.9362 5.46532   2
  -1   2   2 54.6956 5.91803   2
  -1   2   2 80.5239 9.06474   3
  -1   2   2 83.7280 7.64826   3
  -1   2   2 127.119 13.5766   1
  -1   2   2 120.674 11.4695   1
  -1   2   2 205.791 20.7243  -3
  -1   2   2 205.791 20.7243   1
  -1   2   2 199.999 18.9688  -3
  -1   2   2 199.999 18.9688   1
   0  -2  -2 14.3278 1.44002   3
   0  -2  -2 14.2716 1.45073   3
   0  -2  -2 29.5467 2.58373  -2
   0  -2  -2 29.5467 2.58373   1
   0  -2  -2 25.0028 2.58107  -2
   0  -2  -2 25.0028 2.58107   1
   0   2   2 38.4902 3.64365  -3
   0   2   2 38.4902 3.64365  -2
   0   2   2 38.4902 3.64365   1
   0   2   2 38.2242 4.32386  -3
   0   2   2 38.2242 4.32386  -2
   0   2   2 38.2242 4.32386   1
   0   2   2 15.3791 1.57106   3
   0   2   2 26.6120 2.82149  -2
   0   2   2 26.6120 2.82149   1
  -1  -2  -2 3.20852 0.45868   3
  -1  -2  -2 4.59428 0.51881   3
  -1  -2  -2 4.08433 0.53255   3
  -1  -2  -2 7.26556 0.94071  -2
  -1  -2  -2 7.26556 0.94071   1
  -1  -2  -2 7.39187 0.98404  -2
  -1  -2  -2 7.39187 0.98404   1
  -1  -2  -2 3.78988 0.45681   1
  -1  -2  -2 2.08449 0.36479   2
   1   2   2 2.02026 0.58454   1
   1   2   2 2.48182 0.47038   1
   1   2   2 3.31235 0.44653   1
   1   2   2 3.50343 0.49483   1
   1   2   2 2.49322 0.40675   2
   1   2   2 1.60969 0.39019   2
   1   2   2 2.56451 0.42420   2
   1   2   2 1.81675 0.51373   2
   1   2   2 2.64641 0.57060   3
   1   2   2 2.97441 0.51847   3
   1   2   2 3.21670 0.48179   3
   1   2   2 3.64647 0.48617   3
  -2  -2  -2 16.5589 1.70112   2
  -2  -2  -2 15.3150 1.64573   2
  -2  -2  -2 15.4046 1.67882   2
  -2  -2  -2 25.2745 2.32363   3
  -2  -2  -2 24.8128 2.38735   3
  -2  -2  -2 24.9699 2.50926   3
  -2  -2  -2 26.7442 2.56417   1
  -2  -2  -2 27.1974 2.36323   1
  -2  -2  -2 23.0283 2.39213   1
   2   2   2 21.8587 2.68464   1
   2   2   2 23.4615 2.44245   1
   2   2   2 20.8772 2.84749   1
   2   2   2 23.5216 2.37415   1
   2   2   2 24.5454 2.32963   3
   2   2   2 19.8786 2.76748   3
   2   2   2 23.0267 2.61265   3
   2   2   2 20.6639 2.39596   3
   2   2   2 14.2890 1.60511   2
   2   2   2 16.3244 1.62687   2
   2   2   2 16.5582 1.87214   2
   2   2   2 14.0920 1.92387   2
  -3  -2  -2 41.6042 4.76173   1
  -3  -2  -2 49.5842 4.37017   1
  -3  -2  -2 47.0222 4.30556   3
  -3  -2  -2 39.2250 4.67033   3
  -3  -2  -2 28.1423 2.67178   2
  -3  -2  -2 24.4217 2.86787   2
   3   2   2 41.0374 5.27686   1
   3   2   2 53.9068 5.07946   1
   3   2   2 43.1066 4.41327   1
   3   2   2 47.4999 4.37204   3
   3   2   2 41.6459 5.15008   3
   3   2   2 49.9515 4.94011   3
   3   2   2 25.9845 2.71715   2
   3   2   2 25.5089 3.15491   2
   3   2   2 30.4405 3.27584   2
  -4  -2  -2 14.1149 1.53038   3
  -4  -2  -2 7.82972 1.06082   2
   4   2   2 11.8334 1.70279   3
   4   2   2 15.6495 1.97100   3
   4   2   2 19.7816 1.97238   1
   4   2   2 14.3287 2.21765   1
   4   2   2 7.49908 1.20182   2
   4   2   2 8.01466 1.49417   2
  -5  -2  -2 0.95261 0.90298   1
  -5  -2  -2 2.04499 1.08622   2
  -5  -2  -2 0.33654 0.91863   3
   5   2   2 0.33840 1.59346   3
   5   2   2 0.29977 1.62249   1
   5   2   2 3.84604 1.83506   2
   6  -3  -2 4.99297 2.12840   2
   6  -3  -2 0.91705 1.23049   2
   6  -3  -2 1.17545 1.24121   1
   6  -3  -2 3.19098 1.93819   1
   6  -3  -2 3.40731 1.46989   3
   6  -3  -2 4.18460 1.99193   3
  -6   3   2 2.10880 1.80154   2
   5  -3  -2 31.1771 3.51004   3
   5  -3  -2 34.5740 4.04662   3
   5  -3  -2 30.7180 3.78746   1
   5  -3  -2 29.6664 3.21010   1
   5  -3  -2 20.5953 2.14788   2
   5  -3  -2 25.7788 2.68340   2
  -5   3   2 16.4717 1.97931   2
  -5   3   2 20.4519 2.44175   2
  -5   3   2 36.2696 3.87908   3
  -5   3   2 34.6026 3.68451   1
   4  -3  -2 1.67060 0.66859   3
   4  -3  -2 2.82829 0.99775   3
   4  -3  -2 4.04228 0.62824   1
   4  -3  -2 1.78676 0.89575   1
   4  -3  -2 1.27032 0.61899   2
   4  -3  -2 0.47996 0.90250   2
  -4   3   2 -0.1477 0.84310   2
  -4   3   2 0.33445 0.36948   2
  -4   3   2 0.49824 0.80082   3
  -4   3   2 1.90927 0.93341   1
   3  -3  -2 12.9222 1.24212   3
   3  -3  -2 9.21200 1.46840   3
   3  -3  -2 17.1855 1.37326   1
   3  -3  -2 8.99785 1.57920   1
   3  -3  -2 5.68887 0.95718   2
   3  -3  -2 8.45381 0.75814   2
  -3   3   2 6.11851 0.91044   2
  -3   3   2 5.95902 0.69458   2
  -3   3   2 4.65834 0.62863   2
  -3   3   2 12.7780 1.48080   3
  -3   3   2 12.3534 1.59813   1
   2  -3  -2 11.2029 1.21549   1
   2  -3  -2 9.89992 1.33702   1
   2  -3  -2 10.2492 1.13363   1
   2  -3  -2 0.91766 0.38320   3
   2  -3  -2 1.46506 0.38491   3
   2  -3  -2 1.34152 0.30554   3
   2  -3  -2 0.87283 0.46106   2
   2  -3  -2 1.15786 0.38812   2
   2  -3  -2 1.00302 0.28863   2
  -2   3   2 1.46375 0.39913   3
  -2   3   2 2.28169 0.54544   3
  -2   3   2 0.45413 0.39931   2
  -2   3   2 1.75308 0.25729   2
  -2   3   2 1.27316 0.39528   2
  -2   3   2 1.78269 0.26501   2
  -2   3   2 9.55398 1.30768   1
  -2   3   2 12.3361 1.10538   1
  -2   3   2 11.2991 1.10094   1
  -2   3   2 12.6825 1.37135   1
   1  -3  -2 406.536 39.3562  -2
   1  -3  -2 406.536 39.3562   1
   1  -3  -2 61.7627 6.77827   3
   1  -3  -2 62.4631 5.98488   3
   1  -3  -2 55.0035 6.74227   2
  -1   3   2 433.001 39.2886  -2
  -1   3   2 433.001 39.2886   1
  -1   3   2 64.8379 5.93041   2
  -1   3   2 69.1969 6.50540   2
  -1   3   2 67.8648 7.05388   2
  -1   3   2 64.7538 7.08942   3
  -1   3   2 65.4173 5.96357   3
  -1   3   2 387.301 35.4626  -3
  -1   3   2 387.301 35.4626   1
  -1   3   2 369.419 38.7285  -3
  -1   3   2 369.419 38.7285   1
  -1   3   2 265.733 29.4681   1
   0  -3  -2 3000.83 297.482  -2
   0  -3  -2 3000.83 297.482   1
   0  -3  -2 1961.81 181.954   3
   0   3   2 1921.91 198.247   3
   0   3   2 3351.94 324.122  -2
   0   3   2 3351.94 324.122   1
   0   3   2 4900.22 475.083  -3
   0   3   2 4900.22 475.083  -2
   0   3   2 4900.22 475.083   1
   0   3   2 5260.19 562.511  -3
   0   3   2 5260.19 562.511  -2
   0   3   2 5260.19 562.511   1
  -1  -3  -2 0.32161 0.31094   3
  -1  -3  -2 0.38334 0.39903   3
  -1  -3  -2 0.32001 0.33569   3
  -1  -3  -2 1.71660 0.76843  -2
  -1  -3  -2 1.71660 0.76843   1
  -1  -3  -2 1.92725 0.68155  -2
  -1  -3  -2 1.92725 0.68155   1
  -1  -3  -2 5.85606 0.83990  -2
  -1  -3  -2 5.85606 0.83990   1
   1   3   2 2.62881 0.95426  -3
   1   3   2 2.62881 0.95426   1
   1   3   2 0.55457 0.36405   3
   1   3   2 0.05756 0.33321   3
   1   3   2 0.33755 0.52256   3
   1   3   2 -0.6701 0.53272   1
   1   3   2 0.08033 0.34794   1
   1   3   2 -0.5666 0.36106   1
   1   3   2 -0.8268 0.52595   2
   1   3   2 -0.0220 0.36305   2
   1   3   2 0.15044 0.34790   2
   1   3   2 -0.1976 0.37359   2
  -2  -3  -2 0.48740 0.56446   2
  -2  -3  -2 0.18908 0.45483   2
  -2  -3  -2 -0.9596 0.48382   3
  -2  -3  -2 0.53421 0.53865   3
  -2  -3  -2 -0.1881 0.41437   3
  -2  -3  -2 1.45407 0.48052   1
  -2  -3  -2 2.89633 0.49176   1
  -2  -3  -2 9.17133 1.50261  -2
  -2  -3  -2 9.17133 1.50261   1
   2   3   2 -0.1518 0.47696   2
   2   3   2 -1.8349 0.69034   2
   2   3   2 -0.8740 0.61687   2
   2   3   2 0.28375 0.51898   2
   2   3   2 0.36851 0.55105   3
   2   3   2 1.11060 0.61123   3
   2   3   2 0.23111 0.55443   3
   2   3   2 0.60691 0.67810   3
   2   3   2 -1.3791 0.61101   1
   2   3   2 0.58760 0.51381   1
   2   3   2 1.00041 0.59435   1
   2   3   2 -1.3643 0.78906   1
  -3  -3  -2 305.779 27.5803   3
  -3  -3  -2 296.347 30.0932   3
  -3  -3  -2 288.060 30.4458   1
  -3  -3  -2 289.030 27.8881   1
  -3  -3  -2 193.246 19.5676   2
  -3  -3  -2 190.168 17.9350   2
   3   3   2 311.405 27.9650   1
   3   3   2 319.680 31.7674   1
   3   3   2 283.118 33.0610   1
   3   3   2 290.865 27.6419   3
   3   3   2 282.126 31.3723   3
   3   3   2 294.155 32.6755   3
   3   3   2 174.334 21.2480   2
   3   3   2 188.383 17.9801   2
   3   3   2 211.271 20.4486   2
  -4  -3  -2 8.51859 1.11143   3
  -4  -3  -2 2.03679 0.66474   2
  -4  -3  -2 5.35119 0.84328   1
   4   3   2 3.94034 1.40827   2
   4   3   2 6.35889 1.39771   3
   4   3   2 8.22841 1.46180   1
  -5  -3  -2 8.89505 1.26037   1
  -5  -3  -2 3.63085 1.09711   2
  -5  -3  -2 10.6867 1.57618   3
   5   3   2 9.71933 1.99776   3
   5   3   2 3.61286 1.90351   2
   5   3   2 8.69211 2.10065   1
   6  -4  -2 56.0183 6.10125   1
   6  -4  -2 69.5073 7.05314   1
   6  -4  -2 65.6115 7.25615   3
   6  -4  -2 83.6754 8.36730   3
   6  -4  -2 41.0930 4.77451   2
   6  -4  -2 53.7861 5.78095   2
  -6   4   2 47.5348 5.30977   2
   5  -4  -2 49.8072 4.93766   3
   5  -4  -2 52.1109 5.62060   3
   5  -4  -2 30.6398 3.50687   2
   5  -4  -2 24.7394 2.92821   2
   5  -4  -2 51.9588 5.18764   1
   5  -4  -2 39.1268 4.46474   1
  -5   4   2 47.7991 5.44472   3
  -5   4   2 30.0042 3.29062   2
  -5   4   2 50.2961 5.08275   1
   4  -4  -2 0.36615 0.55561   2
   4  -4  -2 -0.5911 0.83903   2
   4  -4  -2 0.09121 0.60415   3
   4  -4  -2 0.23919 0.93030   3
   4  -4  -2 0.07464 0.50160   1
   4  -4  -2 -0.0857 0.81645   1
  -4   4   2 0.45702 0.92710   1
  -4   4   2 0.20410 0.78483   3
  -4   4   2 -0.8070 0.81962   2
   3  -4  -2 0.64827 0.40099   2
   3  -4  -2 1.46392 0.68282   2
   3  -4  -2 4.25153 0.76172   1
   3  -4  -2 2.80359 0.45075   1
   3  -4  -2 1.23752 0.60034   3
   3  -4  -2 0.90307 0.42423   3
  -3   4   2 1.40637 0.70337   1
  -3   4   2 0.94691 0.61123   3
  -3   4   2 1.88058 0.66743   2
   2  -4  -2 397.419 37.2666  -3
   2  -4  -2 397.419 37.2666   1
   2  -4  -2 314.578 30.7279   1
   2  -4  -2 327.369 34.8983   1
   2  -4  -2 54.9621 6.19348   2
   2  -4  -2 62.9265 5.44685   2
   2  -4  -2 58.5750 5.42845   2
   2  -4  -2 84.2286 9.10783   3
   2  -4  -2 83.2371 8.01068   3
  -2   4   2 54.6706 6.43913   2
  -2   4   2 55.4617 5.95816   2
  -2   4   2 337.138 36.3365   1
  -2   4   2 333.674 33.5253   1
  -2   4   2 88.8808 8.77984   3
  -2   4   2 85.6922 9.48713   3
   1  -4  -2 236.701 25.0083   3
   1  -4  -2 160.954 15.7743   2
   1  -4  -2 171.998 17.8933   2
   1  -4  -2 282.141 30.6757   1
   1  -4  -2 476.319 44.3100  -3
   1  -4  -2 476.319 44.3100   1
  -1   4   2 495.295 46.3430  -2
  -1   4   2 495.295 46.3430   1
  -1   4   2 237.100 21.9957   3
  -1   4   2 230.172 26.0787   3
  -1   4   2 177.329 18.6724   2
  -1   4   2 161.500 17.2122   2
  -1   4   2 168.481 15.7390   2
  -1   4   2 536.620 48.3202  -3
  -1   4   2 536.620 48.3202   1
  -1   4   2 417.795 44.2265  -3
  -1   4   2 417.795 44.2265   1
  -1   4   2 296.233 31.9856   1
   0   4   2 1.21698 0.26005   1
   0   4   2 4.92300 0.75547  -3
   0   4   2 4.92300 0.75547  -2
   0   4   2 4.92300 0.75547   1
   0   4   2 3.30349 1.06029  -3
   0   4   2 3.30349 1.06029  -2
   0   4   2 3.30349 1.06029   1
  -1  -4  -2 891.818 81.9437  -2
  -1  -4  -2 891.818 81.9437   1
  -1  -4  -2 850.655 82.0814  -2
  -1  -4  -2 850.655 82.0814   1
  -1  -4  -2 884.560 89.4324  -2
  -1  -4  -2 884.560 89.4324   1
  -1  -4  -2 498.393 46.9676   3
  -1  -4  -2 505.578 51.1735   3
  -1  -4  -2 485.968 46.8770   3
   1   4   2 352.306 33.7280   2
   1   4   2 359.960 38.2771   2
   1   4   2 369.070 33.6711   2
   1   4   2 356.345 39.8892   2
   1   4   2 513.487 46.9605   3
   1   4   2 1007.20 104.885  -3
   1   4   2 1007.20 104.885   1
   1   4   2 972.766 92.2541  -3
   1   4   2 972.766 92.2541   1
   1   4   2 976.716 109.247  -3
   1   4   2 976.716 109.247   1
   1   4   2 514.580 48.2533   1
  -2  -4  -2 4.92107 0.73939   1
  -2  -4  -2 7.16752 0.83064   1
  -2  -4  -2 8.19550 0.90266   1
  -2  -4  -2 3.08477 0.71213   2
  -2  -4  -2 3.39807 0.70819   2
  -2  -4  -2 3.97759 0.67240   2
  -2  -4  -2 9.92064 1.02102   3
  -2  -4  -2 5.61987 0.88824   3
  -2  -4  -2 6.76020 1.02321   3
   2   4   2 3.52883 0.93222   1
   2   4   2 3.79137 1.11191   1
   2   4   2 5.05648 0.82426   1
   2   4   2 5.99272 0.87482   1
   2   4   2 4.50624 0.98751   2
   2   4   2 3.43080 0.69322   2
   2   4   2 3.81663 0.83431   2
   2   4   2 3.54619 0.72212   2
   2   4   2 7.85409 1.01264   3
   2   4   2 4.23632 1.16863   3
   2   4   2 7.96511 1.02276   3
   2   4   2 6.61171 0.95031   3
  -3  -4  -2 179.787 16.1733   3
  -3  -4  -2 162.675 17.6320   3
  -3  -4  -2 156.979 13.9028   1
  -3  -4  -2 155.059 15.1853   1
  -3  -4  -2 98.4578 8.77983   2
  -3  -4  -2 85.2486 9.54465   2
   3   4   2 91.8321 10.4419   2
   3   4   2 96.1316 10.0154   2
   3   4   2 130.795 15.8324   1
   3   4   2 145.986 16.5224   1
   3   4   2 168.279 18.3809   3
   3   4   2 177.448 19.1749   3
  -4  -4  -2 5.87154 0.97792   1
  -4  -4  -2 3.36731 0.81654   2
  -4  -4  -2 14.7401 1.82878   3
   4   4   2 7.35629 1.52841   2
   4   4   2 11.7555 1.64714   1
   4   4   2 14.8781 2.15868   3
  -5  -4  -2 5.88006 1.35050   1
  -5  -4  -2 9.55757 1.67199   3
  -5  -4  -2 3.35495 1.33100   2
   5   4   2 12.6043 2.15410   3
   5   4   2 7.58634 2.17990   2
   5   4   2 12.5081 2.26209   1
   6  -5  -2 1.40188 2.16768   2
   6  -5  -2 2.26134 1.15667   2
   6  -5  -2 -2.2253 1.36864   3
   6  -5  -2 0.85040 1.94835   3
   6  -5  -2 4.55167 1.22317   1
   6  -5  -2 5.69578 2.08822   1
  -6   5   2 -0.1532 1.72166   2
   5  -5  -2 23.5006 2.51926   1
   5  -5  -2 25.8559 3.03643   1
   5  -5  -2 21.3481 2.57319   3
   5  -5  -2 27.9147 3.12756   3
   5  -5  -2 9.79401 1.42795   2
   5  -5  -2 15.3428 2.14794   2
  -5   5   2 21.6343 2.91202   1
  -5   5   2 13.1214 1.79975   2
  -5   5   2 27.2478 3.03054   3
   4  -5  -2 1.85293 0.95368   3
   4  -5  -2 1.83645 0.65592   3
   4  -5  -2 2.35548 0.99110   1
   4  -5  -2 1.31535 0.52759   1
   4  -5  -2 1.48047 1.05651   2
   4  -5  -2 1.02377 0.56167   2
  -4   5   2 1.14089 0.95922   3
  -4   5   2 2.89917 0.91965   1
  -4   5   2 0.82069 0.84561   2
   3  -5  -2 102.265 11.5755   3
   3  -5  -2 110.652 10.1596   3
   3  -5  -2 134.334 12.6329   1
   3  -5  -2 133.157 14.3861   1
   3  -5  -2 65.2879 7.10833   2
   3  -5  -2 64.0281 6.18710   2
  -3   5   2 67.7700 6.80522   2
  -3   5   2 110.078 11.1412   3
  -3   5   2 136.029 13.8464   1
   2  -5  -2 2.20222 0.54280   3
   2  -5  -2 3.79617 0.45223   3
   2  -5  -2 3.20525 0.52974   2
   2  -5  -2 0.91343 0.58052   2
   2  -5  -2 4.05245 0.43285   2
   2  -5  -2 86.4844 8.50842   1
   2  -5  -2 89.6428 9.66979   1
   2  -5  -2 88.5555 8.35712  -3
   2  -5  -2 88.5555 8.35712   1
  -2   5   2 96.4534 9.33822   1
  -2   5   2 92.3537 10.0954   1
  -2   5   2 3.07049 0.62889   2
  -2   5   2 3.84847 0.68991   2
  -2   5   2 3.62589 0.71566   3
  -2   5   2 2.52687 0.64455   3
   1  -5  -2 188.316 19.9133  -3
   1  -5  -2 188.316 19.9133   1
  -1   5   2 28.0538 2.97503   2
  -1   5   2 248.694 21.7667  -3
  -1   5   2 248.694 21.7667   1
   0   5   2 1.94238 1.08558  -3
   0   5   2 1.94238 1.08558  -2
   0   5   2 1.94238 1.08558   1
   0   5   2 1.81841 0.71754  -3
   0   5   2 1.81841 0.71754  -2
   0   5   2 1.81841 0.71754   1
   0   5   2 -2.2354 0.39272  -3
   0   5   2 -2.2354 0.39272   2
  -1  -5  -2 238.234 22.3537   3
  -1  -5  -2 245.172 22.4064   3
  -1  -5  -2 231.501 24.4145   3
  -1  -5  -2 392.417 38.8247  -2
  -1  -5  -2 392.417 38.8247   1
  -1  -5  -2 362.270 35.6234  -2
  -1  -5  -2 362.270 35.6234   1
  -1  -5  -2 384.816 35.5662  -2
  -1  -5  -2 384.816 35.5662   1
   1   5   2 147.166 16.4568   2
   1   5   2 159.029 17.1934   2
   1   5   2 158.434 14.4886   2
   1   5   2 478.633 48.4953  -3
   1   5   2 478.633 48.4953   1
   1   5   2 465.650 50.5565  -3
   1   5   2 465.650 50.5565   1
   1   5   2 422.070 42.6642  -3
   1   5   2 422.070 42.6642   1
  -2  -5  -2 149.216 14.7538   1
  -2  -5  -2 133.949 13.5305   1
  -2  -5  -2 150.481 13.5006   1
  -2  -5  -2 88.4935 8.52910   2
  -2  -5  -2 92.8528 8.54948   2
  -2  -5  -2 86.2318 9.28622   2
  -2  -5  -2 147.458 13.9332   3
  -2  -5  -2 147.065 15.1582   3
  -2  -5  -2 153.958 13.8905   3
   2   5   2 140.627 13.8972   3
   2   5   2 144.017 16.4717   3
   2   5   2 150.354 15.7691   3
   2   5   2 91.1895 10.1482   2
   2   5   2 88.5373 9.68514   2
   2   5   2 93.6059 8.53517   2
   2   5   2 141.033 16.0464   1
   2   5   2 146.709 15.3666   1
   2   5   2 138.345 13.5303   1
  -3  -5  -2 18.2155 2.07372   1
  -3  -5  -2 16.3461 1.81684   1
  -3  -5  -2 12.5394 1.43169   2
  -3  -5  -2 10.2514 1.51064   2
  -3  -5  -2 16.4248 2.30086   3
  -3  -5  -2 23.3328 2.15545   3
   3   5   2 21.1302 2.49771   1
   3   5   2 14.5137 2.18756   1
   3   5   2 10.0209 1.69324   2
   3   5   2 12.6894 1.85717   2
   3   5   2 12.1251 1.51921   2
   3   5   2 21.0494 2.67645   3
   3   5   2 19.2382 2.44293   3
  -4  -5  -2 -0.5823 0.75797   1
  -4  -5  -2 0.56156 0.83386   2
  -4  -5  -2 0.65393 1.03923   3
   4   5   2 0.91977 1.46366   2
   4   5   2 -0.8641 1.30324   3
   4   5   2 -0.7632 1.33895   1
   5  -6  -2 5.36046 1.43336   3
   5  -6  -2 3.73687 0.99639   3
   5  -6  -2 2.60087 0.92012   2
   5  -6  -2 5.59764 1.61693   2
  -5   6   2 5.28134 1.45051   3
  -5   6   2 7.09792 1.69524   1
  -5   6   2 5.18901 1.36165   2
   4  -6  -2 0.60601 1.10136   2
   4  -6  -2 0.56233 0.52765   2
   4  -6  -2 1.34098 0.95423   3
   4  -6  -2 1.14064 0.60221   3
   4  -6  -2 2.28599 0.59631   1
   4  -6  -2 2.39175 1.04425   1
  -4   6   2 2.47780 0.97436   3
  -4   6   2 -0.2350 0.82249   2
  -4   6   2 1.38250 1.13833   1
   3  -6  -2 11.7540 1.10344   3
   3  -6  -2 9.42341 1.37672   3
   3  -6  -2 13.7031 1.82374   1
   3  -6  -2 16.1085 1.56663   1
   3  -6  -2 5.03865 1.02416   2
   3  -6  -2 5.41652 0.67752   2
  -3   6   2 4.88583 0.91164   2
  -3   6   2 7.75214 1.37188   3
  -3   6   2 15.0514 1.84332   1
   2  -6  -2 47.2374 5.17717   3
   2  -6  -2 48.1607 4.56661   3
   2  -6  -2 84.4307 8.24550   1
   2  -6  -2 88.9948 9.36071   1
   2  -6  -2 31.3642 3.52045   2
   2  -6  -2 31.4300 3.07839   2
  -2   6   2 48.2621 5.04823   3
  -2   6   2 48.9153 5.46871   3
  -2   6   2 90.8863 9.79586   1
  -2   6   2 86.0976 9.06109   1
  -2   6   2 33.3990 3.44054   2
  -2   6   2 33.6087 3.75594   2
  -1   6   2 28.1201 3.16244  -3
  -1   6   2 28.1201 3.16244   1
  -1   6   2 25.3167 2.41458  -2
  -1   6   2 25.3167 2.41458   1
  -1   6   2 7.41695 1.02431   2
   0  -6  -2 390.387 39.2080  -3
   0  -6  -2 390.387 39.2080   2
   0  -6  -2 195.508 19.4746   1
   0   6   2 578.140 59.5558  -3
   0   6   2 578.140 59.5558  -2
   0   6   2 578.140 59.5558   1
   0   6   2 502.398 50.2483  -3
   0   6   2 502.398 50.2483  -2
   0   6   2 502.398 50.2483   1
   0   6   2 184.315 19.4785   1
   0   6   2 376.106 39.2060  -3
   0   6   2 376.106 39.2060   2
  -1  -6  -2 51.1875 4.97291  -2
  -1  -6  -2 51.1875 4.97291   1
  -1  -6  -2 30.2912 3.80251   3
  -1  -6  -2 41.8675 3.52152   3
  -1  -6  -2 18.2293 1.72824   2
  -1  -6  -2 30.4609 3.29532   1
   1   6   2 12.7021 1.81381   2
   1   6   2 11.6304 1.64044   2
   1   6   2 54.6283 6.42719  -3
   1   6   2 54.6283 6.42719   1
  -2  -6  -2 31.3151 3.17528   2
  -2  -6  -2 27.9435 3.39159   2
  -2  -6  -2 42.3114 4.75461   1
  -2  -6  -2 37.5504 4.41440   1
  -2  -6  -2 45.3563 4.93712   3
  -2  -6  -2 45.4324 4.60918   3
   2   6   2 46.1749 4.97154   1
   2   6   2 53.3778 4.45551   1
   2   6   2 50.3590 5.34335   1
   2   6   2 32.6590 3.14753   2
   2   6   2 31.1692 3.53050   2
   2   6   2 33.8268 3.84418   2
   2   6   2 48.0445 4.55799   3
   2   6   2 46.1699 5.09798   3
   2   6   2 47.3071 5.46572   3
  -3  -6  -2 20.1334 2.67475   3
  -3  -6  -2 10.4826 1.63244   2
  -3  -6  -2 19.7071 2.47195   1
   3   6   2 13.1653 1.58798   2
   3   6   2 15.7187 2.02404   2
   3   6   2 8.95468 1.79379   2
   3   6   2 26.1681 2.56009   3
   3   6   2 23.4254 3.03511   3
   3   6   2 20.2354 2.62486   1
   3   6   2 22.1213 2.39298   1
   3   6   2 23.0579 2.93946   1
  -4  -6  -2 1.83755 1.00441   1
  -4  -6  -2 3.61871 1.21329   3
   5  -7  -2 1.75561 0.78920   2
   5  -7  -2 5.50288 0.95174   1
   5  -7  -2 5.71083 1.03215   3
  -5   7   2 4.65026 1.49124   3
  -5   7   2 1.23690 1.27000   2
  -5   7   2 5.87110 1.67421   1
   4  -7  -2 -0.1812 0.55959   3
   4  -7  -2 -0.2102 0.53347   2
   4  -7  -2 2.16799 0.53990   1
  -4   7   2 0.75884 1.01421   1
  -4   7   2 -0.3088 0.82681   2
  -4   7   2 0.56014 0.93594   3
   3  -7  -2 48.7965 4.53146   1
   3  -7  -2 34.2472 3.27205   3
   3  -7  -2 19.3954 2.00205   2
  -3   7   2 21.8278 2.41959   2
  -3   7   2 44.5166 5.07797   1
  -3   7   2 32.9502 3.68883   3
   2  -7  -2 176.390 16.3333   2
   2  -7  -2 287.937 26.3348   1
   2  -7  -2 277.721 25.9366   3
  -2   7   2 173.087 19.3549   2
  -2   7   2 170.930 17.8628   2
  -2   7   2 279.186 28.7695   1
  -2   7   2 272.731 31.1766   1
  -2   7   2 276.408 30.7037   3
  -2   7   2 274.393 28.3248   3
  -1   7   2 0.94725 0.68012   2
  -1   7   2 5.71995 1.46047  -3
  -1   7   2 5.71995 1.46047   1
   0  -7  -2 205.214 17.7795  -3
   0  -7  -2 205.214 17.7795  -2
   0  -7  -2 205.214 17.7795   1
   0   7   2 179.617 17.7077  -3
   0   7   2 179.617 17.7077  -2
   0   7   2 179.617 17.7077   1
   0   7   2 183.163 21.0606  -3
   0   7   2 183.163 21.0606  -2
   0   7   2 183.163 21.0606   1
   0   7   2 68.1733 7.11683   1
  -1  -7  -2 8.33928 1.16767   1
  -1  -7  -2 15.6173 2.01248  -2
  -1  -7  -2 15.6173 2.01248   1
  -1  -7  -2 5.64031 1.06019   2
   1   7   2 31.3029 3.00727  -3
   1   7   2 31.3029 3.00727   1
   1   7   2 23.4056 3.78172  -3
   1   7   2 23.4056 3.78172   1
   1   7   2 5.13888 1.27217   2
   1   7   2 6.44503 0.83077   2
  -2  -7  -2 -0.0667 0.78523   2
  -2  -7  -2 0.81078 0.80369   2
  -2  -7  -2 0.65900 0.90899   3
  -2  -7  -2 2.75422 0.99120   3
  -2  -7  -2 1.28908 0.73723   1
  -2  -7  -2 1.49860 0.84178   1
   2   7   2 0.19877 1.29466   1
   2   7   2 0.60169 0.81003   1
   2   7   2 -0.3401 0.71237   2
   2   7   2 -0.6839 1.11878   2
   2   7   2 2.29579 1.20258   3
   2   7   2 1.84635 0.80560   3
  -3  -7  -2 18.6570 2.63545   3
  -3  -7  -2 10.9009 1.64427   2
  -3  -7  -2 21.0434 2.35786   1
   3   7   2 17.3668 2.21436   1
   3   7   2 17.1397 2.75329   1
   3   7   2 23.5826 2.47176   3
   3   7   2 24.6825 3.07106   3
   3   7   2 11.8889 1.55823   2
   3   7   2 9.40689 1.94705   2
   5  -8  -2 30.6784 3.19730   1
   5  -8  -2 10.9151 1.43337   2
   5  -8  -2 25.1051 2.70158   3
  -5   8   2 25.0183 3.16793   3
  -5   8   2 12.6247 1.94709   2
  -5   8   2 31.4808 3.85593   1
   4  -8  -2 32.8039 3.26353   2
   4  -8  -2 68.8713 6.31790   1
   4  -8  -2 64.2584 5.90007   3
  -4   8   2 33.5026 3.71464   2
  -4   8   2 56.9501 6.56341   3
  -4   8   2 60.9927 7.03413   1
   3  -8  -2 33.9393 3.07247   1
   3  -8  -2 11.9898 1.29254   3
   3  -8  -2 5.68875 0.71756   2
  -3   8   2 25.9536 3.50287   1
  -3   8   2 11.3019 1.75432   3
  -3   8   2 4.62618 1.06699   2
   2  -8  -2 -0.1203 0.49511   3
   2  -8  -2 0.13338 0.44972   2
   2  -8  -2 0.60134 0.50014   1
  -2   8   2 0.55296 0.72306   2
  -2   8   2 -0.2607 0.88587   2
  -2   8   2 0.62721 0.86643   3
  -2   8   2 0.27416 0.89933   3
  -2   8   2 0.92090 0.97573   1
  -2   8   2 0.30807 0.95201   1
   1  -8  -2 714.161 72.6415   2
   1  -8  -2 723.954 66.6185   2
   1  -8  -2 2254.19 231.828  -3
   1  -8  -2 2254.19 231.828   1
   1  -8  -2 2267.17 212.733  -3
   1  -8  -2 2267.17 212.733   1
  -1   8   2 3004.18 332.770  -3
  -1   8   2 3004.18 332.770  -2
  -1   8   2 3004.18 332.770   1
  -1   8   2 691.775 72.6363   2
  -1   8   2 2289.72 231.835  -3
  -1   8   2 2289.72 231.835   1
   0  -8  -2 187.401 17.8322  -3
   0  -8  -2 187.401 17.8322  -2
   0  -8  -2 187.401 17.8322   1
   0   8   2 194.340 21.1410  -3
   0   8   2 194.340 21.1410  -2
   0   8   2 194.340 21.1410   1
   0   8   2 187.484 17.7633  -3
   0   8   2 187.484 17.7633  -2
   0   8   2 187.484 17.7633   1
  -1  -8  -2 42.9494 4.96966   3
  -1  -8  -2 49.8231 4.57995   3
  -1  -8  -2 36.1493 3.86326   2
  -1  -8  -2 31.4370 3.49975   2
  -1  -8  -2 48.0017 4.60415   1
  -1  -8  -2 38.5142 4.16592   1
   1   8   2 102.839 11.7274  -3
   1   8   2 102.839 11.7274   1
   1   8   2 38.6838 4.24954   2
  -2  -8  -2 7.83429 1.42507   2
  -2  -8  -2 9.94063 1.35742   2
  -2  -8  -2 15.6033 2.15364   3
  -2  -8  -2 13.1732 1.77188   1
   2   8   2 18.5430 1.98008   3
   2   8   2 18.8220 2.49456   3
   2   8   2 15.3097 2.22406   1
   2   8   2 11.9215 1.60822   1
   2   8   2 10.8356 1.79778   2
   2   8   2 9.90642 1.29351   2
  -3  -8  -2 13.1185 1.92125   1
  -3  -8  -2 4.69802 1.25911   2
   3   8   2 15.0576 2.00301   3
   3   8   2 17.4820 2.55277   3
   3   8   2 10.7454 1.76051   1
   3   8   2 15.7510 2.40088   1
   3   8   2 4.89373 1.75217   2
   3   8   2 5.99145 1.18306   2
   5  -9  -2 16.1875 1.98914   1
   5  -9  -2 6.74152 1.12513   2
   5  -9  -2 17.0849 1.95390   3
  -5   9   2 24.8913 2.90407   1
  -5   9   2 18.4600 2.73522   3
  -5   9   2 8.94027 1.90329   2
   4  -9  -2 0.16455 0.64721   3
   4  -9  -2 -0.3416 0.54790   2
   4  -9  -2 0.05829 0.64309   1
  -4   9   2 0.17214 1.45132   1
  -4   9   2 -0.4630 1.14543   2
  -4   9   2 0.17905 1.21147   3
   3  -9  -2 5.12818 0.75454   2
   3  -9  -2 11.8236 1.28121   1
  -3   9   2 6.25982 1.37171   3
  -3   9   2 4.88373 1.22493   2
  -3   9   2 8.61602 1.78248   1
   2  -9  -2 19.6486 1.92396   2
   2  -9  -2 35.6297 3.30032   3
   2  -9  -2 76.0818 7.06649   1
  -2   9   2 25.0437 4.00258   3
  -2   9   2 40.3638 3.83654   3
  -2   9   2 73.7660 7.82343   1
  -2   9   2 71.9626 8.45779   1
  -2   9   2 17.1709 2.32109   2
  -2   9   2 16.4970 2.18452   2
   1  -9  -2 29.5013 2.57684   2
   1  -9  -2 23.6501 2.88708   2
   1  -9  -2 81.4707 8.01037  -3
   1  -9  -2 81.4707 8.01037   1
   1  -9  -2 82.4925 8.83844  -3
   1  -9  -2 82.4925 8.83844   1
  -1   9   2 28.3207 2.92047   2
  -1   9   2 19.2193 3.11773   2
  -1   9   2 80.8937 8.86020  -3
  -1   9   2 80.8937 8.86020   1
  -1   9   2 93.3579 9.67834  -3
  -1   9   2 93.3579 9.67834   1
   0   9   2 611.940 67.9392  -3
   0   9   2 611.940 67.9392  -2
   0   9   2 611.940 67.9392   1
  -1  -9  -2 53.5961 5.69350   3
  -1  -9  -2 56.8782 5.20097   3
  -1  -9  -2 29.4482 2.96352   2
  -1  -9  -2 22.3763 3.21463   2
  -1  -9  -2 42.0147 4.37776   1
  -1  -9  -2 36.3443 3.95196   1
   1   9   2 109.430 12.5300  -3
   1   9   2 109.430 12.5300   1
   1   9   2 30.6589 2.87249   2
   1   9   2 32.2723 3.71887   2
   1   9   2 49.7705 5.10062   3
   1   9   2 43.0673 3.97584   1
  -2  -9  -2 9.52597 1.53459   2
  -2  -9  -2 14.0431 2.13736   1
  -2  -9  -2 16.5264 2.49510   3
   2   9   2 10.5241 1.37654   2
   2   9   2 11.3951 1.94923   2
   2   9   2 17.8490 2.67933   1
   2   9   2 20.9985 2.02249   1
   2   9   2 23.0873 2.82738   3
   2   9   2 19.7993 2.15087   3
  -3  -9  -2 0.07069 1.33418   2
  -3  -9  -2 -0.2727 1.43088   1
   3   9   2 -0.3246 1.84440   3
   3   9   2 0.14118 1.19609   3
   3   9   2 0.60798 1.27699   2
   3   9   2 0.53241 1.84267   2
   3   9   2 -0.6253 1.34186   1
   3   9   2 -1.1023 2.01316   1
   5 -10  -2 0.61474 0.97898   1
   5 -10  -2 0.21523 0.85579   2
   5 -10  -2 0.22347 0.98357   3
  -5  10   2 -1.0575 1.55350   2
  -5  10   2 0.36900 2.07554   1
  -5  10   2 -0.1610 1.88635   3
   4 -10  -2 0.88999 0.67769   2
   4 -10  -2 2.35714 0.80206   1
   4 -10  -2 1.47256 0.78223   3
  -4  10   2 0.83954 1.36157   2
  -4  10   2 3.44112 1.58401   1
  -4  10   2 0.58882 1.43020   3
   3 -10  -2 20.6509 2.15499   1
   3 -10  -2 11.8835 1.16475   2
   3 -10  -2 21.0198 2.34251   3
  -3  10   2 24.0587 2.79923   3
  -3  10   2 19.0322 2.59588   1
  -3  10   2 5.11718 1.50217   2
   2 -10  -2 51.4333 5.07003   2
   2 -10  -2 58.0729 5.66541   2
   2 -10  -2 92.5849 8.70349   3
   2 -10  -2 89.8558 9.58390   3
   2 -10  -2 88.1764 8.54227   1
   2 -10  -2 78.0204 7.71231   1
  -2  10   2 91.5172 9.60471   3
  -2  10   2 51.6422 5.64927   2
  -2  10   2 51.0480 6.12252   2
  -2  10   2 80.3142 8.55153   1
  -2  10   2 175.464 19.7153  -3
  -2  10   2 175.464 19.7153   1
   1 -10  -2 -0.1080 1.74502  -3
   1 -10  -2 -0.1080 1.74502   1
   1 -10  -2 0.18784 0.89770   2
  -1  10   2 0.44525 1.01249   2
  -1  10   2 0.25978 1.16938   2
  -1  10   2 0.91860 2.26407  -3
  -1  10   2 0.91860 2.26407   1
   0  10   2 219.688 24.5465  -3
   0  10   2 219.688 24.5465   1
   0  10   2 130.414 14.6857   2
  -1 -10  -2 11.9355 1.48274   3
  -1 -10  -2 7.68435 1.73415   3
  -1 -10  -2 3.01698 1.24447   2
  -1 -10  -2 4.85379 0.99010   2
  -1 -10  -2 6.92986 1.07857   1
  -1 -10  -2 4.53292 1.27190   1
   1  10   2 5.79665 1.43743   2
   1  10   2 4.03178 0.84858   2
   1  10   2 18.3300 2.35045  -3
   1  10   2 18.3300 2.35045   1
   1  10   2 12.6880 3.49425  -3
   1  10   2 12.6880 3.49425   1
  -2 -10  -2 1.07540 1.35718   3
  -2 -10  -2 0.47803 1.06851   2
  -2 -10  -2 -0.4656 1.01871   1
   2  10   2 0.28326 0.94588   2
   2  10   2 -0.4734 1.64729   2
   2  10   2 -1.8066 1.16203   1
   2  10   2 0.10589 1.74051   1
   2  10   2 -0.5175 0.95051   3
   2  10   2 0.28202 1.55208   3
  -3 -10  -2 7.26006 2.02258   2
   3  10   2 13.0297 2.26570   1
   3  10   2 17.6698 3.45309   1
   3  10   2 12.4281 1.86269   2
   3  10   2 9.74598 2.59107   2
   3  10   2 24.6074 3.64102   3
   3  10   2 22.3721 2.87132   3
   4 -11  -2 21.7801 2.34387   1
   4 -11  -2 4.12895 0.92958   2
   4 -11  -2 9.31792 1.37509   3
  -4  11   2 21.9234 2.96943   1
  -4  11   2 0.42334 1.62965   2
  -4  11   2 8.27703 1.99111   3
   3 -11  -2 -0.4280 0.66541   2
   3 -11  -2 -0.4796 0.83389   3
   3 -11  -2 3.85884 0.89413   1
  -3  11   2 2.67071 1.45265   1
  -3  11   2 0.63120 1.20379   2
  -3  11   2 0.14754 1.40059   3
   2 -11  -2 17.4158 1.78922   2
   2 -11  -2 15.4828 2.17983   2
   2 -11  -2 34.1579 3.60293   1
   2 -11  -2 29.5383 3.13400   1
   2 -11  -2 37.7155 3.85669   3
   2 -11  -2 29.8071 3.29303   3
  -2  11   2 30.9904 3.64477   1
  -2  11   2 28.6336 3.92895   1
  -2  11   2 28.5071 3.70785   3
  -2  11   2 33.8509 4.06193   3
  -2  11   2 16.8729 2.23331   2
  -2  11   2 15.4395 2.32585   2
   1 -11  -2 5.41700 1.02253   2
   1 -11  -2 4.85887 1.29502   2
   1 -11  -2 18.7456 2.92046  -3
   1 -11  -2 18.7456 2.92046   1
   1 -11  -2 18.9204 2.44483  -3
   1 -11  -2 18.9204 2.44483   1
  -1  11   2 5.28988 1.41621   2
  -1  11   2 4.49502 1.49137   2
  -1  11   2 19.0482 3.47102  -3
  -1  11   2 19.0482 3.47102   1
   0 -11  -2 2.01000 1.99508  -3
   0 -11  -2 2.01000 1.99508   1
   0 -11  -2 -0.4443 1.06863   2
   0  11   2 -0.0259 1.40989   2
   0  11   2 0.07390 0.99601  -3
   0  11   2 0.07390 0.99601   1
   0  11   2 4.60706 2.29646  -3
   0  11   2 4.60706 2.29646   1
  -1 -11  -2 11.1122 1.95005   1
  -1 -11  -2 25.2512 3.50044  -3
  -1 -11  -2 25.2512 3.50044   1
  -1 -11  -2 10.0630 1.43872   2
  -1 -11  -2 6.21256 1.66221   2
  -1 -11  -2 15.0295 2.66050   3
   1  11   2 11.2122 2.16074   2
   1  11   2 8.50720 1.23953   2
   1  11   2 14.1214 1.63791   1
   1  11   2 20.2374 2.07422   3
   1  11   2 35.6693 4.82974  -3
   1  11   2 35.6693 4.82974   1
  -2 -11  -2 0.88028 1.48315   1
  -2 -11  -2 0.81328 1.49481   2
  -2 -11  -2 1.69927 1.75499   3
   2  11   2 1.51938 2.04006   2
   2  11   2 2.45947 1.19071   2
   2  11   2 1.18421 2.54705   1
   2  11   2 3.96738 1.42490   1
   2  11   2 1.73356 1.26072   3
   2  11   2 2.12013 2.40545   3
   4 -12  -2 3.80284 1.12716   3
   4 -12  -2 4.81784 1.20213   1
   4 -12  -2 2.09610 0.89678   2
  -4  12   2 7.23551 2.06153   1
  -4  12   2 -1.2692 2.10648   3
  -4  12   2 1.87699 1.91580   2
   3 -12  -2 75.6861 7.38941   2
   3 -12  -2 83.5873 8.27353   2
   3 -12  -2 141.068 13.5343   3
   3 -12  -2 127.566 12.1964   3
   3 -12  -2 119.198 11.7585   1
   3 -12  -2 136.862 13.0826   1
  -3  12   2 119.686 13.4643   3
  -3  12   2 124.056 13.1076   1
  -3  12   2 73.4776 8.29970   2
   2 -12  -2 44.6347 4.74217   3
   2 -12  -2 25.7211 2.57567   2
   2 -12  -2 22.2420 2.94415   2
   2 -12  -2 31.9003 3.81866   1
  -2  12   2 33.0863 3.89611   1
  -2  12   2 23.8689 2.96411   2
  -2  12   2 21.4221 3.14210   2
  -2  12   2 38.2192 4.73875   3
  -2  12   2 81.9029 9.79774  -3
  -2  12   2 81.9029 9.79774   1
   1 -12  -2 0.26879 0.79298   2
   1 -12  -2 -0.3584 1.26582   2
   1 -12  -2 2.68728 1.81251  -3
   1 -12  -2 2.68728 1.81251   1
   1 -12  -2 2.03485 2.33402  -3
   1 -12  -2 2.03485 2.33402   1
  -1  12   2 0.40415 1.42433   2
  -1  12   2 1.92958 1.29743   2
  -1  12   2 -2.8683 2.97821  -3
  -1  12   2 -2.8683 2.97821   1
   0 -12  -2 37.4541 4.68362  -3
   0 -12  -2 37.4541 4.68362   1
   0 -12  -2 11.9166 1.98061   2
   0  12   2 11.0631 2.22553   2
   0  12   2 36.6193 4.93039  -3
   0  12   2 36.6193 4.93039   1
  -1 -12  -2 1.52193 1.24212   2
  -1 -12  -2 1.39719 1.77591   2
  -1 -12  -2 0.37243 2.70691  -3
  -1 -12  -2 0.37243 2.70691   1
  -1 -12  -2 -1.9609 3.13021  -3
  -1 -12  -2 -1.9609 3.13021   1
   1  12   2 -0.0985 0.80773   2
   1  12   2 -0.4452 1.77929   2
   1  12   2 0.83189 0.93183   3
   1  12   2 -0.4121 0.94739   1
   1  12   2 6.62943 4.20332  -3
   1  12   2 6.62943 4.20332   1
   3 -13  -2 0.13184 1.02511   2
   3 -13  -2 -0.2446 1.84883   2
   3 -13  -2 0.94824 1.80191   3
   3 -13  -2 2.46089 1.18318   3
   3 -13  -2 -1.5083 1.95073   1
   3 -13  -2 0.56713 1.07369   1
  -3  13   2 -0.3512 1.85412   3
  -3  13   2 0.38801 1.83162   1
  -3  13   2 -1.0209 1.78002   2
   2 -13  -2 10.9136 2.61982  -3
   2 -13  -2 10.9136 2.61982   1
   2 -13  -2 2.54117 1.57313   1
   2 -13  -2 5.30594 1.68995   2
   2 -13  -2 2.60365 1.06670   2
   2 -13  -2 7.41625 1.88156   3
  -2  13   2 1.81872 1.66952   2
  -2  13   2 4.06858 1.80041   2
  -2  13   2 7.74366 1.96326   3
  -2  13   2 4.38594 1.75453   1
  -2  13   2 19.1616 4.25731  -3
  -2  13   2 19.1616 4.25731   1
   1 -13  -2 0.07001 1.52562   2
   1 -13  -2 1.44377 1.08839   2
   1 -13  -2 6.01002 2.88060  -3
   1 -13  -2 6.01002 2.88060   1
   1 -13  -2 3.20037 2.22044  -3
   1 -13  -2 3.20037 2.22044   1
  -1  13   2 4.44919 3.74275  -3
  -1  13   2 4.44919 3.74275   1
  -1  13   2 2.85951 1.62404   2
   0 -13  -2 0.08841 1.05267   2
   0 -13  -2 -0.3765 1.57396   2
   0 -13  -2 1.59396 3.05668  -3
   0 -13  -2 1.59396 3.05668   1
   0 -13  -2 0.84469 2.29330  -3
   0 -13  -2 0.84469 2.29330   1
   0  13   2 1.18259 1.67740   2
   0  13   2 3.39915 2.61398  -3
   0  13   2 3.39915 2.61398   1
   0  14  -3 2.65798 3.97956  -3
   0  14  -3 2.65798 3.97956   1
   0  14  -3 1.70918 1.93091   2
   0 -14   3 3.60581 1.63315  -3
   0 -14   3 3.60581 1.63315   1
   0 -14   3 2.46484 2.93099  -3
   0 -14   3 2.46484 2.93099   1
   0 -14   3 3.29685 1.71964   2
   0 -14   3 0.82416 0.93190   2
  -1  14  -3 1.93904 3.35848  -3
  -1  14  -3 1.93904 3.35848   1
  -1  14  -3 0.79242 1.79057   2
   1 -14   3 0.88972 0.87147   2
   1 -14   3 1.19467 1.67663   2
   1 -14   3 3.22160 1.84780  -3
   1 -14   3 3.22160 1.84780   1
   1 -14   3 0.66117 3.00483  -3
   1 -14   3 0.66117 3.00483   1
  -2  14  -3 23.0557 5.02709  -3
  -2  14  -3 23.0557 5.02709   1
  -2  14  -3 4.39131 2.09982   2
   2 -14   3 3.57869 1.95022   2
   2 -14   3 6.70592 0.93810   2
   2 -14   3 13.5917 1.51118   3
   2 -14   3 8.53451 2.27168   3
   2 -14   3 9.63852 2.23011   1
   2 -14   3 11.6537 1.37039   1
   1  13  -3 23.9602 4.63710  -3
   1  13  -3 23.9602 4.63710   1
   1  13  -3 5.17873 2.02202   2
  -1 -13   3 5.45511 1.38479   2
  -1 -13   3 3.93920 1.07347   2
  -1 -13   3 5.26900 1.66746   3
  -1 -13   3 5.86473 1.46252   1
  -1 -13   3 19.2195 3.00588  -3
  -1 -13   3 19.2195 3.00588   1
   0  13  -3 5.56962 1.76783   2
   0  13  -3 28.5488 3.92898  -3
   0  13  -3 28.5488 3.92898   1
   0 -13   3 4.15448 1.59048   2
   0 -13   3 2.47812 0.87043   2
   0 -13   3 23.6461 3.38028  -3
   0 -13   3 23.6461 3.38028   1
   0 -13   3 18.0795 2.43822  -3
   0 -13   3 18.0795 2.43822   1
  -1  13  -3 0.85317 1.52437   2
  -1  13  -3 1.13007 3.11669  -3
  -1  13  -3 1.13007 3.11669   1
   1 -13   3 -0.1177 1.51873  -3
   1 -13   3 -0.1177 1.51873   1
   1 -13   3 -1.7939 2.38661  -3
   1 -13   3 -1.7939 2.38661   1
   1 -13   3 -0.4839 0.63774   2
   1 -13   3 -0.1123 1.25531   2
  -2  13  -3 35.4491 5.55592  -3
  -2  13  -3 35.4491 5.55592   1
  -2  13  -3 2.00676 1.68029   2
   2 -13   3 3.75470 0.83378   3
   2 -13   3 2.25381 1.51664   3
   2 -13   3 2.25808 1.39041   2
   2 -13   3 2.41635 0.73607   2
   2 -13   3 24.3719 2.46845   1
  -3  13  -3 0.28492 1.79369   1
  -3  13  -3 -0.2789 1.73256   3
  -3  13  -3 -0.4751 1.93310   2
   2  12  -3 0.21574 0.89616   3
   2  12  -3 0.33403 2.00781   3
   2  12  -3 1.23276 2.13132   1
   2  12  -3 -0.0223 0.90671   1
   2  12  -3 -0.0006 0.84494   2
   2  12  -3 0.95021 1.78190   2
  -2 -12   3 -0.0075 1.25342   2
  -2 -12   3 -0.1747 1.03026   2
  -2 -12   3 -1.0174 1.39950   1
  -2 -12   3 1.02402 1.05848   1
  -2 -12   3 0.06265 1.07501   3
  -2 -12   3 0.40425 1.43247   3
   1  12  -3 0.53575 1.54082   2
   1  12  -3 10.7353 3.73687  -3
   1  12  -3 10.7353 3.73687   1
   1  12  -3 7.37396 1.32308  -3
   1  12  -3 7.37396 1.32308   1
  -1 -12   3 2.89139 1.07413   2
  -1 -12   3 1.80020 0.82038   2
  -1 -12   3 3.01205 1.31129   3
  -1 -12   3 9.02831 2.01916  -3
  -1 -12   3 9.02831 2.01916   1
  -1 -12   3 3.75440 1.15348   1
   0  12  -3 -1.0525 1.34800   2
   0  12  -3 10.3690 2.69388  -3
   0  12  -3 10.3690 2.69388   1
   0 -12   3 0.26915 0.66093   2
   0 -12   3 -1.0280 1.20171   2
   0 -12   3 5.14239 2.16801  -3
   0 -12   3 5.14239 2.16801   1
   0 -12   3 6.28339 1.32328  -3
   0 -12   3 6.28339 1.32328   1
  -1  12  -3 12.2762 3.01695  -3
  -1  12  -3 12.2762 3.01695   1
  -1  12  -3 3.96331 1.44993   2
   1 -12   3 3.08019 1.31303   2
   1 -12   3 3.51704 0.80052   2
   1 -12   3 10.1641 1.61671  -3
   1 -12   3 10.1641 1.61671   1
   1 -12   3 12.1385 2.46565  -3
   1 -12   3 12.1385 2.46565   1
  -2  12  -3 10.4150 3.67676  -3
  -2  12  -3 10.4150 3.67676   1
  -2  12  -3 1.36830 1.45859   2
   2 -12   3 2.92420 0.56424   2
   2 -12   3 1.61187 1.35177   2
   2 -12   3 4.21392 1.46178   3
   2 -12   3 5.85920 0.81076   3
   2 -12   3 11.1434 1.84613   1
   2 -12   3 11.6454 1.27080   1
  -3  12  -3 0.24489 1.53341   1
  -3  12  -3 1.52107 1.51673   1
  -3  12  -3 -1.5959 1.47848   3
  -3  12  -3 -0.3885 1.44280   2
   3 -12   3 -0.2624 1.60049   2
   3 -12   3 1.06184 1.90681   1
   3  11  -3 0.17095 1.10648   2
   3  11  -3 -1.1426 1.32438   1
   3  11  -3 2.25238 1.33113   3
  -3 -11   3 0.28902 1.49986   3
  -3 -11   3 1.61651 1.29698   2
  -3 -11   3 0.43114 1.37820   1
   2  11  -3 -0.2230 1.65966   3
   2  11  -3 -1.0596 1.81512   1
   2  11  -3 -0.0322 2.01147  -3
   2  11  -3 -0.0322 2.01147   1
   2  11  -3 -0.1394 0.69313   2
   2  11  -3 0.06498 1.53627   2
  -2 -11   3 -1.1800 1.38066   3
  -2 -11   3 -0.1934 0.92781   3
  -2 -11   3 -0.1077 0.91762   1
  -2 -11   3 -0.8661 1.07697   1
  -2 -11   3 -0.9405 0.82690   2
  -2 -11   3 0.48082 1.20303   2
   1  11  -3 -0.6982 1.22711   2
   1  11  -3 9.99053 3.17507  -3
   1  11  -3 9.99053 3.17507   1
   1  11  -3 7.53145 1.39379  -3
   1  11  -3 7.53145 1.39379   1
  -1 -11   3 2.93278 1.07896   1
  -1 -11   3 3.66052 1.25956   3
  -1 -11   3 1.17253 0.70254   2
  -1 -11   3 2.09162 0.93363   2
  -1 -11   3 6.90185 1.78505  -3
  -1 -11   3 6.90185 1.78505   1
   0  11  -3 18.2093 2.28363   2
   0  11  -3 67.0858 6.78445  -3
   0  11  -3 67.0858 6.78445   1
   0 -11   3 47.3719 5.35730  -3
   0 -11   3 47.3719 5.35730   1
   0 -11   3 67.4829 6.10651  -3
   0 -11   3 67.4829 6.10651   1
   0 -11   3 12.9563 1.56887   2
   0 -11   3 17.3604 1.99733   2
  -1  11  -3 40.4458 4.68834   2
  -1  11  -3 134.154 14.7513  -3
  -1  11  -3 134.154 14.7513   1
   1 -11   3 38.1554 4.27995   2
   1 -11   3 37.8142 3.72802   2
   1 -11   3 141.210 13.5872  -3
   1 -11   3 141.210 13.5872   1
   1 -11   3 123.868 12.3033  -3
   1 -11   3 123.868 12.3033   1
  -2  11  -3 55.6751 6.88898  -3
  -2  11  -3 55.6751 6.88898   1
  -2  11  -3 3.41327 1.40176   2
  -2  11  -3 4.53271 1.42427   2
   2 -11   3 8.80770 1.05015   3
   2 -11   3 7.54572 1.44078   3
   2 -11   3 4.53820 0.58052   2
   2 -11   3 4.19607 1.30751   2
   2 -11   3 59.8919 5.57700   1
   2 -11   3 49.1105 4.88150   1
  -3  11  -3 14.7857 2.16158   1
  -3  11  -3 13.2263 2.25183   1
  -3  11  -3 0.70269 1.58201   3
  -3  11  -3 -0.2195 1.38861   3
  -3  11  -3 -0.2459 1.20864   2
   3 -11   3 -1.8307 1.18580   2
   3 -11   3 16.8077 4.40193  -3
   3 -11   3 16.8077 4.40193   1
   3 -11   3 16.4974 2.09309   1
   3  10  -3 43.2368 4.03106   2
   3  10  -3 33.9093 4.92679   2
   3  10  -3 67.7486 6.73573   1
   3  10  -3 82.6668 7.37946   3
  -3 -10   3 68.5258 8.06874   3
  -3 -10   3 37.8994 4.35675   2
  -3 -10   3 68.8436 7.30151   1
   2  10  -3 1.13304 0.72130   2
   2  10  -3 0.12963 1.28692   2
   2  10  -3 -0.2748 0.78320   1
   2  10  -3 1.34520 1.47743   1
   2  10  -3 1.27523 2.31152   1
   2  10  -3 1.68649 1.48300   3
   2  10  -3 2.07444 0.80055   3
  -2 -10   3 1.08357 0.96328   1
  -2 -10   3 1.35739 0.81026   1
  -2 -10   3 0.59398 1.17447   3
  -2 -10   3 2.99286 0.91317   3
  -2 -10   3 0.38727 0.93110   2
  -2 -10   3 0.35792 0.76662   2
   1  10  -3 6.16560 1.41431   2
   1  10  -3 4.39376 0.70754   2
   1  10  -3 4.66440 1.42826   2
   1  10  -3 28.1028 4.06848  -3
   1  10  -3 28.1028 4.06848   1
   1  10  -3 27.8454 2.88772  -3
   1  10  -3 27.8454 2.88772   1
  -1 -10   3 3.19065 0.78918   2
  -1 -10   3 7.76417 1.12669   2
  -1 -10   3 27.2494 3.00447  -3
  -1 -10   3 27.2494 3.00447   1
  -1 -10   3 7.60589 1.32006   3
  -1 -10   3 7.18142 1.19200   1
   0  10  -3 63.4930 6.62175   2
   0  10  -3 53.3431 6.88760   2
   0  10  -3 235.486 23.0906  -3
   0  10  -3 235.486 23.0906   1
   0  10  -3 217.302 24.0948  -3
   0  10  -3 217.302 24.0948   1
   0 -10   3 232.245 22.2034  -3
   0 -10   3 232.245 22.2034   1
   0 -10   3 190.378 20.2762  -3
   0 -10   3 190.378 20.2762   1
   0 -10   3 58.4360 6.36371   2
   0 -10   3 62.8262 5.72914   2
  -1  10  -3 -1.3898 1.04991   2
  -1  10  -3 0.48493 0.96175   2
  -1  10  -3 -2.6399 1.93855  -3
  -1  10  -3 -2.6399 1.93855   1
  -1  10  -3 1.48601 1.44911  -3
  -1  10  -3 1.48601 1.44911   1
   1 -10   3 0.43600 0.84741   2
   1 -10   3 0.13712 0.42744   2
   1 -10   3 1.14134 0.87481   3
   1 -10   3 1.32225 0.80037   1
   1 -10   3 2.43226 0.95413  -3
   1 -10   3 2.43226 0.95413   1
  -2  10  -3 60.7022 6.39749   1
  -2  10  -3 56.5139 6.24010   1
  -2  10  -3 81.8082 9.50270  -3
  -2  10  -3 81.8082 9.50270   1
  -2  10  -3 14.3613 1.89246   2
  -2  10  -3 9.51075 2.00651   2
  -2  10  -3 17.9961 1.98939   2
  -2  10  -3 23.5915 3.07000   3
  -2  10  -3 26.5420 3.11156   3
   2 -10   3 24.0305 3.01463   3
   2 -10   3 28.4825 2.59176   3
   2 -10   3 56.5887 5.52830   1
   2 -10   3 65.7375 6.22840   1
   2 -10   3 14.9316 1.89369   2
  -3  10  -3 -0.9068 1.37191   3
  -3  10  -3 1.83538 1.10350   3
  -3  10  -3 1.76396 1.23827   3
  -3  10  -3 0.59486 1.12783   2
  -3  10  -3 0.82936 1.21408   2
  -3  10  -3 5.34246 1.34043   1
  -3  10  -3 5.08108 1.52863   1
  -3  10  -3 3.96124 1.20734   1
   3 -10   3 3.93112 1.24743   3
   3 -10   3 3.46031 1.74122   3
   3 -10   3 7.80777 1.38838   1
   3 -10   3 4.75966 1.20610   1
   3 -10   3 7.18352 1.63567   1
   3 -10   3 0.71140 1.10776   2
   3 -10   3 0.32817 1.24861   2
  -4  10  -3 8.75800 1.76114   1
  -4  10  -3 8.24789 1.75104   3
   4 -10   3 6.65963 1.68508   2
   4 -10   3 4.18162 0.67007   2
   4 -10   3 11.6576 1.96581   1
   4 -10   3 9.58958 1.90817   3
   5 -10   3 0.51780 1.95008   3
   4   9  -3 0.97188 2.07150   2
   4   9  -3 0.33473 1.36304   2
   4   9  -3 0.11535 1.92830   3
   4   9  -3 2.93716 1.40231   3
   4   9  -3 2.29586 1.62082   1
   4   9  -3 -0.7550 1.99539   1
  -4  -9   3 0.72813 1.36865   1
  -4  -9   3 -0.6790 1.69174   3
  -4  -9   3 -0.1215 1.45097   2
   3   9  -3 1.96696 0.97778   2
   3   9  -3 1.98792 1.51471   2
   3   9  -3 5.20028 1.66804   2
   3   9  -3 5.24064 1.19355   1
   3   9  -3 6.38956 1.72372   1
   3   9  -3 6.02119 1.68479   3
   3   9  -3 5.37444 1.27547   3
  -3  -9   3 4.63450 1.36093   1
  -3  -9   3 4.83299 1.13706   2
  -3  -9   3 11.3459 1.58276   3
   2   9  -3 1.73267 1.40609   1
   2   9  -3 -0.2003 1.23614   1
   2   9  -3 0.74942 1.09249   3
   2   9  -3 1.40928 1.31228   3
   2   9  -3 0.08887 0.64870   2
   2   9  -3 0.12506 1.13751   2
   2   9  -3 -0.3246 1.27197   2
   2   9  -3 9.09103 1.92819  -3
   2   9  -3 9.09103 1.92819   1
  -2  -9   3 0.18195 0.65638   2
  -2  -9   3 1.12585 0.81413   2
  -2  -9   3 0.93884 0.74904   3
  -2  -9   3 0.46857 1.03904   3
  -2  -9   3 0.31463 0.72792   1
  -2  -9   3 -0.5329 0.80651   1
   1   9  -3 7.63490 2.36229  -3
   1   9  -3 7.63490 2.36229   1
   1   9  -3 6.36387 1.86267  -3
   1   9  -3 6.36387 1.86267   1
   1   9  -3 5.13670 1.16145  -3
   1   9  -3 5.13670 1.16145   1
   1   9  -3 0.57124 1.02273   2
   1   9  -3 -0.5894 0.45299   2
   1   9  -3 0.08298 1.03835   2
  -1  -9   3 1.35720 0.79893   3
  -1  -9   3 -0.0567 0.68643   1
  -1  -9   3 -0.2998 0.70997   2
  -1  -9   3 0.10350 0.52185   2
  -1  -9   3 5.94686 1.36465  -3
  -1  -9   3 5.94686 1.36465   1
   0   9  -3 130.342 13.4496   2
   0   9  -3 127.473 14.0247   2
   0   9  -3 472.184 46.4259  -3
   0   9  -3 472.184 46.4259   1
   0   9  -3 438.458 48.3707  -3
   0   9  -3 438.458 48.3707   1
   0  -9   3 402.672 40.8535  -3
   0  -9   3 402.672 40.8535   1
   0  -9   3 434.578 44.5745  -3
   0  -9   3 434.578 44.5745   1
   0  -9   3 118.152 11.7812   2
   0  -9   3 129.145 12.9175   2
  -1   9  -3 57.0629 6.95618  -3
  -1   9  -3 57.0629 6.95618   1
  -1   9  -3 56.7714 6.59508  -3
  -1   9  -3 56.7714 6.59508   1
  -1   9  -3 17.6397 2.05952   2
  -1   9  -3 16.9843 2.17435   2
   1  -9   3 15.8128 1.65096   2
   1  -9   3 16.5607 1.97881   2
   1  -9   3 63.0281 5.71609  -3
   1  -9   3 63.0281 5.71609   1
   1  -9   3 33.5790 3.62299   1
   1  -9   3 34.1872 3.73479   3
  -2   9  -3 14.4435 1.93734   1
  -2   9  -3 16.6596 1.95952   1
  -2   9  -3 12.2014 1.73055   3
  -2   9  -3 13.8452 1.66324   3
  -2   9  -3 6.34448 1.38564   2
  -2   9  -3 8.50752 1.28426   2
  -2   9  -3 6.53189 1.19605   2
  -2   9  -3 28.9986 3.94165  -3
  -2   9  -3 28.9986 3.94165   1
   2  -9   3 15.4652 1.85759   1
   2  -9   3 11.7108 1.68527   3
   2  -9   3 9.78323 1.26614   2
  -3   9  -3 88.0400 10.7283   1
  -3   9  -3 108.970 11.6928   1
  -3   9  -3 105.028 11.1409   1
  -3   9  -3 38.2041 4.02659   3
  -3   9  -3 24.1861 3.55126   3
  -3   9  -3 29.5978 3.63582   3
  -3   9  -3 19.5142 2.37778   2
  -3   9  -3 16.8070 2.21564   2
  -3   9  -3 17.1317 2.57293   2
   3  -9   3 39.3556 4.14590   3
   3  -9   3 30.3982 3.67331   3
   3  -9   3 19.0077 2.22601   2
   3  -9   3 16.9651 2.35815   2
   3  -9   3 95.5901 10.7207   1
   3  -9   3 103.539 11.6922   1
   3  -9   3 119.769 11.1854   1
  -4   9  -3 19.0036 2.43689   3
   4  -9   3 21.2793 2.81591   1
   4  -9   3 15.6809 2.43209   3
   4  -9   3 7.66993 1.78504   2
   4  -9   3 9.32139 1.03231   2
   5  -9   3 -0.1250 0.80774   1
   5  -9   3 2.36852 1.86823   1
   5  -9   3 0.18835 0.82927   3
   5  -9   3 0.18877 1.82962   3
   5  -9   3 -0.2911 1.78981   2
   5  -9   3 -0.1651 0.88057   2
   4   8  -3 1.64715 1.39606   3
   4   8  -3 2.06098 1.74756   3
   4   8  -3 1.25364 1.37212   1
   4   8  -3 2.44178 1.77043   1
   4   8  -3 0.21092 1.76557   2
   4   8  -3 -0.9932 1.23358   2
  -4  -8   3 -0.0993 1.31682   2
  -4  -8   3 0.11289 1.23075   1
  -4  -8   3 0.64399 1.32685   3
   3   8  -3 1.02242 1.14843   1
   3   8  -3 0.83038 0.96578   1
   3   8  -3 0.59585 1.27657   2
   3   8  -3 0.33069 0.86108   2
   3   8  -3 2.85349 1.42590   2
   3   8  -3 1.28607 0.93152   3
   3   8  -3 0.89810 1.26827   3
  -3  -8   3 0.54631 1.05738   3
  -3  -8   3 0.02334 0.89943   2
  -3  -8   3 1.29913 0.98716   1
   2   8  -3 -0.7918 1.17522   1
   2   8  -3 0.53943 0.66894   1
   2   8  -3 0.84631 1.06300   1
   2   8  -3 0.48703 0.65523   3
   2   8  -3 -0.0578 1.06108   3
   2   8  -3 0.56383 0.99993   3
   2   8  -3 0.31629 0.61758   2
   2   8  -3 1.09920 0.98723   2
   2   8  -3 -0.0319 1.09556   2
  -2  -8   3 0.40138 0.73026   1
  -2  -8   3 0.87219 0.63781   1
  -2  -8   3 -0.3254 0.61572   2
  -2  -8   3 -0.7969 0.69715   2
  -2  -8   3 -0.0019 0.65308   3
  -2  -8   3 1.90047 0.98277   3
   1   8  -3 288.035 30.3528  -3
   1   8  -3 288.035 30.3528   1
   1   8  -3 299.376 31.6346  -3
   1   8  -3 299.376 31.6346   1
   1   8  -3 282.713 26.6439  -3
   1   8  -3 282.713 26.6439   1
   1   8  -3 76.3247 8.05791   2
   1   8  -3 72.2347 6.98619   2
   1   8  -3 67.7416 8.34946   2
  -1  -8   3 150.371 15.5005   3
  -1  -8   3 134.120 13.8186   1
  -1  -8   3 72.2128 7.02494   2
  -1  -8   3 84.6033 7.71658   2
  -1  -8   3 270.680 26.7033  -3
  -1  -8   3 270.680 26.7033   1
   0   8  -3 89.0407 8.52030   2
   0   8  -3 76.0763 8.14580   2
   0   8  -3 314.221 33.6627  -3
   0   8  -3 314.221 33.6627   1
   0   8  -3 324.021 32.3043  -3
   0   8  -3 324.021 32.3043   1
   0  -8   3 66.1678 7.79196   2
   0  -8   3 74.3100 7.10566   2
   0  -8   3 292.998 31.0166  -3
   0  -8   3 292.998 31.0166   1
   0  -8   3 284.657 28.4134  -3
   0  -8   3 284.657 28.4134   1
  -1   8  -3 1.28491 0.85606   2
  -1   8  -3 2.01028 0.76597   2
  -1   8  -3 3.86335 0.78823   2
  -1   8  -3 5.03900 0.86136   3
  -1   8  -3 7.00612 1.79520  -3
  -1   8  -3 7.00612 1.79520   1
  -1   8  -3 4.40367 0.88558   1
   1  -8   3 3.98187 0.82779   3
   1  -8   3 1.68821 0.66367   2
   1  -8   3 1.31435 0.39151   2
   1  -8   3 3.01663 0.37834   2
   1  -8   3 4.41866 0.85168   1
   1  -8   3 7.00950 0.89393  -3
   1  -8   3 7.00950 0.89393   1
  -2   8  -3 1.03698 0.81432   3
  -2   8  -3 0.71564 0.69214   3
  -2   8  -3 0.71680 0.81024   3
  -2   8  -3 -0.0285 0.77856   2
  -2   8  -3 0.84929 0.79685   2
  -2   8  -3 0.89901 0.65247   2
  -2   8  -3 1.71023 0.81494   1
  -2   8  -3 1.11258 0.78931   1
  -2   8  -3 0.27857 0.66999   1
   2  -8   3 2.23586 0.79600   3
   2  -8   3 0.62288 0.62501   2
   2  -8   3 -0.7129 0.98309   2
   2  -8   3 0.72653 0.69879   1
   2  -8   3 -2.8073 2.24170  -3
   2  -8   3 -2.8073 2.24170   1
  -3   8  -3 7.36564 1.34845   2
  -3   8  -3 8.92270 1.58447   2
  -3   8  -3 8.46945 1.30557   2
  -3   8  -3 9.28907 1.67024   1
  -3   8  -3 10.7462 1.72183   1
  -3   8  -3 11.9863 2.38953   3
  -3   8  -3 15.2401 2.02355   3
   3  -8   3 14.1718 1.93784   1
   3  -8   3 16.8355 1.81367   1
   3  -8   3 12.2384 1.67380   1
   3  -8   3 18.0677 2.29326   3
   3  -8   3 14.9024 2.02750   3
   3  -8   3 8.82544 1.40134   2
  -4   8  -3 10.8581 1.93023   3
  -4   8  -3 10.8821 1.84206   1
   4  -8   3 10.7330 1.96374   1
   4  -8   3 13.1133 1.30919   1
   4  -8   3 13.1037 1.37865   3
   4  -8   3 14.0060 2.01868   3
   4  -8   3 5.94121 0.84812   2
   4  -8   3 7.83733 1.54538   2
   5  -8   3 0.50274 0.87112   2
   5  -8   3 0.44898 1.71924   2
   5  -8   3 3.70929 0.83790   1
   5  -8   3 2.37253 1.78347   1
   5  -8   3 6.01051 1.74402   3
   5  -8   3 3.46383 0.99768   3
   4   7  -3 0.97598 1.61411   1
   4   7  -3 1.81005 1.54190   3
   4   7  -3 -0.0333 1.17425   2
   4   7  -3 -1.5186 1.33886   2
  -4  -7   3 -0.9084 1.29220   3
  -4  -7   3 -0.8923 1.24501   1
  -4  -7   3 -0.4753 1.05239   2
   3   7  -3 2.35790 1.18325   2
   3   7  -3 2.60089 0.89211   2
   3   7  -3 3.66695 1.21746   2
   3   7  -3 2.78868 0.93305   1
   3   7  -3 2.31547 1.08006   1
   3   7  -3 6.93805 1.14333   3
   3   7  -3 4.42351 1.35921   3
  -3  -7   3 2.15427 0.91883   1
  -3  -7   3 1.33109 1.01785   2
  -3  -7   3 4.88630 1.20884   3
   2   7  -3 16.9284 2.17137   1
   2   7  -3 20.1089 1.87088   1
   2   7  -3 14.8927 2.03353   1
   2   7  -3 13.4328 1.87787   3
   2   7  -3 23.7080 2.55543   3
   2   7  -3 19.4610 2.25491   3
   2   7  -3 6.59739 0.98880   2
   2   7  -3 8.04386 1.37299   2
   2   7  -3 7.57709 1.30711   2
  -2  -7   3 22.8129 2.20936   3
  -2  -7   3 18.2560 1.94377   3
  -2  -7   3 6.83230 0.97381   2
  -2  -7   3 11.1254 1.21912   2
  -2  -7   3 15.3993 1.93607   1
  -2  -7   3 14.7389 1.71607   1
   1   7  -3 7.35760 1.42807   2
   1   7  -3 10.2471 1.06253   2
   1   7  -3 14.8787 1.51248   2
   1   7  -3 18.3994 2.26569   3
   1   7  -3 16.5766 1.87710   1
   1   7  -3 29.6845 4.21737  -3
   1   7  -3 29.6845 4.21737   1
   1   7  -3 36.0499 3.39072  -3
   1   7  -3 36.0499 3.39072   1
  -1  -7   3 19.0329 2.15722   3
  -1  -7   3 9.11063 1.25073   2
  -1  -7   3 9.47657 1.07697   2
  -1  -7   3 35.1077 3.41616  -3
  -1  -7   3 35.1077 3.41616   1
  -1  -7   3 13.7982 1.73834   1
   0   7  -3 118.051 12.6546   1
   0   7  -3 151.144 16.1630   3
   0   7  -3 63.5028 7.36742   2
   0   7  -3 70.8715 7.09174   2
   0   7  -3 231.437 25.4951  -3
   0   7  -3 231.437 25.4951   1
   0  -7   3 63.4576 6.17663   2
   0  -7   3 65.6239 6.77788   2
   0  -7   3 222.089 21.5123  -3
   0  -7   3 222.089 21.5123   1
   0  -7   3 236.618 23.4964  -3
   0  -7   3 236.618 23.4964   1
  -1   7  -3 79.3713 7.56589   3
  -1   7  -3 42.1354 4.33786   2
  -1   7  -3 48.6405 4.57762   2
  -1   7  -3 42.9868 4.18925   2
  -1   7  -3 85.3369 7.99630   1
  -1   7  -3 161.994 17.2492  -3
  -1   7  -3 161.994 17.2492   1
   1  -7   3 71.4647 7.65950   1
   1  -7   3 70.6263 6.97141   1
   1  -7   3 35.9366 3.71584   2
   1  -7   3 39.6522 3.72097   2
   1  -7   3 38.0707 4.16051   2
   1  -7   3 68.3722 6.60514   3
   1  -7   3 64.3657 7.25916   3
   1  -7   3 150.504 14.5048  -3
   1  -7   3 150.504 14.5048   1
  -2   7  -3 9.12490 1.16327   1
  -2   7  -3 8.36582 1.18423   1
  -2   7  -3 9.33744 1.28225   1
  -2   7  -3 1.99391 0.75878   3
  -2   7  -3 0.87849 0.68117   3
  -2   7  -3 0.04057 0.60685   3
  -2   7  -3 -0.2486 0.58996   2
  -2   7  -3 -0.3269 0.66158   2
  -2   7  -3 -0.7540 0.70229   2
   2  -7   3 0.41798 0.83940   2
   2  -7   3 0.21891 0.57265   2
   2  -7   3 6.99226 1.12696   1
   2  -7   3 9.66833 2.18529  -3
   2  -7   3 9.66833 2.18529   1
   2  -7   3 -0.3363 0.63173   3
  -3   7  -3 26.1901 3.21882   2
  -3   7  -3 28.8016 3.07676   2
  -3   7  -3 53.7265 4.98561   1
  -3   7  -3 47.1719 5.13393   1
  -3   7  -3 49.3332 5.64362   3
   3  -7   3 51.6626 4.87345   3
   3  -7   3 48.4093 6.02810   3
   3  -7   3 55.8517 5.67773   3
   3  -7   3 34.4666 3.33987   2
   3  -7   3 27.7503 3.42454   2
   3  -7   3 26.8047 2.67672   2
   3  -7   3 36.6127 5.44793   1
   3  -7   3 47.9475 5.17607   1
  -4   7  -3 6.37747 1.40714   3
   4  -7   3 6.97655 0.83183   1
   4  -7   3 4.99140 1.31840   1
   4  -7   3 2.36772 1.15248   2
   4  -7   3 2.03121 0.56546   2
   4  -7   3 6.13223 0.88659   3
   4  -7   3 7.71784 1.56584   3
   5  -7   3 0.36933 0.87273   2
   5  -7   3 -0.2748 1.65383   2
   5  -7   3 0.04808 1.62335   1
   5  -7   3 0.53455 0.77994   1
   5  -7   3 -0.3457 0.88900   3
   5  -7   3 0.05540 1.35811   3
   5   6  -3 162.925 16.2259   1
   5   6  -3 166.965 17.9327   3
   5   6  -3 88.7890 10.6195   2
  -5  -6   3 163.292 17.1672   3
  -5  -6   3 166.519 15.7442   3
  -5  -6   3 156.463 15.4907   1
  -5  -6   3 134.429 14.0947   1
  -5  -6   3 102.312 10.1780   2
   4   6  -3 -0.9645 1.34425   3
   4   6  -3 0.77178 1.44205   2
   4   6  -3 -0.9239 1.12350   2
   4   6  -3 -0.0603 1.32974   1
  -4  -6   3 0.24080 1.21079   3
  -4  -6   3 -0.4783 1.10571   2
  -4  -6   3 -0.3006 1.13269   1
   3   6  -3 6.79634 1.17262   2
   3   6  -3 2.87282 1.19566   2
   3   6  -3 2.81801 0.84547   2
   3   6  -3 10.0940 1.49373   1
   3   6  -3 8.56478 1.29742   1
   3   6  -3 8.49690 1.38727   3
   3   6  -3 7.03741 1.14193   3
  -3  -6   3 4.21069 1.03359   2
  -3  -6   3 6.02704 1.19938   3
  -3  -6   3 7.76777 1.28605   1
   2   6  -3 69.9141 6.61362   3
   2   6  -3 67.7575 7.83252   3
   2   6  -3 72.7186 7.54471   3
   2   6  -3 36.4342 3.75275   2
   2   6  -3 36.5037 4.29695   2
   2   6  -3 37.7623 4.47281   2
   2   6  -3 61.5260 7.43582   1
   2   6  -3 73.6579 7.16321   1
   2   6  -3 59.3055 6.25933   1
  -2  -6   3 70.2777 6.83753   1
  -2  -6   3 64.9301 6.26610   1
  -2  -6   3 42.8716 4.08904   2
  -2  -6   3 38.2901 3.74112   2
  -2  -6   3 70.3447 7.22027   3
  -2  -6   3 66.5171 6.60874   3
   1   6  -3 26.8112 3.20271   1
   1   6  -3 15.2961 1.59516   2
   1   6  -3 14.6080 1.93198   2
   1   6  -3 18.1445 2.00140   2
   1   6  -3 40.5358 4.19862   3
   1   6  -3 64.8067 6.54087  -3
   1   6  -3 64.8067 6.54087   1
   1   6  -3 68.5836 7.82587  -3
   1   6  -3 68.5836 7.82587   1
  -1  -6   3 30.4096 3.07799   1
  -1  -6   3 16.6207 1.60974   2
  -1  -6   3 14.5429 1.77066   2
  -1  -6   3 35.3410 4.04059   3
  -1  -6   3 74.0644 6.57047  -3
  -1  -6   3 74.0644 6.57047   1
   0   6  -3 128.395 13.8136  -3
   0   6  -3 128.395 13.8136   1
   0   6  -3 80.4741 8.65202   1
   0   6  -3 32.5905 3.82141   2
   0   6  -3 33.6248 3.67216   2
   0   6  -3 71.3469 6.49884   3
   0   6  -3 64.8040 7.45523   3
   0  -6   3 124.945 11.6322  -3
   0  -6   3 124.945 11.6322   1
   0  -6   3 117.948 12.7204  -3
   0  -6   3 117.948 12.7204   1
   0  -6   3 123.357 11.6405  -3
   0  -6   3 123.357 11.6405   1
   0  -6   3 33.1916 3.50155   2
   0  -6   3 34.4302 3.19020   2
   0  -6   3 32.6892 3.17191   2
  -1   6  -3 17.1128 1.96367   2
  -1   6  -3 16.5953 1.81988   2
  -1   6  -3 15.2167 1.73712   2
  -1   6  -3 26.6534 2.76216   3
  -1   6  -3 59.2603 5.63050  -3
  -1   6  -3 59.2603 5.63050   1
  -1   6  -3 29.0893 3.12034   1
  -1   6  -3 32.6921 3.25399   1
   1  -6   3 45.6981 4.63300  -3
   1  -6   3 45.6981 4.63300   1
   1  -6   3 24.6545 2.34925   3
   1  -6   3 22.6456 2.65062   3
   1  -6   3 14.0203 1.71016   2
   1  -6   3 14.7892 1.44862   2
   1  -6   3 28.8899 2.77299   1
   1  -6   3 28.0429 3.09993   1
  -2   6  -3 25.2599 2.83725   1
  -2   6  -3 29.6655 3.13992   1
  -2   6  -3 25.2934 2.92827   1
  -2   6  -3 31.3171 3.54424   3
  -2   6  -3 30.6766 3.20767   3
  -2   6  -3 29.4425 3.33471   3
  -2   6  -3 17.3469 2.12742   2
  -2   6  -3 18.8509 2.24451   2
  -2   6  -3 18.3012 1.99173   2
   2  -6   3 44.3211 5.23994  -3
   2  -6   3 44.3211 5.23994   1
   2  -6   3 25.2504 2.79531   1
   2  -6   3 16.6713 2.17639   2
   2  -6   3 28.8812 3.21358   3
  -3   6  -3 203.946 19.1140   1
  -3   6  -3 183.654 19.8909   1
  -3   6  -3 186.757 19.9285   3
  -3   6  -3 108.017 11.1733   2
  -3   6  -3 104.597 10.6719   2
   3  -6   3 173.075 17.4531   1
   3  -6   3 195.050 19.9182   1
   3  -6   3 93.3006 11.5963   2
   3  -6   3 102.458 9.74347   2
   3  -6   3 113.599 11.1921   2
   3  -6   3 333.798 37.1115  -3
   3  -6   3 333.798 37.1115   1
   3  -6   3 184.650 17.4936   3
   3  -6   3 188.863 19.9441   3
   4  -6   3 26.8275 3.04049   3
   4  -6   3 22.6473 2.43466   3
   4  -6   3 21.2326 2.61521   1
   4  -6   3 20.6235 2.13676   1
   4  -6   3 9.51592 1.73182   2
   4  -6   3 12.4937 1.29911   2
   5  -6   3 -0.4892 1.42201   2
   5  -6   3 0.03975 0.79495   2
   5  -6   3 0.18289 1.40448   1
   5  -6   3 2.23948 0.83550   1
   5  -6   3 1.01884 1.53581   3
   5  -6   3 0.96086 0.82087   3
   5   5  -3 14.2366 2.52914   2
   5   5  -3 22.4164 3.16322   1
   5   5  -3 20.8186 3.11824   3
  -5  -5   3 22.7085 2.55991   3
  -5  -5   3 26.0827 3.07247   3
  -5  -5   3 11.1747 1.81397   2
  -5  -5   3 13.6581 2.17026   2
  -5  -5   3 19.1608 2.83178   1
  -5  -5   3 25.4896 2.58348   1
   4   5  -3 17.9679 2.36326   1
   4   5  -3 12.0652 1.86896   2
   4   5  -3 19.2146 2.55640   3
  -4  -5   3 19.0692 2.21150   1
  -4  -5   3 15.8263 1.93946   1
  -4  -5   3 15.5266 2.49292   3
  -4  -5   3 25.4686 2.29928   3
  -4  -5   3 11.3595 1.61844   2
  -4  -5   3 7.08543 1.41712   2
   3   5  -3 89.3577 8.40183   3
   3   5  -3 84.7273 9.52316   3
   3   5  -3 81.4041 7.78996   1
   3   5  -3 75.1314 8.81329   1
   3   5  -3 63.0991 5.88166   2
   3   5  -3 53.7864 5.11946   2
  -3  -5   3 77.9398 7.71596   1
  -3  -5   3 92.5906 8.47689   1
  -3  -5   3 87.5466 9.15892   3
  -3  -5   3 90.7091 8.38827   3
  -3  -5   3 45.5118 5.09171   2
  -3  -5   3 51.5115 5.53494   2
   2   5  -3 20.9594 2.79672   3
   2   5  -3 23.6853 2.65872   3
   2   5  -3 21.8863 2.36999   3
   2   5  -3 22.4555 2.73776   1
   2   5  -3 19.3541 2.37696   1
   2   5  -3 21.9586 2.84561   1
   2   5  -3 9.72282 1.36211   2
   2   5  -3 11.6785 1.65328   2
   2   5  -3 15.4910 1.66957   2
  -2  -5   3 25.3244 2.58487   3
  -2  -5   3 22.5704 2.30256   3
  -2  -5   3 23.6384 2.32470   3
  -2  -5   3 15.3835 1.55449   2
  -2  -5   3 14.2875 1.44124   2
  -2  -5   3 12.8536 1.38762   2
  -2  -5   3 27.8208 2.57202   1
  -2  -5   3 24.5685 2.40625   1
  -2  -5   3 23.2337 2.32713   1
   1   5  -3 133.601 13.0543   1
   1   5  -3 155.136 14.8879   1
   1   5  -3 134.384 15.4807   1
   1   5  -3 142.332 16.3117   3
   1   5  -3 142.753 13.7563   3
   1   5  -3 146.687 15.6638   3
   1   5  -3 78.4169 7.87396   2
   1   5  -3 78.5632 9.35505   2
   1   5  -3 83.8846 9.00362   2
  -1  -5   3 133.969 14.2676   1
  -1  -5   3 140.899 13.0792   1
  -1  -5   3 81.4330 8.61478   2
  -1  -5   3 92.4594 7.89637   2
  -1  -5   3 87.7991 7.89633   2
  -1  -5   3 149.000 13.7862   3
  -1  -5   3 152.785 15.0455   3
  -1  -5   3 295.330 27.6697  -3
  -1  -5   3 295.330 27.6697   1
   0   5  -3 52.2903 4.30363   3
   0   5  -3 34.6276 4.93224   3
   0   5  -3 364.969 35.0557  -3
   0   5  -3 364.969 35.0557   1
   0   5  -3 397.011 41.5599  -3
   0   5  -3 397.011 41.5599   1
   0   5  -3 379.587 34.5811   1
   0   5  -3 377.281 39.3665   1
   0   5  -3 16.1801 1.75715   2
   0   5  -3 12.1574 1.67883   2
   0  -5   3 19.1401 1.41296   2
   0  -5   3 11.3049 1.56548   2
   0  -5   3 11.6955 1.42155   2
   0  -5   3 365.504 35.1267  -3
   0  -5   3 365.504 35.1267   1
   0  -5   3 375.285 35.1294  -3
   0  -5   3 375.285 35.1294   1
   0  -5   3 350.415 37.7711   1
  -1   5  -3 225.102 25.0079  -3
  -1   5  -3 225.102 25.0079   1
  -1   5  -3 64.4911 6.70789   2
  -1   5  -3 62.5351 7.00666   2
  -1   5  -3 72.8014 7.29764   2
  -1   5  -3 109.539 11.2571   3
  -1   5  -3 116.054 11.3991   1
  -1   5  -3 105.982 10.9290   1
   1  -5   3 105.453 9.87957   3
   1  -5   3 103.200 10.8025   3
   1  -5   3 103.684 9.87438   3
   1  -5   3 102.314 10.9217   1
   1  -5   3 104.794 9.99174   1
   1  -5   3 105.926 9.98801   1
   1  -5   3 266.690 29.6299  -3
   1  -5   3 266.690 29.6299  -2
   1  -5   3 266.690 29.6299   1
   1  -5   3 61.4500 6.70112   2
  -2   5  -3 28.1025 2.96687   3
  -2   5  -3 33.0188 3.11605   3
  -2   5  -3 15.2972 1.80970   2
  -2   5  -3 19.3596 1.91654   2
  -2   5  -3 15.2360 1.65372   2
  -2   5  -3 36.6284 4.12614   1
  -2   5  -3 33.8013 3.97210   1
   2  -5   3 13.7876 1.43862   2
   2  -5   3 17.6008 1.86770   2
   2  -5   3 13.7432 1.44223   2
   2  -5   3 25.7393 2.64911   3
   2  -5   3 27.9145 2.93874   3
   2  -5   3 55.6921 5.60787  -3
   2  -5   3 55.6921 5.60787   1
   2  -5   3 77.0881 6.85977  -3
   2  -5   3 77.0881 6.85977   1
   2  -5   3 39.5809 3.56770   1
  -3   5  -3 4.53692 1.02076   3
  -3   5  -3 5.26778 0.96641   1
  -3   5  -3 2.14269 0.72204   2
  -3   5  -3 1.11310 0.89279   2
   3  -5   3 2.66947 0.89108   2
   3  -5   3 1.48352 0.84826   2
   3  -5   3 2.22297 0.44790   2
   3  -5   3 3.66279 1.12293   1
   3  -5   3 5.97441 0.66732   1
   3  -5   3 5.70375 1.02130   1
   3  -5   3 7.96181 1.09818   3
   3  -5   3 4.01572 0.61533   3
   3  -5   3 2.97854 1.07781   3
   4  -5   3 0.96378 0.97913   1
   4  -5   3 0.69669 0.55170   1
   4  -5   3 0.56077 1.10595   3
   4  -5   3 1.82459 0.66623   3
   4  -5   3 1.87402 1.15113   2
   4  -5   3 0.41918 0.59300   2
   5  -5   3 -1.1155 1.28982   3
   5  -5   3 0.28007 0.84285   3
   5  -5   3 -0.4442 1.38606   1
   5  -5   3 -0.1317 0.80792   1
   5  -5   3 -0.1303 1.53783   2
   5  -5   3 -0.0864 0.79053   2
   5   4  -3 0.79219 1.43713   1
   5   4  -3 1.95999 1.50424   3
   5   4  -3 -0.5869 1.54830   2
  -5  -4   3 -0.1381 1.19200   1
  -5  -4   3 -0.0124 0.94374   1
  -5  -4   3 0.75318 1.41023   3
  -5  -4   3 1.30913 1.21305   3
  -5  -4   3 2.70289 1.46321   2
  -5  -4   3 0.19174 1.03570   2
   4   4  -3 6.31611 1.28733   1
   4   4  -3 3.68729 1.13506   3
   4   4  -3 3.19826 1.35812   2
  -4  -4   3 3.02393 1.10503   1
  -4  -4   3 3.73291 0.80418   1
  -4  -4   3 4.07098 1.01964   3
  -4  -4   3 4.53732 1.17593   3
  -4  -4   3 3.59726 1.13240   2
  -4  -4   3 1.82070 0.78288   2
   3   4  -3 185.731 18.9043   1
   3   4  -3 167.068 16.6098   1
   3   4  -3 118.250 11.7898   2
   3   4  -3 98.7054 10.3253   2
   3   4  -3 168.589 16.1341   3
   3   4  -3 179.228 18.3494   3
   3   4  -3 146.223 16.2771   3
  -3  -4   3 110.922 11.2500   2
  -3  -4   3 110.114 10.3172   2
  -3  -4   3 183.229 18.1250   1
  -3  -4   3 171.342 16.5742   1
  -3  -4   3 176.191 17.6007   3
  -3  -4   3 176.063 16.1190   3
   2   4  -3 252.278 27.8335   2
   2   4  -3 269.972 24.4968   2
   2   4  -3 248.348 28.9479   2
   2   4  -3 263.323 24.4613   2
   2   4  -3 447.187 44.7975   1
   2   4  -3 411.592 39.4337   1
   2   4  -3 408.142 46.6099   1
   2   4  -3 404.883 39.3770   1
   2   4  -3 427.305 40.4532   3
   2   4  -3 412.255 46.0057   3
   2   4  -3 445.171 40.5209   3
   2   4  -3 437.974 47.8844   3
  -2  -4   3 264.269 24.4977   2
  -2  -4   3 261.395 26.7006   2
  -2  -4   3 265.943 24.4541   2
  -2  -4   3 441.371 44.1624   3
  -2  -4   3 425.071 40.4471   3
  -2  -4   3 433.782 40.5205   3
  -2  -4   3 431.787 39.4435   1
  -2  -4   3 426.178 39.3621   1
  -2  -4   3 415.270 42.9774   1
   1   4  -3 23.1545 2.60419   2
   1   4  -3 23.8543 2.52495   2
   1   4  -3 19.6259 2.17467   2
   1   4  -3 36.2722 3.79798   3
   1   4  -3 37.7050 3.83021   3
   1   4  -3 43.1466 4.52685   3
   1   4  -3 37.9998 4.33426   3
   1   4  -3 58.9146 5.32039   1
   1   4  -3 40.7472 6.05291   1
   1   4  -3 55.3641 6.30659   1
  -1  -4   3 23.1634 2.19715   2
  -1  -4   3 21.4162 2.37738   2
  -1  -4   3 24.0605 2.17964   2
  -1  -4   3 46.1908 4.18115   3
  -1  -4   3 72.3039 5.82642   1
  -1  -4   3 119.690 11.3566  -3
  -1  -4   3 119.690 11.3566   1
  -1  -4   3 121.231 11.3284  -3
  -1  -4   3 121.231 11.3284   1
   0   4  -3 135.364 12.3395   2
   0   4  -3 128.900 14.0781   2
   0   4  -3 130.299 12.3363   2
   0   4  -3 132.054 14.6486   2
   0   4  -3 219.016 23.6047   3
   0   4  -3 219.881 20.7292   3
   0   4  -3 213.764 21.8544   1
   0   4  -3 213.258 19.1856   1
   0   4  -3 408.212 44.7844  -3
   0   4  -3 408.212 44.7844   1
   0   4  -3 432.757 37.7936  -3
   0   4  -3 432.757 37.7936   1
   0  -4   3 124.168 12.3688   2
   0  -4   3 136.088 12.3692   2
   0  -4   3 135.138 13.4965   2
   0  -4   3 208.436 20.9617   1
   0  -4   3 185.284 19.2277   1
   0  -4   3 370.319 37.8622  -3
   0  -4   3 370.319 37.8622   1
   0  -4   3 225.830 22.6538   3
  -1   4  -3 17.5709 1.73085   2
  -1   4  -3 15.2300 1.59256   2
  -1   4  -3 27.9084 2.94922   3
  -1   4  -3 32.0186 3.10098   1
  -1   4  -3 34.9442 3.26331   1
   1  -4   3 55.6743 5.22188  -3
   1  -4   3 55.6743 5.22188   1
   1  -4   3 55.0296 6.26827  -3
   1  -4   3 55.0296 6.26827   1
   1  -4   3 28.7210 3.08961   1
   1  -4   3 27.6080 2.80787   1
   1  -4   3 13.5438 1.40135   2
   1  -4   3 16.7617 1.58914   2
   1  -4   3 13.8114 1.76458   2
   1  -4   3 25.8832 2.81348   3
   1  -4   3 26.9957 2.55472   3
  -2   4  -3 4.16052 0.65199   3
  -2   4  -3 6.40482 0.83203   3
  -2   4  -3 3.32902 0.68684   2
  -2   4  -3 2.32614 0.48363   2
  -2   4  -3 4.58917 0.72094   1
  -2   4  -3 5.25680 0.67805   1
   2  -4   3 4.28035 0.55279   3
   2  -4   3 3.84444 0.52333   3
   2  -4   3 4.05543 0.47762   1
   2  -4   3 3.71955 0.49847   1
   2  -4   3 2.34397 0.36477   2
   2  -4   3 2.41950 0.63717   2
   2  -4   3 2.62045 0.40712   2
   2  -4   3 2.49026 0.67019   2
   2  -4   3 6.20889 1.52243  -3
   2  -4   3 6.20889 1.52243   1
  -3   4  -3 6.74219 1.17860   1
  -3   4  -3 6.40002 0.82467   2
  -3   4  -3 5.61947 1.02300   2
  -3   4  -3 8.73131 1.31824   3
   3  -4   3 9.15483 1.03208   3
   3  -4   3 10.8409 1.36988   3
   3  -4   3 9.27177 1.43383   3
   3  -4   3 5.61939 0.67880   2
   3  -4   3 3.97910 1.00853   2
   3  -4   3 3.22202 0.98572   2
   3  -4   3 9.73731 0.92813   1
   3  -4   3 7.51702 1.34196   1
   3  -4   3 7.86677 1.23632   1
   4  -4   3 28.4198 3.70877   3
   4  -4   3 34.9919 3.20801   3
   4  -4   3 30.1761 3.82241   1
   4  -4   3 33.4483 3.19278   1
   4  -4   3 16.5743 2.50964   2
   4  -4   3 22.8303 2.14475   2
   5  -4   3 17.9861 2.51354   3
   5  -4   3 18.5617 2.04565   3
   5  -4   3 11.4874 1.90504   2
   5  -4   3 9.72548 1.37724   2
   5  -4   3 19.9469 2.86744   1
   5  -4   3 22.0242 2.28703   1
   5   3  -3 53.5375 6.02841   1
   5   3  -3 28.4845 3.85278   2
   5   3  -3 61.5132 6.48087   3
  -5  -3   3 30.9267 3.33272   2
  -5  -3   3 32.4366 3.67015   2
  -5  -3   3 51.7316 5.61674   3
  -5  -3   3 58.7048 6.12588   3
  -5  -3   3 53.2022 5.21475   1
  -5  -3   3 51.6894 5.79832   1
   4   3  -3 11.7592 1.93614   2
   4   3  -3 17.2312 2.47221   1
   4   3  -3 22.0518 2.74032   3
   4   3  -3 26.2477 2.50139   3
  -4  -3   3 23.2177 2.40732   3
  -4  -3   3 19.8839 2.59740   3
  -4  -3   3 18.8552 2.06048   1
  -4  -3   3 21.3441 2.32662   1
  -4  -3   3 13.7427 1.63446   2
  -4  -3   3 15.1703 1.82627   2
   3   3  -3 25.1413 2.94807   3
   3   3  -3 28.7231 2.92593   3
   3   3  -3 32.2153 3.29943   3
   3   3  -3 25.7045 3.03160   1
   3   3  -3 23.9991 2.73720   1
   3   3  -3 26.4935 2.67469   1
   3   3  -3 21.0533 2.13820   2
   3   3  -3 14.6244 1.80693   2
   3   3  -3 18.0582 1.83143   2
  -3  -3   3 16.5341 1.95217   2
  -3  -3   3 16.1616 1.76516   2
  -3  -3   3 29.2974 2.89418   3
  -3  -3   3 27.9009 3.12967   3
  -3  -3   3 29.1892 2.92848   1
  -3  -3   3 26.3928 2.64229   1
   2   3  -3 525.375 55.4814   2
   2   3  -3 508.122 57.7317   2
   2   3  -3 543.388 48.8546   2
   2   3  -3 530.634 48.7786   2
   2   3  -3 873.871 96.0791   3
   2   3  -3 884.505 92.3051   3
   2   3  -3 885.246 81.2998   3
   2   3  -3 870.102 81.1669   3
   2   3  -3 835.577 77.6034   1
   2   3  -3 829.919 77.4837   1
   2   3  -3 791.441 91.7156   1
   2   3  -3 885.755 88.1188   1
  -2  -3   3 856.494 88.5849   3
  -2  -3   3 870.911 81.3002   3
  -2  -3   3 830.325 81.1588   3
  -2  -3   3 830.219 77.6082   1
  -2  -3   3 828.358 84.5605   1
  -2  -3   3 798.697 77.4659   1
  -2  -3   3 510.762 53.2340   2
  -2  -3   3 517.234 48.8554   2
  -2  -3   3 512.247 48.7678   2
   1   3  -3 0.52757 0.40863   3
   1   3  -3 1.58721 0.36695   3
   1   3  -3 0.45274 0.29539   3
   1   3  -3 0.94698 0.45292   3
   1   3  -3 0.29363 0.42844   2
   1   3  -3 0.98981 0.29506   2
   1   3  -3 0.44867 0.25986   2
   1   3  -3 0.51273 0.43283   2
   1   3  -3 11.1942 1.36948   1
  -1  -3   3 10.5043 1.26469  -3
  -1  -3   3 10.5043 1.26469   1
  -1  -3   3 10.9914 1.22141  -3
  -1  -3   3 10.9914 1.22141   1
  -1  -3   3 0.83776 0.31375   3
  -1  -3   3 0.42671 0.28098   2
  -1  -3   3 0.32861 0.25357   2
  -1  -3   3 0.42206 0.29414   2
  -1  -3   3 10.6087 1.12887   1
   0   3  -3 8.36280 0.82051   2
   0   3  -3 9.46519 0.81595   2
   0   3  -3 9.03370 1.04627   2
   0   3  -3 9.23858 1.03521   2
   0   3  -3 32.0829 2.79261  -3
   0   3  -3 32.0829 2.79261   1
   0   3  -3 27.4166 3.35229  -3
   0   3  -3 27.4166 3.35229   1
   0   3  -3 17.7375 1.70021   1
   0   3  -3 18.4305 1.97012   1
   0   3  -3 12.4394 1.16525   3
   0   3  -3 12.7804 1.37043   3
   0  -3   3 6.97369 0.81296   2
   0  -3   3 6.82047 0.91156   2
   0  -3   3 17.3634 1.86051   1
   0  -3   3 27.9244 2.79873  -3
   0  -3   3 27.9244 2.79873   1
   0  -3   3 10.7467 1.28618   3
  -1   3  -3 14.3598 1.41114   2
  -1   3  -3 11.7835 1.28652   2
  -1   3  -3 26.2798 2.61720   3
  -1   3  -3 21.9646 2.30500   1
  -1   3  -3 21.3980 2.18195   1
   1  -3   3 11.7103 1.28373   2
   1  -3   3 12.0599 1.17133   2
   1  -3   3 11.5903 1.48293   2
   1  -3   3 11.6596 1.17228   2
   1  -3   3 20.6959 2.17537   1
   1  -3   3 20.1493 1.99664   1
   1  -3   3 22.5028 2.27732   3
   1  -3   3 23.5150 2.47745   3
   1  -3   3 42.6373 4.93311  -3
   1  -3   3 42.6373 4.93311   1
   1  -3   3 43.8886 4.11273  -3
   1  -3   3 43.8886 4.11273   1
  -2   3  -3 -0.6247 0.51266   2
  -2   3  -3 0.11153 0.29671   2
  -2   3  -3 0.33050 0.34006   3
  -2   3  -3 0.50770 0.46645   3
   2  -3   3 0.43726 0.50826   2
   2  -3   3 0.36285 0.33467   2
   2  -3   3 -0.2590 0.27905   2
   2  -3   3 -0.8327 0.53339   2
   2  -3   3 0.28203 0.46736   3
   2  -3   3 -1.0447 0.38611   3
   2  -3   3 1.29438 0.38709   3
   2  -3   3 267.196 29.6709  -3
   2  -3   3 267.196 29.6709   1
  -3   3  -3 3.13266 0.73866   3
  -3   3  -3 2.33419 0.74442   1
  -3   3  -3 0.51498 0.51250   2
   3  -3   3 0.66421 0.71858   2
   3  -3   3 1.21607 0.72601   2
   3  -3   3 1.07117 0.46151   2
   3  -3   3 1.24007 0.73474   3
   3  -3   3 1.39975 0.49722   3
   3  -3   3 8.15351 2.12942  -3
   3  -3   3 8.15351 2.12942   1
   3  -3   3 2.50636 0.48477   1
   3  -3   3 1.03584 0.83652   1
   4  -3   3 0.80968 0.96466   1
   4  -3   3 0.41049 0.62438   1
   4  -3   3 -0.4795 0.88228   3
   4  -3   3 0.59709 0.65688   3
   4  -3   3 0.11764 1.04070   2
   4  -3   3 -0.0547 0.60456   2
   5  -3   3 80.8172 7.87821   3
   5  -3   3 83.5508 9.06666   3
   5  -3   3 51.0535 5.54739   2
   5  -3   3 44.7384 4.66867   2
   5  -3   3 75.9127 8.41025   1
   5  -3   3 76.2608 7.31100   1
   5   2  -3 14.5200 2.25930   3
   5   2  -3 13.1912 2.19971   1
   5   2  -3 3.97223 1.76782   2
  -5  -2   3 6.30362 1.13266   2
  -5  -2   3 7.77487 1.49474   2
  -5  -2   3 18.1755 2.10133   1
  -5  -2   3 11.6579 1.58862   1
  -5  -2   3 17.3896 1.89277   3
  -5  -2   3 16.4232 2.24950   3
   4   2  -3 0.56138 0.97130   3
   4   2  -3 -0.2554 0.83995   3
   4   2  -3 -0.2546 1.09045   2
   4   2  -3 0.21105 0.86859   2
   4   2  -3 -0.6271 0.77624   1
   4   2  -3 0.04878 0.91908   1
  -4  -2   3 1.29527 0.66455   2
  -4  -2   3 0.35823 0.78744   2
  -4  -2   3 -0.5323 0.66544   3
  -4  -2   3 0.57043 0.78925   3
  -4  -2   3 0.85745 0.87665   1
  -4  -2   3 0.25379 0.59255   1
   3   2  -3 12.8943 1.68530   1
   3   2  -3 14.7635 1.93230   1
   3   2  -3 6.19044 0.94925   2
   3   2  -3 6.79906 0.96041   2
   3   2  -3 6.94988 1.13958   2
   3   2  -3 12.6939 1.42224   3
   3   2  -3 11.2418 1.56182   3
   3   2  -3 12.5680 1.42674   3
  -3  -2   3 16.9986 1.69566   1
  -3  -2   3 18.9258 1.88521   1
  -3  -2   3 12.0462 1.50675   3
  -3  -2   3 12.9151 1.33331   3
  -3  -2   3 6.78579 0.99946   2
  -3  -2   3 8.25621 0.94690   2
   2   2  -3 67.6687 6.53632   1
   2   2  -3 74.3110 7.70530   1
   2   2  -3 59.2507 7.42461   1
   2   2  -3 75.1170 6.53362   1
   2   2  -3 58.3423 6.75817   3
   2   2  -3 62.5371 5.74893   3
   2   2  -3 66.0580 5.75418   3
   2   2  -3 56.2857 6.51651   3
   2   2  -3 36.5509 3.50055   2
   2   2  -3 36.3432 3.98735   2
   2   2  -3 36.9988 3.49005   2
   2   2  -3 38.4967 4.11785   2
  -2  -2   3 64.7425 6.50563   1
  -2  -2   3 68.6352 6.53461   1
  -2  -2   3 73.3328 7.12724   1
  -2  -2   3 59.7227 5.72112   3
  -2  -2   3 59.4736 5.74071   3
  -2  -2   3 62.9873 6.26153   3
  -2  -2   3 33.8879 3.46241   2
  -2  -2   3 37.9448 3.79971   2
  -2  -2   3 35.0195 3.48692   2
   1   2  -3 90.5358 8.31464   2
   1   2  -3 83.1578 8.30159   2
   1   2  -3 83.1089 9.45702   2
   1   2  -3 140.296 15.7770   3
   1   2  -3 141.722 13.3550   3
   1   2  -3 138.759 15.1689   3
   1   2  -3 142.233 13.3330   3
   1   2  -3 412.995 38.7929   1
   1   2  -3 415.832 38.8533   1
   1   2  -3 500.699 56.5276  -2
   1   2  -3 500.699 56.5276   1
  -1  -2   3 149.126 13.3570   3
  -1  -2   3 140.843 15.7822   3
  -1  -2   3 85.8092 9.05796   2
  -1  -2   3 97.6778 8.29695   2
  -1  -2   3 499.293 56.5259  -2
  -1  -2   3 499.293 56.5259   1
  -1  -2   3 530.967 47.8265  -2
  -1  -2   3 530.967 47.8265   1
  -1  -2   3 550.625 59.7167  -3
  -1  -2   3 550.625 59.7167   1
  -1  -2   3 618.111 54.7154  -3
  -1  -2   3 618.111 54.7154   1
   0   2  -3 280.121 29.7161   3
   0   2  -3 278.591 26.1180   3
   0   2  -3 163.941 15.3307   2
   0   2  -3 172.576 17.4584   2
   0   2  -3 260.246 28.9244   1
   0   2  -3 273.290 25.4225   1
   0  -2   3 280.118 27.7428   1
   0  -2   3 165.124 16.7263   2
   0  -2   3 155.238 15.3515   2
   0  -2   3 278.496 28.5042   3
   0  -2   3 527.729 49.4593  -3
   0  -2   3 527.729 49.4593   1
  -1   2  -3 -0.1506 0.18934   3
  -1   2  -3 0.74221 0.30108   3
  -1   2  -3 0.10465 0.36534   2
  -1   2  -3 1.43869 0.18152   2
  -1   2  -3 0.87246 0.19293   2
  -1   2  -3 0.49014 0.18039   2
  -1   2  -3 223.432 21.3336  -3
  -1   2  -3 223.432 21.3336   1
   1  -2   3 0.38772 0.23592   2
   1  -2   3 1.01759 0.34782   2
   1  -2   3 1.14588 0.26453   2
   1  -2   3 233.833 25.2967  -3
   1  -2   3 233.833 25.2967   1
   1  -2   3 -0.3057 0.30897   3
  -2   2  -3 17.9894 1.57648   2
  -2   2  -3 16.7354 1.70361   2
  -2   2  -3 14.8101 1.53687   2
  -2   2  -3 15.0049 1.87081   2
  -2   2  -3 27.5610 2.93582   3
  -2   2  -3 29.7668 2.69249   3
  -2   2  -3 29.2612 3.12400   3
  -2   2  -3 25.9791 2.77000   1
  -2   2  -3 26.3021 2.51140   1
  -2   2  -3 27.5895 2.94163   1
  -2   2  -3 53.8202 5.03103  -3
  -2   2  -3 53.8202 5.03103   1
   2  -2   3 16.0201 1.88268   2
   2  -2   3 14.4101 1.94052   2
   2  -2   3 17.0964 1.60253   2
   2  -2   3 16.2342 1.70001   2
   2  -2   3 27.3616 3.15568   3
   2  -2   3 27.8850 2.73450   3
   2  -2   3 27.5335 2.75705   3
   2  -2   3 51.6808 6.08633  -3
   2  -2   3 51.6808 6.08633   1
   2  -2   3 26.7959 2.55754   1
   2  -2   3 26.5997 2.60663   1
   2  -2   3 27.5841 2.96694   1
  -3   2  -3 3.36005 0.80350   2
  -3   2  -3 3.64330 0.46534   2
  -3   2  -3 13.9662 1.10345   1
  -3   2  -3 6.63412 0.68655   3
   3  -2   3 4.90986 0.78618   3
   3  -2   3 4.95138 1.06442   3
   3  -2   3 5.85240 1.10122   3
   3  -2   3 1.79469 0.88697   2
   3  -2   3 2.76848 0.85003   2
   3  -2   3 1.82828 0.57720   2
   3  -2   3 6.06065 1.44692   1
   3  -2   3 7.58898 1.40370   1
  -4   2  -3 79.8500 7.74832   3
  -4   2  -3 75.3819 7.36035   1
  -4   2  -3 45.7437 4.52369   2
   4  -2   3 88.5397 7.85281   3
   4  -2   3 80.1576 8.96652   3
   4  -2   3 53.9708 5.42867   2
   4  -2   3 47.7930 4.62143   2
   4  -2   3 83.9880 7.45618   1
   4  -2   3 78.1110 8.52146   1
  -5   2  -3 16.5317 1.80925   2
   5  -2   3 38.0597 4.19455   1
   5  -2   3 30.7567 3.48235   1
   5  -2   3 18.2200 2.01039   2
   5  -2   3 19.0550 2.67052   2
   5  -2   3 38.7114 4.31039   3
   5  -2   3 46.4156 4.94184   3
   6   1  -3 12.5246 3.48961   1
  -6  -1   3 12.6009 2.28882   3
  -6  -1   3 10.5026 2.04710   2
  -6  -1   3 3.42025 1.50304   2
  -6  -1   3 11.8855 2.33387   1
   5   1  -3 26.4052 3.33901   3
   5   1  -3 28.9311 2.98398   3
   5   1  -3 17.6502 2.09723   2
   5   1  -3 15.6990 2.52498   2
   5   1  -3 21.1465 2.25547   1
   5   1  -3 23.5484 2.65914   1
  -5  -1   3 15.4896 2.18144   2
  -5  -1   3 18.3655 1.88199   2
  -5  -1   3 27.9892 2.21762   1
  -5  -1   3 7.25058 2.41970   1
  -5  -1   3 26.4265 2.86232   3
   4   1  -3 226.782 20.5857   3
   4   1  -3 224.886 23.3780   3
   4   1  -3 223.398 23.3405   1
   4   1  -3 202.674 20.5154   1
   4   1  -3 147.801 14.5800   2
   4   1  -3 134.032 12.7772   2
  -4  -1   3 236.911 22.3979   1
  -4  -1   3 214.112 20.4645   1
  -4  -1   3 133.089 13.9164   2
  -4  -1   3 129.737 12.7282   2
  -4  -1   3 221.349 22.4317   3
  -4  -1   3 204.315 20.5128   3
   3   1  -3 42.1240 3.15658   1
   3   1  -3 21.7350 3.56522   1
   3   1  -3 17.5515 1.70984   2
   3   1  -3 18.3670 1.76882   2
   3   1  -3 13.9896 1.95606   2
   3   1  -3 23.7879 2.32701   3
   3   1  -3 20.3542 2.57127   3
  -3  -1   3 35.6353 3.45359   1
  -3  -1   3 31.0795 3.10865   1
  -3  -1   3 15.8770 1.82836   2
  -3  -1   3 15.2907 1.65369   2
  -3  -1   3 23.3432 2.48008   3
  -3  -1   3 23.3183 2.27195   3
   2   1  -3 -0.2311 0.50642   2
   2   1  -3 0.12224 0.33226   2
   2   1  -3 -0.3357 0.29354   2
   2   1  -3 0.07524 0.36327   2
   2   1  -3 3.68955 0.65302   1
   2   1  -3 -0.9191 0.40480   3
   2   1  -3 -0.0327 0.29812   3
   2   1  -3 -0.1716 0.41056   3
   2   1  -3 0.37145 0.41889   3
  -2  -1   3 -0.1754 0.28039   3
  -2  -1   3 0.28688 0.38126   3
  -2  -1   3 0.28962 0.30070   3
  -2  -1   3 0.01375 0.36761   3
  -2  -1   3 -0.2310 0.32898   2
  -2  -1   3 0.50804 0.30353   2
  -2  -1   3 0.35256 0.29728   2
  -2  -1   3 -0.0040 0.33946   2
   1   1  -3 3476.31 371.618   3
   1   1  -3 3460.01 327.352   3
   1   1  -3 3489.44 326.813   3
   1   1  -3 2186.75 210.531   2
   1   1  -3 2263.12 239.010   2
   1   1  -3 2347.04 210.189   2
   1   1  -3 3721.51 337.539   1
   1   1  -3 3619.24 383.811   1
   1   1  -3 3520.63 338.091   1
  -1  -1   3 2245.81 210.529   2
  -1  -1   3 2193.40 229.372   2
  -1  -1   3 6793.44 693.388  -3
  -1  -1   3 6793.44 693.388   1
  -1  -1   3 5945.36 556.059  -2
  -1  -1   3 5945.36 556.059   1
  -1  -1   3 3439.18 327.350   3
  -1  -1   3 3605.33 326.809   3
  -1  -1   3 3574.14 338.091   1
   0   1  -3 160.454 15.6364   1
   0   1  -3 167.424 17.7904   1
   0   1  -3 88.0522 8.06074   2
   0   1  -3 81.5367 9.17333   2
   0   1  -3 136.265 12.7933   3
   0   1  -3 129.600 14.5531   3
   0  -1   3 139.132 12.7968   3
   0  -1   3 140.840 12.8150   3
   0  -1   3 173.125 15.6641   1
   0  -1   3 395.111 40.3429  -3
   0  -1   3 395.111 40.3429  -2
   0  -1   3 395.111 40.3429   1
   0  -1   3 87.5011 8.06899   2
  -1   1  -3 4.28305 0.66480   2
  -1   1  -3 4.20296 0.52180   2
  -1   1  -3 560.703 52.4582   1
  -1   1  -3 9.68906 0.97096   3
   1  -1   3 5.75273 0.57386   2
   1  -1   3 5.16636 0.67473   2
   1  -1   3 328.137 36.3880  -3
   1  -1   3 328.137 36.3880   1
  -2   1  -3 9.84484 1.03130   2
  -2   1  -3 8.85077 1.07883   2
  -2   1  -3 12.3828 1.05576   2
  -2   1  -3 8.26378 1.23656   2
  -2   1  -3 17.2007 1.89225   3
  -2   1  -3 23.2759 1.69319   3
  -2   1  -3 16.3330 1.60941   3
  -2   1  -3 13.5842 1.72601   3
  -2   1  -3 21.9802 2.74232   1
  -2   1  -3 22.6822 2.91500   1
  -2   1  -3 29.1178 2.57284   1
   2  -1   3 9.96487 1.03800   2
   2  -1   3 9.81388 1.25133   2
   2  -1   3 9.74182 1.26590   2
   2  -1   3 18.3922 1.91475   3
   2  -1   3 16.4316 1.65208   3
   2  -1   3 26.4114 2.93934   1
   2  -1   3 36.5500 2.56808   1
   2  -1   3 88.8520 9.97186  -3
   2  -1   3 88.8520 9.97186   1
  -3   1  -3 6.38836 0.68885   3
  -3   1  -3 2.29552 0.79715   2
  -3   1  -3 2.41758 0.43114   2
   3  -1   3 5.11679 0.80457   3
   3  -1   3 4.20213 0.95779   3
   3  -1   3 5.68707 1.08784   3
   3  -1   3 5.08133 1.18078   1
   3  -1   3 6.38355 1.23568   1
   3  -1   3 8.91248 0.91794   1
   3  -1   3 2.04824 0.54315   2
   3  -1   3 2.20044 0.83169   2
   3  -1   3 2.00929 0.83980   2
  -4   1  -3 41.9314 3.97587   3
  -4   1  -3 24.0553 2.49110   2
  -4   1  -3 47.7812 4.42337   1
   4  -1   3 26.6191 2.56429   2
   4  -1   3 22.2744 2.97693   2
   4  -1   3 46.3463 5.21738   1
   4  -1   3 43.2975 4.50991   1
   4  -1   3 39.1399 4.09151   3
   4  -1   3 41.6489 4.63589   3
  -5   1  -3 4.55747 0.83238   3
  -5   1  -3 1.73619 0.66964   1
  -5   1  -3 1.33581 0.68725   2
   5  -1   3 3.41241 1.23101   3
   5  -1   3 6.42453 1.68197   3
   5  -1   3 0.55933 1.69166   2
   5  -1   3 2.70895 1.02991   2
   5  -1   3 5.39062 1.47707   1
   5  -1   3 2.12317 1.08003   1
   6   0  -3 8.67359 2.20564   2
   6   0  -3 8.18420 2.26029   1
   6   0  -3 7.44070 1.67547   1
   6   0  -3 11.2818 2.03228   3
   6   0  -3 11.5993 2.33168   3
  -6   0   3 10.3395 2.11867   1
  -6   0   3 9.77757 1.37318   1
  -6   0   3 10.9266 1.48342   3
  -6   0   3 6.10285 2.07931   2
  -6   0   3 10.0586 1.45096   2
   5   0  -3 13.7145 1.98950   2
   5   0  -3 18.9972 2.42378   2
   5   0  -3 35.5049 3.71096   1
   5   0  -3 25.7973 3.09976   1
   5   0  -3 32.3140 3.32742   3
   5   0  -3 30.4639 3.68179   3
  -5   0   3 26.5009 3.04149   3
  -5   0   3 33.8151 3.53846   3
  -5   0   3 29.6036 3.03248   1
  -5   0   3 31.3411 3.48731   1
  -5   0   3 18.0421 1.84069   2
  -5   0   3 17.9270 2.25956   2
   4   0  -3 -0.1116 0.71875   2
   4   0  -3 -0.9929 0.84499   2
   4   0  -3 0.80946 0.75839   3
   4   0  -3 0.45255 0.94739   3
   4   0  -3 0.06275 0.95555   1
   4   0  -3 -1.0917 0.62760   1
  -4   0   3 0.04558 0.53830   3
  -4   0   3 -0.4763 0.85015   3
  -4   0   3 -0.1792 0.78129   2
  -4   0   3 0.21091 0.45609   2
  -4   0   3 0.19556 0.49229   1
  -4   0   3 -0.9251 0.81626   1
   3   0  -3 84.7711 11.5850   1
   3   0  -3 124.252 10.2029   1
   3   0  -3 87.7920 8.05654   3
   3   0  -3 83.2795 9.14776   3
   3   0  -3 50.3268 4.77388   2
   3   0  -3 49.2951 5.44761   2
  -3   0   3 84.2822 8.01743   3
  -3   0   3 84.7469 8.77934   3
  -3   0   3 94.4556 11.1228   1
  -3   0   3 124.816 10.1674   1
  -3   0   3 54.1137 5.21654   2
  -3   0   3 46.9718 4.73463   2
   2   0  -3 246.850 22.0281   1
   2   0  -3 240.354 21.9992   1
   2   0  -3 159.002 17.8352   3
   2   0  -3 169.556 15.6872   3
   2   0  -3 168.629 15.7105   3
   2   0  -3 105.462 11.1427   2
   2   0  -3 104.106 9.79165   2
   2   0  -3 103.053 9.78477   2
  -2   0   3 99.9558 9.76432   2
  -2   0   3 111.549 9.79295   2
  -2   0   3 102.368 11.5417   2
  -2   0   3 103.072 10.6733   2
  -2   0   3 236.974 22.0306   1
  -2   0   3 238.517 21.9828   1
  -2   0   3 209.489 24.0084   1
  -2   0   3 166.970 15.6757   3
  -2   0   3 172.044 17.1258   3
   1   0  -3 2400.72 228.744   1
   1   0  -3 2424.83 259.675   1
   1   0  -3 2499.21 228.371   1
   1   0  -3 2284.61 216.744   3
   1   0  -3 2285.82 246.456   3
   1   0  -3 2216.06 217.101   3
   1   0  -3 1467.43 135.418   2
   1   0  -3 1420.66 135.635   2
   1   0  -3 1491.79 153.983   2
  -1   0   3 2491.20 216.742   3
  -1   0   3 2308.02 217.100   3
  -1   0   3 4196.62 374.821  -2
  -1   0   3 4196.62 374.821   1
  -1   0   3 3818.30 375.439  -2
  -1   0   3 3818.30 375.439   1
  -1   0   3 1437.26 147.776   2
  -1   0   3 1421.83 160.320   2
  -1   0   3 4723.72 465.890  -3
  -1   0   3 4723.72 465.890   1
  -1   0   3 4405.96 505.451  -3
  -1   0   3 4405.96 505.451   1
   0   0  -3 496.181 47.2428   2
   0   0  -3 499.828 53.7204   2
   0   0  -3 502.313 47.3189   2
   0   0  -3 759.887 74.1102   1
   0   0  -3 780.027 74.2339   1
   0   0  -3 802.063 84.2708   1
   0   0  -3 718.995 68.3847   3
   0   0  -3 744.146 77.6257   3
   0   0  -3 729.824 68.2687   3
   0   0   3 819.099 80.8674   1
   0   0   3 799.136 74.2312   1
   0   0   3 747.939 68.2694   3
   0   0   3 725.732 68.3792   3
   0   0   3 711.880 74.4916   3
   0   0   3 516.484 51.5427   2
   0   0   3 501.830 47.3162   2
   0   0   3 511.869 47.2385   2
   0   0   3 1952.24 216.208  -3
   0   0   3 1952.24 216.208  -2
   0   0   3 1952.24 216.208   1
  -1   0  -3 2.50313 0.45463   2
  -1   0  -3 3.97467 0.55462   2
  -1   0  -3 8.28137 0.91363   3
  -1   0  -3 7.02190 0.77479   3
  -1   0  -3 7.70481 0.77542   3
  -1   0  -3 8.62110 1.08161   1
  -1   0  -3 11.7441 1.23782  -2
  -1   0  -3 11.7441 1.23782   1
   1   0   3 4.80136 0.51195   2
   1   0   3 3.98222 0.55602   2
   1   0   3 2.95143 0.60342   2
   1   0   3 4.18875 0.51307   2
   1   0   3 10.4785 1.01413   1
   1   0   3 9.48033 1.08954   1
   1   0   3 8.19936 0.95608   1
   1   0   3 6.39923 0.79902   3
   1   0   3 13.5844 1.76044  -3
   1   0   3 13.5844 1.76044   1
  -2   0  -3 517.740 53.0151   3
  -2   0  -3 527.655 48.5976   3
  -2   0  -3 519.614 55.2762   3
  -2   0  -3 301.848 29.7468   2
  -2   0  -3 325.432 32.4525   2
  -2   0  -3 493.982 47.1483   1
  -2   0  -3 494.596 51.4447   1
   2   0   3 538.154 47.1708   1
   2   0   3 473.739 53.6434   1
   2   0   3 505.664 55.8522   1
   2   0   3 517.634 47.2397   1
   2   0   3 533.100 48.6123   3
   2   0   3 528.255 55.2845   3
   2   0   3 496.221 48.6818   3
   2   0   3 512.746 57.5561   3
   2   0   3 327.819 29.8077   2
   2   0   3 336.015 29.7653   2
   2   0   3 308.795 35.2386   2
   2   0   3 305.668 33.8578   2
  -3   0  -3 3.87948 0.59763   2
  -3   0  -3 1.59861 0.80020   2
  -3   0  -3 5.24756 0.68984   1
  -3   0  -3 6.64239 0.69295   3
   3   0   3 5.64056 0.79586   1
   3   0   3 4.90562 1.13623   1
   3   0   3 5.90138 1.04542   1
   3   0   3 3.68635 0.99114   3
   3   0   3 3.29619 0.96178   3
   3   0   3 4.52689 0.83349   3
   3   0   3 2.77679 0.84165   2
   3   0   3 3.40312 0.64786   2
   3   0   3 2.07738 0.83291   2
  -4   0  -3 25.7569 2.36882   1
  -4   0  -3 12.4428 1.43081   2
  -4   0  -3 21.3306 2.36011   3
   4   0   3 20.3120 2.84723   1
   4   0   3 22.3338 2.49060   1
   4   0   3 12.6148 1.90945   2
   4   0   3 14.0837 1.57728   2
   4   0   3 24.0065 2.54851   3
   4   0   3 26.4469 2.93911   3
  -5   0  -3 2.72373 0.64887   1
  -5   0  -3 1.31066 0.66650   2
  -5   0  -3 5.09887 0.86973   3
   5   0   3 0.55240 1.25860   3
   5   0   3 4.48563 1.50564   3
   5   0   3 2.53809 1.24718   2
   5   0   3 2.19540 1.78399   2
   5   0   3 2.05029 1.15067   1
   5   0   3 1.36270 1.60949   1
   6  -1  -3 1.00677 1.84790   2
   6  -1  -3 0.91868 1.37901   2
   6  -1  -3 0.32336 1.89701   1
   6  -1  -3 -0.7859 1.26986   1
   6  -1  -3 -0.6452 1.71500   3
   6  -1  -3 -1.5917 1.44352   3
  -6   1   3 -0.7551 0.88482   1
  -6   1   3 0.19131 1.86296   1
  -6   1   3 -0.9223 1.61082   2
  -6   1   3 -0.0151 0.92718   2
  -6   1   3 -0.8889 0.87768   3
   5  -1  -3 4.71057 1.39914   3
   5  -1  -3 9.07241 1.31442   3
   5  -1  -3 5.61978 1.16458   1
   5  -1  -3 6.53884 1.44754   1
   5  -1  -3 5.13201 1.05658   2
   5  -1  -3 2.98211 1.46238   2
  -5   1   3 2.80383 0.76033   2
  -5   1   3 6.20394 1.32271   2
  -5   1   3 7.01800 0.97434   3
  -5   1   3 6.07540 1.31979   3
  -5   1   3 8.42579 1.53076   1
  -5   1   3 6.99811 0.94269   1
   4  -1  -3 20.3956 2.45583   2
   4  -1  -3 19.9907 2.13427   2
   4  -1  -3 34.1243 3.46636   3
   4  -1  -3 37.4991 3.95303   3
   4  -1  -3 47.0666 4.35615   1
   4  -1  -3 39.2577 5.01809   1
  -4   1   3 37.3747 3.78825   3
  -4   1   3 31.3940 3.36262   3
  -4   1   3 47.9767 4.29933   1
  -4   1   3 41.9265 4.77997   1
  -4   1   3 18.1648 2.29136   2
  -4   1   3 20.5632 2.04617   2
   3  -1  -3 14.3442 1.86001   2
   3  -1  -3 18.5568 1.64203   2
   3  -1  -3 24.6371 3.10176   1
   3  -1  -3 32.1873 2.71926   1
   3  -1  -3 29.3346 2.70303   3
   3  -1  -3 25.0983 3.03584   3
  -3   1   3 31.8586 2.96948   3
  -3   1   3 24.5405 2.64399   3
  -3   1   3 12.9867 1.75189   2
  -3   1   3 16.1063 1.59183   2
  -3   1   3 26.6544 2.68048   1
  -3   1   3 27.7472 2.99175   1
   2  -1  -3 184.657 19.6899   1
   2  -1  -3 186.347 17.3140   1
   2  -1  -3 188.051 17.3325   1
   2  -1  -3 156.649 17.1020   3
   2  -1  -3 157.540 15.0609   3
   2  -1  -3 100.968 9.59634   2
   2  -1  -3 104.140 9.60192   2
   2  -1  -3 100.423 10.9207   2
  -2   1   3 106.949 10.4768   2
  -2   1   3 102.727 9.57717   2
  -2   1   3 98.4898 11.3197   2
  -2   1   3 160.869 15.0293   3
  -2   1   3 161.789 17.7636   3
  -2   1   3 164.391 16.4282   3
  -2   1   3 185.710 20.4620   1
  -2   1   3 186.166 18.9051   1
  -2   1   3 177.227 17.2978   1
   1  -1  -3 165.511 15.1943   1
   1  -1  -3 157.969 15.2132   1
   1  -1  -3 158.173 17.2657   1
   1  -1  -3 3.03221 0.39263   3
   1  -1  -3 2.82131 0.43590   3
   1  -1  -3 2.70650 0.38728   3
   1  -1  -3 2.23233 0.34964   2
   1  -1  -3 0.57483 0.42893   2
   1  -1  -3 2.34094 0.38581   2
  -1   1   3 169.953 15.9300  -3
  -1   1   3 169.953 15.9300  -2
  -1   1   3 169.953 15.9300   1
  -1   1   3 131.171 14.5661  -3
  -1   1   3 131.171 14.5661   1
  -1   1   3 3.22626 0.45476   3
  -1   1   3 167.526 16.5858   1
  -1   1   3 6.54833 0.50075   2
   0  -1  -3 41.8521 3.93709   3
   0  -1  -3 43.7964 3.92806   3
   0  -1  -3 40.0767 4.43612   3
   0  -1  -3 238.298 22.9079   1
   0  -1  -3 250.308 22.8726   1
   0  -1  -3 29.4151 3.21225   2
   0  -1  -3 31.7316 2.84353   2
   0  -1  -3 30.0724 2.84369   2
   0   1   3 28.7321 3.08322   2
   0   1   3 41.1502 4.27023   3
   0   1   3 125.472 13.9488  -3
   0   1   3 125.472 13.9488  -2
   0   1   3 125.472 13.9488   1
   0   1   3 91.0604 8.56930  -2
   0   1   3 91.0604 8.56930   1
  -1  -1  -3 0.50176 0.35844   2
  -1  -1  -3 0.19195 0.30520   2
  -1  -1  -3 0.52044 0.25793   2
  -1  -1  -3 0.20731 0.30757   2
  -1  -1  -3 0.42525 0.33505   3
  -1  -1  -3 1.46849 0.30075   3
  -1  -1  -3 1.05106 0.34041   3
  -1  -1  -3 0.27104 0.33511   3
  -1  -1  -3 1.14142 0.36271   1
  -1  -1  -3 0.98660 0.29856   1
  -1  -1  -3 1.26256 0.26928   1
  -1  -1  -3 0.97372 0.29816   1
   1   1   3 0.60502 0.32754   3
   1   1   3 1.16992 0.37668   3
   1   1   3 1.75223 0.41996   3
   1   1   3 0.56040 0.35283   2
   1   1   3 0.02271 0.44776   2
   1   1   3 -0.0906 0.35891   2
   1   1   3 0.39350 0.33279   2
   1   1   3 0.77248 0.41907   1
   1   1   3 0.62737 0.37651   1
   1   1   3 1.44849 0.34529   1
   1   1   3 0.28432 0.90793  -3
   1   1   3 0.28432 0.90793   1
  -2  -1  -3 16.3101 1.80803   2
  -2  -1  -3 16.9382 1.80136   2
  -2  -1  -3 16.8174 1.70822   2
  -2  -1  -3 26.6852 2.55192   1
  -2  -1  -3 25.7455 2.49178   1
  -2  -1  -3 25.7802 2.69635   1
  -2  -1  -3 28.6330 2.87629   3
  -2  -1  -3 29.4010 2.76448   3
  -2  -1  -3 24.9768 2.66850   3
   2   1   3 17.5251 2.00655   2
   2   1   3 17.4928 1.74889   2
   2   1   3 17.2988 1.78845   2
   2   1   3 15.3108 2.06940   2
   2   1   3 26.3535 2.88115   1
   2   1   3 27.6471 2.54162   1
   2   1   3 24.4306 2.57770   1
   2   1   3 22.8370 3.05861   1
   2   1   3 27.8857 2.75763   3
   2   1   3 25.5561 3.20944   3
   2   1   3 29.2076 2.70551   3
   2   1   3 27.1145 3.06037   3
  -3  -1  -3 52.0528 5.44665   2
  -3  -1  -3 51.9566 4.97318   2
  -3  -1  -3 87.6098 8.17327   3
  -3  -1  -3 78.7932 7.53314   1
   3   1   3 89.0164 8.21881   3
   3   1   3 86.8604 9.33600   3
   3   1   3 82.2042 9.70288   3
   3   1   3 54.9999 5.75203   2
   3   1   3 48.9058 5.01445   2
   3   1   3 53.1174 5.98509   2
   3   1   3 86.4668 8.63524   1
   3   1   3 78.7594 9.01613   1
   3   1   3 76.0722 7.58670   1
  -4  -1  -3 2.46401 0.50296   1
  -4  -1  -3 1.28798 0.63141   2
  -4  -1  -3 2.19875 0.64624   3
   4   1   3 5.43244 1.13358   3
   4   1   3 2.57862 0.98114   3
   4   1   3 2.72843 0.92286   2
   4   1   3 1.64083 1.19201   2
   4   1   3 2.34943 1.14360   1
   4   1   3 3.15952 0.85164   1
  -5  -1  -3 11.4444 1.40295   3
  -5  -1  -3 3.08799 1.05136   2
  -5  -1  -3 8.93000 1.23466   1
   5   1   3 9.89007 1.88389   1
   5   1   3 7.56449 1.52056   1
   5   1   3 9.83934 1.72376   3
   5   1   3 7.96079 1.95804   3
   5   1   3 6.35054 1.66107   2
   5   1   3 2.28453 1.50854   2
   6  -2  -3 1.29933 1.63986   3
   6  -2  -3 2.05793 1.54368   3
   6  -2  -3 0.09337 1.24915   2
   6  -2  -3 3.22263 2.05911   2
   6  -2  -3 1.19354 1.59848   1
   6  -2  -3 1.00815 1.21411   1
  -6   2   3 1.35532 0.82909   2
  -6   2   3 -0.9768 1.77989   2
  -6   2   3 1.73231 1.86855   1
   5  -2  -3 0.94165 0.88148   2
   5  -2  -3 2.21968 1.34765   2
   5  -2  -3 1.75319 1.18783   1
   5  -2  -3 2.22539 0.91026   1
   5  -2  -3 0.91959 1.23627   3
   5  -2  -3 1.00380 0.98145   3
  -5   2   3 2.87861 0.65578   1
  -5   2   3 2.93066 1.20255   1
  -5   2   3 1.45245 1.16889   2
  -5   2   3 2.57369 0.66836   2
  -5   2   3 0.38870 0.60646   3
  -5   2   3 2.42318 1.12990   3
   4  -2  -3 22.3606 2.44336   3
   4  -2  -3 23.1191 2.79365   3
   4  -2  -3 22.3246 2.31596   1
   4  -2  -3 23.6211 2.66763   1
   4  -2  -3 12.7855 1.59531   2
   4  -2  -3 19.2445 2.07709   2
  -4   2   3 21.5622 2.22100   1
  -4   2   3 22.2138 2.58698   1
  -4   2   3 14.5105 1.52865   2
  -4   2   3 15.4387 1.82388   2
  -4   2   3 21.0599 2.61537   3
  -4   2   3 24.6229 2.30499   3
   3  -2  -3 13.7656 1.37194   2
   3  -2  -3 15.5049 1.66738   2
   3  -2  -3 19.3300 2.29470   3
   3  -2  -3 19.9424 2.04045   3
   3  -2  -3 23.1034 2.15022   1
   3  -2  -3 20.4006 2.50103   1
  -3   2   3 22.5697 2.12130   1
  -3   2   3 19.5282 2.38073   1
  -3   2   3 9.99405 1.30558   2
  -3   2   3 14.6862 1.56830   2
  -3   2   3 20.7545 2.26595   3
  -3   2   3 19.9069 1.96792   3
   2  -2  -3 22.3436 2.17868   3
   2  -2  -3 20.7735 2.47513   3
   2  -2  -3 13.7762 1.29553   2
   2  -2  -3 10.5446 1.48372   2
   2  -2  -3 22.5958 2.06549   1
   2  -2  -3 20.2119 2.35704   1
  -2   2   3 21.5398 2.15606   3
  -2   2   3 23.7735 2.17802   3
  -2   2   3 23.7155 2.54604   3
  -2   2   3 21.7184 2.40804   3
  -2   2   3 13.2770 1.50260   2
  -2   2   3 12.5875 1.27757   2
  -2   2   3 13.1090 1.43860   2
  -2   2   3 22.6900 2.30618   1
  -2   2   3 22.2582 2.09015   1
  -2   2   3 21.6444 2.43221   1
  -2   2   3 19.3598 2.05367   1
   1  -2  -3 656.233 70.1549   1
   1  -2  -3 585.292 61.3109   3
   1  -2  -3 567.044 54.0186   3
   1  -2  -3 382.268 40.9337   2
   1  -2  -3 1059.81 99.3120  -2
   1  -2  -3 1059.81 99.3120   1
  -1   2   3 374.652 42.6337   2
  -1   2   3 397.610 39.3023   2
  -1   2   3 663.016 73.0684   1
  -1   2   3 659.395 67.3552   1
  -1   2   3 1582.51 148.030  -3
  -1   2   3 1582.51 148.030  -2
  -1   2   3 1582.51 148.030   1
  -1   2   3 563.831 63.8512   3
  -1   2   3 589.317 58.8667   3
   0  -2  -3 489.981 45.4236   2
   0  -2  -3 641.638 59.5562   3
   0  -2  -3 617.245 59.6579   3
   0  -2  -3 659.065 67.6954   3
   0  -2  -3 1211.73 98.8876   1
   0   2   3 479.142 49.4882   2
   0   2   3 1795.04 198.818  -3
   0   2   3 1795.04 198.818  -2
   0   2   3 1795.04 198.818   1
   0   2   3 625.777 64.9949   3
   0   2   3 899.112 107.736   1
  -1  -2  -3 14.7210 1.40097   1
  -1  -2  -3 13.0833 1.31993   1
  -1  -2  -3 23.2355 2.33886  -2
  -1  -2  -3 23.2355 2.33886   1
  -1  -2  -3 12.1556 1.30289   3
  -1  -2  -3 13.0109 1.36151   3
  -1  -2  -3 11.2833 1.28101   3
  -1  -2  -3 10.0911 0.98083   2
  -1  -2  -3 8.03012 0.90134   2
   1   2   3 8.68175 1.00749   2
   1   2   3 7.32786 1.10103   2
   1   2   3 8.64897 0.91646   2
   1   2   3 6.63487 0.88772   2
   1   2   3 10.3889 1.50446   3
   1   2   3 12.1714 1.30026   3
   1   2   3 13.3407 1.27658   3
   1   2   3 12.6471 1.41005   3
   1   2   3 12.8835 1.48605   1
   1   2   3 11.1887 1.34289   1
   1   2   3 13.3014 1.32471   1
   1   2   3 10.2196 1.57948   1
  -2  -2  -3 56.1336 5.63899   2
  -2  -2  -3 60.8015 5.66429   2
  -2  -2  -3 61.4939 6.12737   2
  -2  -2  -3 94.3683 9.55514   3
  -2  -2  -3 97.5862 8.78038   3
  -2  -2  -3 93.4860 8.81703   3
  -2  -2  -3 96.5211 8.82071   1
  -2  -2  -3 91.6867 8.77743   1
  -2  -2  -3 94.7404 9.57062   1
   2   2   3 58.0154 6.43665   2
   2   2   3 61.8476 5.66093   2
   2   2   3 57.4560 6.72539   2
   2   2   3 58.9377 5.67536   2
   2   2   3 90.4971 10.4174   3
   2   2   3 94.2862 8.80286   3
   2   2   3 87.7870 8.80086   3
   2   2   3 91.9356 9.97983   3
   2   2   3 95.0575 8.81018   1
   2   2   3 92.3502 10.0046   1
   2   2   3 91.5572 10.4457   1
   2   2   3 89.6460 8.81699   1
  -3  -2  -3 63.2520 5.97313   3
  -3  -2  -3 70.5736 6.15123   1
  -3  -2  -3 36.8643 3.80411   2
  -3  -2  -3 37.6043 3.49316   2
   3   2   3 58.4944 7.40006   1
   3   2   3 61.9616 7.08128   1
   3   2   3 63.8290 6.20834   1
   3   2   3 59.7172 7.13663   3
   3   2   3 61.7569 6.02047   3
   3   2   3 64.4473 6.81813   3
   3   2   3 33.2307 4.25632   2
   3   2   3 35.8008 3.54637   2
   3   2   3 31.8443 4.05614   2
  -4  -2  -3 10.0284 1.32392   1
  -4  -2  -3 5.18153 0.92888   2
  -4  -2  -3 16.8493 1.77331   3
   4   2   3 11.5705 1.83262   3
   4   2   3 18.7348 2.24307   3
   4   2   3 11.8593 1.75484   2
   4   2   3 9.59067 1.32555   2
   4   2   3 15.4048 1.62143   1
   4   2   3 17.9042 2.05609   1
  -5  -2  -3 0.98249 0.96639   2
  -5  -2  -3 0.40301 0.78003   1
  -5  -2  -3 0.06742 1.04336   3
   5   2   3 -0.5627 1.89281   2
   5   2   3 0.19785 1.71995   1
   5   2   3 3.04601 1.73239   3
   6  -3  -3 22.3080 2.48448   1
   6  -3  -3 21.8513 3.07414   1
   6  -3  -3 16.2760 2.48772   3
   6  -3  -3 27.9832 3.19025   3
   6  -3  -3 15.8443 2.09328   2
  -6   3   3 21.0932 2.93119   1
   5  -3  -3 1.89199 1.38979   2
   5  -3  -3 0.48941 0.80296   2
   5  -3  -3 3.56596 1.30167   1
   5  -3  -3 0.85925 0.78511   1
   5  -3  -3 3.57268 1.38003   3
   5  -3  -3 2.88027 1.03161   3
  -5   3   3 4.39527 1.24231   1
  -5   3   3 2.40965 1.34308   3
  -5   3   3 0.85643 0.55530   2
  -5   3   3 1.60739 1.12031   2
   4  -3  -3 43.9981 4.11578   3
   4  -3  -3 41.2119 4.68500   3
   4  -3  -3 51.0230 4.63165   1
   4  -3  -3 48.2124 5.30134   1
   4  -3  -3 27.9457 2.63602   2
   4  -3  -3 24.5764 3.05856   2
  -4   3   3 24.5538 2.53667   2
  -4   3   3 28.3117 2.99013   2
  -4   3   3 43.8430 5.09812   1
  -4   3   3 40.0411 4.52014   3
   3  -3  -3 38.9718 4.56767   2
   3  -3  -3 38.7908 3.96706   2
   3  -3  -3 104.540 9.55938   1
   3  -3  -3 103.111 10.8846   1
   3  -3  -3 72.4488 7.68956   3
   3  -3  -3 71.0773 6.75926   3
  -3   3   3 73.6559 6.72068   3
  -3   3   3 70.7787 6.70910   3
  -3   3   3 67.4531 7.39571   3
  -3   3   3 44.1309 3.93813   2
  -3   3   3 42.4578 4.36107   2
  -3   3   3 92.1339 10.4497   1
  -3   3   3 103.558 9.52750   1
   2  -3  -3 50.5163 5.79089   2
   2  -3  -3 55.1058 5.08916   2
   2  -3  -3 96.0221 8.78652   3
   2  -3  -3 90.9526 9.97138   3
   2  -3  -3 136.719 13.0183   1
   2  -3  -3 135.450 14.7811   1
  -2   3   3 54.1135 5.07680   2
  -2   3   3 56.4542 5.06493   2
  -2   3   3 51.2423 6.02129   2
  -2   3   3 53.8973 5.57216   2
  -2   3   3 140.796 12.9868   1
  -2   3   3 136.979 15.3900   1
  -2   3   3 143.715 14.2216   1
  -2   3   3 138.591 12.9899   1
  -2   3   3 97.2930 9.60902   3
  -2   3   3 92.4189 8.75427   3
  -2   3   3 89.9493 8.75075   3
  -2   3   3 95.2186 10.3782   3
   1  -3  -3 655.104 62.8736   3
   1  -3  -3 694.420 71.3534   3
   1  -3  -3 951.921 92.3102   1
   1  -3  -3 1458.46 136.659  -2
   1  -3  -3 1458.46 136.659   1
   1  -3  -3 511.530 56.3657   2
  -1   3   3 667.984 68.5182   3
  -1   3   3 682.659 62.7643   3
  -1   3   3 651.720 74.3240   3
  -1   3   3 502.352 58.7190   2
  -1   3   3 578.588 54.1283   2
  -1   3   3 810.142 88.6286   1
  -1   3   3 834.762 96.1497   1
  -1   3   3 2033.30 190.191  -3
  -1   3   3 2033.30 190.191  -2
  -1   3   3 2033.30 190.191   1
   0  -3  -3 871.315 83.8611   3
   0  -3  -3 932.183 83.7197   3
   0  -3  -3 1775.69 159.195  -2
   0  -3  -3 1775.69 159.195   1
   0  -3  -3 1707.64 159.454  -2
   0  -3  -3 1707.64 159.454   1
   0   3   3 2404.18 262.916  -3
   0   3   3 2404.18 262.916  -2
   0   3   3 2404.18 262.916   1
   0   3   3 2541.88 273.797  -3
   0   3   3 2541.88 273.797  -2
   0   3   3 2541.88 273.797   1
   0   3   3 1621.57 173.731  -2
   0   3   3 1621.57 173.731   1
   0   3   3 880.301 91.3712   3
  -1  -3  -3 6.54244 0.77762   3
  -1  -3  -3 6.95281 0.80706   3
  -1  -3  -3 7.85503 0.78403   3
  -1  -3  -3 6.11442 0.65226   1
  -1  -3  -3 11.0250 1.37172  -2
  -1  -3  -3 11.0250 1.37172   1
  -1  -3  -3 10.0505 1.33151  -2
  -1  -3  -3 10.0505 1.33151   1
  -1  -3  -3 2.82624 0.50946   2
   1   3   3 4.51944 0.78807   2
   1   3   3 2.68998 0.54252   2
   1   3   3 3.17775 0.56519   2
   1   3   3 3.59519 0.57272   2
   1   3   3 5.12957 0.78634   3
   1   3   3 6.31225 0.99543   3
   1   3   3 4.71517 0.76598   3
   1   3   3 6.34340 0.79207   3
   1   3   3 5.01750 0.67633   1
   1   3   3 5.07186 0.65039   1
   1   3   3 4.18101 0.68072   1
   1   3   3 3.91993 0.83234   1
  -2  -3  -3 115.424 10.2836   1
  -2  -3  -3 105.891 10.3598   1
  -2  -3  -3 110.340 11.2146   1
  -2  -3  -3 70.7896 6.70578   2
  -2  -3  -3 70.4794 6.68629   2
  -2  -3  -3 73.6543 7.27834   2
  -2  -3  -3 103.582 9.96749   3
  -2  -3  -3 107.390 10.0359   3
  -2  -3  -3 107.136 10.8650   3
   2   3   3 110.909 11.3237   3
   2   3   3 99.6411 11.8251   3
   2   3   3 102.927 9.99534   3
   2   3   3 106.413 9.98815   3
   2   3   3 69.5719 6.71205   2
   2   3   3 69.9826 6.70420   2
   2   3   3 70.3810 7.61564   2
   2   3   3 66.6728 7.95768   2
   2   3   3 109.461 10.3159   1
   2   3   3 108.725 10.3223   1
   2   3   3 105.457 12.2220   1
   2   3   3 106.296 11.7082   1
  -3  -3  -3 0.25262 0.66148   2
  -3  -3  -3 1.08617 0.63955   2
  -3  -3  -3 -0.2781 0.57596   3
  -3  -3  -3 0.59778 0.59077   1
   3   3   3 -0.0004 1.05366   1
   3   3   3 -0.1221 0.75497   1
   3   3   3 0.15997 0.91518   1
   3   3   3 -3.0600 1.09440   2
   3   3   3 -0.0927 0.73551   2
   3   3   3 -1.0028 1.02354   2
   3   3   3 0.46270 0.84766   3
   3   3   3 0.41393 0.85216   3
   3   3   3 0.01412 1.10436   3
  -4  -3  -3 13.6527 1.64365   1
  -4  -3  -3 26.5265 2.67837   3
  -4  -3  -3 5.61885 1.00177   2
   4   3   3 22.0715 2.32630   1
   4   3   3 24.1442 3.09748   3
   4   3   3 12.3874 1.79195   2
  -5  -3  -3 26.7311 2.92459   2
  -5  -3  -3 25.9694 3.09475   3
  -5  -3  -3 22.4994 2.53300   1
   5   3   3 26.9483 3.61127   2
   5   3   3 38.3551 3.97710   3
   5   3   3 25.8734 3.23711   1
   6  -4  -3 21.9342 3.01168   2
   6  -4  -3 34.0170 3.88537   2
   6  -4  -3 30.4879 3.88971   1
   6  -4  -3 24.7340 3.09117   1
   6  -4  -3 46.2195 5.47972   3
   6  -4  -3 42.9081 4.72514   3
  -6   4   3 40.6815 3.90092   1
  -6   4   3 32.6266 3.47621   2
   5  -4  -3 46.0095 4.49673   2
   5  -4  -3 52.8087 5.31404   2
   5  -4  -3 91.9091 9.41002   1
   5  -4  -3 81.2249 8.17741   1
   5  -4  -3 87.4328 8.79471   3
   5  -4  -3 77.6240 7.68618   3
  -5   4   3 40.0085 4.90334   2
  -5   4   3 75.1857 8.43216   3
  -5   4   3 87.3807 9.06004   1
   4  -4  -3 0.97596 0.58654   2
   4  -4  -3 0.97029 1.03634   2
   4  -4  -3 1.12683 0.65652   3
   4  -4  -3 1.79285 0.82164   3
   4  -4  -3 0.95845 0.89630   1
   4  -4  -3 2.04951 0.59151   1
  -4   4   3 0.60908 0.87504   1
  -4   4   3 0.79232 0.84096   3
  -4   4   3 0.09898 0.87178   2
   3  -4  -3 126.874 12.3095   1
   3  -4  -3 134.146 14.0071   1
   3  -4  -3 68.4904 6.57770   2
   3  -4  -3 71.3201 7.52707   2
   3  -4  -3 120.764 11.0952   3
   3  -4  -3 115.812 12.6164   3
  -3   4   3 132.959 13.4810   1
  -3   4   3 115.929 12.1336   3
  -3   4   3 69.0265 7.20936   2
  -3   4   3 69.0754 6.53102   2
  -3   4   3 70.1652 6.54116   2
   2  -4  -3 303.882 29.0632   3
   2  -4  -3 309.682 32.9881   3
   2  -4  -3 305.631 29.0610   3
   2  -4  -3 194.504 17.7481   2
   2  -4  -3 195.721 20.1571   2
   2  -4  -3 327.608 34.5599   1
   2  -4  -3 320.358 30.4538   1
   2  -4  -3 331.380 30.4462   1
  -2   4   3 322.528 30.3779   1
  -2   4   3 320.187 35.9948   1
  -2   4   3 312.400 30.3772   1
  -2   4   3 342.343 33.2153   1
  -2   4   3 177.605 19.3659   2
  -2   4   3 184.786 17.7041   2
  -2   4   3 190.973 17.7032   2
  -2   4   3 189.243 20.9913   2
  -2   4   3 309.125 28.9891   3
  -2   4   3 319.233 31.7016   3
  -2   4   3 312.952 34.3561   3
   1  -4  -3 24.3007 2.29368   3
   1  -4  -3 22.6314 2.53027   3
   1  -4  -3 188.729 18.7394  -2
   1  -4  -3 188.729 18.7394   1
  -1   4   3 24.1626 2.51350   3
  -1   4   3 21.7786 2.72829   3
  -1   4   3 24.1725 2.25578   3
  -1   4   3 154.691 14.5073  -3
  -1   4   3 154.691 14.5073   1
  -1   4   3 57.7193 6.48969   1
  -1   4   3 210.554 18.7101  -2
  -1   4   3 210.554 18.7101   1
   0  -4  -3 64.2520 6.09674   3
   0  -4  -3 67.6004 6.08491   3
   0  -4  -3 133.232 10.7371  -2
   0  -4  -3 133.232 10.7371   1
   0  -4  -3 106.058 10.7140  -2
   0  -4  -3 106.058 10.7140   1
   0  -4  -3 106.187 11.6956  -2
   0  -4  -3 106.187 11.6956   1
   0   4   3 60.7157 6.63657   3
   0   4   3 110.724 11.7012  -2
   0   4   3 110.724 11.7012   1
   0   4   3 151.994 15.0857  -3
   0   4   3 151.994 15.0857  -2
   0   4   3 151.994 15.0857   1
   0   4   3 171.776 17.9012  -3
   0   4   3 171.776 17.9012  -2
   0   4   3 171.776 17.9012   1
  -1  -4  -3 83.4151 7.94616   3
  -1  -4  -3 86.7318 8.67111   3
  -1  -4  -3 82.4592 7.97549   3
  -1  -4  -3 145.383 14.3794  -2
  -1  -4  -3 145.383 14.3794   1
  -1  -4  -3 153.294 14.4137  -2
  -1  -4  -3 153.294 14.4137   1
  -1  -4  -3 160.279 15.6943  -2
  -1  -4  -3 160.279 15.6943   1
   1   4   3 48.4283 6.36362   2
   1   4   3 56.6413 5.36785   2
   1   4   3 60.7794 5.37500   2
   1   4   3 58.6999 6.07212   2
   1   4   3 88.1170 9.68430   1
   1   4   3 91.8050 10.1598   1
   1   4   3 91.8661 8.55568   1
   1   4   3 91.3161 8.55345   1
   1   4   3 85.7468 8.99863   3
   1   4   3 79.3360 7.95498   3
   1   4   3 83.2257 9.44217   3
   1   4   3 86.4952 7.96088   3
  -2  -4  -3 5.81339 0.88434   2
  -2  -4  -3 6.67976 0.88909   2
  -2  -4  -3 4.92717 0.83257   2
  -2  -4  -3 15.5846 1.26835   1
  -2  -4  -3 11.5974 1.31310   1
  -2  -4  -3 7.06494 1.28024   3
  -2  -4  -3 11.2899 1.25691   3
   2   4   3 10.3844 1.32979   1
   2   4   3 8.04618 1.38904   1
   2   4   3 9.54840 1.25079   1
   2   4   3 5.96309 1.60289   1
   2   4   3 10.6462 1.28723   3
   2   4   3 9.24734 1.53233   3
   2   4   3 10.2715 1.33495   3
   2   4   3 12.0206 1.26150   3
   2   4   3 3.26319 1.14005   2
   2   4   3 7.48443 0.90359   2
   2   4   3 3.55582 0.95800   2
  -3  -4  -3 23.7711 3.02463   2
  -3  -4  -3 28.2819 2.74898   2
  -3  -4  -3 44.5053 4.26311   3
  -3  -4  -3 32.6923 3.63154   1
   3   4   3 40.7070 5.16823   3
   3   4   3 44.1101 4.85372   3
   3   4   3 49.0454 4.55002   1
   3   4   3 37.3027 4.26067   1
   3   4   3 25.8325 3.18155   2
   3   4   3 26.3173 3.29322   2
  -4  -4  -3 0.49737 0.94309   2
  -4  -4  -3 0.58923 0.86025   3
  -4  -4  -3 1.51882 0.82885   1
   4   4   3 1.35237 1.38269   1
   4   4   3 2.11914 1.31575   3
   4   4   3 0.95142 1.49818   2
   6  -5  -3 5.65655 2.07923   1
   6  -5  -3 5.72008 1.34765   1
   6  -5  -3 5.06224 2.15209   3
   6  -5  -3 7.24861 1.44018   3
   6  -5  -3 10.7719 2.28450   2
   6  -5  -3 4.06303 1.39640   2
  -6   5   3 8.03920 1.91540   1
  -6   5   3 10.4550 2.00399   2
   5  -5  -3 61.5984 6.28383   2
   5  -5  -3 53.7634 5.36291   2
   5  -5  -3 88.6734 8.99803   3
   5  -5  -3 101.901 10.2760   3
   5  -5  -3 99.8061 9.90718   1
   5  -5  -3 85.2767 8.62184   1
  -5   5   3 52.2571 5.87378   2
  -5   5   3 93.8407 9.89764   3
  -5   5   3 89.5497 9.49263   1
   4  -5  -3 6.12349 1.26027   2
   4  -5  -3 3.62416 0.70544   2
   4  -5  -3 7.72892 1.33830   3
   4  -5  -3 7.70231 1.03309   3
   4  -5  -3 12.0213 1.55493   1
   4  -5  -3 9.53873 1.16106   1
  -4   5   3 4.25165 0.96441   2
  -4   5   3 7.40368 1.29315   3
  -4   5   3 9.70930 1.54406   1
   3  -5  -3 42.7511 4.43214   2
   3  -5  -3 37.6052 3.83946   2
   3  -5  -3 93.7610 10.1921   1
   3  -5  -3 95.2908 8.95076   1
   3  -5  -3 67.9994 6.57427   3
   3  -5  -3 67.5152 7.48922   3
  -3   5   3 73.8749 7.23216   3
  -3   5   3 95.6939 9.82748   1
  -3   5   3 41.4599 4.25355   2
   2  -5  -3 339.482 31.8489  -2
   2  -5  -3 339.482 31.8489   1
   2  -5  -3 214.587 22.6104   1
   2  -5  -3 209.831 21.6296   3
   2  -5  -3 198.329 19.0605   3
   2  -5  -3 132.222 13.8903   2
  -2   5   3 119.977 13.3579   2
  -2   5   3 131.597 12.1863   2
  -2   5   3 134.827 14.4888   2
  -2   5   3 204.555 23.5732   1
  -2   5   3 218.049 21.7606   1
  -2   5   3 195.177 20.8030   3
  -2   5   3 207.007 22.5507   3
   1  -5  -3 118.104 11.7171  -2
   1  -5  -3 118.104 11.7171   1
   1  -5  -3 50.4807 4.60770   3
  -1   5   3 47.6603 5.04968   3
  -1   5   3 47.1000 4.56428   3
  -1   5   3 41.4538 4.33763   2
  -1   5   3 130.400 11.6918  -2
  -1   5   3 130.400 11.6918   1
  -1   5   3 69.0031 7.15511   1
   0  -5  -3 169.149 17.3912  -2
   0  -5  -3 169.149 17.3912   1
   0  -5  -3 108.366 11.0741   3
   0   5   3 245.011 24.7479  -3
   0   5   3 245.011 24.7479  -2
   0   5   3 245.011 24.7479   1
   0   5   3 288.440 29.3566  -3
   0   5   3 288.440 29.3566  -2
   0   5   3 288.440 29.3566   1
   0   5   3 169.959 17.3973  -2
   0   5   3 169.959 17.3973   1
   0   5   3 106.556 11.0822   3
  -1  -5  -3 17.6346 1.60792   3
  -1  -5  -3 11.4237 1.67723   3
  -1  -5  -3 16.5175 1.62283   3
  -1  -5  -3 22.6277 2.37069  -2
  -1  -5  -3 22.6277 2.37069   1
  -1  -5  -3 21.6825 2.46419  -2
  -1  -5  -3 21.6825 2.46419   1
  -1  -5  -3 21.3767 2.37612  -2
  -1  -5  -3 21.3767 2.37612   1
   1   5   3 7.76978 1.25379   2
   1   5   3 8.24384 1.05121   2
   1   5   3 24.0409 2.78077  -3
   1   5   3 24.0409 2.78077   1
   1   5   3 25.0944 3.22937  -3
   1   5   3 25.0944 3.22937   1
  -2  -5  -3 134.707 12.8046   2
  -2  -5  -3 127.431 13.8207   2
  -2  -5  -3 136.505 12.6767   2
  -2  -5  -3 187.025 20.2941   1
  -2  -5  -3 209.626 18.6020   1
  -2  -5  -3 194.418 20.9775   3
  -2  -5  -3 206.340 19.2315   3
   2   5   3 195.219 19.2381   3
   2   5   3 212.743 22.7960   3
   2   5   3 213.321 21.8371   3
   2   5   3 123.905 12.6766   2
   2   5   3 149.193 15.0573   2
   2   5   3 137.824 14.4077   2
   2   5   3 196.198 18.6262   1
   2   5   3 214.722 22.0836   1
   2   5   3 186.635 21.1402   1
  -3  -5  -3 22.8998 2.37702   1
  -3  -5  -3 10.2443 2.02353   2
  -3  -5  -3 9.16395 1.40764   2
  -3  -5  -3 25.3613 2.78000   3
   3   5   3 30.3919 3.46039   3
   3   5   3 25.2151 3.13504   3
   3   5   3 15.0955 1.87157   2
   3   5   3 17.8106 2.05225   2
   3   5   3 24.5260 2.83227   1
   3   5   3 20.2962 3.09000   1
  -4  -5  -3 1.25960 0.94877   1
  -4  -5  -3 3.03454 1.09227   3
  -4  -5  -3 4.05954 1.18003   2
   4   5   3 1.32126 1.45645   1
   4   5   3 0.90183 1.49148   2
   5  -6  -3 0.50523 0.72496   2
   5  -6  -3 7.53778 1.06772   1
   5  -6  -3 4.97099 1.55303   3
   5  -6  -3 2.09329 0.91971   3
  -5   6   3 4.95419 1.52845   1
  -5   6   3 3.96539 1.46588   3
  -5   6   3 -0.2695 1.08256   2
   4  -6  -3 73.3043 6.75795   1
   4  -6  -3 17.2540 1.95957   3
   4  -6  -3 11.6974 1.49121   3
   4  -6  -3 6.82826 0.90554   2
  -4   6   3 67.0822 7.45659   1
  -4   6   3 5.83764 1.13997   2
  -4   6   3 14.9821 1.88204   3
   3  -6  -3 67.3739 6.35288   3
   3  -6  -3 44.6589 3.88672   2
   3  -6  -3 89.7808 8.51203   1
  -3   6   3 66.1584 6.98827   3
  -3   6   3 34.7236 4.27794   2
  -3   6   3 90.7642 9.37698   1
   2  -6  -3 132.197 12.4105   2
   2  -6  -3 203.761 19.4382   3
   2  -6  -3 230.767 22.0370   1
  -2   6   3 139.405 14.7111   2
  -2   6   3 123.638 13.5671   2
  -2   6   3 236.907 24.0687   1
  -2   6   3 237.462 26.0849   1
  -2   6   3 212.451 23.0082   3
  -2   6   3 204.871 21.2291   3
  -1   6   3 6.71193 0.98769   2
  -1   6   3 20.0766 2.45330  -3
  -1   6   3 20.0766 2.45330   1
  -1   6   3 36.0657 4.33476  -2
  -1   6   3 36.0657 4.33476   1
  -1   6   3 35.9124 3.48816  -2
  -1   6   3 35.9124 3.48816   1
  -1   6   3 4.57031 0.53277   3
  -1   6   3 2.28357 0.89396   3
   0   6   3 154.847 15.4555  -3
   0   6   3 154.847 15.4555  -2
   0   6   3 154.847 15.4555   1
   0   6   3 127.033 12.9818  -3
   0   6   3 127.033 12.9818  -2
   0   6   3 127.033 12.9818   1
  -1  -6  -3 2.96250 1.37942  -2
  -1  -6  -3 2.96250 1.37942   1
  -1  -6  -3 5.74422 1.38098  -2
  -1  -6  -3 5.74422 1.38098   1
  -1  -6  -3 2.08648 0.79567   3
  -1  -6  -3 4.14760 0.77829   3
   1   6   3 6.02611 2.08543  -3
   1   6   3 6.02611 2.08543   1
   1   6   3 2.16892 0.98270   2
  -2  -6  -3 0.39034 0.71127   2
  -2  -6  -3 2.17809 0.76478   1
  -2  -6  -3 -1.1708 0.78258   3
   2   6   3 1.07218 0.78679   2
   2   6   3 -1.7565 1.09764   2
   2   6   3 0.74044 1.13992   3
   2   6   3 0.67775 0.77752   3
   2   6   3 -2.3417 1.25469   1
   2   6   3 1.97691 0.84670   1
   3   6   3 -0.8511 1.05500   2
   3   6   3 -2.6697 1.45091   2
   3   6   3 -0.1477 1.48092   3
   3   6   3 -6.2856 1.61711   1
  -4  -6  -3 11.1653 1.70976   3
  -4  -6  -3 8.85887 1.43987   1
   5  -7  -3 1.29629 0.85197   3
   5  -7  -3 0.10420 0.84814   1
   5  -7  -3 0.26895 0.84513   2
  -5   7   3 -0.3437 1.13356   2
  -5   7   3 -1.1898 1.50827   1
  -5   7   3 -0.7989 1.21692   3
   4  -7  -3 6.69991 0.84049   1
   4  -7  -3 2.07076 0.69010   3
   4  -7  -3 0.85892 0.60006   2
  -4   7   3 2.64200 1.18379   1
  -4   7   3 2.49961 1.12665   3
  -4   7   3 0.61234 0.89398   2
   3  -7  -3 82.1065 7.41155   2
   3  -7  -3 132.561 12.2136   3
   3  -7  -3 155.515 14.3364   1
  -3   7   3 124.688 13.3950   3
  -3   7   3 72.1505 8.14683   2
  -3   7   3 147.117 15.7079   1
   2  -7  -3 314.288 29.3322   3
   2  -7  -3 207.457 19.1032   2
   2  -7  -3 373.863 33.6284   1
  -2   7   3 308.932 32.0156   3
  -2   7   3 313.424 34.7039   3
  -2   7   3 193.497 22.6207   2
  -2   7   3 208.702 20.8775   2
  -2   7   3 344.016 36.6966   1
  -2   7   3 353.576 39.7885   1
   1  -7  -3 683.572 64.0998  -3
   1  -7  -3 683.572 64.0998  -2
   1  -7  -3 683.572 64.0998   1
  -1   7   3 202.035 20.7423   2
  -1   7   3 609.867 62.3763  -3
  -1   7   3 609.867 62.3763   1
   0   7   3 5.65984 1.17541  -3
   0   7   3 5.65984 1.17541  -2
   0   7   3 5.65984 1.17541   1
   0   7   3 8.77045 2.00782  -3
   0   7   3 8.77045 2.00782  -2
   0   7   3 8.77045 2.00782   1
  -1  -7  -3 0.04433 0.68263   1
  -1  -7  -3 0.43283 0.72549   2
  -1  -7  -3 0.65952 0.80403   3
  -1  -7  -3 0.34155 0.83542   3
  -1  -7  -3 0.82758 1.41583  -2
  -1  -7  -3 0.82758 1.41583   1
   1   7   3 -2.1732 2.20537  -3
   1   7   3 -2.1732 2.20537   1
   1   7   3 0.97156 1.31696  -2
   1   7   3 0.97156 1.31696   1
   1   7   3 0.24467 1.07608   2
   1   7   3 1.39745 0.69378   3
  -2  -7  -3 29.8133 3.66716   3
  -2  -7  -3 27.7143 3.18133   1
  -2  -7  -3 12.4433 2.03719   2
   2   7   3 21.4176 2.49920   2
   2   7   3 19.8936 1.92443   2
   2   7   3 28.3563 3.71306   1
   2   7   3 31.9814 3.11118   1
   2   7   3 34.8216 3.46045   3
   2   7   3 35.6115 4.19527   3
   3   7   3 45.4392 5.95361   2
   3   7   3 52.6533 4.99231   2
   3   7   3 85.4161 8.27505   3
   3   7   3 84.6614 9.80198   3
   3   7   3 75.7936 7.80358   1
   3   7   3 84.3479 9.33367   1
   5  -8  -3 0.84292 0.86900   2
   5  -8  -3 7.24271 1.16380   3
   5  -8  -3 10.3345 1.35975   1
  -5   8   3 8.79142 2.13466   1
  -5   8   3 4.32384 1.64538   3
  -5   8   3 1.48545 1.45502   2
   4  -8  -3 -0.1149 0.56420   2
   4  -8  -3 24.6887 2.39940   1
   4  -8  -3 0.42337 0.68409   3
  -4   8   3 19.7085 2.84084   1
  -4   8   3 0.30759 1.05213   2
  -4   8   3 -0.3319 1.21540   3
   3  -8  -3 0.39287 0.53871   2
   3  -8  -3 0.93334 0.61476   3
   3  -8  -3 29.2187 2.94751   1
  -3   8   3 30.0554 3.37922   1
  -3   8   3 -0.2117 1.10937   3
  -3   8   3 0.04394 0.95867   2
   2  -8  -3 2.26689 0.63862   3
   2  -8  -3 1.35606 0.52539   2
   2  -8  -3 3.22208 0.67592   1
  -2   8   3 0.96277 0.96274   3
  -2   8   3 1.46708 1.10762   3
  -2   8   3 2.58142 1.23921   1
  -2   8   3 1.96805 1.06673   1
  -2   8   3 1.48752 0.79668   2
  -2   8   3 1.25888 0.98979   2
   1  -8  -3 22.7047 2.64822   3
   1  -8  -3 15.7277 1.94450   1
   1  -8  -3 16.4808 1.93051   2
   1  -8  -3 54.6084 5.56466  -3
   1  -8  -3 54.6084 5.56466  -2
   1  -8  -3 54.6084 5.56466   1
  -1   8   3 13.5766 1.91280   2
  -1   8   3 34.8738 3.34801  -2
  -1   8   3 34.8738 3.34801   1
  -1   8   3 47.1964 5.20415  -3
  -1   8   3 47.1964 5.20415   1
  -1   8   3 60.0789 6.74239  -3
  -1   8   3 60.0789 6.74239  -2
  -1   8   3 60.0789 6.74239   1
   0  -8  -3 63.6048 5.31335  -3
   0  -8  -3 63.6048 5.31335  -2
   0  -8  -3 63.6048 5.31335   1
   0   8   3 49.0761 5.17496  -3
   0   8   3 49.0761 5.17496  -2
   0   8   3 49.0761 5.17496   1
   0   8   3 50.4408 6.43110  -3
   0   8   3 50.4408 6.43110  -2
   0   8   3 50.4408 6.43110   1
  -1  -8  -3 2.29626 1.71909  -2
  -1  -8  -3 2.29626 1.71909   1
  -1  -8  -3 1.33098 0.92638   1
  -1  -8  -3 1.46215 0.97719   2
  -1  -8  -3 0.36940 0.79445   3
  -1  -8  -3 0.66216 0.95521   3
   1   8   3 4.32035 2.59227  -3
   1   8   3 4.32035 2.59227   1
   1   8   3 1.17456 0.73145   3
   1   8   3 1.10690 1.49841  -2
   1   8   3 1.10690 1.49841   1
   1   8   3 0.52108 1.25720   2
  -2  -8  -3 4.14003 1.22979   1
  -2  -8  -3 3.81229 1.12207   2
  -2  -8  -3 7.49976 1.49381   3
   2   8   3 9.61492 1.82678   3
   2   8   3 9.46861 1.33428   3
   2   8   3 4.21842 0.96612   2
   2   8   3 3.42239 1.50439   2
   2   8   3 9.58375 1.27838   1
   2   8   3 9.98018 1.87599   1
   3   8   3 20.7215 2.51625   3
   3   8   3 22.8110 3.18404   3
   3   8   3 20.6110 2.50289   1
   3   8   3 21.2919 3.20680   1
   3   8   3 13.4497 1.75764   2
   3   8   3 10.0952 2.28281   2
   5  -9  -3 11.2011 1.49190   2
   5  -9  -3 23.8162 2.63332   1
   5  -9  -3 23.0662 2.47734   3
  -5   9   3 22.1346 3.06302   3
  -5   9   3 13.8059 2.10838   2
  -5   9   3 28.2937 3.34501   1
   4  -9  -3 1.68936 0.76928   1
   4  -9  -3 1.08596 0.78743   3
   4  -9  -3 -0.4379 0.64422   2
  -4   9   3 -0.1164 1.48256   1
  -4   9   3 -0.8964 1.06273   2
  -4   9   3 0.76306 1.51609   3
   3  -9  -3 0.19992 0.70158   1
   3  -9  -3 0.11429 0.61689   2
   3  -9  -3 0.61499 0.79375   3
  -3   9   3 1.24968 1.40873   1
  -3   9   3 -0.6913 0.96849   2
  -3   9   3 0.93829 1.14703   3
   2  -9  -3 60.7233 5.85580   1
   2  -9  -3 40.6390 3.89121   2
   2  -9  -3 64.9524 6.17911   3
  -2   9   3 61.7900 7.08664   1
  -2   9   3 61.0800 6.50364   1
  -2   9   3 43.4769 4.81581   2
  -2   9   3 35.8316 4.31852   2
  -2   9   3 63.7862 7.41028   3
  -2   9   3 63.6455 6.88056   3
   1  -9  -3 26.5504 3.33585   2
   1  -9  -3 36.4098 4.04102   3
   1  -9  -3 37.2929 4.09643   1
  -1   9   3 31.8145 3.36638   2
  -1   9   3 96.6710 11.1420  -3
  -1   9   3 96.6710 11.1420  -2
  -1   9   3 96.6710 11.1420   1
  -1   9   3 65.7818 7.10977  -3
  -1   9   3 65.7818 7.10977   1
   0  -9  -3 46.3156 4.99542  -3
   0  -9  -3 46.3156 4.99542   2
   0  -9  -3 82.4452 8.29979  -3
   0  -9  -3 82.4452 8.29979  -2
   0  -9  -3 82.4452 8.29979   1
   0  -9  -3 26.5869 3.01832   1
   0   9   3 87.5175 8.19854  -3
   0   9   3 87.5175 8.19854  -2
   0   9   3 87.5175 8.19854   1
   0   9   3 88.7005 9.96607  -3
   0   9   3 88.7005 9.96607  -2
   0   9   3 88.7005 9.96607   1
  -1  -9  -3 84.3375 7.61423   3
  -1  -9  -3 78.3719 8.29335   3
  -1  -9  -3 71.9046 7.58577   1
  -1  -9  -3 71.8137 6.92582   1
  -1  -9  -3 49.0754 5.46851   2
  -1  -9  -3 57.5061 5.07838   2
   1   9   3 46.5806 6.02086   2
   1   9   3 159.138 17.9991  -3
   1   9   3 159.138 17.9991   1
   1   9   3 75.2132 7.49661   3
   1   9   3 141.674 13.4296  -2
   1   9   3 141.674 13.4296   1
  -2  -9  -3 3.67923 1.28199   3
  -2  -9  -3 1.40749 1.13503   1
  -2  -9  -3 0.51138 1.07949   2
   2   9   3 0.88364 1.66063   1
   2   9   3 2.14429 1.04052   1
   2   9   3 0.83650 0.93235   2
   2   9   3 -0.0978 1.46082   2
   2   9   3 2.62842 1.59665   3
   2   9   3 0.09572 0.95021   3
   3   9   3 0.76545 2.10973   2
   3   9   3 1.18409 1.33010   2
   3   9   3 2.74106 2.20431   1
   3   9   3 5.07129 1.53860   1
   3   9   3 4.56434 1.51273   3
   3   9   3 5.05181 2.16342   3
   5 -10  -3 34.2817 3.69103   1
   5 -10  -3 17.1172 2.05865   3
   5 -10  -3 5.75908 1.52705   2
   4 -10  -3 13.0292 1.56597   2
   4 -10  -3 31.3688 3.10667   1
   4 -10  -3 28.2242 2.83412   3
  -4  10   3 22.7271 3.25232   3
  -4  10   3 25.9698 3.60878   1
  -4  10   3 15.4545 2.08589   2
   3 -10  -3 10.6679 1.30674   1
   3 -10  -3 3.25008 0.88506   3
   3 -10  -3 1.99458 0.70126   2
  -3  10   3 10.1856 1.82048   1
  -3  10   3 5.22388 1.54497   3
  -3  10   3 1.56557 1.31970   2
   2 -10  -3 10.5520 1.26079   3
   2 -10  -3 6.33473 1.66417   3
   2 -10  -3 9.23340 1.13112   1
   2 -10  -3 8.66465 1.52708   1
   2 -10  -3 5.97873 0.89933   2
  -2  10   3 8.02258 1.63267   3
  -2  10   3 10.7545 1.82955   3
  -2  10   3 4.83144 1.26013   2
  -2  10   3 5.59632 1.45766   2
  -2  10   3 6.76513 1.79818   1
  -2  10   3 8.86173 1.69960   1
   1 -10  -3 6.98816 1.28966   1
   1 -10  -3 10.1242 1.61952   3
   1 -10  -3 7.19787 1.35792   2
   0 -10  -3 8.29449 2.14801  -3
   0 -10  -3 8.29449 2.14801   2
   0 -10  -3 8.69846 2.14141  -3
   0 -10  -3 8.69846 2.14141  -2
   0 -10  -3 8.69846 2.14141   1
   0 -10  -3 1.95339 1.02470   1
   0  10   3 6.20231 1.54371  -3
   0  10   3 6.20231 1.54371  -2
   0  10   3 6.20231 1.54371   1
   0  10   3 4.39603 2.91530  -3
   0  10   3 4.39603 2.91530  -2
   0  10   3 4.39603 2.91530   1
  -1 -10  -3 27.1176 2.76700   3
  -1 -10  -3 21.8843 2.23826   3
  -1 -10  -3 17.0361 2.05265   1
  -1 -10  -3 15.4140 1.73056   1
  -1 -10  -3 8.73665 1.35943   2
  -1 -10  -3 7.44685 1.69002   2
   1  10   3 43.9073 6.00050  -3
   1  10   3 43.9073 6.00050   1
   1  10   3 12.2394 1.67928   1
   1  10   3 14.9291 1.99105   3
   1  10   3 10.3326 1.90386   2
   1  10   3 8.91295 1.18407   2
  -2 -10  -3 -0.4872 1.12479   2
  -2 -10  -3 -0.7770 1.22409   3
  -2 -10  -3 0.55284 1.24813   1
   2  10   3 -0.1933 1.74079   2
   2  10   3 0.34504 1.00903   2
   2  10   3 1.04675 1.75152   3
   2  10   3 -1.1622 1.03744   3
   2  10   3 -0.3774 1.10888   1
   2  10   3 -0.4290 1.98775   1
   4 -11  -3 12.7395 1.57775   3
   4 -11  -3 7.12078 1.22616   2
   4 -11  -3 12.1529 1.61660   1
  -4  11   3 6.61990 2.06146   3
  -4  11   3 12.8429 2.33415   1
  -4  11   3 8.05913 1.79881   2
   3 -11  -3 22.6506 2.37358   2
   3 -11  -3 51.9563 5.05745   1
   3 -11  -3 38.0534 3.60419   3
  -3  11   3 22.0157 2.92239   2
  -3  11   3 51.0034 5.75228   1
  -3  11   3 30.1409 4.06260   3
   2 -11  -3 0.95876 0.88947   1
   2 -11  -3 0.09958 1.20259   1
   2 -11  -3 1.68763 1.32415   3
   2 -11  -3 0.68226 1.03122   3
   2 -11  -3 1.28730 1.27621   2
   2 -11  -3 0.70243 0.77349   2
  -2  11   3 2.38110 1.54983   3
  -2  11   3 -1.3507 1.47246   3
  -2  11   3 1.37690 1.35823   1
  -2  11   3 0.08130 1.48128   1
  -2  11   3 0.44628 1.33783   2
  -2  11   3 0.55898 1.37315   2
   1 -11  -3 4.19308 2.23008  -3
   1 -11  -3 4.19308 2.23008   1
   1 -11  -3 1.88959 1.18190   2
  -1  11   3 -1.5946 3.48302  -3
  -1  11   3 -1.5946 3.48302  -2
  -1  11   3 -1.5946 3.48302   1
  -1  11   3 -0.1634 1.26099   2
   0 -11  -3 0.13991 2.38449  -3
   0 -11  -3 0.13991 2.38449  -2
   0 -11  -3 0.13991 2.38449   1
   0  11   3 -0.2291 2.13460  -3
   0  11   3 -0.2291 2.13460   1
   0  11   3 -1.1107 1.48805   2
  -1 -11  -3 19.9458 2.96965   3
  -1 -11  -3 19.4629 2.46956   3
  -1 -11  -3 10.6713 2.02700   2
  -1 -11  -3 9.71476 1.54383   2
  -1 -11  -3 21.7106 2.55887   1
  -1 -11  -3 16.2062 2.03138   1
   1  11   3 22.1271 2.29932   3
   1  11   3 10.9385 1.38587   2
   1  11   3 9.45055 2.19560   2
   1  11   3 15.4533 1.98911   1
   1  11   3 49.2182 6.84832  -3
   1  11   3 49.2182 6.84832   1
  -2 -11  -3 -0.0826 1.54107   2
  -2 -11  -3 -0.9417 1.49592   1
  -2 -11  -3 -1.6166 1.70194   3
   2  11   3 3.86926 2.21038   2
   2  11   3 -1.1131 1.20450   2
   2  11   3 -0.7077 1.34684   3
   2  11   3 0.38378 2.10165   3
   2  11   3 0.53135 2.35108   1
   2  11   3 0.11739 1.40865   1
   3 -12  -3 0.22303 1.47842   2
   3 -12  -3 0.82176 0.96951   2
   3 -12  -3 -0.4085 1.11211   3
   3 -12  -3 0.13904 1.56407   3
   3 -12  -3 0.60254 0.94535   1
   3 -12  -3 1.19111 1.71451   1
  -3  12   3 0.75035 1.62904   1
  -3  12   3 0.74893 1.47292   2
  -3  12   3 1.01299 1.86557   3
   2 -12  -3 5.02709 1.07173   2
   2 -12  -3 5.32402 1.53048   2
   2 -12  -3 10.8104 1.83859   1
   2 -12  -3 7.48120 1.99331   3
  -2  12   3 4.74871 1.57240   2
  -2  12   3 3.36884 1.53797   2
  -2  12   3 21.8318 4.34926  -3
  -2  12   3 21.8318 4.34926   1
  -2  12   3 9.09623 1.86481   3
  -2  12   3 7.47957 2.06215   1
   1 -12  -3 14.8342 1.80770   2
   1 -12  -3 18.9423 2.45571   2
   1 -12  -3 49.6704 6.09992  -3
   1 -12  -3 49.6704 6.09992   1
   1 -12  -3 50.2333 5.29140  -3
   1 -12  -3 50.2333 5.29140   1
  -1  12   3 54.1862 6.83690  -3
  -1  12   3 54.1862 6.83690   1
  -1  12   3 15.9229 2.51346   2
  -1  12   3 11.8792 2.41977   2
   0  12   3 0.68266 4.34108  -3
   0  12   3 0.68266 4.34108  -2
   0  12   3 0.68266 4.34108   1
  -1 -12  -3 11.1576 2.47183   3
  -1 -12  -3 11.0921 1.94800   3
  -1 -12  -3 8.20755 2.09815   1
  -1 -12  -3 7.25172 1.50533   1
  -1 -12  -3 3.82361 1.42417   2
  -1 -12  -3 4.44488 2.02615   2
   1  12   3 4.92853 1.06921   2
   1  12   3 3.09593 2.39466   2
   1  12   3 19.5762 5.83703  -3
   1  12   3 19.5762 5.83703   1
   1  12   3 6.58397 1.36610   1
   1  12   3 10.2232 1.53679   3
   3 -13  -3 4.73842 1.63729   2
   3 -13  -3 9.71718 2.03737   3
   3 -13  -3 10.5670 2.04438   1
   2 -13  -3 2.37692 1.85457  -3
   2 -13  -3 2.37692 1.85457   1
   2 -13  -3 5.28267 1.66354   1
   2 -13  -3 0.85090 1.82699   2
   2 -13  -3 3.60725 1.15500   2
   2 -13  -3 4.98171 1.84321   3
  -2  13   3 2.29583 1.76488   2
  -2  13   3 1.83448 1.95383   2
  -2  13   3 6.53209 4.27309  -3
  -2  13   3 6.53209 4.27309   1
  -2  13   3 4.91336 1.94572   1
  -2  13   3 3.40505 2.13194   3
   1 -13  -3 2.65013 1.75113   2
   1 -13  -3 5.01006 1.23774   2
   1 -13  -3 12.2651 2.88825  -3
   1 -13  -3 12.2651 2.88825   1
   1 -13  -3 7.03929 3.39623  -3
   1 -13  -3 7.03929 3.39623   1
  -1  13   3 12.1749 4.28190  -3
  -1  13   3 12.1749 4.28190   1
  -1  13   3 3.21927 1.78124   2
   0  13   3 5.96991 2.39849  -3
   0  13   3 5.96991 2.39849   1
   0  13   3 2.09917 2.10882   2
   0  14  -4 -0.5899 1.79120   2
   0  14  -4 5.69145 3.98768  -3
   0  14  -4 5.69145 3.98768   1
   0 -14   4 0.25587 1.49846  -3
   0 -14   4 0.25587 1.49846   1
   0 -14   4 0.59601 2.96506  -3
   0 -14   4 0.59601 2.96506   1
   0 -14   4 -0.4473 1.49466   2
   0 -14   4 -0.3853 0.88086   2
  -1  14  -4 34.2501 5.43619  -3
  -1  14  -4 34.2501 5.43619   1
  -1  14  -4 12.1298 2.41636   2
   1 -14   4 37.4251 5.12677  -3
   1 -14   4 37.4251 5.12677   1
   1 -14   4 40.8252 4.13050  -3
   1 -14   4 40.8252 4.13050   1
   1 -14   4 7.61276 1.17270   2
   1 -14   4 9.50016 2.04757   2
  -2  14  -4 2.27703 4.44464  -3
  -2  14  -4 2.27703 4.44464   1
  -2  14  -4 1.05603 1.64141   2
   2 -14   4 1.20726 0.71861   1
   2 -14   4 -0.3285 1.77282   1
   2 -14   4 0.02201 1.76425   2
   2 -14   4 0.86387 0.65948   2
   2 -14   4 -1.0462 1.72297   3
   2 -14   4 1.37677 0.69420   3
   1  13  -4 38.6441 5.51399  -3
   1  13  -4 38.6441 5.51399   1
   1  13  -4 10.4006 2.17333   2
  -1 -13   4 6.47669 1.60493   2
  -1 -13   4 8.10946 1.28341   2
  -1 -13   4 31.4452 3.85877  -3
  -1 -13   4 31.4452 3.85877   1
  -1 -13   4 22.2568 2.97287   3
  -1 -13   4 12.0317 2.01899   1
   0  13  -4 17.2259 3.53801  -3
   0  13  -4 17.2259 3.53801   1
   0  13  -4 7.34809 1.77020   2
   0 -13   4 10.5315 1.86222  -3
   0 -13   4 10.5315 1.86222   1
   0 -13   4 20.6301 2.88511  -3
   0 -13   4 20.6301 2.88511   1
   0 -13   4 2.58718 0.87868   2
   0 -13   4 3.36354 1.37336   2
  -1  13  -4 -0.9344 1.67212   2
  -1  13  -4 0.83687 2.85144  -3
  -1  13  -4 0.83687 2.85144   1
   1 -13   4 2.71829 1.59217  -3
   1 -13   4 2.71829 1.59217   1
   1 -13   4 -0.7232 2.55855  -3
   1 -13   4 -0.7232 2.55855   1
   1 -13   4 -0.1553 1.19825   2
   1 -13   4 0.17565 0.62823   2
  -2  13  -4 1.26872 1.46668   2
  -2  13  -4 9.00851 3.70795  -3
  -2  13  -4 9.00851 3.70795   1
   2 -13   4 4.63759 0.76662   3
   2 -13   4 3.56959 1.78000   3
   2 -13   4 3.57921 1.37837   1
   2 -13   4 2.96627 0.67468   1
   2 -13   4 1.83054 0.58508   2
   2 -13   4 2.39855 1.50796   2
  -3  13  -4 1.37987 2.02499   3
  -3  13  -4 5.32595 2.15585   1
   3 -13   4 -0.5269 2.56072   3
   3 -13   4 5.69696 2.32587   1
   2  12  -4 4.89008 0.95430   2
   2  12  -4 5.82224 1.87674   2
   2  12  -4 7.21981 2.21554   1
   2  12  -4 5.13573 1.25631   1
   2  12  -4 12.7980 2.40907   3
   2  12  -4 9.54334 1.29412   3
  -2 -12   4 6.41899 1.35234   3
  -2 -12   4 9.09932 1.99142   3
  -2 -12   4 7.22753 1.21540   1
  -2 -12   4 7.10877 1.56335   1
  -2 -12   4 0.60662 0.94212   2
  -2 -12   4 2.24375 1.33522   2
   1  12  -4 -1.2934 3.32454  -3
   1  12  -4 -1.2934 3.32454   1
   1  12  -4 0.71359 1.55891   2
  -1 -12   4 -1.4465 1.78142  -3
  -1 -12   4 -1.4465 1.78142   1
  -1 -12   4 -1.0402 1.34978   3
  -1 -12   4 0.34238 1.04077   1
  -1 -12   4 -0.4751 0.76857   2
  -1 -12   4 -0.1840 1.02232   2
   0  12  -4 38.0216 4.88769  -3
   0  12  -4 38.0216 4.88769   1
   0  12  -4 10.2635 1.85238   2
   0 -12   4 33.3582 3.60611  -3
   0 -12   4 33.3582 3.60611   1
   0 -12   4 40.6481 4.35191  -3
   0 -12   4 40.6481 4.35191   1
   0 -12   4 10.3720 1.27226   2
   0 -12   4 11.7828 1.85667   2
  -1  12  -4 18.9467 3.57494  -3
  -1  12  -4 18.9467 3.57494   1
  -1  12  -4 6.17844 1.81912   2
   1 -12   4 6.91446 1.36411   2
   1 -12   4 6.46821 0.88002   2
   1 -12   4 25.7786 3.36822  -3
   1 -12   4 25.7786 3.36822   1
   1 -12   4 25.8497 2.64445  -3
   1 -12   4 25.8497 2.64445   1
  -2  12  -4 -0.0108 1.48608   1
  -2  12  -4 -0.6795 1.24205   3
  -2  12  -4 -0.2032 1.30764   2
   2 -12   4 -0.3177 1.33762   3
   2 -12   4 -0.6261 0.47255   3
   2 -12   4 0.41472 1.24129   1
   2 -12   4 0.48831 0.45832   1
   2 -12   4 -0.3149 0.42810   2
   2 -12   4 0.07960 1.33738   2
  -3  12  -4 26.3725 3.70666   3
  -3  12  -4 25.5657 3.83204   1
   3 -12   4 32.2731 3.91859   1
   3 -12   4 29.1839 3.92625   3
   3  11  -4 0.67885 1.32794   1
   3  11  -4 0.69660 1.02825   2
   3  11  -4 -0.1340 1.16626   3
  -3 -11   4 0.61523 1.41639   1
  -3 -11   4 -0.7137 1.47975   2
  -3 -11   4 1.80590 1.58068   3
   2  11  -4 0.34130 0.78547   3
   2  11  -4 -0.1622 0.72366   2
   2  11  -4 1.44338 1.53163   2
   2  11  -4 0.64149 0.79920   1
   2  11  -4 0.71806 3.64192  -3
   2  11  -4 0.71806 3.64192   1
  -2 -11   4 -1.0155 1.20217   3
  -2 -11   4 -0.3931 0.84244   3
  -2 -11   4 -0.2793 0.71521   2
  -2 -11   4 0.50121 1.09013   2
  -2 -11   4 -0.4546 1.06780   1
  -2 -11   4 0.11534 0.80682   1
   1  11  -4 53.5775 4.94817  -3
   1  11  -4 53.5775 4.94817   1
   1  11  -4 52.0914 6.48517  -3
   1  11  -4 52.0914 6.48517   1
   1  11  -4 12.8604 2.04599   2
  -1 -11   4 19.9729 2.47372   1
  -1 -11   4 12.6101 1.68281   2
  -1 -11   4 11.3607 1.43352   2
  -1 -11   4 45.5441 5.10915  -3
  -1 -11   4 45.5441 5.10915   1
  -1 -11   4 27.5459 3.26937   3
   0  11  -4 -0.2213 1.25909   2
   0  11  -4 3.69681 2.55176  -3
   0  11  -4 3.69681 2.55176   1
   0 -11   4 2.75029 1.05983  -3
   0 -11   4 2.75029 1.05983   1
   0 -11   4 7.86004 1.91126  -3
   0 -11   4 7.86004 1.91126   1
   0 -11   4 0.07619 0.53532   2
   0 -11   4 0.09225 0.96182   2
  -1  11  -4 1.09484 1.35994   2
  -1  11  -4 0.19594 2.57882  -3
  -1  11  -4 0.19594 2.57882   1
   1 -11   4 1.89588 1.13300  -3
   1 -11   4 1.89588 1.13300   1
   1 -11   4 1.89810 1.22314   3
   1 -11   4 -0.2118 1.05338   2
   1 -11   4 0.22133 0.46421   2
   1 -11   4 1.89541 1.06921   1
  -2  11  -4 0.24696 1.73986   2
  -2  11  -4 0.28299 1.17241   2
  -2  11  -4 16.7964 2.55392   1
  -2  11  -4 20.7033 2.39293   1
  -2  11  -4 4.24820 1.37805   3
  -2  11  -4 2.05438 1.11430   3
   2 -11   4 0.88847 1.22719   2
   2 -11   4 5.71977 1.58442   2
   2 -11   4 5.33296 1.18966   3
   2 -11   4 5.07126 0.61415   3
   2 -11   4 22.6239 4.20943  -3
   2 -11   4 22.6239 4.20943   1
   2 -11   4 18.6567 1.87671   1
   2 -11   4 18.5842 2.35642   1
  -3  11  -4 80.2217 9.43084   1
  -3  11  -4 83.1725 8.98070   1
  -3  11  -4 4.06372 1.76747   3
  -3  11  -4 2.62755 1.20885   3
   3 -11   4 80.9689 9.45272   1
   3 -11   4 1.81563 2.01955   3
   3 -11   4 3.31277 1.44737   3
  -4  11  -4 -0.3494 1.61892   3
   4 -11   4 -0.8898 1.76653   3
   3  10  -4 12.9161 1.90668   2
   3  10  -4 15.8950 2.54573   2
   3  10  -4 30.3597 3.53758   3
   3  10  -4 40.5539 4.30667   3
   3  10  -4 34.9088 3.97526   1
   3  10  -4 25.8555 3.20460   1
  -3 -10   4 21.6468 2.36981   2
  -3 -10   4 32.1671 3.58103   1
  -3 -10   4 34.9036 4.05946   3
   2  10  -4 26.7584 3.10282   2
   2  10  -4 36.9827 3.87396   2
   2  10  -4 28.2257 3.85008   2
   2  10  -4 58.7797 6.32359   3
   2  10  -4 55.4435 5.47581   3
   2  10  -4 59.5070 6.69470   3
   2  10  -4 55.8094 6.33622   1
   2  10  -4 52.0813 6.05799   1
   2  10  -4 54.3568 5.18180   1
  -2 -10   4 63.6119 5.54469   3
  -2 -10   4 45.9970 6.02048   3
  -2 -10   4 32.3037 3.46795   2
  -2 -10   4 32.0801 3.17252   2
  -2 -10   4 50.5053 5.21770   1
  -2 -10   4 53.5737 5.73510   1
   1  10  -4 85.8098 9.67003   2
   1  10  -4 86.8349 8.02325   2
   1  10  -4 89.4720 9.28875   2
   1  10  -4 335.445 30.8291  -3
   1  10  -4 335.445 30.8291   1
   1  10  -4 339.138 36.6357  -3
   1  10  -4 339.138 36.6357   1
   1  10  -4 338.950 35.1555  -3
   1  10  -4 338.950 35.1555   1
  -1 -10   4 146.960 15.1639   1
  -1 -10   4 160.405 16.5812   3
  -1 -10   4 83.4526 8.85506   2
  -1 -10   4 79.9416 8.09068   2
  -1 -10   4 304.707 30.9202  -3
  -1 -10   4 304.707 30.9202   1
   0  10  -4 4.13251 1.13627   2
   0  10  -4 3.15378 1.23072   2
   0  10  -4 12.4527 2.63797  -3
   0  10  -4 12.4527 2.63797   1
   0  10  -4 10.5828 2.09245  -3
   0  10  -4 10.5828 2.09245   1
   0 -10   4 11.9414 1.41905  -3
   0 -10   4 11.9414 1.41905   1
   0 -10   4 10.2490 2.02251  -3
   0 -10   4 10.2490 2.02251   1
   0 -10   4 3.41324 0.62110   2
   0 -10   4 2.79851 0.95501   2
  -1  10  -4 0.72346 0.86035   3
  -1  10  -4 0.53116 1.28604   2
  -1  10  -4 0.47913 0.97131   2
  -1  10  -4 -0.2266 0.85986   1
  -1  10  -4 2.06643 2.37094  -3
  -1  10  -4 2.06643 2.37094   1
   1 -10   4 -0.5394 0.92067   2
   1 -10   4 0.26992 0.39890   2
   1 -10   4 0.15718 0.95520  -3
   1 -10   4 0.15718 0.95520   1
   1 -10   4 0.77983 0.88748   1
   1 -10   4 0.53198 0.91107   3
  -2  10  -4 1.97022 1.09511   2
  -2  10  -4 1.05179 1.05516   2
  -2  10  -4 3.25725 1.20877   2
  -2  10  -4 5.09482 1.27767   3
  -2  10  -4 3.75903 0.99131   3
  -2  10  -4 8.27763 1.62133   1
  -2  10  -4 11.8775 1.50869   1
   2 -10   4 3.00635 1.06182   2
   2 -10   4 3.98209 1.36630   2
   2 -10   4 10.0497 1.46300   1
   2 -10   4 9.17223 0.98127   1
   2 -10   4 15.5845 3.51554  -3
   2 -10   4 15.5845 3.51554   1
   2 -10   4 3.71100 0.51738   3
   2 -10   4 4.08603 1.02258   3
  -3  10  -4 -1.1197 1.56982   2
  -3  10  -4 0.64793 1.22633   2
  -3  10  -4 0.19272 1.11936   3
   3 -10   4 32.8321 3.63850   1
   3 -10   4 23.7092 3.28804   1
   3 -10   4 -0.8340 1.67228   3
   3 -10   4 0.94318 1.20308   3
   3 -10   4 -0.0531 1.24724   2
  -4  10  -4 53.7338 5.96445   1
  -4  10  -4 46.0576 5.43524   3
   4 -10   4 26.9548 2.83189   2
   4 -10   4 38.9777 3.77886   2
   4 -10   4 51.2843 6.02703   1
   4 -10   4 47.6129 5.49245   3
   4   9  -4 12.4276 2.37654   1
   4   9  -4 8.19935 1.89337   1
   4   9  -4 7.16057 2.01772   3
   4   9  -4 5.62333 1.59711   3
   4   9  -4 1.98877 2.15253   2
   4   9  -4 2.66299 1.36045   2
  -4  -9   4 6.33459 1.92770   3
  -4  -9   4 6.38287 1.74226   1
  -4  -9   4 1.24082 1.50696   2
   3   9  -4 6.59830 1.69739   2
   3   9  -4 4.11409 1.01652   2
   3   9  -4 7.05247 1.37932   1
   3   9  -4 11.1545 1.98251   1
   3   9  -4 9.82422 1.77956   3
   3   9  -4 6.31789 1.23558   3
  -3  -9   4 6.17119 1.51517   3
  -3  -9   4 3.09624 1.29826   2
  -3  -9   4 7.54775 1.48200   1
   2   9  -4 64.0730 7.14995   1
   2   9  -4 72.7748 5.94388   1
   2   9  -4 59.8227 6.80623   1
   2   9  -4 41.7787 4.21098   2
   2   9  -4 36.4805 4.35081   2
   2   9  -4 36.1456 3.43016   2
   2   9  -4 75.0642 8.25649   3
   2   9  -4 67.9276 6.85367   3
   2   9  -4 73.4820 7.88043   3
  -2  -9   4 29.0672 3.45217   2
  -2  -9   4 33.9436 3.79921   2
  -2  -9   4 71.3791 7.56414   3
  -2  -9   4 71.6970 6.89345   3
  -2  -9   4 54.0571 5.92331   1
  -2  -9   4 58.1985 6.46500   1
   1   9  -4 72.9141 6.58488   2
   1   9  -4 65.2313 7.93127   2
   1   9  -4 70.8422 7.63187   2
   1   9  -4 266.141 24.6190  -3
   1   9  -4 266.141 24.6190   1
   1   9  -4 275.235 29.2605  -3
   1   9  -4 275.235 29.2605   1
   1   9  -4 114.515 12.5832   1
   1   9  -4 142.609 14.9329   3
  -1  -9   4 134.968 14.3429   3
  -1  -9   4 119.074 12.0738   1
  -1  -9   4 248.383 24.6880  -3
  -1  -9   4 248.383 24.6880   1
  -1  -9   4 71.4887 6.64341   2
  -1  -9   4 64.3702 7.25952   2
   0   9  -4 4.64702 1.04838   3
   0   9  -4 8.47918 2.19080  -3
   0   9  -4 8.47918 2.19080   1
   0   9  -4 -0.5483 0.97098   2
   0   9  -4 2.51484 0.92829   2
   0   9  -4 4.30481 1.06407   1
   0  -9   4 7.58388 1.24128  -3
   0  -9   4 7.58388 1.24128   1
   0  -9   4 8.28950 1.77494  -3
   0  -9   4 8.28950 1.77494   1
   0  -9   4 1.82723 0.47304   2
   0  -9   4 3.19464 0.80761   2
  -1   9  -4 1.23482 0.92482   2
  -1   9  -4 1.12432 1.01741   2
  -1   9  -4 4.15097 0.86299   3
  -1   9  -4 4.46868 1.00322   1
  -1   9  -4 7.21558 2.12881  -3
  -1   9  -4 7.21558 2.12881   1
   1  -9   4 1.86318 0.82830   2
   1  -9   4 2.97195 0.43518   2
   1  -9   4 9.24047 1.16051  -3
   1  -9   4 9.24047 1.16051   1
   1  -9   4 7.40737 1.02660   1
   1  -9   4 3.37248 0.94156   3
  -2   9  -4 56.3377 6.37199   3
  -2   9  -4 65.9031 6.73517   3
  -2   9  -4 64.4246 8.07019   1
  -2   9  -4 68.3951 7.71001   1
  -2   9  -4 27.6453 3.50247   2
  -2   9  -4 30.9952 3.40803   2
  -2   9  -4 28.7766 3.68247   2
   2  -9   4 57.1537 5.51304   3
   2  -9   4 57.7878 6.15282   3
   2  -9   4 72.3659 6.68687   1
   2  -9   4 75.8376 7.41678   1
   2  -9   4 134.445 15.2050  -3
   2  -9   4 134.445 15.2050   1
   2  -9   4 32.1750 3.37109   2
   2  -9   4 32.5064 3.84639   2
  -3   9  -4 12.1804 2.07534   2
  -3   9  -4 13.3882 1.93053   2
  -3   9  -4 19.1277 2.54301   1
  -3   9  -4 25.1028 2.91687   3
   3  -9   4 16.2660 2.05860   2
   3  -9   4 9.95407 2.20486   2
   3  -9   4 22.5378 2.87692   1
   3  -9   4 22.3412 2.61571   1
   3  -9   4 25.3343 2.95628   3
   3  -9   4 21.4746 3.21107   3
  -4   9  -4 7.98597 1.64579   3
  -4   9  -4 1.58789 1.20856   1
   4  -9   4 5.26238 0.86030   3
   4  -9   4 5.50360 1.65582   3
   4  -9   4 2.43636 0.62853   2
   4  -9   4 0.43765 1.26231   2
   4  -9   4 5.96701 1.36702   1
   4  -9   4 4.52150 0.68078   1
   5  -9   4 71.1964 7.01068   3
   5  -9   4 77.1777 8.31968   3
   5  -9   4 52.4331 5.44550   2
   5  -9   4 39.2253 4.25133   2
   5  -9   4 61.8091 6.30616   1
   5  -9   4 76.1134 7.59940   1
   4   8  -4 2.19101 1.32086   3
   4   8  -4 4.53568 1.82277   3
   4   8  -4 1.46679 1.35812   1
   4   8  -4 4.84537 1.83503   1
   4   8  -4 -0.2651 1.24535   2
   4   8  -4 4.72827 1.73686   2
  -4  -8   4 4.51543 1.42894   2
  -4  -8   4 3.11588 1.36528   1
  -4  -8   4 4.83326 1.64978   3
   3   8  -4 0.07726 1.11515   3
   3   8  -4 0.97466 0.90739   3
   3   8  -4 0.99113 1.40691   2
   3   8  -4 -0.1341 0.81164   2
   3   8  -4 1.37832 0.93808   1
   3   8  -4 -0.4891 1.20667   1
  -3  -8   4 0.81598 1.07794   3
  -3  -8   4 1.60034 0.97847   1
  -3  -8   4 -0.4348 0.91487   2
   2   8  -4 7.66845 1.13643   3
   2   8  -4 9.65026 1.50372   3
   2   8  -4 8.88517 1.61329   3
   2   8  -4 6.02349 1.25864   2
   2   8  -4 4.35507 1.19499   2
   2   8  -4 3.84938 0.78386   2
   2   8  -4 10.9546 1.67971   1
   2   8  -4 7.57154 1.21929   1
   2   8  -4 10.8205 1.71336   1
  -2  -8   4 4.96569 0.96727   2
  -2  -8   4 3.09113 0.92006   2
  -2  -8   4 10.0256 1.38397   3
  -2  -8   4 8.58643 1.11862   3
  -2  -8   4 12.9231 1.50220   1
   1   8  -4 234.061 24.5269  -3
   1   8  -4 234.061 24.5269   1
   1   8  -4 213.379 20.6354  -3
   1   8  -4 213.379 20.6354   1
   1   8  -4 117.589 12.6583   3
   1   8  -4 64.1793 6.13153   2
   1   8  -4 62.2552 7.08755   2
   1   8  -4 67.7870 7.37021   2
   1   8  -4 111.468 12.2780   1
  -1  -8   4 63.8190 6.16272   2
  -1  -8   4 65.8063 6.74890   2
  -1  -8   4 116.397 11.7790   1
  -1  -8   4 117.722 12.1621   3
  -1  -8   4 216.417 20.6926  -3
  -1  -8   4 216.417 20.6926   1
   0   8  -4 51.4116 5.64183   1
   0   8  -4 55.6176 6.07298   3
   0   8  -4 92.2010 10.5177  -3
   0   8  -4 92.2010 10.5177   1
   0   8  -4 29.0736 3.20666   2
   0   8  -4 31.6517 3.37810   2
   0  -8   4 24.2170 3.00435   2
   0  -8   4 27.7550 2.69653   2
   0  -8   4 89.9326 9.68575  -3
   0  -8   4 89.9326 9.68575   1
   0  -8   4 95.7287 8.81370  -3
   0  -8   4 95.7287 8.81370   1
  -1   8  -4 -0.3885 0.69613   2
  -1   8  -4 0.59591 0.87662   2
  -1   8  -4 26.4688 2.88816   1
  -1   8  -4 26.2477 3.40337  -3
  -1   8  -4 26.2477 3.40337   1
  -1   8  -4 2.25008 0.74952   3
   1  -8   4 0.99341 0.28504   2
   1  -8   4 0.41179 0.66279   2
   1  -8   4 0.61303 0.31539   3
   1  -8   4 1.08570 0.69326   3
   1  -8   4 26.2995 2.41754   1
   1  -8   4 21.4046 2.72067   1
  -2   8  -4 4.27703 1.14291   3
  -2   8  -4 3.81027 0.82272   3
  -2   8  -4 1.72707 0.82877   2
  -2   8  -4 1.48086 0.81554   2
  -2   8  -4 3.00882 0.98714   2
  -2   8  -4 33.1124 3.70375   1
  -2   8  -4 33.1227 3.42624   1
  -2   8  -4 28.6772 3.29833   1
   2  -8   4 3.39160 0.87057   3
   2  -8   4 3.96378 0.49005   3
   2  -8   4 5.94359 1.32187   3
   2  -8   4 3.07088 1.03594   2
   2  -8   4 1.68634 0.77388   2
   2  -8   4 25.7998 3.26266   1
   2  -8   4 32.1939 3.71463   1
  -3   8  -4 5.62171 1.31908   2
  -3   8  -4 9.92527 1.54167   1
  -3   8  -4 10.4047 1.67557   3
   3  -8   4 4.94254 1.41697   2
   3  -8   4 8.95727 1.42112   2
   3  -8   4 5.54017 0.69379   2
   3  -8   4 11.5055 1.20805   3
   3  -8   4 14.1527 1.80065   3
   3  -8   4 10.3233 1.62466   1
   3  -8   4 18.1505 3.61936  -3
   3  -8   4 18.1505 3.61936   1
  -4   8  -4 13.6360 2.17673   3
  -4   8  -4 10.5863 2.05054   1
   4  -8   4 6.17558 0.84961   2
   4  -8   4 6.80207 1.62363   2
   4  -8   4 16.0051 1.68621   3
   4  -8   4 18.3922 2.30192   3
   4  -8   4 14.3534 2.19346   1
   4  -8   4 16.1348 1.53243   1
   5  -8   4 10.5251 1.46820   3
   5  -8   4 11.6948 2.32157   3
   5  -8   4 6.92494 1.13999   2
   5  -8   4 4.82126 2.07745   2
   5  -8   4 9.93808 1.32923   1
   5  -8   4 9.60631 2.15733   1
   4   7  -4 11.6594 1.97453   3
   4   7  -4 5.06922 1.29813   2
   4   7  -4 5.05027 1.59350   2
   4   7  -4 8.05342 1.69845   1
   4   7  -4 13.6626 2.10137   1
  -4  -7   4 8.38108 1.54321   2
  -4  -7   4 11.2614 1.95856   3
  -4  -7   4 10.8655 1.74224   1
   3   7  -4 -0.1167 1.08813   2
   3   7  -4 0.53931 0.83605   2
   3   7  -4 0.14429 1.15162   1
   3   7  -4 -0.1726 0.87972   1
   3   7  -4 0.05019 1.15274   3
   3   7  -4 -0.3745 0.86456   3
  -3  -7   4 0.10046 0.84678   1
  -3  -7   4 0.90594 0.86018   2
  -3  -7   4 -0.4936 0.89704   3
   2   7  -4 -0.1446 0.56619   2
   2   7  -4 0.58373 0.90116   2
   2   7  -4 0.62577 0.87889   2
   2   7  -4 -0.2057 1.02026   3
   2   7  -4 0.42960 0.91657   3
   2   7  -4 -0.1256 0.63017   3
   2   7  -4 0.35113 0.97984   1
   2   7  -4 0.29697 0.63390   1
   2   7  -4 0.33197 0.90621   1
  -2  -7   4 0.76459 0.55731   2
  -2  -7   4 0.30362 0.67852   2
  -2  -7   4 -0.5237 0.59228   1
  -2  -7   4 1.21459 0.71688   1
  -2  -7   4 1.21305 0.78570   3
  -2  -7   4 0.21841 0.83591   3
   1   7  -4 2.81531 0.96572   3
   1   7  -4 2.73181 0.74642   3
   1   7  -4 2.79895 0.53003   3
   1   7  -4 0.69499 0.82854   2
   1   7  -4 2.33263 0.86954   2
   1   7  -4 0.95717 0.44988   2
   1   7  -4 4.10994 0.57317   1
   1   7  -4 3.12139 0.97769   1
   1   7  -4 3.41493 0.81475   1
  -1  -7   4 0.67752 0.40428   2
  -1  -7   4 1.02008 0.63058   2
  -1  -7   4 1.95412 0.50312   3
  -1  -7   4 2.86408 0.73635   3
  -1  -7   4 2.64866 0.52028   1
  -1  -7   4 2.13860 0.69776   1
   0   7  -4 2.21168 0.78356   2
   0   7  -4 2.24832 0.83831   2
   0   7  -4 4.48043 0.79506   3
   0   7  -4 53.7051 5.85739   1
   0   7  -4 45.5351 4.00858  -3
   0   7  -4 45.5351 4.00858   1
   0  -7   4 1.04439 0.33807   2
   0  -7   4 1.49440 0.57826   2
   0  -7   4 29.7867 3.17933  -3
   0  -7   4 29.7867 3.17933   1
   0  -7   4 3.47676 0.81038   3
  -1   7  -4 4.61358 0.94196   2
  -1   7  -4 7.62204 1.04140   2
  -1   7  -4 14.8808 1.56983   3
  -1   7  -4 56.1421 5.80910   1
  -1   7  -4 66.5015 7.24949  -3
  -1   7  -4 66.5015 7.24949   1
   1  -7   4 5.21272 0.59609   2
   1  -7   4 5.43145 1.01247   2
   1  -7   4 4.50061 0.54669   2
   1  -7   4 6.34116 0.86024   2
   1  -7   4 10.4532 1.50272   3
   1  -7   4 11.5604 1.25769   3
   1  -7   4 12.1219 1.31404   3
   1  -7   4 60.0583 7.30863  -3
   1  -7   4 60.0583 7.30863   1
   1  -7   4 48.1197 5.55417   1
   1  -7   4 57.4017 5.04820   1
   1  -7   4 50.8553 5.05120   1
  -2   7  -4 1.48537 0.92301   2
  -2   7  -4 2.05984 0.68408   2
  -2   7  -4 2.33587 0.87259   2
  -2   7  -4 3.09699 0.84735   3
  -2   7  -4 4.15226 0.85558   3
  -2   7  -4 16.6680 1.49435   1
  -2   7  -4 7.30270 1.28411   1
  -2   7  -4 22.4982 3.02749  -3
  -2   7  -4 22.4982 3.02749   1
   2  -7   4 14.7392 3.10584  -3
   2  -7   4 14.7392 3.10584   1
   2  -7   4 5.56409 0.83367   3
   2  -7   4 3.80931 0.49858   3
   2  -7   4 3.39393 0.55185   3
   2  -7   4 9.31435 1.27126   1
   2  -7   4 11.3040 1.05509   1
   2  -7   4 9.41956 1.03885   1
   2  -7   4 3.08396 0.96302   2
   2  -7   4 1.22958 0.63927   2
  -3   7  -4 35.1121 3.76492   3
  -3   7  -4 22.3381 2.39533   2
  -3   7  -4 28.5732 3.62495   1
   3  -7   4 31.6769 3.72984   1
   3  -7   4 33.8218 3.08550   1
   3  -7   4 18.4757 1.83668   2
   3  -7   4 21.9761 2.40800   2
   3  -7   4 12.8167 2.38506   2
   3  -7   4 31.5658 3.14856   3
   3  -7   4 33.2709 3.79836   3
   3  -7   4 69.1887 8.22009  -3
   3  -7   4 69.1887 8.22009   1
  -4   7  -4 5.55514 1.24043   1
  -4   7  -4 4.24063 1.37001   3
   4  -7   4 5.57913 0.84467   3
   4  -7   4 5.22278 1.48902   3
   4  -7   4 5.30389 0.76021   1
   4  -7   4 3.54670 1.29708   1
   4  -7   4 2.19902 0.62975   2
   4  -7   4 3.53891 1.31978   2
   5  -7   4 0.70659 1.51774   1
   5  -7   4 -0.1083 0.76720   1
   5  -7   4 0.81859 1.00130   3
   5  -7   4 0.14102 1.72180   3
   5  -7   4 -1.1194 0.90569   2
   5  -7   4 -1.1791 1.40785   2
   5   6  -4 58.6829 6.58161   3
   5   6  -4 25.2653 3.47961   2
   5   6  -4 60.8137 6.81447   1
  -5  -6   4 20.4014 2.88358   2
  -5  -6   4 55.5295 5.85450   3
  -5  -6   4 52.7052 6.24662   3
  -5  -6   4 48.9613 6.22709   1
  -5  -6   4 68.8057 6.17640   1
   4   6  -4 32.9603 3.85329   2
   4   6  -4 35.7955 3.51398   2
   4   6  -4 50.3068 5.85356   3
   4   6  -4 58.1386 6.14009   1
  -4  -6   4 28.0212 3.56029   2
  -4  -6   4 53.1052 5.59784   3
  -4  -6   4 51.1224 5.79365   1
   3   6  -4 12.6586 1.40524   2
   3   6  -4 9.40616 1.67311   2
   3   6  -4 21.7454 2.48379   3
   3   6  -4 18.5012 2.13716   3
   3   6  -4 18.9383 2.42035   1
   3   6  -4 17.3897 2.04729   1
  -3  -6   4 11.0117 1.53762   2
  -3  -6   4 18.3707 2.36077   3
  -3  -6   4 18.9756 2.20643   1
   2   6  -4 2.50823 0.90993   3
   2   6  -4 1.32341 0.59928   3
   2   6  -4 0.91191 0.73101   3
   2   6  -4 3.52461 1.00168   1
   2   6  -4 1.12836 0.79783   2
   2   6  -4 -0.1081 0.50663   2
   2   6  -4 -0.5814 0.78578   2
  -2  -6   4 0.95754 0.62061   3
  -2  -6   4 1.02167 0.65107   3
  -2  -6   4 0.28032 0.52978   2
  -2  -6   4 0.00984 0.59078   2
   1   6  -4 6.44847 0.81435   2
   1   6  -4 4.94497 1.04582   2
   1   6  -4 6.62032 1.12692   2
   1   6  -4 12.1095 1.54829   3
   1   6  -4 14.4923 1.46004   3
   1   6  -4 8.31126 1.14213   3
   1   6  -4 12.5110 1.41354   1
   1   6  -4 8.65912 1.07709   1
   1   6  -4 9.12299 1.40091   1
  -1  -6   4 11.2667 1.26204   1
  -1  -6   4 12.0314 1.38421   3
  -1  -6   4 26.6387 2.74704  -3
  -1  -6   4 26.6387 2.74704   1
  -1  -6   4 7.75217 0.84408   2
  -1  -6   4 9.14474 1.01476   2
   0   6  -4 409.990 42.2944   3
   0   6  -4 399.877 37.1427   3
   0   6  -4 625.753 60.7755  -3
   0   6  -4 625.753 60.7755   1
   0   6  -4 680.633 72.0212  -3
   0   6  -4 680.633 72.0212   1
   0   6  -4 225.360 25.3599   2
   0   6  -4 237.900 24.3690   2
   0   6  -4 398.758 41.4590   1
   0  -6   4 647.241 60.8972  -3
   0  -6   4 647.241 60.8972   1
   0  -6   4 228.268 21.4163   2
   0  -6   4 227.858 23.3620   2
   0  -6   4 223.566 21.4163   2
   0  -6   4 380.366 40.5866   3
   0  -6   4 379.940 39.7730   1
  -1   6  -4 116.386 12.0084   1
  -1   6  -4 18.6843 2.10132   2
  -1   6  -4 23.5947 2.25024   2
  -1   6  -4 31.4305 3.74777   3
  -1   6  -4 157.471 17.0706  -3
  -1   6  -4 157.471 17.0706   1
   1  -6   4 113.994 11.5114   1
   1  -6   4 108.409 10.5263   1
   1  -6   4 112.007 10.5362   1
   1  -6   4 37.1091 3.26279   3
   1  -6   4 35.1879 3.61012   3
   1  -6   4 32.5296 3.22724   3
   1  -6   4 18.0014 1.72631   2
   1  -6   4 18.8538 2.23835   2
   1  -6   4 16.2746 1.73932   2
   1  -6   4 16.2677 1.97750   2
   1  -6   4 148.438 17.0801  -3
   1  -6   4 148.438 17.0801   1
  -2   6  -4 117.773 11.6566   1
  -2   6  -4 114.748 11.1632   1
  -2   6  -4 122.587 12.7339   3
  -2   6  -4 122.254 12.2048   3
  -2   6  -4 67.8649 7.16361   2
  -2   6  -4 74.5544 7.46407   2
  -2   6  -4 75.0937 6.83474   2
   2  -6   4 66.5941 7.45802   2
   2  -6   4 61.0242 6.21781   2
   2  -6   4 62.9353 6.21288   2
   2  -6   4 64.5876 6.81911   2
   2  -6   4 216.953 24.1757  -3
   2  -6   4 216.953 24.1757   1
   2  -6   4 106.953 10.1993   1
   2  -6   4 111.934 11.1576   1
   2  -6   4 99.2923 10.2020   1
   2  -6   4 116.998 12.1995   3
   2  -6   4 121.645 11.1642   3
   2  -6   4 112.993 11.1554   3
  -3   6  -4 0.20630 0.75214   1
  -3   6  -4 -0.0979 0.85404   2
  -3   6  -4 0.73423 0.92192   3
   3  -6   4 0.76488 0.84752   3
   3  -6   4 1.36932 0.50577   3
   3  -6   4 2.33338 2.46832  -3
   3  -6   4 2.33338 2.46832   1
   3  -6   4 0.51596 0.41546   2
   3  -6   4 -0.1377 0.91472   2
   3  -6   4 -0.0782 0.87003   2
   3  -6   4 2.08742 0.88353   1
   3  -6   4 0.52160 0.41161   1
  -4   6  -4 55.5941 6.00560   1
  -4   6  -4 61.1540 6.53145   3
   4  -6   4 27.3262 2.92945   2
   4  -6   4 35.4610 3.59653   2
   4  -6   4 56.8381 5.61951   3
   4  -6   4 59.5633 6.57577   3
   4  -6   4 54.8332 6.05216   1
   4  -6   4 53.1597 5.19113   1
   5  -6   4 8.83982 1.37490   3
   5  -6   4 7.50097 1.94827   3
   5  -6   4 5.12959 0.99948   1
   5  -6   4 7.68089 1.74506   1
   5  -6   4 4.01990 1.04628   2
   5  -6   4 5.24590 1.84523   2
   5   5  -4 64.6383 7.63248   1
   5   5  -4 83.4422 8.37206   3
   5   5  -4 50.0022 5.19616   2
  -5  -5   4 37.5068 4.32135   2
  -5  -5   4 38.4386 4.63644   2
  -5  -5   4 66.2163 8.02179   3
  -5  -5   4 74.5004 7.42286   3
  -5  -5   4 74.4759 7.28009   1
  -5  -5   4 64.0142 6.61804   1
   4   5  -4 73.7676 8.29083   2
   4   5  -4 113.494 12.3735   1
   4   5  -4 117.525 13.5190   3
  -4  -5   4 75.2662 7.84324   2
  -4  -5   4 135.688 11.8936   3
  -4  -5   4 122.346 12.9648   3
  -4  -5   4 122.229 10.8291   1
  -4  -5   4 106.026 11.8339   1
   3   5  -4 143.899 14.9737   3
   3   5  -4 135.344 13.1628   3
   3   5  -4 151.998 14.8320   1
   3   5  -4 133.778 13.0092   1
   3   5  -4 83.3202 7.73740   2
   3   5  -4 80.7142 8.81431   2
  -3  -5   4 79.3056 8.40823   2
  -3  -5   4 138.938 13.1637   3
  -3  -5   4 139.156 14.3604   3
  -3  -5   4 138.991 12.9765   1
  -3  -5   4 128.663 14.1730   1
   2   5  -4 0.70165 0.71919   2
   2   5  -4 0.59153 0.48555   2
   2   5  -4 0.61034 0.56799   1
   2   5  -4 0.51680 0.65802   1
   2   5  -4 0.60850 0.75169   1
   2   5  -4 0.12680 0.51904   3
   2   5  -4 0.27564 0.67614   3
   2   5  -4 0.13871 0.73831   3
  -2  -5   4 0.43772 0.62960   3
  -2  -5   4 0.00359 0.57087   3
  -2  -5   4 0.37791 0.60434   3
  -2  -5   4 0.44363 0.62027   2
  -2  -5   4 -0.1503 0.50536   2
  -2  -5   4 0.16591 0.55496   1
  -2  -5   4 0.51487 0.55965   1
  -2  -5   4 0.58026 0.42282   1
   1   5  -4 31.1121 3.38823   2
   1   5  -4 30.3705 3.53375   2
   1   5  -4 25.8815 2.90858   2
   1   5  -4 65.6851 6.52975   1
   1   5  -4 73.8753 7.48068   1
   1   5  -4 69.4983 7.76954   1
   1   5  -4 50.3666 5.08894   3
   1   5  -4 57.3103 6.07198   3
   1   5  -4 54.6982 5.82154   3
  -1  -5   4 142.284 12.9183  -3
  -1  -5   4 142.284 12.9183   1
  -1  -5   4 128.920 14.1081  -3
  -1  -5   4 128.920 14.1081   1
  -1  -5   4 140.261 12.9452  -3
  -1  -5   4 140.261 12.9452   1
  -1  -5   4 29.8789 3.18182   2
  -1  -5   4 33.2270 2.92533   2
  -1  -5   4 31.2984 2.93591   2
   0   5  -4 174.924 19.1036   2
   0   5  -4 178.835 16.7444   2
   0   5  -4 189.081 16.7431   2
   0   5  -4 170.577 19.8789   2
   0   5  -4 311.599 28.7930   3
   0   5  -4 302.363 32.7850   3
   0   5  -4 630.222 52.8405  -3
   0   5  -4 630.222 52.8405   1
   0   5  -4 569.858 62.6098  -3
   0   5  -4 569.858 62.6098   1
   0   5  -4 310.295 28.4785   1
   0   5  -4 321.511 32.4376   1
   0  -5   4 179.794 16.7920   2
   0  -5   4 180.571 19.8807   2
   0  -5   4 173.225 16.7863   2
   0  -5   4 179.655 18.3123   2
   0  -5   4 302.970 31.1115   1
   0  -5   4 284.537 28.5402   1
   0  -5   4 307.851 31.4628   3
   0  -5   4 492.862 52.9352  -3
   0  -5   4 492.862 52.9352   1
  -1   5  -4 127.722 12.9675  -3
  -1   5  -4 127.722 12.9675   1
  -1   5  -4 37.1124 3.54116   2
  -1   5  -4 36.1717 3.38067   2
  -1   5  -4 52.1453 5.74045   3
  -1   5  -4 73.3582 7.53305   1
   1  -5   4 56.0985 5.51144   3
   1  -5   4 51.6886 5.03545   3
   1  -5   4 70.1865 7.20403   1
   1  -5   4 67.7891 6.59376   1
   1  -5   4 113.282 12.9619  -3
   1  -5   4 113.282 12.9619   1
   1  -5   4 111.262 10.8935  -3
   1  -5   4 111.262 10.8935   1
   1  -5   4 30.1441 2.87334   2
   1  -5   4 25.9753 2.86802   2
   1  -5   4 32.0356 3.53382   2
   1  -5   4 30.7814 3.17551   2
  -2   5  -4 0.29124 0.59287   3
  -2   5  -4 -0.1529 0.46275   3
  -2   5  -4 -0.0326 0.71678   2
  -2   5  -4 0.50456 0.43610   2
  -2   5  -4 0.14107 0.47504   1
  -2   5  -4 0.62330 0.56172   1
   2  -5   4 -0.0756 0.39947   2
   2  -5   4 -0.1072 0.30781   2
   2  -5   4 -0.0022 0.67796   2
   2  -5   4 0.17229 0.28590   2
   2  -5   4 0.78433 0.39134   3
   2  -5   4 0.04939 0.43805   3
   2  -5   4 -0.1680 0.42840   3
   2  -5   4 -0.0715 0.41737   1
   2  -5   4 0.61250 0.32109   1
   2  -5   4 1.29898 1.68118  -3
   2  -5   4 1.29898 1.68118   1
  -3   5  -4 1072.08 105.298   1
  -3   5  -4 617.948 64.9635   2
  -3   5  -4 1060.23 112.517   3
   3  -5   4 993.126 92.7025   1
   3  -5   4 892.170 105.296   1
   3  -5   4 999.048 109.627   1
   3  -5   4 626.491 64.9711   2
   3  -5   4 611.534 57.1651   2
   3  -5   4 585.990 67.5986   2
   3  -5   4 1066.69 112.527   3
   3  -5   4 1052.93 117.148   3
   3  -5   4 1049.54 99.0693   3
  -4   5  -4 32.9690 4.22638   3
   4  -5   4 18.3657 2.14708   2
   4  -5   4 25.3556 2.73021   2
   4  -5   4 33.0633 4.11857   1
   4  -5   4 37.3060 3.50787   1
   4  -5   4 36.7752 3.61761   3
   4  -5   4 40.5689 4.32539   3
   5  -5   4 20.8701 2.32765   3
   5  -5   4 20.6412 2.89470   3
   5  -5   4 7.03585 1.93058   2
   5  -5   4 11.0419 1.38805   2
   5  -5   4 18.4396 2.07280   1
   5  -5   4 21.2675 2.88710   1
   5   4  -4 24.5658 3.45487   2
   5   4  -4 43.9583 5.12649   3
   5   4  -4 45.5947 5.35391   1
  -5  -4   4 46.8389 5.05951   1
  -5  -4   4 42.1764 4.54543   1
  -5  -4   4 25.9262 2.74871   2
  -5  -4   4 24.9706 3.10006   2
  -5  -4   4 46.8080 4.55915   3
  -5  -4   4 41.7095 4.88209   3
   4   4  -4 40.0361 4.79804   3
   4   4  -4 33.5993 4.50543   1
   4   4  -4 26.4700 3.38500   2
  -4  -4   4 39.8649 4.30130   1
  -4  -4   4 45.8498 4.00584   1
  -4  -4   4 29.2155 2.88074   2
  -4  -4   4 26.6940 3.14120   2
  -4  -4   4 42.2129 4.61398   3
  -4  -4   4 43.6988 4.28760   3
   3   4  -4 80.3550 8.62838   3
   3   4  -4 79.8587 7.60795   3
   3   4  -4 42.8985 4.80455   2
   3   4  -4 55.4631 5.51393   2
   3   4  -4 76.3429 8.05439   1
   3   4  -4 71.7130 7.10765   1
  -3  -4   4 54.1697 5.22032   2
  -3  -4   4 46.1003 4.75955   2
  -3  -4   4 79.3166 8.28760   3
  -3  -4   4 78.7098 7.58975   3
  -3  -4   4 69.0883 7.03471   1
  -3  -4   4 80.2004 7.71187   1
   2   4  -4 20.6682 2.34956   1
   2   4  -4 17.9814 2.48689   1
   2   4  -4 20.3490 2.11302   1
   2   4  -4 14.5986 1.62631   2
   2   4  -4 14.2978 1.65622   2
   2   4  -4 10.5978 1.32464   2
   2   4  -4 14.3663 1.39630   2
   2   4  -4 20.6234 2.27435   3
   2   4  -4 19.5048 2.66436   3
   2   4  -4 26.8664 2.58836   3
   2   4  -4 24.2853 2.29578   3
  -2  -4   4 20.2697 2.22162   1
  -2  -4   4 23.2548 2.07506   1
  -2  -4   4 18.9215 2.03370   1
  -2  -4   4 21.2019 2.27179   3
  -2  -4   4 24.0702 2.29274   3
  -2  -4   4 20.7782 2.43668   3
  -2  -4   4 9.82981 1.30138   2
  -2  -4   4 12.9833 1.46476   2
  -2  -4   4 12.5651 1.31930   2
   1   4  -4 41.1126 4.28346   1
   1   4  -4 37.7391 3.59274   1
   1   4  -4 28.1611 4.09641   1
   1   4  -4 5.77807 0.94400   2
   1   4  -4 5.18547 0.70492   2
   1   4  -4 8.61215 0.97804   2
   1   4  -4 12.1275 1.20009   3
   1   4  -4 9.00717 1.34796   3
   1   4  -4 14.9122 1.55747   3
   1   4  -4 9.50020 1.14934   3
  -1  -4   4 10.9297 1.28498   3
  -1  -4   4 13.1453 1.21551   3
  -1  -4   4 56.8708 5.41011  -3
  -1  -4   4 56.8708 5.41011   1
  -1  -4   4 42.6209 3.59144   1
  -1  -4   4 6.38232 0.71783   2
  -1  -4   4 5.85076 0.69554   2
  -1  -4   4 5.69194 0.77731   2
   0   4  -4 64.4623 5.92183   3
   0   4  -4 63.1904 6.77383   3
   0   4  -4 151.184 13.3872  -3
   0   4  -4 151.184 13.3872   1
   0   4  -4 135.794 15.8973  -3
   0   4  -4 135.794 15.8973   1
   0   4  -4 36.7514 4.09426   2
   0   4  -4 38.5726 4.24205   2
   0   4  -4 36.3208 3.52802   2
   0   4  -4 39.2089 3.52285   2
   0   4  -4 88.3195 9.64728   1
   0   4  -4 89.9516 8.44675   1
   0  -4   4 60.6330 6.48788   3
   0  -4   4 39.7138 3.87451   2
   0  -4   4 36.0270 4.24564   2
   0  -4   4 39.8763 3.54805   2
   0  -4   4 30.8216 3.55861   2
   0  -4   4 142.064 13.4225  -3
   0  -4   4 142.064 13.4225   1
   0  -4   4 138.725 15.8991  -3
   0  -4   4 138.725 15.8991   1
   0  -4   4 91.4846 9.23983   1
  -1   4  -4 71.2783 7.54525   3
  -1   4  -4 39.7664 4.28632   2
  -1   4  -4 75.1057 7.81328   1
   1  -4   4 69.1147 7.21922   3
   1  -4   4 70.5245 6.62480   3
   1  -4   4 39.0354 4.47015   2
   1  -4   4 37.4896 3.71535   2
   1  -4   4 38.4549 3.71890   2
   1  -4   4 42.6161 4.06628   2
   1  -4   4 134.732 12.5784  -3
   1  -4   4 134.732 12.5784   1
   1  -4   4 132.584 14.9255  -3
   1  -4   4 132.584 14.9255   1
   1  -4   4 75.2294 7.46026   1
   1  -4   4 68.7328 6.84427   1
  -2   4  -4 0.82418 0.39288   2
  -2   4  -4 0.64349 0.55600   2
  -2   4  -4 2.43957 0.51146   1
  -2   4  -4 3.87442 0.68992   1
  -2   4  -4 2.28741 0.63006   3
  -2   4  -4 2.64848 0.46254   3
   2  -4   4 0.86210 0.60172   2
   2  -4   4 0.53653 0.35456   2
   2  -4   4 1.62558 0.37101   2
   2  -4   4 1.72133 0.45850   1
   2  -4   4 3.21352 0.43649   1
   2  -4   4 2.55108 0.44147   1
   2  -4   4 1.96171 0.49876   3
   2  -4   4 2.05318 0.41426   3
   2  -4   4 1.17507 0.43429   3
   2  -4   4 11.5701 2.06055  -3
   2  -4   4 11.5701 2.06055   1
  -3   4  -4 -1.5625 0.74414   2
  -3   4  -4 0.05091 0.75298   3
  -3   4  -4 0.95659 0.76716   1
   3  -4   4 -0.8736 0.99469   3
   3  -4   4 0.80452 0.49433   3
   3  -4   4 0.43259 0.77656   3
   3  -4   4 2.02635 1.00759   1
   3  -4   4 4.78558 0.95201   1
   3  -4   4 2.05350 0.47784   1
   3  -4   4 0.30825 0.88163   2
   3  -4   4 0.39225 0.44904   2
   3  -4   4 0.12868 0.76158   2
   4  -4   4 97.4350 10.4012   1
   4  -4   4 94.4964 9.04964   1
   4  -4   4 53.5708 5.03892   2
   4  -4   4 50.0440 5.83083   2
   4  -4   4 93.7411 10.0050   3
   4  -4   4 90.8934 8.74582   3
   5  -4   4 45.4206 4.69241   1
   5  -4   4 34.9133 3.85911   1
   5  -4   4 50.0437 4.76719   3
   5  -4   4 44.3300 5.49290   3
   5  -4   4 26.7120 2.79343   2
   5  -4   4 26.0734 3.43448   2
   5   3  -4 -0.2278 1.44392   2
   5   3  -4 2.47729 1.41811   3
   5   3  -4 2.38705 1.40176   1
  -5  -3   4 1.37952 0.92123   1
  -5  -3   4 1.99652 1.42108   1
  -5  -3   4 3.22866 1.06017   3
  -5  -3   4 2.94573 1.24746   3
  -5  -3   4 0.90062 1.19896   2
  -5  -3   4 0.69108 1.01853   2
   4   3  -4 -1.2228 1.17554   2
   4   3  -4 -0.1867 0.96669   1
   4   3  -4 1.96156 1.08705   3
  -4  -3   4 -0.4968 0.73269   3
  -4  -3   4 0.68655 0.89727   3
  -4  -3   4 0.73404 0.72329   2
  -4  -3   4 0.15163 0.83630   2
  -4  -3   4 0.43276 0.64151   1
  -4  -3   4 1.87446 0.89253   1
   3   3  -4 2.47623 0.70709   2
   3   3  -4 4.36331 0.92370   2
   3   3  -4 2.98156 0.75159   2
   3   3  -4 4.90885 0.94038   3
   3   3  -4 4.74076 0.94291   3
   3   3  -4 4.87988 0.98041   3
   3   3  -4 5.20307 0.94631   1
   3   3  -4 5.13748 1.07848   1
   3   3  -4 5.10948 0.84129   1
  -3  -3   4 7.00828 0.86083   1
  -3  -3   4 5.06415 0.92054   1
  -3  -3   4 3.47276 0.79993   2
  -3  -3   4 1.77589 0.71344   2
  -3  -3   4 6.86237 1.05662   3
  -3  -3   4 5.88809 0.92192   3
   2   3  -4 1.29722 0.50112   2
   2   3  -4 0.33812 0.43267   2
   2   3  -4 0.94164 0.65513   2
   2   3  -4 1.47027 0.46584   2
   2   3  -4 2.29017 0.64970   1
   2   3  -4 2.12893 0.49033   1
   2   3  -4 1.63503 0.54899   1
   2   3  -4 1.81187 0.53194   1
   2   3  -4 1.98132 0.63283   3
   2   3  -4 1.59587 0.51054   3
   2   3  -4 0.74846 0.52012   3
   2   3  -4 1.79745 0.68692   3
  -2  -3   4 0.74526 0.46602   2
  -2  -3   4 0.78054 0.42534   2
  -2  -3   4 0.73503 0.44597   2
  -2  -3   4 0.65334 0.56564   2
  -2  -3   4 2.81608 0.59327   3
  -2  -3   4 1.63677 0.45438   3
  -2  -3   4 1.76219 0.46411   3
  -2  -3   4 2.58919 0.56004   1
  -2  -3   4 1.45253 0.45137   1
  -2  -3   4 1.53982 0.62643   1
  -2  -3   4 4.30646 0.57582   1
   1   3  -4 29.9957 3.45884   1
   1   3  -4 28.8680 2.91457   1
   1   3  -4 33.9258 2.92965   1
   1   3  -4 30.7424 3.34056   1
   1   3  -4 21.0600 2.26466   3
   1   3  -4 22.6619 1.97814   3
   1   3  -4 18.6990 1.95276   3
   1   3  -4 18.7403 2.30850   3
   1   3  -4 9.31816 1.09071   2
   1   3  -4 11.3671 1.13636   2
   1   3  -4 14.1387 1.39852   2
   1   3  -4 9.46996 1.29388   2
  -1  -3   4 12.2100 1.32531   2
  -1  -3   4 11.0573 1.12237   2
  -1  -3   4 9.44806 1.18425   2
  -1  -3   4 10.1888 1.11243   2
  -1  -3   4 27.2181 3.46101   1
  -1  -3   4 31.9870 2.91660   1
  -1  -3   4 29.8565 3.16867   1
  -1  -3   4 22.4395 1.97230   3
  -1  -3   4 18.2496 2.35359   3
  -1  -3   4 17.9499 2.14014   3
  -1  -3   4 49.7760 4.74514  -3
  -1  -3   4 49.7760 4.74514   1
   0   3  -4 90.2977 9.64240   1
   0   3  -4 90.9504 8.45166   1
   0   3  -4 1.34665 0.27903   2
   0   3  -4 0.62672 0.50617   2
   0   3  -4 1.70444 0.47094   3
   0   3  -4 1.14392 0.28300   3
   0  -3   4 100.022 9.42186  -3
   0  -3   4 100.022 9.42186   1
   0  -3   4 100.252 11.1688  -3
   0  -3   4 100.252 11.1688   1
   0  -3   4 3.15085 0.49010   2
   0  -3   4 1.12433 0.27467   2
   0  -3   4 1.22853 0.29620   2
   0  -3   4 88.9250 9.22552   1
   0  -3   4 2.01847 0.35192   3
  -1   3  -4 101.000 8.60413   1
  -1   3  -4 80.5863 9.82690   1
  -1   3  -4 96.4782 8.60476   1
  -1   3  -4 84.1417 9.07421   3
  -1   3  -4 88.4178 7.93827   3
  -1   3  -4 79.0770 7.93584   3
  -1   3  -4 43.2105 4.87970   2
   1  -3   4 45.7548 4.61736   2
   1  -3   4 45.3711 5.07419   2
   1  -3   4 46.9046 4.25728   2
   1  -3   4 42.8389 4.25305   2
   1  -3   4 86.8408 7.97028   3
   1  -3   4 84.9362 8.67253   3
   1  -3   4 85.5597 7.97923   3
   1  -3   4 83.0515 8.63608   1
   1  -3   4 95.8485 9.39974   1
   1  -3   4 86.1864 8.63957   1
   1  -3   4 173.200 19.2608  -3
   1  -3   4 173.200 19.2608   1
  -2   3  -4 4.06274 0.58023   1
  -2   3  -4 1.37682 0.41926   1
  -2   3  -4 -0.1864 0.55948   3
  -2   3  -4 0.14050 0.36892   3
  -2   3  -4 -1.0418 0.57121   2
  -2   3  -4 0.02518 0.29982   2
   2  -3   4 -0.1726 0.36278   2
   2  -3   4 -0.6810 0.56379   2
   2  -3   4 0.57066 0.61929   2
   2  -3   4 -0.3875 0.38799   3
   2  -3   4 0.97092 0.69074   3
  -3   3  -4 1.13213 0.72597   1
  -3   3  -4 0.14061 0.80960   3
  -3   3  -4 0.47422 0.80314   2
   3  -3   4 0.54893 0.96633   3
   3  -3   4 -0.2886 0.51864   3
   3  -3   4 0.11859 0.84046   3
   3  -3   4 2.33568 0.80919   1
   3  -3   4 2.35089 0.97947   1
   3  -3   4 0.21234 0.48090   2
   3  -3   4 -0.1678 0.81589   2
   3  -3   4 -1.3734 0.85709   2
   4  -3   4 133.337 12.9871   2
   4  -3   4 144.290 14.8577   2
   4  -3   4 214.611 20.4314   1
   4  -3   4 220.752 23.2721   1
   4  -3   4 230.279 24.2982   3
   4  -3   4 224.146 21.3416   3
   5  -3   4 -0.9669 1.47355   3
   5  -3   4 0.05003 1.08532   3
   5  -3   4 1.12430 1.33930   1
   5  -3   4 -0.5166 0.87144   1
   5  -3   4 1.23088 1.63150   2
   5   2  -4 50.8721 6.21910   3
   5   2  -4 55.8129 5.83044   1
   5   2  -4 36.7024 4.13922   2
  -5  -2   4 32.7393 3.48076   2
  -5  -2   4 32.4892 3.92011   2
  -5  -2   4 59.8833 5.44263   3
  -5  -2   4 55.2557 6.04317   3
  -5  -2   4 49.6049 5.01020   1
  -5  -2   4 49.0665 5.54511   1
   4   2  -4 57.6881 6.15191   1
   4   2  -4 56.9246 5.35537   1
   4   2  -4 51.2015 5.26307   3
   4   2  -4 52.1535 5.92469   3
   4   2  -4 34.3396 3.64410   2
   4   2  -4 28.2477 3.19670   2
  -4  -2   4 29.8569 3.44522   2
  -4  -2   4 31.1714 3.15345   2
  -4  -2   4 53.9856 5.82855   1
  -4  -2   4 52.8930 5.30633   1
  -4  -2   4 51.1078 5.68093   3
  -4  -2   4 57.7247 5.17559   3
   3   2  -4 4.20444 0.76205   3
   3   2  -4 3.01245 0.75950   3
   3   2  -4 4.94275 0.81981   3
   3   2  -4 2.77813 0.71232   2
   3   2  -4 2.85465 0.82607   2
   3   2  -4 2.00268 0.65480   2
   3   2  -4 3.87626 0.69846   1
   3   2  -4 4.74098 0.82668   1
   3   2  -4 3.37353 0.91895   1
  -3  -2   4 2.59130 0.59739   3
  -3  -2   4 2.09174 0.78616   3
  -3  -2   4 2.29815 0.66112   2
  -3  -2   4 1.71590 0.56917   2
  -3  -2   4 4.00891 0.65256   1
  -3  -2   4 3.37357 0.76621   1
   2   2  -4 257.477 24.7789   2
   2   2  -4 268.017 24.8135   2
   2   2  -4 282.352 28.2035   2
   2   2  -4 249.298 29.3097   2
   2   2  -4 444.506 47.1191   3
   2   2  -4 436.805 49.0191   3
   2   2  -4 450.058 41.4966   3
   2   2  -4 448.612 41.4295   3
   2   2  -4 459.231 40.2915   1
   2   2  -4 403.403 47.6013   1
   2   2  -4 435.898 45.7544   1
   2   2  -4 429.458 40.2299   1
  -2  -2   4 441.678 40.2150   1
  -2  -2   4 410.129 47.6002   1
  -2  -2   4 434.683 40.2910   1
  -2  -2   4 426.015 43.9031   1
  -2  -2   4 269.176 24.7697   2
  -2  -2   4 270.230 27.0432   2
  -2  -2   4 249.802 29.3070   2
  -2  -2   4 274.965 24.8160   2
  -2  -2   4 432.419 45.2174   3
  -2  -2   4 441.384 41.4202   3
  -2  -2   4 442.580 49.0215   3
  -2  -2   4 442.983 41.4946   3
   1   2  -4 121.252 11.3073   1
   1   2  -4 121.031 11.2933   1
   1   2  -4 117.815 12.8505   1
   1   2  -4 36.2896 3.70449   2
   1   2  -4 39.0806 4.25653   2
   1   2  -4 42.2126 3.70966   2
   1   2  -4 66.1824 6.55010   3
   1   2  -4 69.0345 6.53552   3
   1   2  -4 64.8329 7.43851   3
  -1  -2   4 72.5267 7.13837   3
  -1  -2   4 73.9269 6.54857   3
  -1  -2   4 121.474 12.3184   1
  -1  -2   4 119.357 11.3066   1
  -1  -2   4 36.7383 4.02400   2
  -1  -2   4 37.2471 3.69078   2
  -1  -2   4 42.7698 3.70404   2
  -1  -2   4 191.664 17.9657  -3
  -1  -2   4 191.664 17.9657   1
   0   2  -4 197.572 18.5003   2
   0   2  -4 191.074 21.0581   2
   0   2  -4 401.236 37.6331   1
   0   2  -4 410.733 42.8121   1
   0   2  -4 324.051 30.4691   3
   0   2  -4 338.544 34.6658   3
   0  -2   4 201.764 20.1764   2
   0  -2   4 198.103 18.5285   2
   0  -2   4 732.915 74.8285  -3
   0  -2   4 732.915 74.8285   1
   0  -2   4 394.941 37.6972   1
   0  -2   4 314.990 30.5212   3
  -1   2  -4 41.5951 3.84493   3
  -1   2  -4 38.3249 4.41113   3
  -1   2  -4 18.3400 2.40766   2
  -1   2  -4 28.2643 2.08101   2
  -1   2  -4 20.5233 2.07649   2
  -1   2  -4 46.9301 5.03542   1
  -1   2  -4 48.2544 4.39061   1
  -1   2  -4 91.4500 7.98498  -3
  -1   2  -4 91.4500 7.98498   1
   1  -2   4 75.3175 9.49870  -3
   1  -2   4 75.3175 9.49870   1
   1  -2   4 21.4531 2.09259   2
   1  -2   4 17.6704 2.48322   2
   1  -2   4 44.2462 4.41263   1
   1  -2   4 41.4557 3.86760   3
  -2   2  -4 23.8720 3.19312   3
  -2   2  -4 30.9006 2.76513   3
  -2   2  -4 30.7370 2.78438   3
  -2   2  -4 49.6576 4.03018   1
  -2   2  -4 36.6876 4.05239   1
  -2   2  -4 33.9877 4.65887   1
  -2   2  -4 15.6659 2.10427   2
  -2   2  -4 17.5466 1.71357   2
  -2   2  -4 16.9897 1.84881   2
  -2   2  -4 20.5532 1.74768   2
   2  -2   4 17.0967 2.15424   2
   2  -2   4 18.5816 2.13015   2
   2  -2   4 16.5778 1.76928   2
   2  -2   4 30.4836 2.82366   3
   2  -2   4 27.8975 3.21312   3
   2  -2   4 27.2751 3.41610   3
   2  -2   4 45.1795 4.90510   1
   2  -2   4 45.8794 4.69098   1
   2  -2   4 41.3741 4.07583   1
  -3   2  -4 3.59919 0.83794   3
  -3   2  -4 2.90343 0.42541   3
  -3   2  -4 1.22540 0.38095   2
  -3   2  -4 4.27765 1.02513   1
   3  -2   4 2.19296 0.59450   3
   3  -2   4 2.20520 0.98036   3
   3  -2   4 2.69709 0.87615   3
   3  -2   4 2.06811 0.88192   2
   3  -2   4 0.40806 0.88636   2
   3  -2   4 1.67748 0.56481   2
   3  -2   4 5.28355 1.03011   1
   3  -2   4 4.99432 1.12830   1
  -4   2  -4 2.97572 0.52336   2
  -4   2  -4 10.0397 1.14677   3
  -4   2  -4 9.69275 1.11310   1
   4  -2   4 11.3196 1.69130   1
   4  -2   4 11.6570 1.30956   1
   4  -2   4 13.7278 1.76507   3
   4  -2   4 10.5923 1.35417   3
   4  -2   4 5.01281 1.28341   2
   4  -2   4 6.09550 0.89129   2
   5  -2   4 6.97518 1.32218   2
   5  -2   4 6.34312 1.93576   2
   5  -2   4 9.40775 1.90687   3
   5  -2   4 11.1111 1.58393   3
   5  -2   4 13.0830 2.12490   1
   5  -2   4 9.74354 1.51205   1
   6   1  -4 13.2225 3.77398   2
   5   1  -4 -0.7869 1.43792   2
   5   1  -4 0.53206 0.98665   1
   5   1  -4 -0.2418 1.16203   1
   5   1  -4 1.63917 1.29120   3
   5   1  -4 1.97488 1.15907   3
  -5  -1   4 1.11048 1.13076   1
  -5  -1   4 -0.2457 0.68707   1
  -5  -1   4 0.22709 0.79422   2
  -5  -1   4 -0.0756 1.02769   2
  -5  -1   4 0.53660 0.83795   3
  -5  -1   4 1.02464 1.09712   3
   4   1  -4 14.0677 2.32972   1
   4   1  -4 6.52465 1.39957   2
   4   1  -4 3.63880 0.96578   2
   4   1  -4 11.7842 1.71234   3
   4   1  -4 12.3987 1.56532   3
  -4  -1   4 6.99770 1.07924   2
  -4  -1   4 6.83645 0.88081   2
  -4  -1   4 23.6352 2.00936   1
  -4  -1   4 17.6672 2.27227   1
  -4  -1   4 13.5602 1.41402   3
  -4  -1   4 10.8258 1.60318   3
   3   1  -4 0.94862 0.71396   2
   3   1  -4 0.55002 0.59852   2
   3   1  -4 1.03449 0.55758   2
   3   1  -4 0.81937 0.71969   3
   3   1  -4 1.16388 0.63431   3
   3   1  -4 0.62465 0.69454   1
   3   1  -4 2.87997 0.54516   1
  -3  -1   4 0.68705 0.42379   2
  -3  -1   4 1.25280 0.60087   2
  -3  -1   4 2.90977 0.47973   1
  -3  -1   4 1.37605 0.60451   1
  -3  -1   4 2.00456 0.63419   3
  -3  -1   4 1.17886 0.49201   3
   2   1  -4 779.137 80.5730   1
   2   1  -4 774.115 70.8545   1
   2   1  -4 770.836 70.9653   1
   2   1  -4 456.335 48.7893   2
   2   1  -4 470.798 42.8996   2
   2   1  -4 468.624 42.9616   2
   2   1  -4 741.763 71.1693   3
   2   1  -4 780.394 71.0551   3
   2   1  -4 738.164 80.8004   3
  -2  -1   4 449.168 50.7572   2
  -2  -1   4 456.550 46.8128   2
  -2  -1   4 436.527 42.8798   2
  -2  -1   4 470.815 42.9604   2
  -2  -1   4 710.755 70.8345   1
  -2  -1   4 746.764 70.9647   1
  -2  -1   4 763.525 77.3246   1
  -2  -1   4 761.019 71.0451   3
  -2  -1   4 752.914 77.5472   3
  -2  -1   4 780.257 71.1669   3
  -2  -1   4 1475.44 163.408  -3
  -2  -1   4 1475.44 163.408   1
   1   1  -4 111.753 10.7244   3
   1   1  -4 111.421 10.7451   3
   1   1  -4 115.102 12.2037   3
   1   1  -4 152.125 14.5935   1
   1   1  -4 158.872 16.6022   1
   1   1  -4 155.516 14.6139   1
   1   1  -4 68.6918 6.93646   2
   1   1  -4 74.2771 7.90426   2
   1   1  -4 72.1366 6.93852   2
  -1  -1   4 153.248 15.9195   1
  -1  -1   4 158.395 14.6157   1
  -1  -1   4 73.9873 7.55269   2
  -1  -1   4 76.1405 6.93738   2
  -1  -1   4 75.8010 6.92461   2
  -1  -1   4 115.832 11.7046   3
  -1  -1   4 116.964 10.7430   3
  -1  -1   4 271.114 25.1208  -3
  -1  -1   4 271.114 25.1208   1
  -1  -1   4 265.278 29.7424  -3
  -1  -1   4 265.278 29.7424   1
   0   1  -4 0.40562 0.30515   1
   0   1  -4 0.18574 0.24770   1
   0   1  -4 0.03947 0.29607   1
   0   1  -4 -0.2988 0.26784   2
   0   1  -4 0.01558 0.29917   2
   0   1  -4 -0.0301 0.28452   3
   0   1  -4 0.32230 0.23024   3
   0   1  -4 0.55043 0.31642   3
   0  -1   4 -0.2512 0.25662   2
   0  -1   4 0.15841 0.17122   2
   0  -1   4 0.39823 0.25717   2
   0  -1   4 0.10026 0.18952   1
   0  -1   4 0.09988 0.27921   1
   0  -1   4 -0.0465 0.25834   3
   0  -1   4 -0.0748 0.21697   3
   0  -1   4 0.49482 0.74667  -3
   0  -1   4 0.49482 0.74667   1
  -1   1  -4 1399.30 153.088   1
  -1   1  -4 1479.99 134.617   1
  -1   1  -4 1401.01 128.762   3
  -1   1  -4 1385.36 146.427   3
  -1   1  -4 858.801 81.7324   2
  -1   1  -4 894.604 92.9555   2
   1  -1   4 865.551 96.7857   2
   1  -1   4 876.118 81.8701   2
   1  -1   4 1366.45 128.791   3
   1  -1   4 1352.71 128.979   3
   1  -1   4 2736.41 303.062  -3
   1  -1   4 2736.41 303.062   1
   1  -1   4 1437.10 134.845   1
  -2   1  -4 127.963 11.7249   3
  -2   1  -4 127.244 13.3618   3
  -2   1  -4 129.489 13.9314   1
  -2   1  -4 137.199 12.2211   1
  -2   1  -4 79.9995 7.83440   2
  -2   1  -4 77.9430 8.24709   2
  -2   1  -4 75.6307 7.20081   2
   2  -1   4 119.526 14.5211   1
   2  -1   4 133.427 12.2603   1
   2  -1   4 127.876 13.9431   1
   2  -1   4 122.422 13.9271   3
   2  -1   4 120.771 13.3675   3
   2  -1   4 71.1050 8.56427   2
   2  -1   4 76.5619 8.23865   2
   2  -1   4 75.1191 7.22929   2
  -3   1  -4 17.9999 1.89245   1
  -3   1  -4 18.7688 2.07675   3
  -3   1  -4 7.47585 1.00808   2
   3  -1   4 25.0345 2.39964   1
   3  -1   4 15.8609 2.39196   1
   3  -1   4 19.4243 1.98955   1
   3  -1   4 21.9349 2.20193   3
   3  -1   4 24.0131 2.65896   3
   3  -1   4 21.4577 2.48862   3
   3  -1   4 11.3568 1.49570   2
   3  -1   4 12.5029 1.18722   2
   3  -1   4 11.9090 1.46944   2
  -4   1  -4 10.7290 1.28530   2
  -4   1  -4 25.9598 2.40160   1
  -4   1  -4 24.2380 2.46216   3
   4  -1   4 23.3685 2.55900   3
   4  -1   4 26.1020 3.05678   3
   4  -1   4 26.1523 2.59979   1
   4  -1   4 18.9101 2.91618   1
   4  -1   4 11.1004 1.82971   2
   4  -1   4 14.9471 1.49501   2
  -5   1  -4 4.32762 0.88861   2
  -5   1  -4 6.23513 1.04954   3
  -5   1  -4 5.19712 0.84204   1
   5  -1   4 5.65218 1.29517   1
   5  -1   4 6.07370 1.64841   1
   5  -1   4 4.29081 1.28731   2
   5  -1   4 2.26805 1.85408   2
   5  -1   4 8.56202 1.46240   3
   5  -1   4 7.95157 1.74633   3
   6   0  -4 -1.8098 2.11603   2
   6   0  -4 -0.6179 1.31648   1
   6   0  -4 -1.4409 1.81205   1
   6   0  -4 2.39251 1.77640   3
   6   0  -4 0.89964 1.61626   3
  -6   0   4 -0.0369 1.82664   1
  -6   0   4 -0.5790 0.97961   1
  -6   0   4 1.20327 1.65431   2
  -6   0   4 0.05630 1.04787   2
  -6   0   4 -0.5698 0.95014   3
  -6   0   4 0.09377 1.68907   3
   5   0  -4 0.91692 0.93066   1
   5   0  -4 2.15104 1.37962   1
   5   0  -4 -1.2973 1.13716   3
   5   0  -4 1.70151 1.24588   3
   5   0  -4 -0.6751 0.93710   2
   5   0  -4 -0.4714 1.24090   2
  -5   0   4 0.35089 1.25385   1
  -5   0   4 1.53075 0.72334   1
  -5   0   4 -1.5970 0.72298   3
  -5   0   4 1.15031 1.18844   3
  -5   0   4 0.55671 0.75043   2
  -5   0   4 -0.5426 1.12439   2
   4   0  -4 4.54108 0.81907   1
   4   0  -4 5.68507 1.10805   1
   4   0  -4 2.55869 0.99578   2
   4   0  -4 2.25906 0.70462   2
   4   0  -4 6.12944 0.99215   3
   4   0  -4 2.91648 0.98640   3
  -4   0   4 5.26581 0.78714   3
  -4   0   4 3.78152 0.97682   3
  -4   0   4 3.57665 0.96906   1
  -4   0   4 3.82514 0.68665   1
  -4   0   4 2.11768 0.88435   2
  -4   0   4 1.52551 0.59491   2
   3   0  -4 99.1097 8.98247   1
   3   0  -4 99.2751 10.2318   1
   3   0  -4 85.9715 10.2736   3
   3   0  -4 104.774 9.06317   3
   3   0  -4 57.0072 6.36459   2
   3   0  -4 63.7957 5.57939   2
  -3   0   4 54.1117 5.54535   2
  -3   0   4 59.6468 6.07784   2
  -3   0   4 97.9627 9.80221   1
  -3   0   4 86.7624 8.94299   1
  -3   0   4 99.0171 9.87720   3
  -3   0   4 94.1934 9.02103   3
   2   0  -4 0.51575 0.34999   2
   2   0  -4 0.22740 0.35642   2
   2   0  -4 -1.7437 0.46582   2
   2   0  -4 1.08585 0.51346   3
   2   0  -4 -1.0306 0.42717   3
   2   0  -4 -0.2407 0.38303   3
   2   0  -4 506.857 44.1214   1
  -2   0   4 0.40737 0.36934   2
  -2   0   4 1.71017 0.34190   2
  -2   0   4 1.05465 0.39664   2
  -2   0   4 0.81644 0.37861   2
  -2   0   4 -1.7624 0.42608   3
  -2   0   4 0.61041 0.35842   3
  -2   0   4 0.54542 0.43623   3
  -2   0   4 476.380 44.0375   1
  -2   0   4 428.668 44.1171   1
  -2   0   4 553.035 61.2691  -3
  -2   0   4 553.035 61.2691   1
   1   0  -4 144.490 13.7353   1
   1   0  -4 148.012 13.7552   1
   1   0  -4 144.998 15.6164   1
   1   0  -4 65.5364 6.29596   2
   1   0  -4 65.8738 7.16258   2
   1   0  -4 63.5672 6.29518   2
   1   0  -4 108.251 11.0467   3
   1   0  -4 101.332 9.73176   3
   1   0  -4 101.689 9.71416   3
  -1   0   4 148.009 14.9861   1
  -1   0   4 105.385 9.72926   3
  -1   0   4 99.7756 9.71106   3
  -1   0   4 104.038 10.6032   3
  -1   0   4 218.105 21.1715  -2
  -1   0   4 218.105 21.1715   1
  -1   0   4 232.912 21.1348  -2
  -1   0   4 232.912 21.1348   1
  -1   0   4 67.8294 7.43806   2
  -1   0   4 70.5145 6.85900   2
  -1   0   4 237.445 26.3369  -3
  -1   0   4 237.445 26.3369   1
   0   0  -4 1.00941 0.33745   2
   0   0  -4 1.39565 0.33712   2
   0   0  -4 0.52850 0.37137   2
   0   0  -4 94.7786 8.74360   1
   0   0  -4 91.2867 8.75681   1
   0   0  -4 2.78481 0.39495   3
   0   0  -4 2.57607 0.42439   3
   0   0  -4 2.50769 0.42657   3
   0   0   4 11.0511 1.55053  -3
   0   0   4 11.0511 1.55053  -2
   0   0   4 11.0511 1.55053   1
   0   0   4 2.16686 0.37009   3
   0   0   4 1.05917 0.28826   2
   0   0   4 1.52702 0.30900   2
   0   0   4 1.41892 0.27410   2
  -1   0  -4 8.37830 1.04744   3
  -1   0  -4 10.5269 1.19659   3
  -1   0  -4 10.8537 1.03291   3
  -1   0  -4 11.6763 1.09303   3
  -1   0  -4 4.10927 0.56742   2
  -1   0  -4 5.09023 0.71524   2
  -1   0  -4 4.19276 0.52186   2
  -1   0  -4 6.18767 0.63024   2
  -1   0  -4 15.8127 1.55258   1
  -1   0  -4 11.2484 1.40797   1
   1   0   4 19.3613 1.40221   1
   1   0   4 20.8013 1.45890   1
   1   0   4 45.5672 5.23162  -3
   1   0   4 45.5672 5.23162   1
   1   0   4 5.72719 0.60054   2
   1   0   4 5.27429 0.62087   2
   1   0   4 4.33516 0.76785   2
   1   0   4 11.0615 1.08588   3
  -2   0  -4 78.4987 7.68960   1
  -2   0  -4 88.1359 8.78762   1
  -2   0  -4 81.6415 8.36841   1
  -2   0  -4 75.1544 8.45042   3
  -2   0  -4 83.1230 7.42552   3
  -2   0  -4 47.6132 4.82899   2
  -2   0  -4 50.5387 5.23124   2
   2   0   4 53.7700 5.55488   2
   2   0   4 53.1052 5.79072   2
   2   0   4 51.8296 4.85576   2
   2   0   4 86.4195 7.72631   1
   2   0   4 81.5728 8.79495   1
   2   0   4 74.0438 9.16149   1
   2   0   4 80.8550 7.45257   3
   2   0   4 79.1401 8.46245   3
   2   0   4 73.9840 8.83575   3
  -3   0  -4 34.1498 3.20805   3
  -3   0  -4 29.4305 2.95292   1
  -3   0  -4 19.5715 1.88068   2
   3   0   4 33.4395 3.74934   3
   3   0   4 28.2660 3.90552   3
   3   0   4 34.7464 3.28743   3
   3   0   4 20.0013 2.26460   2
   3   0   4 18.5801 1.96899   2
   3   0   4 14.2431 2.25965   2
   3   0   4 31.6381 3.48201   1
   3   0   4 27.8612 3.67658   1
   3   0   4 33.0300 3.03503   1
  -4   0  -4 10.3491 1.10540   1
  -4   0  -4 6.19210 0.96013   3
  -4   0  -4 3.71223 0.72654   2
   4   0   4 11.0438 1.47439   3
   4   0   4 10.3006 1.29633   3
   4   0   4 8.71841 1.66450   1
   4   0   4 8.39463 1.28374   1
   4   0   4 4.10725 0.97894   2
   4   0   4 7.73488 1.49668   2
  -5   0  -4 4.38166 0.90882   2
  -5   0  -4 5.41636 1.09235   3
  -5   0  -4 3.27117 0.81489   1
   5   0   4 2.36688 1.34984   2
   5   0   4 4.08910 1.96591   2
   5   0   4 5.84801 1.87618   1
   5   0   4 4.48808 1.26552   1
   5   0   4 4.23191 1.81358   3
   5   0   4 7.09201 1.46249   3
   6  -1  -4 13.7542 2.57043   3
   6  -1  -4 11.7853 2.19315   3
   6  -1  -4 7.50711 1.73975   2
   6  -1  -4 11.7763 2.53288   2
   6  -1  -4 12.3620 2.62361   1
   6  -1  -4 10.8633 1.92335   1
  -6   1   4 10.9744 1.44212   2
  -6   1   4 11.0576 2.15780   2
  -6   1   4 13.0863 2.33337   3
  -6   1   4 15.9844 1.71672   3
  -6   1   4 20.2538 2.53251   1
  -6   1   4 15.0048 1.74384   1
   5  -1  -4 24.9264 2.73802   2
   5  -1  -4 18.2160 2.14198   2
   5  -1  -4 30.2477 3.31526   3
   5  -1  -4 37.8612 3.84791   3
   5  -1  -4 30.2081 3.50558   1
   5  -1  -4 36.5721 4.11136   1
  -5   1   4 31.3671 3.20750   3
  -5   1   4 28.9355 3.59951   3
  -5   1   4 32.5988 3.40645   1
  -5   1   4 40.1196 3.96577   1
  -5   1   4 18.6870 2.39080   2
  -5   1   4 17.4537 1.95829   2
   4  -1  -4 32.4821 3.53699   3
   4  -1  -4 33.9515 3.98139   3
   4  -1  -4 26.2188 2.84410   2
   4  -1  -4 21.8352 2.39816   2
   4  -1  -4 35.1526 5.34459   1
   4  -1  -4 57.9171 4.71312   1
  -4   1   4 37.8802 3.86503   3
  -4   1   4 35.6518 3.41594   3
  -4   1   4 22.5593 2.64072   2
  -4   1   4 21.4025 2.28382   2
  -4   1   4 54.4535 4.65582   1
  -4   1   4 44.4725 5.15373   1
   3  -1  -4 22.9215 2.82912   1
   3  -1  -4 26.3540 2.45180   1
   3  -1  -4 15.4772 1.76491   2
   3  -1  -4 14.0804 1.43408   2
   3  -1  -4 20.7377 2.07607   3
   3  -1  -4 20.5765 2.31085   3
  -3   1   4 11.5726 1.38013   2
  -3   1   4 15.4506 1.65201   2
  -3   1   4 26.1784 2.73857   1
  -3   1   4 23.4867 2.42530   1
  -3   1   4 18.2665 2.00818   3
  -3   1   4 21.2550 2.28735   3
   2  -1  -4 -0.5455 0.39710   3
   2  -1  -4 0.28515 0.38695   3
   2  -1  -4 -0.6083 0.42703   3
   2  -1  -4 -0.0564 0.42910   2
   2  -1  -4 -0.1746 0.48250   2
   2  -1  -4 0.24835 0.31334   2
   2  -1  -4 1.61708 0.48896   1
   2  -1  -4 1.93688 0.47079   1
   2  -1  -4 3.50945 0.42602   1
  -2   1   4 -0.1173 0.32572   3
  -2   1   4 -0.3573 0.43051   3
  -2   1   4 -0.0984 0.34576   3
  -2   1   4 0.91483 0.47633   1
  -2   1   4 1.71488 0.45235   1
  -2   1   4 0.76221 0.36721   1
  -2   1   4 -0.2944 0.36486   2
  -2   1   4 0.28966 0.30088   2
  -2   1   4 -0.3868 0.39478   2
  -2   1   4 -0.1332 0.38940   2
   1  -1  -4 118.303 12.8462   2
   1  -1  -4 124.331 11.3067   2
   1  -1  -4 117.482 11.3127   2
   1  -1  -4 251.145 23.4018   1
   1  -1  -4 243.132 26.5586   1
   1  -1  -4 254.317 23.3679   1
   1  -1  -4 178.795 17.2535   3
   1  -1  -4 179.520 19.5763   3
   1  -1  -4 181.471 17.2234   3
  -1   1   4 188.269 18.8022   3
  -1   1   4 190.651 17.2474   3
  -1   1   4 401.204 39.7070  -2
  -1   1   4 401.204 39.7070   1
  -1   1   4 376.452 36.4370  -2
  -1   1   4 376.452 36.4370   1
  -1   1   4 568.207 53.1795  -3
  -1   1   4 568.207 53.1795  -2
  -1   1   4 568.207 53.1795   1
  -1   1   4 121.643 13.3735   2
  -1   1   4 421.541 46.7238  -3
  -1   1   4 421.541 46.7238   1
   0  -1  -4 9.60405 1.14490   2
   0  -1  -4 11.1359 1.08684   2
   0  -1  -4 10.8213 1.05916   2
   0  -1  -4 193.319 18.1492   1
   0  -1  -4 11.7510 1.55474   3
   0  -1  -4 15.9766 1.45763   3
   0  -1  -4 15.2938 1.43820   3
   0   1   4 50.9527 5.77865  -3
   0   1   4 50.9527 5.77865  -2
   0   1   4 50.9527 5.77865   1
   0   1   4 8.58498 1.06900   2
   0   1   4 13.0597 1.51781   3
   0   1   4 17.5530 1.44877   3
  -1  -1  -4 54.1751 4.94151   2
  -1  -1  -4 54.1639 4.94059   2
  -1  -1  -4 46.3632 5.59896   2
  -1  -1  -4 56.6497 5.34835   2
  -1  -1  -4 96.7989 8.41395   1
  -1  -1  -4 94.4611 8.38735   1
  -1  -1  -4 92.2308 9.12760   1
  -1  -1  -4 81.9184 9.53104   1
  -1  -1  -4 77.7551 7.32562   3
  -1  -1  -4 73.7409 8.31387   3
  -1  -1  -4 74.2550 7.35232   3
  -1  -1  -4 82.2283 7.96280   3
   1   1   4 77.7021 7.34421   3
   1   1   4 80.0225 7.34456   3
   1   1   4 76.5473 8.31948   3
   1   1   4 82.1899 8.40394   1
   1   1   4 87.3343 9.54012   1
   1   1   4 89.0358 8.40831   1
   1   1   4 155.047 17.2696  -3
   1   1   4 155.047 17.2696   1
   1   1   4 53.6142 5.60719   2
   1   1   4 47.5265 4.93905   2
   1   1   4 45.7619 5.84922   2
   1   1   4 55.2687 4.94194   2
  -2  -1  -4 252.756 26.6193   1
  -2  -1  -4 261.641 24.4117   1
  -2  -1  -4 164.240 16.7212   2
  -2  -1  -4 153.674 15.3449   2
  -2  -1  -4 255.247 25.4141   3
  -2  -1  -4 254.209 23.3046   3
   2   1   4 162.337 15.3819   2
   2   1   4 162.923 18.1988   2
   2   1   4 166.364 15.3688   2
   2   1   4 173.252 17.4835   2
   2   1   4 233.490 27.6077   3
   2   1   4 244.778 23.3487   3
   2   1   4 242.471 23.3255   3
   2   1   4 259.306 26.5155   3
   2   1   4 264.953 24.4386   1
   2   1   4 271.656 27.7905   1
   2   1   4 259.466 24.4646   1
   2   1   4 254.748 28.9458   1
  -3  -1  -4 0.08515 0.51305   3
  -3  -1  -4 3.70647 0.51964   1
  -3  -1  -4 0.57576 0.55146   2
   3   1   4 2.32990 1.09996   1
   3   1   4 -0.0725 0.79622   1
   3   1   4 2.23566 0.69147   1
   3   1   4 0.46366 0.67717   2
   3   1   4 -0.8898 0.97964   2
   3   1   4 -1.8071 0.94087   2
   3   1   4 0.28353 0.85777   3
   3   1   4 1.26811 0.78227   3
   3   1   4 0.54446 0.88445   3
  -4  -1  -4 25.9998 2.76837   1
  -4  -1  -4 34.0318 3.25923   3
   4   1   4 29.0272 3.32486   3
   4   1   4 32.6441 3.86474   3
   4   1   4 18.4846 2.37320   2
   4   1   4 14.7457 1.84754   2
   4   1   4 31.7007 3.50687   1
   4   1   4 29.8967 3.02064   1
  -5  -1  -4 0.68284 0.80372   1
  -5  -1  -4 2.50561 0.96551   2
  -5  -1  -4 0.22551 0.95696   3
   5   1   4 1.09616 1.29580   1
   5   1   4 -0.4735 1.83406   1
   5   1   4 -0.0841 1.46066   3
   5   1   4 0.90777 1.82807   3
   5   1   4 0.53791 1.99678   2
   6  -2  -4 0.54231 1.46178   3
   6  -2  -4 -1.8296 1.73857   3
   6  -2  -4 4.52318 1.99826   1
   6  -2  -4 4.28429 1.38753   1
   6  -2  -4 -0.5164 2.03598   2
   6  -2  -4 -0.1372 1.31800   2
  -6   2   4 -0.0585 0.85267   2
  -6   2   4 0.46272 1.58623   2
  -6   2   4 2.60357 2.04428   1
  -6   2   4 -0.7975 1.77241   3
   5  -2  -4 1.27836 1.03188   3
   5  -2  -4 0.24755 1.10232   3
   5  -2  -4 0.76362 0.89821   2
   5  -2  -4 0.42305 1.24534   2
   5  -2  -4 0.79734 1.30557   1
   5  -2  -4 1.92821 0.82159   1
  -5   2   4 -0.1096 0.62957   3
  -5   2   4 -0.4222 1.26895   3
  -5   2   4 0.81074 0.65067   2
  -5   2   4 0.96594 1.14918   2
  -5   2   4 2.79913 0.65955   1
  -5   2   4 1.42125 1.29385   1
   4  -2  -4 0.56454 0.60919   1
   4  -2  -4 -0.5790 0.77208   1
   4  -2  -4 -0.0386 0.62156   2
   4  -2  -4 -0.8888 0.95993   2
   4  -2  -4 0.34656 0.69460   3
   4  -2  -4 0.18774 0.92607   3
  -4   2   4 0.17870 0.78165   1
  -4   2   4 0.32827 0.50163   1
  -4   2   4 -0.6166 0.71231   2
  -4   2   4 -0.2599 0.46556   2
  -4   2   4 0.76363 0.52186   3
  -4   2   4 -0.2346 0.79347   3
   3  -2  -4 3.22895 0.86749   2
   3  -2  -4 3.70765 0.58512   2
   3  -2  -4 8.66529 1.06571   3
   3  -2  -4 7.22198 1.26278   3
   3  -2  -4 8.58569 1.20706   1
   3  -2  -4 8.26323 0.96300   1
  -3   2   4 10.2850 1.01719   3
  -3   2   4 9.87665 1.24063   3
  -3   2   4 6.84958 1.10054   1
  -3   2   4 9.03689 0.92924   1
  -3   2   4 4.17413 0.70852   2
  -3   2   4 3.46274 0.55368   2
   2  -2  -4 467.923 43.8508   3
   2  -2  -4 476.129 49.7776   3
   2  -2  -4 565.647 58.3400   1
   2  -2  -4 597.582 51.3342   1
   2  -2  -4 551.543 51.3895   1
   2  -2  -4 309.295 28.4821   2
   2  -2  -4 301.040 32.3779   2
   2  -2  -4 309.131 28.5151   2
  -2   2   4 482.743 51.8112   3
  -2   2   4 450.565 43.7649   3
  -2   2   4 459.792 47.7907   3
  -2   2   4 294.671 28.4579   2
  -2   2   4 305.901 33.6946   2
  -2   2   4 304.168 31.0832   2
  -2   2   4 511.761 56.0043   1
  -2   2   4 555.478 60.7331   1
  -2   2   4 510.886 51.2942   1
   1  -2  -4 273.309 24.1721   1
   1  -2  -4 274.694 24.1382   1
   1  -2  -4 268.633 27.4236   1
   1  -2  -4 154.545 14.3369   3
   1  -2  -4 155.891 16.2802   3
   1  -2  -4 154.213 14.3602   3
   1  -2  -4 112.416 10.3583   2
   1  -2  -4 113.900 10.3607   2
   1  -2  -4 102.323 11.7516   2
  -1   2   4 154.635 14.3279   3
  -1   2   4 145.898 15.6491   3
  -1   2   4 150.538 16.9698   3
  -1   2   4 112.930 12.2495   2
  -1   2   4 213.398 28.5709   1
  -1   2   4 370.875 36.0967  -2
  -1   2   4 370.875 36.0967   1
  -1   2   4 401.577 39.4110  -2
  -1   2   4 401.577 39.4110   1
   0  -2  -4 2.11421 0.35803   2
   0  -2  -4 1.28561 0.37004   2
   0  -2  -4 2.75187 0.44300   1
   0  -2  -4 3.25585 0.43996   1
   0  -2  -4 4.70394 0.84519  -2
   0  -2  -4 4.70394 0.84519   1
   0  -2  -4 3.96872 0.52983   3
   0  -2  -4 2.29743 0.54929   3
   0  -2  -4 2.92536 0.43411   3
   0   2   4 2.16300 0.51963   3
   0   2   4 3.45241 0.48440   3
   0   2   4 3.66322 0.54494   3
   0   2   4 3.28933 0.50759   1
   0   2   4 1.43440 0.37314   2
   0   2   4 3.56878 0.81301  -2
   0   2   4 3.56878 0.81301   1
   0   2   4 3.74530 0.79417  -2
   0   2   4 3.74530 0.79417   1
   0   2   4 6.36819 1.29981  -3
   0   2   4 6.36819 1.29981  -2
   0   2   4 6.36819 1.29981   1
  -1  -2  -4 57.4628 6.42700   3
  -1  -2  -4 58.2788 5.68757   3
  -1  -2  -4 61.3285 6.17421   3
  -1  -2  -4 60.5334 5.71368   3
  -1  -2  -4 45.7356 4.18560   2
  -1  -2  -4 45.1705 4.17030   2
  -1  -2  -4 46.6286 4.51430   2
  -1  -2  -4 61.9704 8.23052   1
  -1  -2  -4 91.0351 7.90341   1
   1   2   4 45.1371 4.17836   2
   1   2   4 41.6340 4.16763   2
   1   2   4 41.8170 4.72108   2
   1   2   4 37.7360 4.95142   2
   1   2   4 56.8034 5.69583   3
   1   2   4 62.8205 6.43581   3
   1   2   4 61.7910 5.69686   3
   1   2   4 73.9964 8.24718   1
   1   2   4 82.1489 7.28332   1
   1   2   4 77.8172 7.27667   1
   1   2   4 130.400 14.5783  -3
   1   2   4 130.400 14.5783   1
  -2  -2  -4 35.6819 3.80265   1
  -2  -2  -4 34.6916 3.51663   1
  -2  -2  -4 35.9727 3.92075   3
  -2  -2  -4 39.7621 3.65596   3
  -2  -2  -4 24.0519 2.29878   2
  -2  -2  -4 22.7298 2.39993   2
   2   2   4 34.6720 4.36060   3
   2   2   4 36.2458 3.68340   3
   2   2   4 40.3527 4.13347   3
   2   2   4 38.9651 3.73763   3
   2   2   4 35.1213 4.25688   1
   2   2   4 40.6221 4.05716   1
   2   2   4 37.9361 3.60790   1
   2   2   4 36.5658 3.56254   1
   2   2   4 24.0548 2.31218   2
   2   2   4 20.5005 2.29868   2
   2   2   4 24.1510 2.60293   2
   2   2   4 18.3472 2.75174   2
  -3  -2  -4 116.264 10.7480   3
  -3  -2  -4 98.0323 10.2066   1
  -3  -2  -4 69.4890 6.74339   2
   3   2   4 115.176 11.7044   1
   3   2   4 122.433 12.2362   1
   3   2   4 108.153 10.2938   1
   3   2   4 105.459 10.7862   3
   3   2   4 121.581 12.7926   3
   3   2   4 112.587 12.2435   3
   3   2   4 68.7355 8.04473   2
   3   2   4 74.4650 7.73696   2
   3   2   4 70.5009 6.79085   2
  -4  -2  -4 1.34475 0.78255   3
  -4  -2  -4 0.51284 0.67264   1
  -4  -2  -4 0.43726 0.65859   2
   4   2   4 0.55550 1.10948   3
   4   2   4 0.48307 1.27427   3
   4   2   4 1.12226 1.33774   1
   4   2   4 1.72903 0.99940   1
   4   2   4 2.08502 1.43168   2
  -5  -2  -4 20.0441 2.33682   1
  -5  -2  -4 23.6775 2.60567   3
  -5  -2  -4 15.8905 2.08338   2
   5   2   4 25.9758 3.32072   3
   5   2   4 22.4748 2.86785   2
   5   2   4 25.8072 3.07639   1
   6  -3  -4 2.97358 1.27642   1
   6  -3  -4 1.69471 1.83485   1
   6  -3  -4 2.12664 1.33088   2
   6  -3  -4 1.21998 2.11457   2
   6  -3  -4 1.24442 1.34147   3
   6  -3  -4 0.94121 1.80199   3
  -6   3   4 0.12841 1.54803   3
  -6   3   4 2.93039 1.75654   2
  -6   3   4 1.42862 1.89091   1
   5  -3  -4 62.1816 6.26440   2
   5  -3  -4 67.4898 7.25419   2
   5  -3  -4 120.886 12.8656   1
   5  -3  -4 115.189 11.2683   1
   5  -3  -4 108.046 10.2678   3
   5  -3  -4 109.968 11.6795   3
  -5   3   4 64.1807 6.13858   2
  -5   3   4 65.8095 6.85428   2
  -5   3   4 121.382 12.3722   1
  -5   3   4 104.566 11.2381   3
   4  -3  -4 4.54482 1.11293   2
   4  -3  -4 1.82949 0.68594   2
   4  -3  -4 4.10339 1.00744   1
   4  -3  -4 3.66574 0.75176   1
   4  -3  -4 5.44204 1.05970   3
   4  -3  -4 4.99006 0.89741   3
  -4   3   4 3.10437 0.55294   2
  -4   3   4 3.93583 1.00440   2
  -4   3   4 5.51502 1.19203   1
  -4   3   4 4.31581 1.07942   3
   3  -3  -4 13.8250 1.93001   2
   3  -3  -4 17.3199 1.68290   2
   3  -3  -4 23.6832 2.52368   3
   3  -3  -4 25.7497 2.89513   3
   3  -3  -4 76.2934 6.80115   1
   3  -3  -4 53.5619 7.71451   1
  -3   3   4 79.6719 6.76123   1
  -3   3   4 76.7524 7.45272   1
  -3   3   4 16.3715 1.84605   2
  -3   3   4 26.4718 2.79709   3
  -3   3   4 25.7919 2.47293   3
   2  -3  -4 24.8553 3.05841   3
   2  -3  -4 30.7433 2.72398   3
   2  -3  -4 167.491 18.8161   1
   2  -3  -4 176.019 16.5826   1
   2  -3  -4 12.7499 1.92450   2
   2  -3  -4 20.6147 1.69442   2
  -2   3   4 19.1253 1.72413   2
  -2   3   4 18.3443 1.86562   2
  -2   3   4 17.2303 1.65035   2
  -2   3   4 13.1127 1.99065   2
  -2   3   4 171.155 18.0948   1
  -2   3   4 181.238 16.5457   1
  -2   3   4 180.315 16.5500   1
  -2   3   4 181.687 19.6001   1
  -2   3   4 29.0790 3.21145   3
  -2   3   4 30.0634 2.70635   3
  -2   3   4 28.3211 2.67890   3
  -2   3   4 24.4813 2.98743   3
   1  -3  -4 309.832 29.5123   3
   1  -3  -4 316.197 29.4628   3
   1  -3  -4 316.937 33.4673   3
   1  -3  -4 537.749 49.8675  -2
   1  -3  -4 537.749 49.8675   1
   1  -3  -4 481.502 56.5812  -2
   1  -3  -4 481.502 56.5812   1
   1  -3  -4 571.397 49.7999  -2
   1  -3  -4 571.397 49.7999   1
  -1   3   4 308.860 34.8868   3
  -1   3   4 320.446 32.1658   3
  -1   3   4 332.133 36.8461   1
  -1   3   4 209.885 23.3070   2
  -1   3   4 544.408 54.3425  -2
  -1   3   4 544.408 54.3425   1
   0  -3  -4 72.7064 7.97564   3
   0  -3  -4 79.1428 7.08788   3
   0  -3  -4 74.5161 7.06049   3
   0  -3  -4 144.323 13.5745  -2
   0  -3  -4 144.323 13.5745   1
   0  -3  -4 151.189 13.5853  -2
   0  -3  -4 151.189 13.5853   1
   0   3   4 234.289 26.0413  -3
   0   3   4 234.289 26.0413  -2
   0   3   4 234.289 26.0413   1
   0   3   4 142.778 15.3809  -2
   0   3   4 142.778 15.3809   1
   0   3   4 146.219 14.8061  -2
   0   3   4 146.219 14.8061   1
   0   3   4 138.265 13.5825  -2
   0   3   4 138.265 13.5825   1
   0   3   4 76.3930 7.71317   3
   0   3   4 74.5416 7.07164   3
   0   3   4 74.3878 7.97808   3
  -1  -3  -4 29.8192 2.58846   2
  -1  -3  -4 24.3496 2.37895   2
  -1  -3  -4 76.5776 7.29090  -2
  -1  -3  -4 76.5776 7.29090   1
  -1  -3  -4 37.2418 3.58087   1
  -1  -3  -4 39.9235 3.87128   1
  -1  -3  -4 35.3545 3.28651   3
  -1  -3  -4 32.8745 3.25700   3
  -1  -3  -4 34.9728 3.49487   3
   1   3   4 21.2802 2.87258   2
   1   3   4 20.8284 2.65476   2
   1   3   4 24.0359 2.40030   2
   1   3   4 23.9395 2.38548   2
   1   3   4 29.6409 3.83773   3
   1   3   4 34.8371 3.62355   3
   1   3   4 32.5835 3.26964   3
   1   3   4 31.6068 3.24198   3
   1   3   4 32.2169 3.59276   1
   1   3   4 39.1057 4.04286   1
   1   3   4 39.0651 3.59276   1
   1   3   4 31.6608 4.30351   1
  -2  -3  -4 135.426 13.1894   3
  -2  -3  -4 127.514 12.1036   3
  -2  -3  -4 81.1088 8.02764   2
  -2  -3  -4 86.6405 8.72056   2
  -2  -3  -4 140.588 13.8778   1
  -2  -3  -4 130.063 12.7232   1
   2   3   4 137.400 12.7667   1
   2   3   4 137.821 12.7715   1
   2   3   4 135.214 14.4821   1
   2   3   4 129.332 15.1281   1
   2   3   4 130.007 12.1348   3
   2   3   4 122.079 12.1342   3
   2   3   4 131.678 13.7472   3
   2   3   4 121.212 14.3609   3
   2   3   4 81.6116 9.12103   2
   2   3   4 85.7944 9.54625   2
   2   3   4 85.2711 8.05823   2
   2   3   4 87.4394 8.04932   2
  -3  -3  -4 0.55063 0.62591   2
  -3  -3  -4 0.67968 0.89236   3
  -3  -3  -4 2.01223 0.53007   1
   3   3   4 0.42131 0.86144   1
   3   3   4 0.19029 1.17787   1
   3   3   4 -0.0856 0.98435   1
   3   3   4 0.08166 0.92380   3
   3   3   4 -0.0276 1.16178   3
   3   3   4 1.09506 0.93644   3
   3   3   4 1.05742 1.13868   2
   3   3   4 1.94920 1.08715   2
  -4  -3  -4 1.16397 0.83680   3
  -4  -3  -4 0.54383 0.92845   2
  -4  -3  -4 0.17353 0.77257   1
   4   3   4 0.43656 1.45299   2
   4   3   4 0.72859 1.22531   3
   4   3   4 0.14036 1.37858   1
   6  -4  -4 16.5876 3.27324   2
   6  -4  -4 52.0487 5.10962   3
   6  -4  -4 46.4091 5.83032   3
   6  -4  -4 53.5106 5.57947   1
   6  -4  -4 43.0562 4.73173   1
  -6   4   4 45.9571 5.59897   3
  -6   4   4 42.1449 5.25373   1
  -6   4   4 26.0159 2.96585   2
   5  -4  -4 1.31995 1.37203   1
   5  -4  -4 4.30332 0.91057   1
   5  -4  -4 2.37267 0.98484   3
   5  -4  -4 2.97500 1.38139   3
   5  -4  -4 -0.8532 1.34094   2
   5  -4  -4 1.48800 0.82931   2
  -5   4   4 0.75441 1.20435   2
  -5   4   4 -0.0452 1.14050   3
  -5   4   4 2.72576 1.26192   1
   4  -4  -4 73.8023 7.48007   1
   4  -4  -4 72.1661 6.53556   1
   4  -4  -4 55.7827 5.15685   3
   4  -4  -4 51.7199 5.88621   3
   4  -4  -4 30.3606 3.12794   2
   4  -4  -4 38.2590 3.67422   2
  -4   4   4 58.0868 7.18041   1
  -4   4   4 29.7232 3.00151   2
  -4   4   4 31.0563 3.43447   2
  -4   4   4 51.8935 5.65482   3
   3  -4  -4 120.386 13.2132   1
   3  -4  -4 126.149 11.6250   1
   3  -4  -4 89.4867 9.22845   3
   3  -4  -4 86.0400 8.11648   3
   3  -4  -4 53.5745 5.84708   2
   3  -4  -4 56.3338 5.11457   2
  -3   4   4 84.1520 8.88072   3
  -3   4   4 82.5445 8.04596   3
  -3   4   4 87.5843 8.05615   3
  -3   4   4 50.7715 5.58993   2
  -3   4   4 53.1482 5.05655   2
  -3   4   4 123.921 11.5731   1
  -3   4   4 122.058 12.7165   1
   2  -4  -4 75.5564 6.61550   2
   2  -4  -4 67.7252 7.50142   2
   2  -4  -4 169.582 18.1902   1
   2  -4  -4 177.394 16.0418   1
   2  -4  -4 118.842 12.0029   3
   2  -4  -4 110.747 10.5896   3
  -2   4   4 113.440 11.5709   3
  -2   4   4 114.344 12.5235   3
  -2   4   4 103.778 10.5439   3
  -2   4   4 114.401 10.5468   3
  -2   4   4 64.8226 7.82785   2
  -2   4   4 71.0189 6.58029   2
  -2   4   4 70.4531 6.61586   2
  -2   4   4 69.0806 7.23342   2
  -2   4   4 169.276 15.9950   1
  -2   4   4 167.151 17.5090   1
  -2   4   4 170.514 18.9697   1
  -2   4   4 169.719 15.9969   1
   1  -4  -4 751.086 71.2417  -2
   1  -4  -4 751.086 71.2417   1
   1  -4  -4 332.425 31.7744   3
  -1   4   4 349.915 38.8260   1
  -1   4   4 351.984 31.7096   3
  -1   4   4 338.133 37.5644   3
  -1   4   4 330.333 34.6328   3
  -1   4   4 974.320 91.1615  -3
  -1   4   4 974.320 91.1615  -2
  -1   4   4 974.320 91.1615   1
  -1   4   4 410.717 45.5527   2
  -1   4   4 769.273 77.6378  -2
  -1   4   4 769.273 77.6378   1
   0  -4  -4 219.099 19.0288  -2
   0  -4  -4 219.099 19.0288   1
   0  -4  -4 215.681 19.0514  -2
   0  -4  -4 215.681 19.0514   1
   0  -4  -4 109.621 10.2172   3
   0  -4  -4 102.429 10.2304   3
   0   4   4 311.305 32.4236  -3
   0   4   4 311.305 32.4236  -2
   0   4   4 311.305 32.4236   1
   0   4   4 279.513 31.0467  -3
   0   4   4 279.513 31.0467  -2
   0   4   4 279.513 31.0467   1
   0   4   4 181.239 19.0394  -2
   0   4   4 181.239 19.0394   1
   0   4   4 197.183 20.7631  -2
   0   4   4 197.183 20.7631   1
   0   4   4 113.839 10.2139   3
   0   4   4 106.521 11.1532   3
  -1  -4  -4 58.0197 5.89847  -2
  -1  -4  -4 58.0197 5.89847   1
  -1  -4  -4 59.1016 5.46380  -2
  -1  -4  -4 59.1016 5.46380   1
  -1  -4  -4 56.2966 5.43462  -2
  -1  -4  -4 56.2966 5.43462   1
  -1  -4  -4 30.9849 3.28721   3
  -1  -4  -4 32.3379 3.09466   3
  -1  -4  -4 29.9061 3.05400   3
   1   4   4 32.4313 3.37652   3
   1   4   4 30.4221 3.07743   3
   1   4   4 29.9678 3.07318   3
   1   4   4 28.4368 3.67122   3
   1   4   4 16.7442 2.14565   2
   1   4   4 20.3031 1.98034   2
   1   4   4 22.3247 2.45612   2
   1   4   4 51.6465 5.44140  -2
   1   4   4 51.6465 5.44140   1
   1   4   4 29.4329 3.83119   1
   1   4   4 32.5346 3.54078   1
   1   4   4 33.8422 3.17442   1
  -2  -4  -4 728.596 68.2260  -2
  -2  -4  -4 728.596 68.2260   1
  -2  -4  -4 398.136 41.4859   3
  -2  -4  -4 399.533 38.0221   3
  -2  -4  -4 414.072 42.7840   1
  -2  -4  -4 257.694 26.3928   2
   2   4   4 253.229 24.2073   2
   2   4   4 244.455 27.5111   2
   2   4   4 279.120 28.6933   2
   2   4   4 438.323 46.4804   1
   2   4   4 406.467 44.5887   1
   2   4   4 418.065 39.2364   1
   2   4   4 418.224 43.2246   3
   2   4   4 413.960 45.0507   3
   2   4   4 398.558 38.0404   3
  -3  -4  -4 45.7429 4.69064   2
  -3  -4  -4 71.2832 7.30763   1
  -3  -4  -4 89.9281 8.39392   3
   3   4   4 45.7866 5.45111   2
   3   4   4 55.2901 5.76819   2
   3   4   4 77.5780 8.80146   1
   3   4   4 84.2236 8.39329   1
   3   4   4 93.3356 9.52560   3
   3   4   4 78.6647 9.94537   3
  -4  -4  -4 0.25821 0.86789   1
  -4  -4  -4 -0.9918 0.92663   3
  -4  -4  -4 -0.7718 1.02375   2
   4   4   4 1.11557 1.65314   3
   4   4   4 -0.0737 1.43027   1
   4   4   4 0.79809 1.54512   2
   6  -5  -4 29.0171 3.41264   3
   6  -5  -4 31.6210 4.06958   3
   6  -5  -4 13.1228 1.86764   2
   6  -5  -4 20.7679 2.42408   1
   5  -5  -4 0.00147 0.87116   3
   5  -5  -4 0.46742 1.38350   3
   5  -5  -4 1.25747 0.85928   2
   5  -5  -4 -2.1314 1.56678   2
   5  -5  -4 0.68279 0.75226   1
   5  -5  -4 -0.1722 2.26837   1
  -5   5   4 1.03756 1.16528   3
  -5   5   4 1.08702 1.05016   2
  -5   5   4 -0.2877 1.29261   1
   4  -5  -4 94.6949 8.77596   3
   4  -5  -4 98.9417 9.98365   3
   4  -5  -4 116.712 11.7667   1
   4  -5  -4 127.585 13.4139   1
   4  -5  -4 52.9040 5.30252   2
   4  -5  -4 64.4514 6.14321   2
  -4   5   4 50.3475 5.84229   2
  -4   5   4 82.2917 9.59160   3
  -4   5   4 133.603 12.9201   1
   3  -5  -4 5.16527 0.72957   3
   3  -5  -4 4.29417 0.94604   3
   3  -5  -4 2.33589 0.52900   2
   3  -5  -4 67.9374 6.53370   1
  -3   5   4 70.1661 7.18931   1
  -3   5   4 4.48096 0.97430   3
  -3   5   4 2.17928 0.76802   2
   2  -5  -4 136.667 12.5022   3
   2  -5  -4 180.636 16.9813  -2
   2  -5  -4 180.636 16.9813   1
  -2   5   4 79.6303 8.52703   2
  -2   5   4 84.3082 7.76329   2
  -2   5   4 82.5902 9.24917   2
  -2   5   4 220.667 24.0230   1
  -2   5   4 209.732 22.1583   1
  -2   5   4 221.731 20.2439   1
  -2   5   4 211.472 20.2418   1
  -2   5   4 131.884 12.4425   3
  -2   5   4 125.445 13.6563   3
  -2   5   4 134.561 12.4431   3
  -2   5   4 133.071 14.7920   3
   1  -5  -4 35.4656 3.40933  -2
   1  -5  -4 35.4656 3.40933   1
   1  -5  -4 17.3085 1.66012   3
  -1   5   4 30.8404 3.76093  -2
  -1   5   4 30.8404 3.76093   1
  -1   5   4 39.1162 4.14907  -2
  -1   5   4 39.1162 4.14907   1
  -1   5   4 16.0626 1.98710   3
  -1   5   4 13.0938 1.82678   3
   0  -5  -4 36.3394 4.10165   3
   0  -5  -4 40.3881 3.79108   3
   0  -5  -4 65.6066 6.69818  -2
   0  -5  -4 65.6066 6.69818   1
   0  -5  -4 64.7901 6.14926  -2
   0  -5  -4 64.7901 6.14926   1
   0   5   4 107.669 12.1047  -3
   0   5   4 107.669 12.1047  -2
   0   5   4 107.669 12.1047   1
   0   5   4 39.4314 4.13127   3
   0   5   4 62.6815 6.70656  -2
   0   5   4 62.6815 6.70656   1
  -1  -5  -4 60.4042 5.60013   3
  -1  -5  -4 60.4845 5.60291   3
  -1  -5  -4 58.0905 6.06396   3
  -1  -5  -4 114.429 10.8008  -2
  -1  -5  -4 114.429 10.8008   1
  -1  -5  -4 104.903 9.92474  -2
  -1  -5  -4 104.903 9.92474   1
   1   5   4 77.3876 8.77013   1
   1   5   4 93.3596 9.90459  -2
   1   5   4 93.3596 9.90459   1
   1   5   4 44.7460 5.20302   2
   1   5   4 52.1246 5.58253   3
   1   5   4 59.9241 6.62058   3
  -2  -5  -4 50.4782 5.18296   2
  -2  -5  -4 54.3359 5.57125   2
  -2  -5  -4 84.7739 8.81640   1
  -2  -5  -4 79.0084 8.08439   1
  -2  -5  -4 84.2118 8.59915   3
  -2  -5  -4 78.2726 7.92215   3
   2   5   4 81.6790 9.41630   3
   2   5   4 87.1744 7.94640   3
   2   5   4 49.1815 6.16702   2
   2   5   4 56.7774 5.16937   2
   2   5   4 97.1070 8.16494   1
   2   5   4 82.6223 9.66635   1
  -3  -5  -4 10.7970 1.38909   2
  -3  -5  -4 22.2053 2.29640   3
  -3  -5  -4 24.8048 2.42496   1
   3   5   4 10.4323 1.98577   2
   3   5   4 19.5118 3.09067   1
   3   5   4 16.2560 2.70305   3
  -4  -5  -4 12.5988 1.65998   1
  -4  -5  -4 14.9769 1.89941   3
  -4  -5  -4 9.14064 1.50859   2
   5  -6  -4 6.86354 1.15932   1
   5  -6  -4 2.55519 0.88869   2
   5  -6  -4 5.05441 1.12733   3
  -5   6   4 4.79823 1.65706   3
  -5   6   4 1.25868 1.34538   2
  -5   6   4 7.11099 1.57185   1
   4  -6  -4 19.1909 2.11189   2
   4  -6  -4 33.9531 3.61847   3
   4  -6  -4 75.1550 6.58464   1
  -4   6   4 40.7919 4.06942   3
  -4   6   4 19.8421 2.34404   2
  -4   6   4 59.6370 7.25486   1
   3  -6  -4 10.8890 1.29541   3
   3  -6  -4 57.3795 5.35761   1
   3  -6  -4 6.51698 0.80922   2
  -3   6   4 53.8305 5.91143   1
  -3   6   4 5.35947 1.02008   2
  -3   6   4 12.3365 1.57148   3
   2  -6  -4 -0.6194 0.58682   3
   2  -6  -4 50.4157 4.90223  -2
   2  -6  -4 50.4157 4.90223   1
  -2   6   4 0.75851 0.77014   3
  -2   6   4 0.88678 0.76545   3
  -2   6   4 2.84368 0.76504   2
  -2   6   4 2.00832 0.40335   2
  -2   6   4 2.84633 0.84008   2
  -2   6   4 34.5993 3.74777   1
   1  -6  -4 21.0976 2.18582   3
   1  -6  -4 33.5850 3.39849  -2
   1  -6  -4 33.5850 3.39849   1
  -1   6   4 20.4009 2.44724   3
  -1   6   4 35.7793 3.79129  -2
  -1   6   4 35.7793 3.79129   1
   0  -6  -4 35.0377 3.49671  -2
   0  -6  -4 35.0377 3.49671   1
   0  -6  -4 20.6209 2.31243   3
   0  -6  -4 21.4953 2.12820   3
   0   6   4 50.5215 6.29582  -3
   0   6   4 50.5215 6.29582  -2
   0   6   4 50.5215 6.29582   1
   0   6   4 56.5832 5.24650  -3
   0   6   4 56.5832 5.24650  -2
   0   6   4 56.5832 5.24650   1
   0   6   4 18.4289 2.34246   3
   0   6   4 29.5163 3.50442  -2
   0   6   4 29.5163 3.50442   1
  -1  -6  -4 82.6820 8.53133   3
  -1  -6  -4 78.8408 7.85813   3
  -1  -6  -4 157.528 15.8036  -2
  -1  -6  -4 157.528 15.8036   1
  -1  -6  -4 146.200 14.5128  -2
  -1  -6  -4 146.200 14.5128   1
   1   6   4 65.8232 7.53149   2
   1   6   4 156.089 14.4809  -2
   1   6   4 156.089 14.4809   1
   1   6   4 85.7360 7.81324   3
   1   6   4 80.3141 9.27915   3
   1   6   4 84.3417 9.54072   1
  -2  -6  -4 2.48024 0.80791   1
  -2  -6  -4 0.80089 0.86202   3
  -2  -6  -4 -0.2627 0.72880   2
   2   6   4 1.93793 1.00766   3
   2   6   4 2.66187 1.33850   3
   2   6   4 1.10709 1.28674   2
   2   6   4 0.96154 0.86719   2
   2   6   4 0.58088 1.34768   1
   2   6   4 4.04963 0.99000   1
   3   6   4 -4.1776 1.67080   1
   3   6   4 -1.4737 1.69806   2
   3   6   4 -0.7208 1.61556   3
  -4  -6  -4 35.1403 3.81190   1
  -4  -6  -4 46.5704 4.90743   3
   5  -7  -4 0.33500 0.88365   1
   5  -7  -4 -0.6500 0.86671   2
   5  -7  -4 -0.6634 0.90860   3
  -5   7   4 -1.0075 1.55811   1
  -5   7   4 -1.3353 1.17888   2
  -5   7   4 -0.3463 1.47895   3
   4  -7  -4 37.0419 3.81038   1
   4  -7  -4 2.60370 0.75476   3
   4  -7  -4 1.85758 0.64249   2
  -4   7   4 42.2457 4.38706   1
  -4   7   4 2.12249 1.08050   3
  -4   7   4 1.25828 1.04299   2
   3  -7  -4 32.0687 3.18026   1
   3  -7  -4 5.60204 0.87533   2
   3  -7  -4 11.4357 1.20104   3
  -3   7   4 6.54754 1.44390   3
  -3   7   4 8.24073 1.21172   2
  -3   7   4 31.5024 3.57044   1
   2  -7  -4 125.080 11.0136   1
   2  -7  -4 76.9791 7.54439   3
   2  -7  -4 63.5219 5.88786   2
  -2   7   4 57.4574 6.45375   2
  -2   7   4 64.0460 7.04685   2
  -2   7   4 121.893 12.0811   1
  -2   7   4 102.034 13.0534   1
  -2   7   4 76.4649 8.94680   3
  -2   7   4 85.8434 8.29095   3
  -1   7   4 367.186 36.1379  -2
  -1   7   4 367.186 36.1379   1
  -1   7   4 342.598 33.0293  -2
  -1   7   4 342.598 33.0293   1
  -1   7   4 212.617 19.9892   3
  -1   7   4 214.260 21.9089   3
   0  -7  -4 16.5391 1.94525   3
   0  -7  -4 25.0625 2.94884  -2
   0  -7  -4 25.0625 2.94884   1
   0   7   4 37.6435 3.76224  -3
   0   7   4 37.6435 3.76224  -2
   0   7   4 37.6435 3.76224   1
   0   7   4 36.3852 4.66546  -3
   0   7   4 36.3852 4.66546  -2
   0   7   4 36.3852 4.66546   1
   0   7   4 14.0640 1.96633   3
  -1  -7  -4 -2.6528 1.60177  -2
  -1  -7  -4 -2.6528 1.60177   1
  -1  -7  -4 0.63615 1.71987  -2
  -1  -7  -4 0.63615 1.71987   1
  -1  -7  -4 0.28084 0.86839   3
  -1  -7  -4 0.13874 0.77006   3
   1   7   4 -0.2720 1.13470   3
   1   7   4 0.18020 0.73631   3
   1   7   4 -0.4139 1.46484  -2
   1   7   4 -0.4139 1.46484   1
   1   7   4 -3.0041 2.30777  -2
   1   7   4 -3.0041 2.30777   1
  -2  -7  -4 1.63838 0.92162   1
  -2  -7  -4 2.80557 1.10857   3
  -2  -7  -4 2.23099 0.94242   2
   2   7   4 5.86911 1.14713   1
   2   7   4 2.56716 1.52702   1
   2   7   4 3.40694 1.08046   3
   2   7   4 3.85152 1.48456   3
   2   7   4 1.61231 1.46359   2
   2   7   4 1.97137 0.97962   2
   3   7   4 7.91453 2.19304   1
   3   7   4 4.62926 1.34686   2
   3   7   4 6.03976 1.96420   2
   3   7   4 10.3498 2.27399   3
   5  -8  -4 3.26791 0.96770   2
   5  -8  -4 8.09098 1.32376   3
   5  -8  -4 8.83258 1.33643   1
  -5   8   4 4.02539 1.52113   2
  -5   8   4 6.59777 1.94667   3
  -5   8   4 8.23788 1.92773   1
   4  -8  -4 -0.2842 0.63621   2
   4  -8  -4 0.86814 0.78347   3
   4  -8  -4 0.89954 0.72821   1
  -4   8   4 -0.0803 1.24720   1
  -4   8   4 0.00854 1.20586   3
  -4   8   4 0.02566 1.06117   2
   3  -8  -4 70.3726 6.31624   3
   3  -8  -4 82.0509 7.48010   1
   3  -8  -4 39.3677 3.72637   2
  -3   8   4 59.2599 6.95416   3
  -3   8   4 73.0089 8.22720   1
  -3   8   4 35.8981 4.13143   2
   2  -8  -4 70.3759 6.52567   2
   2  -8  -4 105.425 9.51717   1
   2  -8  -4 94.8762 9.15940   3
  -2   8   4 96.7538 11.3142   1
  -2   8   4 96.7239 10.4472   1
  -2   8   4 100.688 10.0504   3
  -2   8   4 94.5065 10.8645   3
  -2   8   4 65.6025 7.77870   2
  -2   8   4 68.3491 7.20204   2
   1  -8  -4 102.442 10.7443   1
   1  -8  -4 76.1126 8.48158   2
   1  -8  -4 115.852 11.0319   3
  -1   8   4 104.670 10.7617   1
  -1   8   4 86.9339 8.49491   2
  -1   8   4 96.9509 11.0015   3
   0   8   4 190.199 20.6727  -3
   0   8   4 190.199 20.6727  -2
   0   8   4 190.199 20.6727   1
   0   8   4 180.587 17.3516  -3
   0   8   4 180.587 17.3516  -2
   0   8   4 180.587 17.3516   1
  -1  -8  -4 14.2025 1.84338   3
  -1  -8  -4 13.8997 2.03548   3
  -1  -8  -4 18.7343 2.85471  -2
  -1  -8  -4 18.7343 2.85471   1
  -1  -8  -4 19.8199 2.66974  -2
  -1  -8  -4 19.8199 2.66974   1
   1   8   4 18.4570 2.30205   3
   1   8   4 11.9059 1.64328   3
   1   8   4 22.0515 2.54278  -2
   1   8   4 22.0515 2.54278   1
   1   8   4 18.6221 3.66041  -2
   1   8   4 18.6221 3.66041   1
  -2  -8  -4 1.30981 1.07507   2
  -2  -8  -4 4.53474 1.23478   1
   2   8   4 11.0682 1.98183   3
   2   8   4 7.16227 1.39752   3
   2   8   4 3.72224 1.58616   2
   2   8   4 1.81510 0.97355   2
   2   8   4 9.73920 1.91634   1
   2   8   4 6.25042 1.28561   1
   3   8   4 8.50040 2.14882   3
   3   8   4 4.50167 1.58141   3
   3   8   4 3.94299 2.29563   1
   3   8   4 3.61168 1.54661   1
   3   8   4 2.87780 2.02152   2
   3   8   4 2.35008 1.37043   2
   5  -9  -4 26.2394 2.94397   1
   5  -9  -4 26.2371 2.84005   3
   5  -9  -4 12.4694 1.59595   2
  -5   9   4 26.1185 3.41751   3
  -5   9   4 12.2889 2.15671   2
  -5   9   4 34.0583 3.80443   1
   4  -9  -4 34.8617 3.76056   3
   4  -9  -4 19.9122 2.15369   2
   4  -9  -4 38.2938 3.82096   1
  -4   9   4 21.9090 2.70543   2
  -4   9   4 37.2599 4.37374   1
  -4   9   4 40.3874 4.30049   3
   3  -9  -4 11.4210 1.41389   1
   3  -9  -4 0.45925 0.81866   3
   3  -9  -4 0.70463 0.68114   2
  -3   9   4 0.90608 1.00556   2
  -3   9   4 11.7648 1.88706   1
  -3   9   4 -0.7320 1.15459   3
   2  -9  -4 163.030 15.4622   1
   2  -9  -4 119.301 11.2105   2
   2  -9  -4 167.963 15.8159   3
  -2   9   4 115.108 12.2833   2
  -2   9   4 120.753 13.3345   2
  -2   9   4 162.749 16.9403   1
  -2   9   4 166.394 18.3659   1
  -2   9   4 172.347 17.3390   3
  -2   9   4 163.229 18.7403   3
   1  -9  -4 0.22912 1.07538   1
   1  -9  -4 2.87830 1.12784   3
   1  -9  -4 2.82570 1.12130   2
  -1   9   4 6.74049 2.91180  -3
  -1   9   4 6.74049 2.91180  -2
  -1   9   4 6.74049 2.91180   1
  -1   9   4 2.29128 1.27706   1
  -1   9   4 8.51235 2.32041  -3
  -1   9   4 8.51235 2.32041   2
  -1   9   4 5.55193 1.05259  -2
  -1   9   4 5.55193 1.05259   1
   0  -9  -4 7.52513 2.04481  -3
   0  -9  -4 7.52513 2.04481  -2
   0  -9  -4 7.52513 2.04481   1
   0   9   4 6.05743 2.86239  -3
   0   9   4 6.05743 2.86239  -2
   0   9   4 6.05743 2.86239   1
   0   9   4 6.10837 1.57747  -3
   0   9   4 6.10837 1.57747  -2
   0   9   4 6.10837 1.57747   1
  -1  -9  -4 6.65891 1.44170   1
  -1  -9  -4 4.04181 1.29303   2
  -1  -9  -4 8.07261 1.35988   3
  -1  -9  -4 9.47695 1.70081   3
  -1  -9  -4 14.1144 2.54212  -2
  -1  -9  -4 14.1144 2.54212   1
   1   9   4 2.64867 1.53521   2
   1   9   4 7.21529 1.82636   1
   1   9   4 10.1436 2.09691  -2
   1   9   4 10.1436 2.09691   1
   1   9   4 6.50439 1.16537   3
   1   9   4 8.75051 1.79921   3
  -2  -9  -4 3.39923 1.32910   2
   2   9   4 9.93698 1.55655   3
   2   9   4 10.7244 2.26268   3
   2   9   4 5.69473 2.12240   1
   2   9   4 8.32111 1.41789   1
   2   9   4 6.49678 1.92736   2
   2   9   4 4.82081 1.19089   2
   4 -10  -4 0.39053 0.91312   2
   4 -10  -4 2.78265 1.08898   1
   4 -10  -4 -0.6270 1.15776   3
  -4  10   4 1.82205 1.53888   3
  -4  10   4 1.15164 1.87592   1
  -4  10   4 0.49552 1.30355   2
   3 -10  -4 0.88367 0.73095   2
   3 -10  -4 1.38594 0.88154   1
   3 -10  -4 0.86502 0.90899   3
  -3  10   4 -0.0272 1.51334   3
  -3  10   4 0.11929 1.20395   2
  -3  10   4 1.26465 1.54430   1
   2 -10  -4 2.12330 0.91702   3
   2 -10  -4 0.56679 1.14699   1
   2 -10  -4 1.79400 0.79660   1
   2 -10  -4 1.43618 0.75078   2
  -2  10   4 1.29300 1.08351   2
  -2  10   4 1.21847 1.33284   2
  -2  10   4 1.98515 1.71533   1
  -2  10   4 1.36030 1.23850   1
  -2  10   4 1.08145 1.35691   3
  -2  10   4 4.64151 1.53993   3
   1 -10  -4 7.60574 2.30570  -3
   1 -10  -4 7.60574 2.30570   2
   1 -10  -4 3.84670 1.17732   1
  -1  10   4 4.54176 2.37294  -3
  -1  10   4 4.54176 2.37294   2
  -1  10   4 10.4754 3.41426  -3
  -1  10   4 10.4754 3.41426  -2
  -1  10   4 10.4754 3.41426   1
  -1  10   4 3.70873 1.29836   1
   0 -10  -4 0.39182 2.24489  -3
   0 -10  -4 0.39182 2.24489  -2
   0 -10  -4 0.39182 2.24489   1
   0  10   4 4.68793 1.57108  -3
   0  10   4 4.68793 1.57108  -2
   0  10   4 4.68793 1.57108   1
   0  10   4 2.83403 3.01272  -3
   0  10   4 2.83403 3.01272  -2
   0  10   4 2.83403 3.01272   1
  -1 -10  -4 0.01954 1.42060   2
  -1 -10  -4 0.02438 1.03369   2
  -1 -10  -4 -1.1287 1.16585   3
  -1 -10  -4 0.06963 1.33390   3
  -1 -10  -4 -0.5276 1.15960   1
  -1 -10  -4 0.69180 0.95134   1
   1  10   4 -2.1558 1.61307   3
   1  10   4 0.36742 0.88644   3
   1  10   4 -0.1351 1.98542  -2
   1  10   4 -0.1351 1.98542   1
   1  10   4 -3.9825 3.49802  -2
   1  10   4 -3.9825 3.49802   1
  -2 -10  -4 15.8260 2.41250   2
   2  10   4 31.7150 4.17017   1
   2  10   4 28.3653 3.22375   1
   2  10   4 47.4202 5.46647   3
   2  10   4 38.8175 4.44195   3
   2  10   4 21.1051 2.99250   2
   2  10   4 16.8976 2.10842   2
   4 -11  -4 -0.5397 1.19113   3
   4 -11  -4 1.35368 1.11236   1
   4 -11  -4 0.40893 1.00655   2
  -4  11   4 -0.5521 2.04746   1
  -4  11   4 -1.7511 1.73346   3
  -4  11   4 -1.4093 1.52557   2
   3 -11  -4 39.0648 4.12830   3
   3 -11  -4 34.6860 3.63829   1
   3 -11  -4 20.7994 2.15088   2
  -3  11   4 16.4579 2.56767   2
  -3  11   4 36.5008 4.30507   1
  -3  11   4 40.8896 4.75693   3
   2 -11  -4 4.45139 1.59766   1
   2 -11  -4 5.23393 1.13926   1
   2 -11  -4 -0.0143 1.39252   2
   2 -11  -4 4.36782 0.97526   2
   2 -11  -4 8.45395 1.36320   3
   2 -11  -4 4.17224 1.56960   3
  -2  11   4 3.39543 1.71110   1
  -2  11   4 7.75289 1.82750   1
  -2  11   4 4.83850 1.68631   3
  -2  11   4 5.61953 1.78542   3
  -2  11   4 2.16395 1.47609   2
  -2  11   4 2.75917 1.52632   2
   1 -11  -4 73.0471 7.40239   1
   1 -11  -4 152.367 15.9339  -3
   1 -11  -4 152.367 15.9339   2
  -1  11   4 182.435 20.6333  -3
  -1  11   4 182.435 20.6333   1
  -1  11   4 65.4244 7.42762   1
  -1  11   4 85.6697 9.87203   2
   0 -11  -4 -0.4415 2.28438  -3
   0 -11  -4 -0.4415 2.28438   2
   0 -11  -4 -1.1132 2.66813  -3
   0 -11  -4 -1.1132 2.66813  -2
   0 -11  -4 -1.1132 2.66813   1
   0 -11  -4 0.93429 1.38343   1
   0  11   4 0.84994 1.74838  -3
   0  11   4 0.84994 1.74838  -2
   0  11   4 0.84994 1.74838   1
   0  11   4 -1.3469 3.28698  -3
   0  11   4 -1.3469 3.28698  -2
   0  11   4 -1.3469 3.28698   1
  -1 -11  -4 1.71836 1.16612   2
  -1 -11  -4 2.21717 1.71138   2
  -1 -11  -4 2.31830 1.65756   1
  -1 -11  -4 0.79000 1.02968   1
  -1 -11  -4 1.44955 1.28274   3
  -1 -11  -4 4.34945 1.79022   3
   1  11   4 4.77750 1.99962   3
   1  11   4 3.19389 1.03451   3
   1  11   4 -0.3852 0.90567   2
   1  11   4 0.30305 1.94776   2
   1  11   4 3.86769 2.14268   1
   1  11   4 1.72955 1.09525   1
   3 -12  -4 5.19778 1.93181   1
   3 -12  -4 6.11781 1.27213   1
   3 -12  -4 8.47180 1.56264   3
   3 -12  -4 7.25782 2.02911   3
   3 -12  -4 4.21550 1.13753   2
  -3  12   4 6.10899 2.15617   3
  -3  12   4 3.87760 1.65668   2
  -3  12   4 9.24305 2.11668   1
   2 -12  -4 2.90897 1.23532   1
   2 -12  -4 9.09748 1.88851   1
   2 -12  -4 3.48586 1.10669   2
   2 -12  -4 2.52486 1.46185   2
   2 -12  -4 4.95573 1.37849   3
   2 -12  -4 2.97007 1.73259   3
  -2  12   4 7.57739 1.83864   1
  -2  12   4 3.28622 1.77961   2
  -2  12   4 3.85575 1.58497   2
  -2  12   4 5.79006 2.06439   3
  -2  12   4 13.9932 4.44366  -3
  -2  12   4 13.9932 4.44366   1
   1 -12  -4 -0.6509 2.82409  -3
   1 -12  -4 -0.6509 2.82409   2
   1 -12  -4 0.32405 1.40794   1
  -1  12   4 -0.3454 1.61945   1
  -1  12   4 -2.9021 4.75601  -3
  -1  12   4 -2.9021 4.75601  -2
  -1  12   4 -2.9021 4.75601   1
   0 -12  -4 145.480 14.1150  -3
   0 -12  -4 145.480 14.1150  -2
   0 -12  -4 145.480 14.1150   1
   0 -12  -4 48.6633 6.72218   1
   0 -12  -4 89.4223 11.1028  -3
   0 -12  -4 89.4223 11.1028   2
   0  12   4 111.031 9.97567  -3
   0  12   4 111.031 9.97567   2
   0  12   4 110.990 12.3191  -3
   0  12   4 110.990 12.3191   2
   0  12   4 64.5786 5.93647   1
   0  12   4 72.3392 7.62687   1
   2 -13  -4 18.9213 2.40059   3
   2 -13  -4 16.8455 3.03374   3
   2 -13  -4 10.9260 2.53394   1
   2 -13  -4 15.7298 2.00562   1
   2 -13  -4 12.3362 2.41222   2
   2 -13  -4 11.5133 1.82107   2
  -2  13   4 16.0223 2.83910   1
  -2  13   4 29.3084 5.88690  -3
  -2  13   4 29.3084 5.88690   1
  -2  13   4 9.84336 2.64640   2
  -2  13   4 8.76816 2.24633   2
  -2  13   4 16.1484 3.11248   3
   1 -13  -4 -2.3342 1.77185   1
  -1  13   4 2.07377 1.98020   2
  -1  13   4 6.02136 4.84076  -3
  -1  13   4 6.02136 4.84076   1
   0  14  -5 51.6249 7.25845  -3
   0  14  -5 51.6249 7.25845   1
   0  14  -5 11.2038 2.45389   2
   0 -14   5 47.7671 5.07673  -3
   0 -14   5 47.7671 5.07673   1
   0 -14   5 14.6613 2.21520   1
   0 -14   5 10.8557 1.98772   2
   0 -14   5 8.91049 1.28007   2
   0 -14   5 19.3388 2.77344   3
  -1  14  -5 0.08016 2.09947   2
  -1  14  -5 3.79095 3.17293  -3
  -1  14  -5 3.79095 3.17293   1
   1 -14   5 0.89848 1.79778   3
   1 -14   5 -0.0200 0.67910   2
   1 -14   5 0.12333 1.55080   2
   1 -14   5 2.82460 1.72545   1
   1 -14   5 2.34302 2.24005  -3
   1 -14   5 2.34302 2.24005   1
  -2  14  -5 22.3951 4.94221  -3
  -2  14  -5 22.3951 4.94221   1
  -2  14  -5 2.74385 1.97619   2
   2 -14   5 20.7700 5.80169  -3
   2 -14   5 20.7700 5.80169   1
   2 -14   5 10.8199 1.49338   3
   2 -14   5 5.57150 0.99481   2
   2 -14   5 4.51762 2.43075   2
   2 -14   5 13.4448 1.67859   1
   1  13  -5 0.44203 1.95441   2
   1  13  -5 3.51748 3.98481  -3
   1  13  -5 3.51748 3.98481   1
  -1 -13   5 3.63903 1.51965   1
  -1 -13   5 6.47797 2.91537  -3
  -1 -13   5 6.47797 2.91537   1
  -1 -13   5 1.78145 1.78291   3
  -1 -13   5 -0.6064 1.28527   2
  -1 -13   5 1.18964 1.28503   2
   0  13  -5 -1.0972 3.67984  -3
   0  13  -5 -1.0972 3.67984   1
   0  13  -5 0.42486 1.95335   2
   0 -13   5 -0.4269 1.19159   2
   0 -13   5 0.35219 0.66094   2
   0 -13   5 -0.3688 1.22583   1
   0 -13   5 0.28321 1.28289   3
   0 -13   5 -0.9101 1.14044  -3
   0 -13   5 -0.9101 1.14044   1
  -1  13  -5 4.20557 1.92318   2
  -1  13  -5 12.2047 3.33045  -3
  -1  13  -5 12.2047 3.33045   1
   1 -13   5 22.5793 2.63906  -3
   1 -13   5 22.5793 2.63906   1
   1 -13   5 13.0982 2.12746   1
   1 -13   5 3.35238 1.47703   2
   1 -13   5 3.64225 0.70810   2
   1 -13   5 12.1121 2.15866   3
  -2  13  -5 1.69226 1.61597   2
  -2  13  -5 7.52654 3.45090  -3
  -2  13  -5 7.52654 3.45090   1
   2 -13   5 0.16691 0.68900   2
   2 -13   5 -0.3450 2.18748   2
   2 -13   5 6.48152 4.18913  -3
   2 -13   5 6.48152 4.18913   1
   2 -13   5 4.05791 0.88610   1
   2 -13   5 0.77501 0.77480   3
  -3  13  -5 24.1830 3.79170   1
  -3  13  -5 11.0073 2.72976   3
   3 -13   5 27.2901 3.87238   1
   3 -13   5 7.85406 2.93916   3
   2  12  -5 -0.9732 1.84482   2
   2  12  -5 -0.0673 0.96616   2
   2  12  -5 -1.0810 0.91301   3
   2  12  -5 0.37952 1.98125   3
   2  12  -5 0.94954 2.00419   1
   2  12  -5 -0.4556 1.02034   1
  -2 -12   5 -0.6987 1.46895   1
  -2 -12   5 -0.0988 1.45905   1
  -2 -12   5 -0.5448 1.25604   2
  -2 -12   5 0.93477 1.33069   2
  -2 -12   5 -0.6133 1.32285   3
  -2 -12   5 -1.0305 1.62553   3
   1  12  -5 14.2662 2.48279   2
   1  12  -5 49.8353 6.89401  -3
   1  12  -5 49.8353 6.89401   1
  -1 -12   5 56.7796 5.68187  -3
  -1 -12   5 56.7796 5.68187   1
  -1 -12   5 36.7372 4.29148   3
  -1 -12   5 15.0451 2.05578   2
  -1 -12   5 15.1247 1.90441   2
  -1 -12   5 25.4692 3.06869   1
   0  12  -5 20.6457 2.43084   2
   0  12  -5 93.9702 6.55667  -3
   0  12  -5 93.9702 6.55667   1
   0 -12   5 15.1094 1.95636   2
   0 -12   5 12.4704 1.55204   2
   0 -12   5 40.7697 4.71656  -3
   0 -12   5 40.7697 4.71656   1
   0 -12   5 34.0679 3.81300   1
   0 -12   5 40.7393 4.53659   3
  -1  12  -5 3.06894 2.29806  -3
  -1  12  -5 3.06894 2.29806   1
  -1  12  -5 0.33174 1.49357   2
   1 -12   5 -0.1107 1.20080   2
   1 -12   5 0.32625 0.46614   2
   1 -12   5 -0.8176 1.18652   3
   1 -12   5 2.96781 1.66044  -3
   1 -12   5 2.96781 1.66044   1
   1 -12   5 4.05994 1.32127   1
  -2  12  -5 5.35029 1.50550   2
  -2  12  -5 14.3267 3.75121  -3
  -2  12  -5 14.3267 3.75121   1
   2 -12   5 19.7798 4.45615  -3
   2 -12   5 19.7798 4.45615   1
   2 -12   5 4.48808 0.72206   2
   2 -12   5 3.73708 1.96849   2
   2 -12   5 13.2265 1.46566   3
   2 -12   5 15.3981 1.63231   1
   3 -12   5 1.05236 0.59769   3
   3 -12   5 0.04999 2.11302   3
   3 -12   5 19.2959 3.23479   1
   3  11  -5 10.4264 1.67049   3
   3  11  -5 6.88739 1.32782   2
   3  11  -5 9.77301 1.69558   1
   3  11  -5 16.6380 2.77430   1
  -3 -11   5 7.41968 1.82744   2
  -3 -11   5 14.1238 2.37756   3
  -3 -11   5 10.7068 1.97381   1
   2  11  -5 2.19276 1.61565   1
   2  11  -5 1.50574 1.69591   1
   2  11  -5 -0.0202 0.80796   1
   2  11  -5 1.07166 0.87685   3
   2  11  -5 1.19519 1.67174   3
   2  11  -5 1.28116 1.45974   3
   2  11  -5 -0.6326 1.54351   2
   2  11  -5 0.01288 0.79313   2
   2  11  -5 1.05278 1.60089   2
  -2 -11   5 0.21940 0.99645   2
  -2 -11   5 0.78594 1.09416   2
  -2 -11   5 0.90581 1.16846   3
  -2 -11   5 0.10402 1.26137   3
  -2 -11   5 0.43972 1.25843   1
  -2 -11   5 0.37150 1.14953   1
   1  11  -5 124.074 12.1452   3
   1  11  -5 145.905 13.9973   3
   1  11  -5 55.8549 6.89273   2
   1  11  -5 56.9771 7.18097   2
   1  11  -5 124.920 11.4414   1
   1  11  -5 120.786 13.1778   1
   1  11  -5 212.472 25.0853  -3
   1  11  -5 212.472 25.0853   1
  -1 -11   5 63.7756 6.55580   2
  -1 -11   5 67.0101 6.00203   2
  -1 -11   5 124.458 13.4010   3
  -1 -11   5 115.802 12.6070   1
  -1 -11   5 233.229 21.1664  -3
  -1 -11   5 233.229 21.1664   1
   0  11  -5 7.89608 2.10715  -3
   0  11  -5 7.89608 2.10715   1
   0  11  -5 7.50961 2.79941  -3
   0  11  -5 7.50961 2.79941   1
   0  11  -5 0.54002 1.25518   2
   0  11  -5 -0.3854 1.42393   2
   0 -11   5 0.12071 0.48808   2
   0 -11   5 0.44443 1.02514   2
   0 -11   5 0.84716 0.89939   1
   0 -11   5 -0.1825 0.93853   3
   0 -11   5 3.81913 1.00913  -3
   0 -11   5 3.81913 1.00913   1
  -1  11  -5 26.1335 4.11742  -3
  -1  11  -5 26.1335 4.11742   1
  -1  11  -5 14.5570 1.66721   2
  -1  11  -5 11.3859 1.79609   2
  -1  11  -5 25.6062 3.17462   3
  -1  11  -5 20.8930 2.79861   1
   1 -11   5 24.8457 2.75165   1
   1 -11   5 11.1447 1.39905   2
   1 -11   5 6.24787 0.91974   2
   1 -11   5 27.6870 3.12653   3
   1 -11   5 37.8749 3.38660  -3
   1 -11   5 37.8749 3.38660   1
  -2  11  -5 9.11135 1.56043   1
  -2  11  -5 0.18895 1.29404   2
  -2  11  -5 -0.1431 1.18178   2
  -2  11  -5 2.17972 0.98878   3
  -2  11  -5 7.05649 3.02843  -3
  -2  11  -5 7.05649 3.02843   1
   2 -11   5 2.39015 0.58861   3
   2 -11   5 0.14616 1.32221   2
   2 -11   5 0.64150 0.42338   2
   2 -11   5 8.27059 3.13394  -3
   2 -11   5 8.27059 3.13394   1
   2 -11   5 8.68939 0.98677   1
  -3  11  -5 37.8575 5.54769   2
  -3  11  -5 42.6738 4.95964   2
  -3  11  -5 82.2363 8.10824   3
  -3  11  -5 67.2779 7.90432   1
   3 -11   5 147.444 16.9480  -3
   3 -11   5 147.444 16.9480   1
   3 -11   5 44.7940 5.04446   2
   3 -11   5 70.6149 6.92177   3
   3 -11   5 77.3529 7.97022   1
  -4  11  -5 6.37315 1.95669   2
  -4  11  -5 11.1927 2.31464   3
  -4  11  -5 8.47591 2.08088   1
   4 -11   5 13.9005 2.49374   3
   4 -11   5 4.64008 1.93003   2
   4 -11   5 12.5310 2.28906   1
   3  10  -5 3.97189 1.23275   3
   3  10  -5 5.77289 1.77046   3
   3  10  -5 2.26473 1.90267   1
   3  10  -5 3.49304 1.18305   1
   3  10  -5 3.71538 1.91519   2
   3  10  -5 2.08974 0.95960   2
  -3 -10   5 2.91467 1.52997   3
  -3 -10   5 5.24569 1.49116   1
  -3 -10   5 1.72850 1.31250   2
   2  10  -5 8.67718 1.76943   2
   2  10  -5 5.83988 1.05694   2
   2  10  -5 7.22264 1.69137   2
   2  10  -5 14.0737 2.28201   3
   2  10  -5 19.5138 2.24235   3
   2  10  -5 13.3532 1.61373   3
   2  10  -5 17.6313 2.32315   1
   2  10  -5 12.3633 1.67231   1
   2  10  -5 15.8655 2.33580   1
  -2 -10   5 6.92688 1.25697   2
  -2 -10   5 9.22084 1.37770   2
  -2 -10   5 16.1821 1.90824   1
  -2 -10   5 13.6357 1.94366   1
  -2 -10   5 11.1575 1.95577   3
  -2 -10   5 13.8357 1.81641   3
   1  10  -5 3.42201 1.28305   3
   1  10  -5 0.64807 1.19890   2
   1  10  -5 0.23475 0.49252   2
   1  10  -5 1.51938 1.27238   2
   1  10  -5 12.6334 1.65041  -3
   1  10  -5 12.6334 1.65041   1
   1  10  -5 12.5486 3.00786  -3
   1  10  -5 12.5486 3.00786   1
   1  10  -5 4.62666 1.27638   1
  -1 -10   5 2.01517 0.93329   1
  -1 -10   5 0.86395 0.85109   2
  -1 -10   5 1.92554 0.86761   2
  -1 -10   5 4.35452 1.15308   3
  -1 -10   5 11.7168 2.12403  -3
  -1 -10   5 11.7168 2.12403   1
   0  10  -5 1.04878 1.19788   2
   0  10  -5 1.91432 1.09993   2
   0  10  -5 2.58954 1.03423   3
   0  10  -5 8.38053 2.57580  -3
   0  10  -5 8.38053 2.57580   1
   0  10  -5 0.68930 1.04368   1
   0 -10   5 2.47357 0.82281   1
   0 -10   5 6.73707 1.34035  -3
   0 -10   5 6.73707 1.34035   1
   0 -10   5 3.46999 0.96968   3
   0 -10   5 0.70648 0.44858   2
   0 -10   5 1.76519 0.84694   2
  -1  10  -5 78.7227 9.09225   3
  -1  10  -5 40.4784 5.32316   2
  -1  10  -5 45.9349 5.08700   2
  -1  10  -5 70.3235 8.11810   1
   1 -10   5 161.937 15.2660  -3
   1 -10   5 161.937 15.2660   1
   1 -10   5 41.5388 5.44040   2
   1 -10   5 49.4604 4.86161   2
   1 -10   5 45.7695 4.32465   2
   1 -10   5 80.3029 7.83542   1
   1 -10   5 90.9118 8.79831   3
  -2  10  -5 43.4964 5.37397   3
  -2  10  -5 45.4132 4.96838   3
  -2  10  -5 57.2649 6.70696   1
  -2  10  -5 59.3040 6.30561   1
  -2  10  -5 25.5470 3.22237   2
  -2  10  -5 27.1180 3.09283   2
   2 -10   5 56.1297 5.42085   1
   2 -10   5 25.0754 3.25437   2
   2 -10   5 24.5887 2.45487   2
   2 -10   5 44.0286 4.25421   3
   2 -10   5 113.376 13.0619  -3
   2 -10   5 113.376 13.0619   1
  -3  10  -5 5.22927 1.53367   3
  -3  10  -5 3.02646 1.22081   1
  -3  10  -5 2.60157 1.38073   2
   3 -10   5 3.44571 2.02807   2
   3 -10   5 1.72010 1.39966   2
   3 -10   5 4.07822 1.34721   1
   3 -10   5 10.5854 3.91414  -3
   3 -10   5 10.5854 3.91414   1
   3 -10   5 6.32672 0.84026   3
  -4  10  -5 84.0334 9.06366   3
  -4  10  -5 67.1484 8.11397   1
  -4  10  -5 40.7976 5.03700   2
   4 -10   5 44.0305 5.07845   2
   4 -10   5 43.3528 4.14664   2
   4 -10   5 88.0123 8.28427   1
   4 -10   5 72.6395 6.97411   1
   4 -10   5 78.4432 7.74905   3
   4 -10   5 90.3464 9.13311   3
   4   9  -5 18.3440 3.01941   2
   4   9  -5 14.1639 2.14990   2
   4   9  -5 30.1156 3.88810   1
   4   9  -5 29.1878 3.23147   1
   4   9  -5 32.9293 3.49714   3
   4   9  -5 37.2285 4.22511   3
  -4  -9   5 17.3283 2.34357   2
  -4  -9   5 25.7240 3.42106   1
  -4  -9   5 26.5970 3.82016   3
   3   9  -5 3.41467 1.08397   3
   3   9  -5 6.17956 1.45494   3
   3   9  -5 3.37400 1.16505   1
   3   9  -5 8.57349 1.77546   1
   3   9  -5 5.45948 1.79809   2
   3   9  -5 2.43046 0.90949   2
  -3  -9   5 2.70339 1.17283   2
  -3  -9   5 3.78323 1.34413   1
  -3  -9   5 3.89472 1.31211   3
   2   9  -5 10.1544 2.01996   1
   2   9  -5 13.0043 1.97557   1
   2   9  -5 10.8708 1.45856   1
   2   9  -5 10.6633 1.97961   3
   2   9  -5 10.9947 1.93727   3
   2   9  -5 11.2910 1.44124   3
   2   9  -5 4.32876 0.84275   2
   2   9  -5 5.87612 1.43612   2
   2   9  -5 8.66284 1.50227   2
  -2  -9   5 13.5323 1.78881   3
  -2  -9   5 17.7152 1.72605   3
  -2  -9   5 21.3051 1.74822   1
  -2  -9   5 10.3044 1.66686   1
  -2  -9   5 3.88732 1.08592   2
  -2  -9   5 6.98405 1.08636   2
   1   9  -5 34.3210 3.79590   2
   1   9  -5 34.8065 4.03185   2
   1   9  -5 33.2554 3.13599   2
   1   9  -5 62.2709 6.59708   3
   1   9  -5 70.8505 7.15655   1
   1   9  -5 114.151 11.4500  -3
   1   9  -5 114.151 11.4500   1
   1   9  -5 123.477 13.7455  -3
   1   9  -5 123.477 13.7455   1
  -1  -9   5 29.7993 3.18998   2
  -1  -9   5 29.4769 3.53946   2
  -1  -9   5 131.335 11.5546  -3
  -1  -9   5 131.335 11.5546   1
  -1  -9   5 57.2177 6.32051   3
  -1  -9   5 60.3372 6.79737   1
   0   9  -5 20.1313 2.47548   2
   0   9  -5 20.3820 2.65227   2
   0   9  -5 91.2023 8.39365  -3
   0   9  -5 91.2023 8.39365   1
   0   9  -5 31.5757 4.02709   3
   0   9  -5 41.9454 5.08964   1
   0  -9   5 50.6995 4.91222   1
   0  -9   5 19.7752 2.09094   2
   0  -9   5 20.8666 2.33795   2
   0  -9   5 65.6163 6.84567  -3
   0  -9   5 65.6163 6.84567   1
   0  -9   5 39.4750 3.86726   3
  -1   9  -5 14.2034 2.14477   2
  -1   9  -5 16.5661 2.17322   2
  -1   9  -5 40.9193 6.29655  -3
  -1   9  -5 40.9193 6.29655   1
  -1   9  -5 31.5550 3.78850   3
  -1   9  -5 28.0826 3.41618   1
   1  -9   5 30.8825 3.26824   1
   1  -9   5 18.4140 2.01019   2
   1  -9   5 16.4332 2.33695   2
   1  -9   5 17.4122 1.71712   2
   1  -9   5 37.1280 3.74540   3
   1  -9   5 64.6216 5.28558  -3
   1  -9   5 64.6216 5.28558   1
   1  -9   5 57.4672 6.44279  -3
   1  -9   5 57.4672 6.44279   1
  -2   9  -5 9.04114 1.65744   2
  -2   9  -5 10.5259 1.47034   2
  -2   9  -5 98.4005 11.3116  -3
  -2   9  -5 98.4005 11.3116   1
  -2   9  -5 74.9651 8.66504   1
  -2   9  -5 20.8419 2.40647   3
   2  -9   5 98.0365 11.3334  -3
   2  -9   5 98.0365 11.3334   1
   2  -9   5 13.0526 1.75275   2
   2  -9   5 7.96052 0.90827   2
   2  -9   5 82.2365 7.53767   1
   2  -9   5 18.6908 1.95513   3
  -3   9  -5 0.20375 1.06047   2
  -3   9  -5 0.71306 1.04147   3
  -3   9  -5 -0.0630 0.88398   1
   3  -9   5 -0.8158 1.39558   2
   3  -9   5 -0.5880 1.25178   2
   3  -9   5 0.63002 0.44395   2
   3  -9   5 0.54543 0.46902   3
   3  -9   5 0.06736 0.47792   1
   3  -9   5 0.97184 1.01366   1
   3  -9   5 3.13430 3.47411  -3
   3  -9   5 3.13430 3.47411   1
  -4   9  -5 10.1028 2.05552   3
  -4   9  -5 9.15340 1.77158   1
  -4   9  -5 2.18815 1.62333   2
   4  -9   5 8.88743 1.97975   1
   4  -9   5 11.6776 1.22145   1
   4  -9   5 12.5089 1.36415   3
   4  -9   5 10.5971 2.13938   3
   4  -9   5 3.10018 1.64169   2
   4  -9   5 5.77712 0.84149   2
   4   8  -5 8.42676 1.86130   3
   4   8  -5 6.52696 1.66868   3
   4   8  -5 5.27180 1.97622   1
   4   8  -5 5.71682 1.59531   1
   4   8  -5 5.58774 1.99084   2
   4   8  -5 3.45657 1.35975   2
  -4  -8   5 6.64711 1.54405   1
  -4  -8   5 3.94001 1.37326   2
  -4  -8   5 8.32705 1.74354   3
   3   8  -5 1.17956 1.40697   2
   3   8  -5 0.50516 0.83763   2
   3   8  -5 2.16442 1.19539   3
   3   8  -5 -0.1073 0.88314   3
   3   8  -5 0.45771 0.92259   1
   3   8  -5 0.23027 1.41216   1
  -3  -8   5 0.81023 1.10729   3
  -3  -8   5 0.02197 0.88429   1
  -3  -8   5 -0.3175 0.86661   2
   2   8  -5 4.17377 1.20097   1
   2   8  -5 2.01650 0.72575   1
   2   8  -5 3.08691 1.15061   1
   2   8  -5 1.43756 1.12326   2
   2   8  -5 2.36052 0.68335   2
   2   8  -5 1.95003 1.27414   2
   2   8  -5 4.06593 1.20993   3
   2   8  -5 3.01478 0.74605   3
   2   8  -5 3.55324 1.06683   3
  -2  -8   5 1.40891 0.92995   3
  -2  -8   5 4.76726 1.00966   3
  -2  -8   5 3.10418 0.94252   1
  -2  -8   5 4.31875 0.91749   1
  -2  -8   5 2.76983 0.92974   2
  -2  -8   5 1.29036 0.80958   2
   1   8  -5 89.9429 9.46457   2
   1   8  -5 77.3489 9.84756   2
   1   8  -5 91.8837 8.24558   2
   1   8  -5 315.335 35.1221  -3
   1   8  -5 315.335 35.1221   1
   1   8  -5 161.230 16.4619   1
   1   8  -5 154.352 14.3992   1
   1   8  -5 161.027 15.1078   3
   1   8  -5 161.464 17.2494   3
  -1  -8   5 83.2669 9.03876   2
  -1  -8   5 91.1793 8.29099   2
  -1  -8   5 315.955 29.6770  -3
  -1  -8   5 315.955 29.6770   1
  -1  -8   5 145.194 15.7568   1
  -1  -8   5 159.716 16.5514   3
   0   8  -5 4.77689 1.18593   2
   0   8  -5 5.32537 1.28130   2
   0   8  -5 13.8211 1.64329   1
   0   8  -5 9.57114 1.38868   3
   0   8  -5 26.0199 3.08611  -3
   0   8  -5 26.0199 3.08611   1
   0  -8   5 7.68028 0.84049   2
   0  -8   5 6.52905 1.04883   2
   0  -8   5 10.3440 1.34004   3
   0  -8   5 11.1950 1.47485   1
   0  -8   5 20.8380 2.26655  -3
   0  -8   5 20.8380 2.26655   1
  -1   8  -5 140.843 18.7668  -3
  -1   8  -5 140.843 18.7668   1
  -1   8  -5 59.0782 6.28833   2
  -1   8  -5 54.3241 6.51123   2
  -1   8  -5 109.726 11.5125   3
  -1   8  -5 112.156 11.8982   1
   1  -8   5 112.134 10.4086   1
   1  -8   5 107.083 11.3871   1
   1  -8   5 204.421 18.8292  -3
   1  -8   5 204.421 18.8292   1
   1  -8   5 107.165 10.0905   3
   1  -8   5 104.111 11.0667   3
   1  -8   5 62.0179 6.58265   2
   1  -8   5 56.5192 5.98069   2
   1  -8   5 56.6119 5.41379   2
  -2   8  -5 31.0878 3.31339   2
  -2   8  -5 23.4508 2.91493   2
  -2   8  -5 43.3011 4.70057   1
  -2   8  -5 46.5129 4.88556   3
   2  -8   5 43.1320 4.21782   3
   2  -8   5 96.9650 11.1046  -3
   2  -8   5 96.9650 11.1046   1
   2  -8   5 27.4177 3.28215   2
   2  -8   5 23.8690 2.41088   2
   2  -8   5 42.1460 4.04475   1
  -3   8  -5 2.19914 1.06974   3
  -3   8  -5 2.65456 1.05770   1
  -3   8  -5 2.66805 1.19304   2
   3  -8   5 1.87243 1.27505   2
   3  -8   5 1.99351 0.54587   2
   3  -8   5 -0.1309 1.21575   2
   3  -8   5 3.53614 0.61220   1
   3  -8   5 2.47716 1.16158   1
   3  -8   5 6.51208 3.16435  -3
   3  -8   5 6.51208 3.16435   1
   3  -8   5 3.33656 0.60534   3
  -4   8  -5 0.06678 1.40626   2
  -4   8  -5 3.09997 1.29773   3
  -4   8  -5 4.01332 1.37037   1
   4  -8   5 1.73739 1.49782   2
   4  -8   5 1.38992 0.67891   2
   4  -8   5 3.41807 0.70391   1
   4  -8   5 3.83138 1.48705   1
   4  -8   5 2.49212 0.74473   3
   4  -8   5 2.73213 1.35021   3
   5  -8   5 -0.0045 1.80350   2
   5  -8   5 -0.4132 0.98589   2
   5  -8   5 -0.8914 1.68800   1
   5  -8   5 1.48646 0.96018   1
   5  -8   5 0.41150 1.06682   3
   5  -8   5 3.18894 2.04866   3
   4   7  -5 -0.7359 1.24674   3
   4   7  -5 0.05250 1.39222   3
   4   7  -5 -0.8183 1.38275   1
   4   7  -5 1.92946 1.34058   1
   4   7  -5 2.45311 1.10214   2
   4   7  -5 -1.8070 1.58730   2
  -4  -7   5 1.16129 1.41581   3
  -4  -7   5 -0.2866 1.11468   2
  -4  -7   5 0.74293 1.15747   1
   3   7  -5 2.14753 0.87125   2
   3   7  -5 1.71669 1.19496   2
   3   7  -5 2.87266 0.95651   1
   3   7  -5 -0.8698 1.13314   1
   3   7  -5 5.04599 1.23314   3
   3   7  -5 2.06188 1.01306   3
  -3  -7   5 1.62713 0.85346   2
  -3  -7   5 4.11384 1.09008   3
  -3  -7   5 5.39438 1.01110   1
   2   7  -5 0.29967 0.58113   2
   2   7  -5 0.69358 1.05949   2
   2   7  -5 0.78188 1.12918   2
   2   7  -5 1.00871 0.64498   3
   2   7  -5 2.09722 0.97876   3
   2   7  -5 1.25326 0.95331   3
   2   7  -5 0.34673 0.98442   1
  -2  -7   5 4.47345 0.86801   1
  -2  -7   5 0.44259 0.75389   3
  -2  -7   5 0.87944 0.87990   3
  -2  -7   5 0.06874 0.67577   2
  -2  -7   5 -0.2959 0.65837   2
   1   7  -5 82.5696 8.96257   1
   1   7  -5 84.8106 7.81061   1
   1   7  -5 140.485 16.4969  -3
   1   7  -5 140.485 16.4969   1
   1   7  -5 28.8388 4.23330   2
   1   7  -5 31.9545 4.03718   2
   1   7  -5 39.9977 3.48830   2
   1   7  -5 73.8123 6.97069   3
   1   7  -5 69.5366 7.99054   3
  -1  -7   5 77.1775 7.66052   3
  -1  -7   5 79.8568 8.56349   1
  -1  -7   5 39.2398 3.51737   2
  -1  -7   5 36.0646 3.81766   2
  -1  -7   5 152.141 13.9002  -3
  -1  -7   5 152.141 13.9002   1
   0   7  -5 104.584 10.7539   2
   0   7  -5 94.5047 11.1680   2
   0   7  -5 183.076 19.5290   3
   0   7  -5 215.849 22.8154   1
   0   7  -5 354.701 35.4638  -3
   0   7  -5 354.701 35.4638   1
   0  -7   5 99.8463 9.39413   2
   0  -7   5 98.5366 11.1842   2
   0  -7   5 101.071 10.2747   2
   0  -7   5 211.307 21.8735   1
   0  -7   5 293.379 29.9305  -3
   0  -7   5 293.379 29.9305   1
   0  -7   5 182.071 18.7453   3
  -1   7  -5 41.0023 4.94384   2
  -1   7  -5 44.7063 4.77636   2
  -1   7  -5 82.1044 8.58696   3
  -1   7  -5 83.9743 8.81936   1
  -1   7  -5 121.754 15.8053  -3
  -1   7  -5 121.754 15.8053   1
   1  -7   5 79.8431 8.42533   1
   1  -7   5 143.184 15.8292  -3
   1  -7   5 143.184 15.8292   1
   1  -7   5 154.490 13.3212  -3
   1  -7   5 154.490 13.3212   1
   1  -7   5 40.2546 4.99343   2
   1  -7   5 44.0743 4.50512   2
   1  -7   5 43.3810 4.08128   2
   1  -7   5 77.1116 8.24066   3
  -2   7  -5 190.532 20.0102   3
  -2   7  -5 112.777 11.3916   2
  -2   7  -5 188.397 19.1378   1
   2  -7   5 100.462 11.8519   2
   2  -7   5 104.839 9.93385   2
   2  -7   5 172.865 16.7878   1
   2  -7   5 184.825 17.5661   3
   2  -7   5 377.181 41.9259  -3
   2  -7   5 377.181 41.9259   1
  -3   7  -5 1.22399 1.10626   2
  -3   7  -5 1.07693 1.02367   3
  -3   7  -5 2.87163 0.87359   1
   3  -7   5 0.50786 0.56885   3
   3  -7   5 1.19441 1.29701   3
   3  -7   5 1.97351 1.06459   3
   3  -7   5 1.74445 0.52810   1
   3  -7   5 2.16480 1.27371   1
   3  -7   5 1.14886 0.94446   1
   3  -7   5 -1.3530 1.09312   2
   3  -7   5 0.93402 0.48969   2
   3  -7   5 -0.0030 1.05786   2
  -4   7  -5 6.88129 1.55733   1
  -4   7  -5 12.4984 1.90086   3
   4  -7   5 9.46078 1.28694   3
   4  -7   5 12.0138 1.95215   3
   4  -7   5 11.3798 1.70679   1
   4  -7   5 10.7377 1.17168   1
   4  -7   5 5.88653 0.98145   2
   4  -7   5 10.0683 1.72188   2
   5  -7   5 18.1919 2.05265   1
   5  -7   5 18.8306 2.94649   1
   5  -7   5 17.4305 2.17552   3
   5  -7   5 22.9137 2.90400   3
   5  -7   5 10.8723 1.37975   2
   5  -7   5 8.38202 2.17259   2
   5   6  -5 49.5348 5.57139   3
   5   6  -5 29.0917 3.68003   2
   5   6  -5 44.3390 5.79860   1
  -5  -6   5 39.5004 5.24430   3
  -5  -6   5 53.9648 5.22505   3
  -5  -6   5 52.0831 5.56543   1
  -5  -6   5 22.9161 3.27628   2
   4   6  -5 3.26081 1.40195   2
   4   6  -5 4.25205 1.22685   2
   4   6  -5 7.19126 1.74744   3
   4   6  -5 7.24724 1.70106   1
  -4  -6   5 3.76257 1.17580   2
  -4  -6   5 6.15390 1.37336   1
  -4  -6   5 7.17614 1.59403   3
   3   6  -5 23.5383 2.67255   1
   3   6  -5 29.6356 3.20176   1
   3   6  -5 15.1857 2.02621   2
   3   6  -5 15.2941 1.65088   2
   3   6  -5 24.9880 3.21263   3
   3   6  -5 28.7732 2.79395   3
  -3  -6   5 24.7347 2.88752   1
  -3  -6   5 25.1435 2.99366   3
  -3  -6   5 11.7252 1.70682   2
   2   6  -5 12.8551 1.35718   2
   2   6  -5 14.7910 1.80304   2
   2   6  -5 13.4562 1.82168   2
   2   6  -5 25.5141 2.67481   1
   2   6  -5 26.2126 3.08830   1
   2   6  -5 26.7421 3.28310   1
   2   6  -5 26.0544 2.73145   3
   2   6  -5 25.4475 3.14418   3
   2   6  -5 24.3954 3.22783   3
  -2  -6   5 28.4061 2.93253   1
  -2  -6   5 24.7061 2.69754   1
  -2  -6   5 28.4151 3.00994   3
  -2  -6   5 28.5820 2.77229   3
  -2  -6   5 12.5340 1.52440   2
  -2  -6   5 9.86900 1.36740   2
   1   6  -5 7.00804 1.05289   3
   1   6  -5 7.07394 1.17509   3
   1   6  -5 6.37567 0.81591   3
   1   6  -5 3.12364 0.87278   2
   1   6  -5 3.12121 0.92962   2
   1   6  -5 4.12128 0.61828   2
   1   6  -5 12.7461 1.40321   1
   1   6  -5 6.48682 1.00176   1
   1   6  -5 11.4393 1.38957   1
  -1  -6   5 3.00324 0.68031   2
  -1  -6   5 4.01957 0.60642   2
  -1  -6   5 6.10920 1.02897   3
  -1  -6   5 19.1485 2.14614  -3
  -1  -6   5 19.1485 2.14614   1
  -1  -6   5 9.61730 1.19469   1
   0   6  -5 79.4902 7.42068   3
   0   6  -5 81.8201 8.52499   3
   0   6  -5 126.927 16.3414  -3
   0   6  -5 126.927 16.3414   1
   0   6  -5 160.272 13.7396  -3
   0   6  -5 160.272 13.7396   1
   0   6  -5 37.8589 4.72853   2
   0   6  -5 45.6513 4.57500   2
   0   6  -5 76.7569 7.02318   1
   0   6  -5 68.7457 8.06214   1
   0  -6   5 143.517 13.7873  -3
   0  -6   5 143.517 13.7873   1
   0  -6   5 147.717 16.3784  -3
   0  -6   5 147.717 16.3784   1
   0  -6   5 43.4658 4.33303   2
   0  -6   5 43.0664 3.94848   2
   0  -6   5 36.2508 4.73475   2
   0  -6   5 75.4330 8.16495   3
   0  -6   5 76.3762 7.71924   1
  -1   6  -5 104.375 11.2983   1
  -1   6  -5 50.0543 5.08360   2
  -1   6  -5 48.3528 4.86291   2
  -1   6  -5 78.7079 8.08003   3
  -1   6  -5 166.166 17.5594  -3
  -1   6  -5 166.166 17.5594   1
   1  -6   5 44.2888 4.57549   2
   1  -6   5 45.2147 4.18660   2
   1  -6   5 40.2067 4.16901   2
   1  -6   5 41.3239 5.06458   2
   1  -6   5 69.8190 7.06727   3
   1  -6   5 79.3101 7.74962   3
   1  -6   5 109.714 10.8171   1
   1  -6   5 102.419 9.90544   1
   1  -6   5 148.962 17.5544  -3
   1  -6   5 148.962 17.5544   1
  -2   6  -5 280.276 30.8303   2
  -2   6  -5 581.928 58.3835   1
  -2   6  -5 510.845 54.7024   3
   2  -6   5 1016.91 112.709  -3
   2  -6   5 1016.91 112.709   1
   2  -6   5 515.796 48.1422   3
   2  -6   5 290.878 27.0999   2
   2  -6   5 294.788 32.0963   2
   2  -6   5 519.995 51.3757   1
  -3   6  -5 319.024 34.1913   1
  -3   6  -5 206.283 21.9250   2
  -3   6  -5 353.032 36.8338   3
   3  -6   5 353.637 38.3586   3
   3  -6   5 343.894 32.3885   3
   3  -6   5 330.342 36.8405   3
   3  -6   5 322.804 30.0599   1
   3  -6   5 326.472 35.6097   1
   3  -6   5 312.262 34.2041   1
   3  -6   5 211.889 21.9389   2
   3  -6   5 204.492 19.2377   2
   3  -6   5 197.708 22.8047   2
  -4   6  -5 5.03475 1.51172   1
  -4   6  -5 12.8835 1.91196   3
   4  -6   5 12.1243 1.67703   1
   4  -6   5 10.2255 1.12796   1
   4  -6   5 4.98561 1.50420   2
   4  -6   5 6.43504 0.94169   2
   4  -6   5 10.7078 1.36233   3
   4  -6   5 13.0666 2.00197   3
   5  -6   5 3.88529 0.96691   2
   5  -6   5 1.32739 1.76788   2
   5  -6   5 7.30033 1.23787   1
   5  -6   5 7.85859 2.06353   1
   5  -6   5 5.46571 1.20635   3
   5  -6   5 2.15964 1.81223   3
   5   5  -5 -0.4347 1.95336   1
   5   5  -5 -0.0261 1.72012   2
   5   5  -5 -0.4586 1.67585   3
  -5  -5   5 0.26236 1.31545   3
  -5  -5   5 1.18187 1.63263   3
  -5  -5   5 0.36594 1.14347   1
  -5  -5   5 -0.3184 1.38416   1
  -5  -5   5 0.00035 1.37388   2
   4   5  -5 3.76414 1.52096   3
   4   5  -5 2.31734 1.45276   1
   4   5  -5 0.25312 1.24181   2
  -4  -5   5 1.45855 1.02996   2
  -4  -5   5 5.18178 1.36232   3
  -4  -5   5 6.74232 1.37748   3
  -4  -5   5 2.03090 1.04041   1
  -4  -5   5 2.40595 0.86840   1
   3   5  -5 2.28750 0.75016   2
   3   5  -5 1.42555 0.97719   2
   3   5  -5 4.28424 1.01727   1
   3   5  -5 5.60057 1.27987   1
   3   5  -5 8.12613 1.13579   3
   3   5  -5 7.02524 1.39008   3
  -3  -5   5 1.86471 0.79942   2
  -3  -5   5 7.87831 1.07671   1
  -3  -5   5 4.66273 1.03271   1
  -3  -5   5 6.82026 1.21907   3
  -3  -5   5 7.56444 1.12664   3
   2   5  -5 0.91326 0.56291   1
   2   5  -5 1.99678 0.88196   1
   2   5  -5 3.67760 0.81569   1
   2   5  -5 2.74437 0.92214   3
   2   5  -5 4.36569 0.94575   3
   2   5  -5 2.13834 0.67762   3
   2   5  -5 1.19589 0.50461   2
   2   5  -5 1.90712 0.80753   2
   2   5  -5 1.22660 0.72502   2
  -2  -5   5 1.46077 0.59810   2
  -2  -5   5 1.02821 0.53454   2
  -2  -5   5 1.72636 0.59420   1
  -2  -5   5 1.98197 0.52554   1
  -2  -5   5 1.50607 0.75608   1
  -2  -5   5 4.50058 0.72180   3
  -2  -5   5 4.96218 0.69949   3
  -2  -5   5 0.79169 0.68280   3
   1   5  -5 10.8339 1.50662   3
   1   5  -5 9.57103 1.52019   3
   1   5  -5 11.1897 1.25971   3
   1   5  -5 12.0037 1.57319   1
   1   5  -5 10.8176 1.58404   1
   1   5  -5 12.6601 1.35232   1
   1   5  -5 5.57774 0.93830   2
   1   5  -5 6.54355 0.74937   2
   1   5  -5 7.30108 1.02212   2
  -1  -5   5 5.64707 0.98541   2
  -1  -5   5 5.93832 0.79600   2
  -1  -5   5 4.45438 0.68008   2
  -1  -5   5 13.7821 1.33630   3
  -1  -5   5 17.8907 1.51253   3
  -1  -5   5 10.7913 1.41801   3
  -1  -5   5 15.4224 1.69877   3
  -1  -5   5 12.9519 1.33125   1
  -1  -5   5 14.3108 1.68109   1
  -1  -5   5 12.3713 1.46764   1
   0   5  -5 12.6985 1.62557   3
   0   5  -5 14.3289 1.34931   3
   0   5  -5 20.3989 2.27931   1
   0   5  -5 20.4936 1.91338   1
   0   5  -5 29.4082 3.96416  -3
   0   5  -5 29.4082 3.96416   1
   0   5  -5 37.7463 3.22765  -3
   0   5  -5 37.7463 3.22765   1
   0   5  -5 8.58359 1.17024   2
   0   5  -5 7.99857 1.16542   2
   0   5  -5 8.43908 0.85785   2
   0   5  -5 8.99646 0.83544   2
   0  -5   5 32.3968 3.25593  -3
   0  -5   5 32.3968 3.25593   1
   0  -5   5 30.0568 3.99169  -3
   0  -5   5 30.0568 3.99169   1
   0  -5   5 8.52553 0.89892   2
   0  -5   5 8.08625 1.17621   2
   0  -5   5 6.24850 0.83522   2
   0  -5   5 6.81733 0.95041   2
   0  -5   5 18.1436 2.13244   1
   0  -5   5 12.7677 1.52077   3
  -1   5  -5 12.0029 1.83138  -3
  -1   5  -5 12.0029 1.83138   1
  -1   5  -5 4.11661 0.75722   2
  -1   5  -5 7.24981 1.10707   1
  -1   5  -5 6.31729 0.89284   3
   1  -5   5 9.05577 0.97407   1
   1  -5   5 7.69101 0.91387   1
   1  -5   5 4.65563 0.73968   3
   1  -5   5 4.80439 0.73023   3
   1  -5   5 3.25095 0.45661   2
   1  -5   5 2.75617 0.72804   2
   1  -5   5 2.91281 0.50224   2
   1  -5   5 1.75917 0.40432   2
   1  -5   5 12.5235 1.40841  -3
   1  -5   5 12.5235 1.40841   1
   1  -5   5 12.8156 1.82431  -3
   1  -5   5 12.8156 1.82431   1
  -2   5  -5 1.41782 0.68002   1
  -2   5  -5 1.75879 0.63635   3
  -2   5  -5 1.28721 0.70225   2
   2  -5   5 -0.0613 0.77372   2
   2  -5   5 0.79331 0.40238   2
   2  -5   5 1.32394 0.42671   1
   2  -5   5 1.77222 0.45226   3
   2  -5   5 1.98152 1.97596  -3
   2  -5   5 1.98152 1.97596   1
  -3   5  -5 1.84598 0.89614   3
  -3   5  -5 0.05068 0.91700   2
  -3   5  -5 1.95922 0.97514   1
   3  -5   5 3.60539 0.99031   1
   3  -5   5 3.20314 1.18636   1
   3  -5   5 2.91955 0.64703   1
   3  -5   5 -0.0952 1.03965   2
   3  -5   5 1.42999 0.52045   2
   3  -5   5 1.46881 0.94705   2
   3  -5   5 3.37622 0.68524   3
   3  -5   5 1.20922 1.18047   3
   3  -5   5 2.20377 0.93961   3
  -4   5  -5 1.16477 1.19037   3
  -4   5  -5 -0.5794 1.00720   1
   4  -5   5 0.01654 0.77693   3
   4  -5   5 1.25954 1.27959   3
   4  -5   5 0.77355 0.72690   2
   4  -5   5 1.25963 1.29462   2
   4  -5   5 0.95562 0.63794   1
   4  -5   5 0.68329 1.12745   1
   5  -5   5 0.77031 0.92676   2
   5  -5   5 2.71797 1.77189   2
   5  -5   5 1.46779 0.99074   1
   5  -5   5 -0.1031 1.56193   1
   5  -5   5 1.23212 1.74515   3
   5  -5   5 1.23240 1.11234   3
   5   4  -5 11.6524 2.26617   3
   5   4  -5 9.47600 1.91523   1
   5   4  -5 7.70605 2.02066   2
  -5  -4   5 8.23167 2.00624   3
  -5  -4   5 15.1896 1.76880   3
  -5  -4   5 3.59479 1.25029   2
  -5  -4   5 5.96254 1.46529   2
  -5  -4   5 10.5439 1.43306   1
  -5  -4   5 6.87589 1.71875   1
   4   4  -5 4.95337 1.44533   3
   4   4  -5 5.41173 1.28140   1
   4   4  -5 2.41071 1.39377   2
  -4  -4   5 5.64371 1.28703   3
  -4  -4   5 5.48348 1.06323   3
  -4  -4   5 2.68269 0.97757   2
  -4  -4   5 3.12253 0.91845   2
  -4  -4   5 3.70284 1.10848   1
  -4  -4   5 5.00062 0.97507   1
   3   4  -5 37.6909 4.28509   2
   3   4  -5 32.8621 3.77716   2
   3   4  -5 69.1807 7.21548   3
   3   4  -5 54.5219 6.36115   3
   3   4  -5 97.1952 12.5953   1
  -3  -4   5 45.8952 4.10479   2
  -3  -4   5 35.2702 3.73240   2
  -3  -4   5 74.5716 6.38967   3
  -3  -4   5 66.3025 6.93144   3
  -3  -4   5 133.445 11.0457   1
   2   4  -5 2.07054 0.80367   1
   2   4  -5 1.77905 0.68472   1
   2   4  -5 1.87852 0.56682   1
   2   4  -5 1.98978 0.73337   3
   2   4  -5 2.58507 0.64210   3
   2   4  -5 3.41760 0.79668   3
   2   4  -5 2.71769 0.68516   3
   2   4  -5 1.18618 0.51666   2
   2   4  -5 1.27916 0.64023   2
   2   4  -5 1.32864 0.73601   2
  -2  -4   5 1.79219 0.56474   2
  -2  -4   5 0.59878 0.54179   2
  -2  -4   5 1.58040 0.54055   2
  -2  -4   5 2.75839 0.73548   2
  -2  -4   5 3.47282 0.85203   3
  -2  -4   5 2.43686 0.69921   3
  -2  -4   5 5.34528 0.75732   3
  -2  -4   5 5.44506 0.82249   3
  -2  -4   5 1.80510 0.68302   1
  -2  -4   5 3.26586 0.61463   1
  -2  -4   5 3.06292 0.81236   1
  -2  -4   5 2.65827 0.58172   1
   1   4  -5 46.0722 4.40226   3
   1   4  -5 42.3259 4.36676   3
   1   4  -5 48.1087 5.01053   3
   1   4  -5 44.3539 5.18846   3
   1   4  -5 62.3018 7.35850   1
   1   4  -5 67.5079 7.08436   1
   1   4  -5 63.6273 6.20076   1
   1   4  -5 25.8261 3.09220   2
   1   4  -5 24.9774 2.58470   2
   1   4  -5 28.9261 2.99760   2
  -1  -4   5 24.8438 2.56965   2
  -1  -4   5 27.4500 2.79296   2
  -1  -4   5 25.1838 3.10297   2
  -1  -4   5 27.6091 2.56581   2
  -1  -4   5 65.0784 6.18629   1
  -1  -4   5 67.9499 6.21038   1
  -1  -4   5 61.1215 7.35697   1
  -1  -4   5 71.4186 6.77715   1
  -1  -4   5 45.1121 5.21977   3
  -1  -4   5 44.8033 4.38509   3
  -1  -4   5 47.4380 4.37645   3
  -1  -4   5 49.3840 4.79542   3
   0   4  -5 6.13697 0.53828   2
   0   4  -5 4.06337 0.55481   2
   0   4  -5 4.38373 0.79778   2
   0   4  -5 2.76460 0.77253   2
   0   4  -5 149.163 15.0619   1
   0   4  -5 142.183 13.2031   1
   0   4  -5 135.314 13.1933   1
   0   4  -5 8.60964 1.07026   3
   0   4  -5 8.04537 0.81180   3
   0  -4   5 6.58387 0.89991   3
   0  -4   5 138.673 13.2341   1
   0  -4   5 141.874 14.4187   1
   0  -4   5 3.40002 0.59495   2
   0  -4   5 6.16786 0.82685   2
   0  -4   5 4.40751 0.55209   2
   0  -4   5 151.720 16.8994  -3
   0  -4   5 151.720 16.8994   1
  -1   4  -5 41.4641 4.07401   2
  -1   4  -5 64.2632 6.20554   3
  -1   4  -5 66.4887 7.13638   3
  -1   4  -5 80.5571 8.72918   1
   1  -4   5 74.7528 7.66562   1
   1  -4   5 80.7902 7.66055   1
   1  -4   5 87.3128 8.33284   1
   1  -4   5 67.6752 6.27478   3
   1  -4   5 71.0356 6.80369   3
   1  -4   5 62.9708 6.24774   3
   1  -4   5 38.4040 3.79912   2
   1  -4   5 35.9315 3.50686   2
   1  -4   5 35.8219 3.50223   2
   1  -4   5 32.8119 4.18673   2
   1  -4   5 139.729 15.5817  -3
   1  -4   5 139.729 15.5817   1
  -2   4  -5 -0.2342 0.75711   2
  -2   4  -5 0.16412 0.58691   1
  -2   4  -5 0.17730 0.61147   3
   2  -4   5 -0.3586 0.39154   1
   2  -4   5 -0.0270 0.41488   3
   2  -4   5 -0.1852 0.41021   2
   2  -4   5 0.02891 0.70711   2
   2  -4   5 1.99851 1.99271  -3
   2  -4   5 1.99851 1.99271   1
  -3   4  -5 14.8232 1.99947   2
  -3   4  -5 37.7317 4.36258   1
  -3   4  -5 23.2366 2.81803   3
   3  -4   5 12.0778 2.04207   2
   3  -4   5 17.7687 2.02804   2
   3  -4   5 16.1382 1.60641   2
   3  -4   5 43.8067 4.42911   1
   3  -4   5 37.2499 3.75454   1
   3  -4   5 25.5595 2.87206   3
   3  -4   5 25.3721 3.09253   3
   3  -4   5 23.1104 2.43192   3
  -4   4  -5 5.47032 1.19048   3
   4  -4   5 2.67617 0.78014   2
   4  -4   5 1.38678 1.16815   2
   4  -4   5 2.26406 0.90683   3
   4  -4   5 4.17275 1.34751   1
   4  -4   5 4.35555 0.83288   1
   5  -4   5 8.49255 2.30352   2
   5  -4   5 13.4274 1.57325   2
   5  -4   5 20.1486 2.69649   1
   5  -4   5 18.0741 2.12827   1
   5  -4   5 26.9200 2.89645   3
   5  -4   5 26.5002 3.53497   3
   5   3  -5 2.98556 1.74552   2
   5   3  -5 5.77454 1.64175   1
   5   3  -5 7.02376 1.80892   3
  -5  -3   5 7.07153 1.53589   3
  -5  -3   5 6.94261 1.26785   3
  -5  -3   5 2.25968 1.36471   2
  -5  -3   5 3.14036 0.98833   2
  -5  -3   5 5.24757 1.44815   1
  -5  -3   5 5.84320 1.12494   1
   4   3  -5 -0.0542 1.00201   1
   4   3  -5 -0.2266 1.11291   2
   4   3  -5 1.16588 1.03536   3
  -4  -3   5 0.62931 0.87567   1
  -4  -3   5 1.41433 0.75127   1
  -4  -3   5 0.49999 0.77194   2
  -4  -3   5 0.38014 0.97021   2
  -4  -3   5 -0.0068 0.82153   3
  -4  -3   5 3.73079 1.01788   3
   3   3  -5 4.31398 1.02926   3
   3   3  -5 2.45476 0.85506   3
   3   3  -5 5.25583 0.94753   3
   3   3  -5 2.81755 0.85848   1
   3   3  -5 4.14751 1.03502   1
   3   3  -5 3.07651 0.74565   1
   3   3  -5 0.41456 0.83013   2
   3   3  -5 0.86441 0.69779   2
  -3  -3   5 1.89167 0.64571   1
  -3  -3   5 5.72826 0.82692   1
  -3  -3   5 2.80346 0.77149   2
  -3  -3   5 0.94510 0.63016   2
  -3  -3   5 3.32247 0.90635   3
  -3  -3   5 3.87824 0.80798   3
   2   3  -5 81.3378 7.93747   1
   2   3  -5 89.0889 7.95030   1
   2   3  -5 83.2780 9.38080   1
   2   3  -5 72.7719 9.02392   1
   2   3  -5 80.3480 7.25561   3
   2   3  -5 79.1447 8.24402   3
   2   3  -5 74.1780 7.24311   3
   2   3  -5 73.1519 8.53767   3
   2   3  -5 50.0295 4.40923   2
   2   3  -5 39.1078 5.19779   2
   2   3  -5 46.7897 4.41864   2
  -2  -3   5 79.4281 7.25417   3
  -2  -3   5 77.0766 7.89753   3
  -2  -3   5 73.2627 8.53344   3
  -2  -3   5 51.5391 5.20443   2
  -2  -3   5 45.1325 4.39949   2
  -2  -3   5 40.6068 4.78179   2
  -2  -3   5 50.1470 4.42222   2
  -2  -3   5 168.959 15.8911  -3
  -2  -3   5 168.959 15.8911   1
  -2  -3   5 80.0175 8.64943   1
  -2  -3   5 92.2455 7.95485   1
  -2  -3   5 88.5276 9.37748   1
   1   3  -5 13.8637 1.63459   3
   1   3  -5 15.3422 1.87814   3
   1   3  -5 16.4141 1.68672   3
   1   3  -5 10.6276 1.08371   2
   1   3  -5 11.1006 1.07620   2
   1   3  -5 10.3706 1.34611   2
   1   3  -5 70.5611 6.37536   1
   1   3  -5 68.5459 6.36172   1
   1   3  -5 60.7166 7.24409   1
  -1  -3   5 8.25410 1.13647   2
  -1  -3   5 10.0275 1.07219   2
  -1  -3   5 9.90403 1.29258   2
  -1  -3   5 11.1690 1.09817   2
  -1  -3   5 66.4033 6.92785   1
  -1  -3   5 69.7027 7.54430   1
  -1  -3   5 67.5320 6.36739   1
  -1  -3   5 22.7857 2.04371   3
  -1  -3   5 16.4765 1.65146   3
  -1  -3   5 15.0773 1.77074   3
  -1  -3   5 77.0138 7.28333  -3
  -1  -3   5 77.0138 7.28333   1
   0   3  -5 472.746 50.8208   2
   0   3  -5 477.759 44.6626   2
   0   3  -5 468.533 44.6533   2
   0   3  -5 786.948 85.5377   1
   0   3  -5 786.917 75.1997   1
   0   3  -5 793.978 74.6530   3
   0   3  -5 780.425 84.9121   3
   0  -3   5 467.734 44.7372   2
   0  -3   5 474.042 52.8972   2
   0  -3   5 501.517 48.7349   2
   0  -3   5 1569.85 173.893  -3
   0  -3   5 1569.85 173.893   1
   0  -3   5 806.164 74.7811   3
   0  -3   5 810.115 81.4710   3
   0  -3   5 784.558 75.3285   1
   0  -3   5 855.103 82.0641   1
  -1   3  -5 1.74118 0.62347   2
  -1   3  -5 1.84145 0.35544   2
  -1   3  -5 3.86016 0.81104   3
  -1   3  -5 6.05447 0.56046   3
  -1   3  -5 4.38674 0.55447   3
   1  -3   5 4.16096 0.55969   3
   1  -3   5 60.4550 6.87015  -3
   1  -3   5 60.4550 6.87015   1
   1  -3   5 2.96393 0.55962   2
   1  -3   5 1.63900 0.39138   2
   1  -3   5 2.25725 0.67422   2
   1  -3   5 2.20188 0.28726   2
  -2   3  -5 0.70484 0.27911   2
  -2   3  -5 0.40034 0.62603   2
  -2   3  -5 1.03432 0.29589   2
  -2   3  -5 1.32876 0.29117   1
  -2   3  -5 1.82377 0.28409   1
  -2   3  -5 2.48682 0.66015   1
  -2   3  -5 1.19678 0.33319   3
  -2   3  -5 1.42062 0.29681   3
  -2   3  -5 2.21700 0.68290   3
   2  -3   5 1.32258 0.45447   2
   2  -3   5 0.44166 0.75780   2
   2  -3   5 0.63822 0.63355   2
   2  -3   5 6.78473 1.83024  -3
   2  -3   5 6.78473 1.83024   1
   2  -3   5 4.10885 0.52996   1
   2  -3   5 0.88718 0.50864   3
  -3   3  -5 6.12152 1.12262   2
  -3   3  -5 11.8859 1.50609   3
  -3   3  -5 11.2114 1.76717   1
   3  -3   5 9.97666 1.64799   3
   3  -3   5 9.71977 1.22465   3
   3  -3   5 10.3231 1.51386   3
   3  -3   5 5.88870 0.82147   2
   3  -3   5 4.31113 1.08529   2
   3  -3   5 4.46167 1.18498   2
   3  -3   5 9.62126 1.93398   1
   3  -3   5 19.2180 1.55485   1
   4  -3   5 0.02606 1.19549   3
   4  -3   5 0.73883 0.86884   3
   4  -3   5 0.27656 1.24573   2
   4  -3   5 0.22708 0.69810   2
   4  -3   5 1.33686 1.11122   1
   4  -3   5 0.96558 0.78048   1
   5  -3   5 7.34872 1.47986   3
   5  -3   5 6.56802 1.79800   3
   5  -3   5 4.11825 1.70763   2
   5  -3   5 4.30931 1.18509   2
   5  -3   5 4.64383 1.52433   1
   5  -3   5 4.26396 1.17313   1
   5   2  -5 2.38391 1.54884   2
   5   2  -5 6.18117 1.63744   3
   5   2  -5 5.97337 1.72019   1
  -5  -2   5 7.18119 1.19866   3
  -5  -2   5 6.31082 1.55654   3
  -5  -2   5 6.58681 1.09938   1
  -5  -2   5 5.87102 1.52105   1
  -5  -2   5 5.75735 1.28819   2
  -5  -2   5 4.09019 1.03836   2
   4   2  -5 19.2863 2.37013   2
   4   2  -5 33.5735 4.63784   1
   4   2  -5 46.6402 4.12248   1
   4   2  -5 22.6284 3.20662   3
   4   2  -5 25.4959 2.86115   3
  -4  -2   5 17.5334 2.08589   2
  -4  -2   5 15.3360 1.81203   2
  -4  -2   5 39.0013 4.48661   1
  -4  -2   5 45.2144 4.04866   1
  -4  -2   5 30.2399 2.86422   3
  -4  -2   5 31.7854 3.11779   3
   3   2  -5 5.84297 0.89213   2
   3   2  -5 6.49138 0.98408   2
   3   2  -5 7.90821 1.17487   2
   3   2  -5 27.0479 2.71333   1
   3   2  -5 20.7753 2.98498   1
   3   2  -5 12.7003 1.73333   3
   3   2  -5 17.0583 1.98312   3
   3   2  -5 18.4353 1.75172   3
  -3  -2   5 28.4343 2.56885   1
  -3  -2   5 5.96042 0.86730   2
  -3  -2   5 7.88615 1.02444   2
  -3  -2   5 16.3795 1.69669   3
  -3  -2   5 14.0678 1.83880   3
   2   2  -5 323.331 34.6481   1
   2   2  -5 351.180 30.5100   1
   2   2  -5 312.623 30.4609   1
   2   2  -5 320.557 29.5306   3
   2   2  -5 319.850 29.4822   3
   2   2  -5 317.228 33.5366   3
   2   2  -5 190.830 18.2210   2
   2   2  -5 208.588 18.2454   2
   2   2  -5 188.826 20.7361   2
  -2  -2   5 634.759 70.3403  -3
  -2  -2   5 634.759 70.3403   1
  -2  -2   5 203.062 18.2413   2
  -2  -2   5 189.446 21.5418   2
  -2  -2   5 188.041 18.2000   2
  -2  -2   5 190.085 19.8733   2
  -2  -2   5 313.732 29.5257   3
  -2  -2   5 304.044 29.4685   3
  -2  -2   5 312.478 32.1748   3
  -2  -2   5 331.566 30.5084   1
  -2  -2   5 318.903 33.2392   1
  -2  -2   5 313.374 30.4417   1
   1   2  -5 181.330 19.6813   2
   1   2  -5 188.054 17.3076   2
   1   2  -5 180.079 17.2851   2
   1   2  -5 434.892 48.8454   1
   1   2  -5 464.235 42.9472   1
   1   2  -5 469.968 43.0158   1
   1   2  -5 285.767 27.6514   3
   1   2  -5 291.383 31.4537   3
   1   2  -5 297.496 27.7015   3
  -1  -2   5 181.139 18.8513   2
  -1  -2   5 182.225 17.3060   2
  -1  -2   5 191.979 17.2768   2
  -1  -2   5 468.711 46.8634   1
  -1  -2   5 454.601 43.0142   1
  -1  -2   5 770.891 72.1369  -3
  -1  -2   5 770.891 72.1369   1
  -1  -2   5 308.885 30.1828   3
  -1  -2   5 292.614 27.6981   3
   0   2  -5 10.2700 0.97865   1
   0   2  -5 9.85734 1.15255   1
   0   2  -5 4.11361 0.78347   2
   0   2  -5 6.06683 0.67711   2
   0   2  -5 10.4173 0.98417   3
   0   2  -5 8.21986 1.11908   3
   0  -2   5 6.59142 0.64960   2
   0  -2   5 7.02105 0.86044   2
   0  -2   5 5.07291 0.63363   2
   0  -2   5 5.02950 0.66240   2
   0  -2   5 10.3576 0.96518   3
   0  -2   5 10.2937 1.00105   3
   0  -2   5 7.33795 1.01031   3
   0  -2   5 8.20533 0.97849   1
   0  -2   5 8.56657 1.01368   1
   0  -2   5 10.0269 1.01335   1
   0  -2   5 15.3635 2.04754  -3
   0  -2   5 15.3635 2.04754   1
  -1   2  -5 450.844 48.6340   3
  -1   2  -5 447.260 42.7474   3
  -1   2  -5 472.276 42.7518   3
  -1   2  -5 282.967 26.6531   2
  -1   2  -5 297.680 26.6497   2
  -1   2  -5 275.633 30.3417   2
  -1   2  -5 467.860 41.3835   1
  -1   2  -5 427.733 41.3787   1
  -1   2  -5 419.065 47.0803   1
   1  -2   5 281.866 26.7029   2
   1  -2   5 282.849 31.5843   2
   1  -2   5 462.012 42.8294   3
   1  -2   5 450.530 50.6502   3
   1  -2   5 454.118 41.4610   1
   1  -2   5 440.571 49.0341   1
  -2   2  -5 17.3474 1.86532   3
  -2   2  -5 18.8853 2.19775   3
  -2   2  -5 10.0548 1.19187   2
  -2   2  -5 9.30876 1.47195   2
  -2   2  -5 17.8782 2.24374   1
  -2   2  -5 20.6859 1.90313   1
   2  -2   5 11.6172 1.26132   2
   2  -2   5 14.2634 1.53193   2
   2  -2   5 13.9004 1.55955   2
   2  -2   5 18.7748 2.42216   1
   2  -2   5 17.8073 2.25763   1
   2  -2   5 20.7354 1.98120   1
   2  -2   5 20.1192 1.95805   3
   2  -2   5 21.8189 2.39453   3
  -3   2  -5 31.8659 3.06842   3
  -3   2  -5 31.0752 3.59807   3
  -3   2  -5 26.9487 2.80431   1
  -3   2  -5 32.6760 3.36046   1
  -3   2  -5 17.3668 1.79295   2
   3  -2   5 30.8981 3.67481   1
   3  -2   5 31.9132 3.39721   1
   3  -2   5 30.2832 2.91769   1
   3  -2   5 31.6552 3.68823   3
   3  -2   5 33.1086 3.17371   3
   3  -2   5 30.5420 3.90778   3
   3  -2   5 19.8235 2.28798   2
   3  -2   5 17.8862 1.94112   2
   3  -2   5 18.8535 2.35879   2
  -4   2  -5 1.32721 0.52810   3
  -4   2  -5 3.62228 0.55532   1
  -4   2  -5 0.87855 0.56280   2
   4  -2   5 1.34652 0.93089   3
   4  -2   5 1.96039 1.09188   3
   4  -2   5 0.42706 0.78284   2
   4  -2   5 0.50690 1.34497   2
   4  -2   5 1.92027 0.83700   1
   4  -2   5 1.97281 1.17624   1
   5  -2   5 0.53506 1.81999   2
   5  -2   5 -0.7272 1.16679   2
   5  -2   5 1.68424 1.34451   3
   5  -2   5 -0.4158 1.61485   3
   5  -2   5 -0.1175 1.46884   1
   5  -2   5 0.61114 1.07347   1
   5   1  -5 7.66039 1.56650   3
   5   1  -5 12.1413 1.88777   3
   5   1  -5 8.10714 1.69727   2
   5   1  -5 6.43343 1.44026   1
   5   1  -5 9.59766 1.86763   1
  -5  -1   5 11.2694 1.27554   1
  -5  -1   5 9.19371 1.61806   1
  -5  -1   5 11.4057 1.41639   3
  -5  -1   5 10.1774 1.68341   3
  -5  -1   5 3.51781 1.46785   2
  -5  -1   5 8.42053 1.13815   2
   4   1  -5 -0.0072 1.02299   2
   4   1  -5 -0.4898 0.78603   2
   4   1  -5 -1.3514 0.86664   3
   4   1  -5 -0.6703 0.83259   3
   4   1  -5 4.70414 0.83667   1
   4   1  -5 1.92057 1.16272   1
  -4  -1   5 0.21260 0.70130   3
  -4  -1   5 0.06577 0.84275   3
  -4  -1   5 -0.5438 0.59809   2
  -4  -1   5 0.01852 0.81677   2
  -4  -1   5 3.29791 0.95425   1
   3   1  -5 3.04624 0.97769   1
   3   1  -5 2.03203 0.72561   2
   3   1  -5 1.76848 0.77732   2
   3   1  -5 1.76029 0.57767   2
   3   1  -5 4.38522 0.97594   3
   3   1  -5 4.61623 0.80738   3
  -3  -1   5 8.21204 0.78401   1
  -3  -1   5 5.02959 0.77147   3
  -3  -1   5 4.42193 0.86530   3
  -3  -1   5 1.83571 0.61770   2
  -3  -1   5 1.59836 0.53342   2
   2   1  -5 1.78329 0.45472   1
   2   1  -5 0.91931 0.48248   1
   2   1  -5 1.23541 0.54048   1
   2   1  -5 -1.2375 0.48307   3
   2   1  -5 -0.7356 0.39368   3
   2   1  -5 0.41588 0.59094   3
   2   1  -5 0.15537 0.61786   2
   2   1  -5 0.44448 0.43571   2
   2   1  -5 -0.1946 0.38205   2
  -2  -1   5 0.07919 0.46462   3
  -2  -1   5 -1.1022 0.42044   3
  -2  -1   5 -1.1943 0.46018   3
  -2  -1   5 0.39191 0.38411   2
  -2  -1   5 -0.1249 0.42769   2
  -2  -1   5 0.21360 0.50563   2
  -2  -1   5 0.21577 0.47055   2
  -2  -1   5 1.21334 0.47209   1
  -2  -1   5 1.87539 0.50011   1
  -2  -1   5 1.02324 0.39771   1
  -2  -1   5 -1.4383 0.99631  -3
  -2  -1   5 -1.4383 0.99631   1
   1   1  -5 800.017 76.4841   1
   1   1  -5 821.453 76.3624   1
   1   1  -5 827.755 86.8378   1
   1   1  -5 181.291 20.0266   3
   1   1  -5 188.423 17.6093   3
   1   1  -5 194.522 17.6437   3
   1   1  -5 115.861 12.0880   2
   1   1  -5 129.459 12.1045   2
   1   1  -5 127.762 13.7718   2
  -1  -1   5 1039.13 94.8562  -3
  -1  -1   5 1039.13 94.8562   1
  -1  -1   5 988.489 112.307  -3
  -1  -1   5 988.489 112.307   1
  -1  -1   5 192.205 19.2159   3
  -1  -1   5 182.461 17.6366   3
  -1  -1   5 129.642 13.1793   2
  -1  -1   5 136.073 12.1031   2
  -1  -1   5 132.331 12.0801   2
  -1  -1   5 798.656 83.3258   1
  -1  -1   5 832.759 76.4866   1
   0   1  -5 -0.2262 0.31570   3
   0   1  -5 0.04079 0.44603   3
   0   1  -5 0.23791 0.39732   3
   0   1  -5 92.9727 9.12137   1
   0   1  -5 101.288 9.14302   1
   0   1  -5 -0.3071 0.35499   2
   0   1  -5 -0.3156 0.46645   2
   0   1  -5 -0.2088 0.36431   2
   0  -1   5 -0.2225 0.30807   2
   0  -1   5 -0.0442 0.24335   2
   0  -1   5 0.74388 0.33973   2
   0  -1   5 0.26795 0.27833   3
   0  -1   5 0.68872 0.40105   3
  -1   1  -5 2.80462 0.68278   2
  -1   1  -5 3.80461 0.53544   2
  -1   1  -5 7.36999 1.00690   3
  -1   1  -5 6.99495 0.85335   3
   1  -1   5 3.48057 0.57250   2
   1  -1   5 2.46385 0.73413   2
   1  -1   5 4.62115 0.56813   2
   1  -1   5 7.94108 0.96656   3
   1  -1   5 9.20595 0.91961   3
   1  -1   5 20.9328 2.07584   1
   1  -1   5 45.5169 5.27079  -3
   1  -1   5 45.5169 5.27079   1
  -2   1  -5 34.4932 3.99669   3
  -2   1  -5 36.1580 3.48433   3
  -2   1  -5 20.7426 2.09435   2
  -2   1  -5 17.9457 2.49829   2
  -2   1  -5 33.6160 4.08400   1
  -2   1  -5 39.2028 3.55323   1
   2  -1   5 39.0287 3.59726   1
   2  -1   5 39.1315 4.12127   1
   2  -1   5 33.1817 4.33075   1
   2  -1   5 20.4500 2.51774   2
   2  -1   5 20.5322 2.64816   2
   2  -1   5 25.3773 2.15684   2
   2  -1   5 36.1277 4.25193   3
   2  -1   5 37.0798 3.53661   3
   2  -1   5 38.2052 4.01575   3
  -3   1  -5 37.2813 3.89519   3
  -3   1  -5 44.0518 4.54840   3
  -3   1  -5 23.0769 2.27076   2
  -3   1  -5 31.3603 3.38948   1
   3  -1   5 20.9240 2.82839   2
   3  -1   5 22.5293 2.36650   2
   3  -1   5 23.4679 2.72990   2
   3  -1   5 37.8502 3.48840   1
   3  -1   5 33.6888 4.29725   1
   3  -1   5 43.1229 4.02078   1
   3  -1   5 44.3659 4.58965   3
   3  -1   5 41.1775 4.82054   3
   3  -1   5 39.4450 3.95357   3
  -4   1  -5 0.40355 0.51976   1
  -4   1  -5 1.47682 0.62299   2
  -4   1  -5 0.53097 0.43342   3
   4  -1   5 1.02736 0.83340   1
   4  -1   5 0.98733 1.16086   1
   4  -1   5 0.23010 1.24965   2
   4  -1   5 0.02041 0.88422   2
   4  -1   5 0.65786 1.16877   3
   4  -1   5 0.54625 0.96472   3
  -5   1  -5 0.82885 0.72885   1
  -5   1  -5 3.20614 0.74166   3
  -5   1  -5 2.22313 0.85350   2
   5  -1   5 2.75773 1.43459   3
   5  -1   5 3.24201 1.79804   3
   5  -1   5 2.48660 1.90041   2
   5  -1   5 1.67833 1.31978   2
   5  -1   5 2.54157 1.16873   1
   5  -1   5 2.16749 1.58485   1
   6   0  -5 1.17562 1.89250   3
   6   0  -5 0.19206 1.74156   3
   6   0  -5 -0.7816 1.96024   2
   6   0  -5 0.65973 2.01438   1
  -6   0   5 1.42602 1.57905   3
  -6   0   5 -0.4114 1.20697   3
  -6   0   5 -0.0704 1.32443   2
  -6   0   5 -0.0447 1.84420   2
  -6   0   5 0.05224 1.89061   1
  -6   0   5 -0.5762 1.33475   1
   5   0  -5 80.9936 7.99622   1
   5   0  -5 87.4671 9.14149   1
   5   0  -5 81.7871 7.70719   3
   5   0  -5 79.3424 8.71299   3
   5   0  -5 48.9244 5.54817   2
   5   0  -5 54.4428 4.88563   2
  -5   0   5 45.1038 5.30584   2
  -5   0   5 46.2137 4.73122   2
  -5   0   5 84.1817 8.77337   1
  -5   0   5 80.6479 7.89505   1
  -5   0   5 76.9051 8.36649   3
  -5   0   5 78.6818 7.56090   3
   4   0  -5 -0.5735 0.82565   3
   4   0  -5 0.31238 0.85129   3
   4   0  -5 0.41745 0.74006   2
   4   0  -5 0.03547 0.97876   2
   4   0  -5 2.11693 0.77130   1
   4   0  -5 1.64239 1.10480   1
  -4   0   5 -0.1133 0.75646   2
  -4   0   5 0.85116 0.62763   2
  -4   0   5 2.21552 0.88909   1
  -4   0   5 3.82180 0.63444   1
  -4   0   5 0.18798 0.82300   3
  -4   0   5 -0.3963 0.64171   3
   3   0  -5 12.7744 1.35552   1
   3   0  -5 11.9852 1.62692   1
   3   0  -5 7.64946 0.98469   2
   3   0  -5 7.56724 1.27542   2
   3   0  -5 11.5444 1.65026   3
   3   0  -5 12.8471 1.46435   3
  -3   0   5 15.1417 1.62387   3
  -3   0   5 13.3914 1.39438   3
  -3   0   5 14.8853 1.58112   1
  -3   0   5 11.4316 1.30876   1
  -3   0   5 7.34274 0.92440   2
  -3   0   5 9.75422 1.12073   2
   2   0  -5 921.926 100.541   3
   2   0  -5 956.285 88.5659   3
   2   0  -5 969.704 88.4204   3
   2   0  -5 604.728 62.5390   2
   2   0  -5 595.941 55.0743   2
   2   0  -5 595.098 54.9941   2
   2   0  -5 1004.27 102.984   1
   2   0  -5 958.278 90.5645   1
   2   0  -5 981.042 90.7089   1
  -2   0   5 970.485 88.5583   3
  -2   0   5 926.365 96.4998   3
  -2   0   5 923.804 88.4091   3
  -2   0   5 951.845 90.7064   1
  -2   0   5 946.174 98.8355   1
  -2   0   5 965.217 90.5511   1
  -2   0   5 583.801 65.0797   2
  -2   0   5 570.990 60.0097   2
  -2   0   5 590.293 55.0722   2
  -2   0   5 572.138 54.9752   2
  -2   0   5 1827.45 202.393  -3
  -2   0   5 1827.45 202.393   1
   1   0  -5 263.970 25.5140   1
   1   0  -5 275.571 28.9672   1
   1   0  -5 264.701 25.4756   1
   1   0  -5 0.42041 0.53665   2
   1   0  -5 3.04463 0.41654   2
   1   0  -5 2.29196 0.47195   2
   1   0  -5 3.29206 0.54104   3
   1   0  -5 2.55918 0.63020   3
   1   0  -5 5.07574 0.59152   3
  -1   0   5 297.418 26.8479  -3
  -1   0   5 297.418 26.8479   1
  -1   0   5 275.834 31.7821  -3
  -1   0   5 275.834 31.7821   1
  -1   0   5 274.686 25.5139   1
  -1   0   5 280.385 27.7985   1
  -1   0   5 6.34095 0.66079   3
   0   0  -5 39.6356 4.39648   3
   0   0  -5 42.8046 3.91497   3
   0   0  -5 42.3349 3.88930   3
   0   0  -5 46.3847 4.91079   1
   0   0  -5 41.7898 4.33729   1
   0   0  -5 42.9814 4.32741   1
   0   0  -5 22.0211 2.30217   2
   0   0  -5 20.5456 2.30135   2
   0   0  -5 21.9132 2.61507   2
   0   0   5 114.541 12.7945  -3
   0   0   5 114.541 12.7945  -2
   0   0   5 114.541 12.7945   1
   0   0   5 41.6596 3.89619   3
   0   0   5 39.3762 3.89406   3
   0   0   5 39.8266 4.20887   3
   0   0   5 24.4328 2.45872   2
   0   0   5 28.1361 2.30503   2
   0   0   5 24.0510 2.29364   2
   0   0   5 44.4836 4.69170   1
   0   0   5 48.9784 4.33230   1
   0   0   5 48.7676 4.33260   1
  -1   0  -5 3.12766 0.43921   2
  -1   0  -5 5.05214 0.62602   2
  -1   0  -5 4.28186 0.75813   2
  -1   0  -5 4.56894 0.66336   2
  -1   0  -5 10.8802 0.98332   3
  -1   0  -5 7.69720 0.94851   3
  -1   0  -5 7.58832 1.07852   3
  -1   0  -5 10.1131 1.03787   3
  -1   0  -5 9.65346 1.13943   1
   1   0   5 8.56026 1.25109   3
   1   0   5 11.8991 1.02693   3
   1   0   5 7.38930 1.02883   3
   1   0   5 4.40929 0.80302   2
   1   0   5 4.16722 0.58701   2
   1   0   5 4.82231 0.62080   2
   1   0   5 7.78667 1.27024   1
  -2   0  -5 8.83478 1.07186   2
  -2   0  -5 3.76008 0.75069   2
  -2   0  -5 9.65714 1.11010   1
  -2   0  -5 12.4680 1.39114   1
  -2   0  -5 13.2865 1.55485   3
  -2   0  -5 12.1970 1.28839   3
   2   0   5 6.83828 0.86906   2
   2   0   5 6.21511 1.02727   2
   2   0   5 6.19292 1.08757   2
   2   0   5 10.5949 1.55343   3
   2   0   5 12.6616 1.72765   3
   2   0   5 11.5093 1.34983   3
   2   0   5 9.39556 1.19607   1
   2   0   5 12.5521 1.41464   1
   2   0   5 9.92804 1.56798   1
  -3   0  -5 1.73517 0.54343   1
  -3   0  -5 1.21785 0.55159   3
  -3   0  -5 0.68090 0.55201   2
   3   0   5 2.30868 0.72660   1
   3   0   5 1.73256 1.10148   1
   3   0   5 1.22130 0.88301   1
   3   0   5 0.59415 1.00628   2
   3   0   5 1.12802 0.89255   2
   3   0   5 2.66923 0.77735   2
   3   0   5 2.45258 0.82810   3
   3   0   5 2.22146 0.96105   3
   3   0   5 3.19188 1.07169   3
  -4   0  -5 4.27404 0.67679   1
  -4   0  -5 3.97566 0.75038   3
  -4   0  -5 0.90170 0.49323   2
   4   0   5 2.12220 1.00505   2
   4   0   5 2.53505 1.39119   2
   4   0   5 4.77712 1.16683   3
   4   0   5 3.63163 1.34630   3
   4   0   5 3.33861 1.36418   1
   4   0   5 5.12659 1.05960   1
  -5   0  -5 0.25781 0.83675   1
  -5   0  -5 0.10339 0.97613   2
  -5   0  -5 0.88036 0.91082   3
   5   0   5 0.91883 1.89501   1
   5   0   5 1.53688 1.32561   1
   5   0   5 -0.1218 1.34489   2
   5   0   5 -0.0630 2.00289   2
   5   0   5 1.78585 1.88469   3
   5   0   5 0.68453 1.41880   3
   6  -1  -5 -0.3665 1.65005   3
   6  -1  -5 0.29300 1.67070   3
   6  -1  -5 0.04727 1.74186   2
   6  -1  -5 1.39966 1.94070   2
   6  -1  -5 -1.8749 1.95051   1
   6  -1  -5 0.12979 1.40422   1
  -6   1   5 -0.2309 2.02517   1
  -6   1   5 -0.4224 1.01032   1
  -6   1   5 -0.2254 0.97611   3
  -6   1   5 1.54940 1.97452   3
  -6   1   5 -0.3580 1.01481   2
  -6   1   5 1.10313 1.77672   2
   5  -1  -5 6.02914 1.38917   3
   5  -1  -5 9.05901 1.62178   3
   5  -1  -5 4.10899 1.10431   2
   5  -1  -5 3.30429 1.56363   2
   5  -1  -5 16.1727 2.00591   1
  -5   1   5 4.10719 1.22754   2
  -5   1   5 5.08532 0.87363   2
  -5   1   5 7.18114 1.53575   3
  -5   1   5 7.44267 1.13244   3
  -5   1   5 8.63831 1.72685   1
   4  -1  -5 1.18643 0.81012   3
   4  -1  -5 3.37212 0.96154   3
   4  -1  -5 1.56975 1.08918   2
   4  -1  -5 0.77368 0.62879   2
   4  -1  -5 1.66458 0.89915   1
   4  -1  -5 2.03385 0.71675   1
  -4   1   5 0.38497 0.54121   2
  -4   1   5 -0.2611 0.86740   2
  -4   1   5 3.91234 0.70670   3
  -4   1   5 2.30875 0.91657   3
  -4   1   5 1.40354 0.59849   1
  -4   1   5 1.67863 0.88343   1
   3  -1  -5 8.02395 0.91875   2
   3  -1  -5 5.01922 1.08572   2
   3  -1  -5 12.6254 1.31952   1
   3  -1  -5 10.5149 1.54437   1
   3  -1  -5 11.9511 1.33126   3
   3  -1  -5 10.2402 1.53682   3
  -3   1   5 12.1041 1.47863   3
  -3   1   5 12.4801 1.29408   3
  -3   1   5 7.59550 0.84648   2
  -3   1   5 6.25443 1.00247   2
  -3   1   5 10.6272 1.46281   1
  -3   1   5 13.0410 1.29109   1
   2  -1  -5 194.733 18.1771   3
   2  -1  -5 204.382 18.1527   3
   2  -1  -5 185.930 20.6296   3
   2  -1  -5 199.350 19.6658   1
   2  -1  -5 215.086 19.6918   1
   2  -1  -5 212.650 22.3562   1
   2  -1  -5 125.123 11.3321   2
   2  -1  -5 120.734 12.8769   2
   2  -1  -5 129.639 11.3338   2
  -2   1   5 185.019 18.1766   3
  -2   1   5 197.796 19.8181   3
  -2   1   5 193.275 18.1367   3
  -2   1   5 193.298 21.4530   3
  -2   1   5 119.085 13.3827   2
  -2   1   5 122.555 11.3346   2
  -2   1   5 112.427 11.3004   2
  -2   1   5 114.903 12.3519   2
  -2   1   5 205.168 21.4642   1
  -2   1   5 207.225 19.6505   1
  -2   1   5 217.396 19.6934   1
  -2   1   5 209.679 23.2588   1
   1  -1  -5 549.507 52.7845   1
   1  -1  -5 555.258 52.8680   1
   1  -1  -5 557.826 60.0099   1
   1  -1  -5 336.434 31.5701   2
   1  -1  -5 336.667 31.6090   2
   1  -1  -5 345.157 35.8878   2
   1  -1  -5 508.683 47.7484   3
   1  -1  -5 502.909 54.1904   3
   1  -1  -5 517.047 47.6681   3
  -1   1   5 334.689 34.4366   2
  -1   1   5 331.918 37.3644   2
  -1   1   5 492.538 47.6625   3
  -1   1   5 507.752 47.7398   3
  -1   1   5 526.889 52.0225   3
  -1   1   5 1058.49 117.262  -3
  -1   1   5 1058.49 117.262   1
  -1   1   5 593.299 57.6042   1
  -1   1   5 882.406 82.7040  -2
  -1   1   5 882.406 82.7040   1
   0  -1  -5 15.6978 1.62246   3
   0  -1  -5 17.5479 1.60375   3
   0  -1  -5 13.2661 1.72360   3
   0  -1  -5 11.9064 1.13958   2
   0  -1  -5 11.5219 1.26784   2
   0  -1  -5 11.9463 1.17487   2
   0  -1  -5 30.9054 3.17124   1
   0  -1  -5 36.0965 3.59802   1
   0  -1  -5 35.0198 3.18451   1
   0   1   5 9.03190 1.18599   2
   0   1   5 9.33681 1.08542   2
   0   1   5 29.9700 2.94539  -2
   0   1   5 29.9700 2.94539   1
   0   1   5 14.9972 1.68177   3
   0   1   5 15.3720 1.61836   3
   0   1   5 17.5192 1.59578   3
   0   1   5 48.9033 5.62991  -3
   0   1   5 48.9033 5.62991  -2
   0   1   5 48.9033 5.62991   1
   0   1   5 29.5925 3.19090   1
  -1  -1  -5 95.2413 9.22035   3
  -1  -1  -5 97.6473 10.0239   3
  -1  -1  -5 98.4930 9.25096   3
  -1  -1  -5 98.6180 10.4697   3
  -1  -1  -5 70.8122 6.31728   2
  -1  -1  -5 64.1500 6.30432   2
  -1  -1  -5 66.2994 6.82401   2
  -1  -1  -5 62.9607 7.14659   2
  -1  -1  -5 103.561 9.76884   1
  -1  -1  -5 107.817 11.0700   1
  -1  -1  -5 100.609 10.5921   1
  -1  -1  -5 107.928 9.74166   1
   1   1   5 100.092 9.24543   3
   1   1   5 99.6740 9.24310   3
   1   1   5 95.4503 10.9371   3
   1   1   5 67.1085 7.48354   2
   1   1   5 61.7197 6.30075   2
   1   1   5 69.0419 6.30947   2
   1   1   5 70.2262 7.16001   2
   1   1   5 106.124 9.76180   1
   1   1   5 105.314 9.76659   1
   1   1   5 103.376 11.0720   1
   1   1   5 93.4114 11.5533   1
  -2  -1  -5 0.65935 0.46974   1
  -2  -1  -5 0.46466 0.47433   2
  -2  -1  -5 1.09758 0.71911   3
  -2  -1  -5 0.78370 0.59344   3
   2   1   5 2.96058 0.81772   3
   2   1   5 1.28656 0.68354   3
   2   1   5 1.83531 0.85715   3
   2   1   5 0.63736 0.74016   2
   2   1   5 0.45311 0.76254   2
   2   1   5 1.11502 0.61920   2
   2   1   5 0.46049 0.60171   1
   2   1   5 2.05273 0.77479   1
   2   1   5 1.31778 0.81664   1
  -3  -1  -5 6.61791 0.82541   1
  -3  -1  -5 8.62882 1.06978   3
  -3  -1  -5 1.80213 0.61008   2
   3   1   5 6.47128 0.93119   2
   3   1   5 3.29913 1.13841   2
   3   1   5 2.04202 0.94741   2
   3   1   5 4.51053 1.16266   3
   3   1   5 5.45375 1.27349   3
   3   1   5 6.36242 1.09059   3
   3   1   5 7.35222 1.05679   1
   3   1   5 6.72506 1.44163   1
   3   1   5 5.50538 1.23308   1
  -4  -1  -5 0.56084 0.76233   3
  -4  -1  -5 0.31391 0.66619   1
  -4  -1  -5 -0.0779 0.61202   2
   4   1   5 -0.1963 1.29561   3
   4   1   5 0.29998 1.11307   3
   4   1   5 1.08378 1.02343   1
   4   1   5 1.05610 1.18411   1
   4   1   5 0.14537 1.20539   2
   4   1   5 0.27105 1.03709   2
  -5  -1  -5 0.71340 1.01472   2
  -5  -1  -5 1.17663 0.84758   1
  -5  -1  -5 -0.1403 0.92104   3
   5   1   5 0.70777 1.96310   3
   5   1   5 -1.3943 1.97912   1
   5   1   5 1.49251 2.20535   2
   6  -2  -5 113.544 10.5067   3
   6  -2  -5 115.801 11.9532   3
   6  -2  -5 63.9650 7.56417   2
   6  -2  -5 98.7848 10.0625   1
   6  -2  -5 97.2799 11.5099   1
  -6   2   5 97.2925 11.3901   3
  -6   2   5 71.3680 7.10672   2
  -6   2   5 61.3243 6.24398   2
  -6   2   5 119.309 11.1256   1
   5  -2  -5 2.09806 1.32627   3
   5  -2  -5 -0.5186 1.02474   3
   5  -2  -5 3.91599 1.39035   2
   5  -2  -5 1.05603 0.88103   2
   5  -2  -5 2.93213 0.96881   1
   5  -2  -5 0.64119 1.37863   1
  -5   2   5 0.94686 1.07875   2
  -5   2   5 1.15873 0.68214   2
  -5   2   5 2.72008 0.76142   3
  -5   2   5 6.68539 1.59156   3
  -5   2   5 3.10891 0.74809   1
  -5   2   5 3.33914 1.41659   1
   4  -2  -5 -0.2897 0.82635   1
   4  -2  -5 1.01668 0.64356   1
   4  -2  -5 1.73996 1.13304   2
   4  -2  -5 -0.1562 0.65037   2
   4  -2  -5 1.11044 0.76035   3
   4  -2  -5 0.36116 0.82529   3
  -4   2   5 1.48142 0.54465   1
  -4   2   5 0.75989 0.90379   1
  -4   2   5 0.49196 0.55371   3
  -4   2   5 0.28263 0.90584   3
  -4   2   5 0.62961 0.87613   2
  -4   2   5 0.70519 0.54117   2
   3  -2  -5 35.2163 4.46024   2
   3  -2  -5 41.2395 3.89055   2
   3  -2  -5 113.820 10.1066   1
   3  -2  -5 100.424 11.4819   1
   3  -2  -5 63.2205 7.27908   3
   3  -2  -5 65.6450 6.42786   3
  -3   2   5 41.8017 3.85437   2
  -3   2   5 41.0575 4.24878   2
  -3   2   5 97.1693 11.0317   1
  -3   2   5 113.688 10.0709   1
  -3   2   5 69.2520 6.37664   3
  -3   2   5 71.0018 7.01816   3
   2  -2  -5 184.975 20.0763   3
   2  -2  -5 186.972 17.6938   3
   2  -2  -5 190.922 17.6844   3
   2  -2  -5 111.540 10.5662   2
   2  -2  -5 111.355 10.5767   2
   2  -2  -5 112.192 12.0038   2
   2  -2  -5 202.801 18.7360   1
   2  -2  -5 192.344 18.7146   1
   2  -2  -5 193.427 21.2591   1
  -2   2   5 105.194 10.5367   2
  -2   2   5 113.509 11.5234   2
  -2   2   5 119.532 12.4864   2
  -2   2   5 193.447 20.8946   3
  -2   2   5 184.124 19.2919   3
  -2   2   5 191.701 20.4248   1
  -2   2   5 215.491 22.1426   1
   1  -2  -5 652.847 68.0646   3
   1  -2  -5 655.272 59.8780   3
   1  -2  -5 636.725 59.9786   3
   1  -2  -5 725.473 66.9208   1
   1  -2  -5 689.722 75.9487   1
   1  -2  -5 710.938 66.8150   1
   1  -2  -5 435.624 41.0672   2
   1  -2  -5 435.654 41.1208   2
   1  -2  -5 432.322 46.6712   2
  -1   2   5 450.683 48.6153   2
  -1   2   5 1131.06 113.601  -2
  -1   2   5 1131.06 113.601   1
  -1   2   5 1114.61 104.088  -2
  -1   2   5 1114.61 104.088   1
  -1   2   5 1092.22 104.257  -2
  -1   2   5 1092.22 104.257   1
  -1   2   5 634.197 70.8913   3
  -1   2   5 599.880 59.8676   3
  -1   2   5 654.255 65.3507   3
  -1   2   5 645.237 59.9671   3
  -1   2   5 730.762 79.1114   1
   0  -2  -5 75.1767 8.08623   3
   0  -2  -5 71.6251 7.15119   3
   0  -2  -5 79.8559 7.18708   3
   0  -2  -5 68.2554 7.58568   1
   0  -2  -5 93.4841 8.59577   1
   0  -2  -5 77.9129 7.58245   1
   0  -2  -5 51.3655 5.07157   2
   0  -2  -5 56.0990 5.72494   2
   0  -2  -5 51.9629 5.07285   2
   0   2   5 72.4847 8.46488   3
   0   2   5 79.9091 7.16340   3
   0   2   5 78.0144 7.79199   3
   0   2   5 73.2237 7.15583   3
   0   2   5 139.150 12.5298  -2
   0   2   5 139.150 12.5298   1
   0   2   5 139.896 12.5430  -2
   0   2   5 139.896 12.5430   1
   0   2   5 120.577 14.8263  -2
   0   2   5 120.577 14.8263   1
   0   2   5 79.2374 8.26461   1
   0   2   5 52.6324 5.50138   2
  -1  -2  -5 58.4467 5.78832   3
  -1  -2  -5 57.2275 6.50223   3
  -1  -2  -5 59.6783 6.24000   3
  -1  -2  -5 64.0737 5.76609   3
  -1  -2  -5 49.5674 4.05233   2
  -1  -2  -5 41.4347 4.05054   2
  -1  -2  -5 41.1285 4.33449   2
  -1  -2  -5 38.7124 4.54917   2
  -1  -2  -5 63.6347 7.32825   1
  -1  -2  -5 67.9502 7.02240   1
   1   2   5 69.9698 6.48957   1
   1   2   5 70.4320 7.73628   1
   1   2   5 67.9284 7.33911   1
   1   2   5 73.8366 6.51707   1
   1   2   5 38.8589 4.79640   2
   1   2   5 41.1493 4.54944   2
   1   2   5 42.9619 4.03440   2
   1   2   5 42.0632 4.03823   2
   1   2   5 56.5791 6.85129   3
   1   2   5 67.0565 5.78616   3
   1   2   5 62.7205 6.51267   3
   1   2   5 59.5239 5.78382   3
  -2  -2  -5 69.4097 6.57036   1
  -2  -2  -5 69.0114 6.49593   3
  -2  -2  -5 39.2462 4.01662   2
   2   2   5 67.4071 7.50189   1
   2   2   5 74.3897 6.61794   1
   2   2   5 64.7315 7.87813   1
   2   2   5 65.5096 6.52265   3
   2   2   5 69.6735 7.36831   3
   2   2   5 67.6753 7.72411   3
   2   2   5 40.7461 4.06379   2
   2   2   5 42.9972 4.80731   2
   2   2   5 42.9537 4.59292   2
  -3  -2  -5 1.13395 0.60481   2
  -3  -2  -5 -0.3548 0.85886   3
  -3  -2  -5 0.74616 0.59989   1
   3   2   5 0.72854 0.86873   1
   3   2   5 -0.2702 0.83481   1
   3   2   5 0.23897 1.16557   1
   3   2   5 -1.3516 1.18625   2
   3   2   5 0.01892 1.05041   2
   3   2   5 1.10967 0.85905   2
   3   2   5 1.30131 0.95865   3
   3   2   5 1.25633 0.94626   3
   3   2   5 1.11976 1.18454   3
  -4  -2  -5 1.04058 0.92665   2
  -4  -2  -5 3.87140 0.94143   3
  -4  -2  -5 4.08524 0.88306   1
   4   2   5 3.51678 1.42698   3
   4   2   5 3.43385 1.50440   1
   4   2   5 1.39293 1.53291   2
   6  -3  -5 2.50779 1.72107   3
   6  -3  -5 0.03582 1.47300   3
   6  -3  -5 2.48872 2.24014   2
   6  -3  -5 0.98522 1.38862   2
   6  -3  -5 2.87421 1.35811   1
   6  -3  -5 2.90598 2.04518   1
  -6   3   5 2.89215 1.71965   3
  -6   3   5 3.55849 1.89017   2
  -6   3   5 5.52222 1.87023   1
   5  -3  -5 5.63823 1.66408   1
   5  -3  -5 2.40372 0.96276   2
   5  -3  -5 1.94736 1.36773   2
   5  -3  -5 6.15256 1.50644   3
   5  -3  -5 3.57727 1.15250   3
  -5   3   5 5.97238 0.79549   3
  -5   3   5 5.36098 1.42077   3
  -5   3   5 11.3879 1.64798   1
  -5   3   5 3.51099 1.37207   2
  -5   3   5 2.22955 0.72659   2
   4  -3  -5 13.5040 1.72537   3
   4  -3  -5 10.1746 1.39998   3
   4  -3  -5 14.2478 1.84034   1
   4  -3  -5 12.3485 1.48994   1
   4  -3  -5 6.59564 1.10464   2
   4  -3  -5 11.5256 1.56607   2
  -4   3   5 13.0287 1.76962   1
  -4   3   5 12.7531 1.68002   3
  -4   3   5 7.48005 1.31151   2
  -4   3   5 8.40941 0.99662   2
   3  -3  -5 59.7440 6.77009   3
   3  -3  -5 65.9125 5.97274   3
   3  -3  -5 38.0824 3.65490   2
   3  -3  -5 35.8262 4.21478   2
   3  -3  -5 91.0188 10.0955   1
   3  -3  -5 93.3293 8.88941   1
  -3   3   5 62.8918 5.92143   3
  -3   3   5 61.3573 6.52842   3
  -3   3   5 92.9135 8.84620   1
  -3   3   5 100.008 9.72459   1
  -3   3   5 38.6284 4.02560   2
   2  -3  -5 103.709 9.67990   1
   2  -3  -5 99.5057 10.9657   1
   2  -3  -5 5.28352 0.81670   3
   2  -3  -5 6.55018 0.76698   3
   2  -3  -5 3.18542 0.71801   2
   2  -3  -5 4.26814 0.59662   2
  -2   3   5 4.99740 0.86538   3
  -2   3   5 4.75357 0.68927   3
  -2   3   5 5.90877 0.90573   3
  -2   3   5 93.1502 9.64466   1
  -2   3   5 103.843 10.5700   1
  -2   3   5 115.925 11.4516   1
  -2   3   5 3.57157 0.51082   2
  -2   3   5 4.30851 0.76557   2
  -2   3   5 3.78474 0.69374   2
   1  -3  -5 141.055 12.2147  -2
   1  -3  -5 141.055 12.2147   1
   1  -3  -5 114.540 13.8023  -2
   1  -3  -5 114.540 13.8023   1
   1  -3  -5 144.880 12.2072  -2
   1  -3  -5 144.880 12.2072   1
   1  -3  -5 77.6996 6.93292   3
   1  -3  -5 74.9695 6.92278   3
   1  -3  -5 74.5644 7.80817   3
  -1   3   5 66.2516 6.89927   3
  -1   3   5 68.3443 7.54356   3
  -1   3   5 76.8451 8.19071   3
  -1   3   5 81.5113 9.13621   1
  -1   3   5 124.831 13.2870  -2
  -1   3   5 124.831 13.2870   1
  -1   3   5 131.442 12.1680  -2
  -1   3   5 131.442 12.1680   1
  -1   3   5 60.7619 6.83469   2
   0  -3  -5 63.6264 6.55738   3
   0  -3  -5 67.7885 7.40068   3
   0  -3  -5 74.3817 6.59774   3
   0  -3  -5 65.2153 5.55436   2
   0  -3  -5 102.559 8.83538   1
   0  -3  -5 126.264 14.0171  -2
   0  -3  -5 126.264 14.0171   1
   0  -3  -5 143.709 12.3944  -2
   0  -3  -5 143.709 12.3944   1
   0   3   5 70.5564 7.16358   3
   0   3   5 65.0019 6.56592   3
   0   3   5 77.9912 7.79918   3
   0   3   5 69.3052 6.57302   3
   0   3   5 84.6911 9.62303   1
   0   3   5 139.834 14.6875  -2
   0   3   5 139.834 14.6875   1
   0   3   5 124.421 12.3791  -2
   0   3   5 124.421 12.3791   1
   0   3   5 132.169 14.0202  -2
   0   3   5 132.169 14.0202   1
   0   3   5 127.590 12.3944  -2
   0   3   5 127.590 12.3944   1
   0   3   5 52.4638 6.03339   2
  -1  -3  -5 16.7072 1.53444   3
  -1  -3  -5 14.2662 1.57141   3
  -1  -3  -5 13.3701 1.54639   3
  -1  -3  -5 11.0404 1.12472   2
  -1  -3  -5 9.22798 1.07950   2
  -1  -3  -5 16.0891 1.53454   1
  -1  -3  -5 14.1622 1.53493   1
  -1  -3  -5 19.9224 2.32718  -2
  -1  -3  -5 19.9224 2.32718   1
   1   3   5 11.6079 1.81510   1
   1   3   5 13.9405 1.49711   1
   1   3   5 13.1883 1.65642   1
   1   3   5 12.6669 1.47392   1
   1   3   5 12.5251 1.62523   3
   1   3   5 14.2764 1.51864   3
   1   3   5 11.1754 1.78152   3
   1   3   5 14.6915 1.53192   3
   1   3   5 9.33997 1.09274   2
   1   3   5 8.07679 1.15900   2
   1   3   5 6.37304 1.32275   2
   1   3   5 9.20503 1.09066   2
  -2  -3  -5 15.1715 1.92827   2
  -2  -3  -5 41.5680 3.47523   1
  -2  -3  -5 32.4213 3.20923   3
   2   3   5 30.6639 3.54007   3
   2   3   5 35.4784 3.85565   3
   2   3   5 31.9918 3.31409   3
   2   3   5 28.5417 3.21978   3
   2   3   5 18.4573 2.02461   2
   2   3   5 19.0800 2.27312   2
   2   3   5 20.4510 2.45807   2
   2   3   5 20.6363 2.01010   2
   2   3   5 27.0893 3.92407   1
   2   3   5 34.5696 3.53293   1
   2   3   5 39.8729 4.27640   1
   2   3   5 36.8929 3.58419   1
  -3  -3  -5 24.5288 2.57774   1
  -3  -3  -5 29.2207 2.88037   3
  -3  -3  -5 13.9827 1.61786   2
   3   3   5 25.3405 3.48768   3
   3   3   5 27.0007 3.26744   3
   3   3   5 27.2592 3.10170   1
   3   3   5 23.4161 3.26567   1
   3   3   5 15.5120 2.02523   2
   3   3   5 11.4867 2.17314   2
  -4  -3  -5 5.09400 1.11366   3
  -4  -3  -5 5.08174 0.99408   1
  -4  -3  -5 3.22112 1.02117   2
   4   3   5 3.34213 1.61517   2
   4   3   5 6.30177 1.66613   3
   4   3   5 3.13249 1.62065   1
   6  -4  -5 -0.5275 1.35150   2
   6  -4  -5 0.85948 3.95686   2
   6  -4  -5 0.84798 1.39534   3
   6  -4  -5 -1.1844 1.91770   3
   6  -4  -5 1.81639 1.35179   1
   5  -4  -5 7.08309 1.58424   3
   5  -4  -5 5.65718 1.16195   3
   5  -4  -5 8.99736 1.77638   1
   5  -4  -5 8.05575 1.31438   1
   5  -4  -5 2.65023 1.58847   2
   5  -4  -5 2.39707 0.97460   2
  -5   4   5 6.44298 1.61567   3
  -5   4   5 2.51099 0.56633   2
  -5   4   5 3.69170 1.30406   2
  -5   4   5 9.45073 1.78806   1
   4  -4  -5 128.149 12.7598   1
   4  -4  -5 113.756 11.1989   1
   4  -4  -5 63.6347 6.04972   2
   4  -4  -5 46.4235 5.21504   2
   4  -4  -5 83.9178 8.48218   3
   4  -4  -5 93.4807 9.63767   3
  -4   4   5 113.947 12.2632   1
  -4   4   5 118.457 11.1214   1
  -4   4   5 54.1300 5.73164   2
  -4   4   5 55.3116 5.13905   2
  -4   4   5 89.7470 9.30524   3
   3  -4  -5 163.093 14.5542   1
   3  -4  -5 152.959 16.5196   1
   3  -4  -5 152.850 16.0842   3
   3  -4  -5 148.330 14.1696   3
   3  -4  -5 87.9607 8.59017   2
   3  -4  -5 95.5176 9.79373   2
  -3   4   5 90.5256 9.39501   2
  -3   4   5 90.3081 8.54668   2
  -3   4   5 149.404 14.1044   3
  -3   4   5 151.083 15.4747   3
  -3   4   5 151.595 15.8948   1
  -3   4   5 150.843 14.4936   1
   2  -4  -5 117.827 10.4460   2
   2  -4  -5 197.000 19.7822   3
   2  -4  -5 185.803 17.4296   3
   2  -4  -5 270.171 24.4574   1
  -2   4   5 257.234 24.3942   1
  -2   4   5 266.188 28.9133   1
  -2   4   5 246.995 26.6680   1
  -2   4   5 175.719 19.0097   3
  -2   4   5 194.409 20.6005   3
  -2   4   5 174.458 17.3726   3
  -2   4   5 124.683 12.3686   2
  -2   4   5 99.4395 10.4004   2
  -2   4   5 105.640 11.3970   2
   1  -4  -5 65.1954 6.18032  -2
   1  -4  -5 65.1954 6.18032   1
   1  -4  -5 37.0410 3.17903   3
  -1   4   5 31.0541 3.62146   2
  -1   4   5 30.2072 3.42488   3
  -1   4   5 28.7502 3.11655   3
  -1   4   5 34.4379 3.74525   3
  -1   4   5 61.9232 6.14484  -2
  -1   4   5 61.9232 6.14484   1
  -1   4   5 67.4889 6.75684  -2
  -1   4   5 67.4889 6.75684   1
  -1   4   5 40.3397 4.64640   1
   0  -4  -5 2.57786 0.65231   3
   0  -4  -5 2.04975 0.68331   3
   0  -4  -5 15.2053 1.23703  -2
   0  -4  -5 15.2053 1.23703   1
   0  -4  -5 10.2118 1.35946  -2
   0  -4  -5 10.2118 1.35946   1
   0   4   5 1.83134 0.73359   3
   0   4   5 1.48127 0.54496   3
   0   4   5 2.12591 0.73098   3
   0   4   5 3.32273 1.42047  -2
   0   4   5 3.32273 1.42047   1
   0   4   5 2.91858 1.13512  -2
   0   4   5 2.91858 1.13512   1
   0   4   5 4.00476 1.22096  -2
   0   4   5 4.00476 1.22096   1
  -1  -4  -5 20.1583 2.00622   2
  -1  -4  -5 18.2026 1.92428   2
  -1  -4  -5 25.9317 2.73101   3
  -1  -4  -5 21.9969 2.64850   3
  -1  -4  -5 24.4742 2.62738   3
  -1  -4  -5 28.9775 3.16962   1
  -1  -4  -5 32.3229 2.98019   1
  -1  -4  -5 49.3485 4.89893  -2
  -1  -4  -5 49.3485 4.89893   1
   1   4   5 12.7167 1.80710   2
   1   4   5 22.0247 2.33015   2
   1   4   5 22.0273 2.61577   3
   1   4   5 29.7746 3.07678   3
   1   4   5 27.8589 2.99203   1
   1   4   5 29.3241 3.55621   1
  -2  -4  -5 65.3305 5.92314   1
  -2  -4  -5 38.2583 3.68668   2
  -2  -4  -5 60.5533 5.58448   3
   2   4   5 54.9357 6.64621   3
   2   4   5 56.1823 5.64782   3
   2   4   5 59.5940 7.13627   1
   2   4   5 58.0256 6.02751   1
   2   4   5 34.0430 3.76810   2
   2   4   5 37.7948 4.46579   2
  -3  -4  -5 5.72628 1.08766   1
  -3  -4  -5 4.88527 1.12690   2
  -3  -4  -5 8.91576 1.25327   3
   3   4   5 5.80996 1.68102   1
   3   4   5 6.50926 1.83475   3
   3   4   5 2.21683 1.46833   2
  -4  -4  -5 11.1662 1.59352   2
  -4  -4  -5 24.8036 2.71601   3
  -4  -4  -5 18.3112 2.05375   1
   5  -5  -5 1.24179 0.88858   2
   5  -5  -5 0.06378 1.05535   3
   5  -5  -5 1.76314 0.86918   1
  -5   5   5 -0.5581 1.20821   3
  -5   5   5 0.76035 1.12457   2
  -5   5   5 -0.5694 1.22432   1
   4  -5  -5 0.29650 0.63642   2
   4  -5  -5 0.75050 0.66205   3
   4  -5  -5 0.89569 0.66167   1
  -4   5   5 0.12446 0.40934   2
  -4   5   5 0.02243 0.85599   2
  -4   5   5 0.50724 0.97288   1
  -4   5   5 -0.1004 0.95755   3
   3  -5  -5 405.421 37.5496   3
   3  -5  -5 614.816 58.6594   1
   3  -5  -5 243.586 23.0904   2
  -3   5   5 239.767 25.1951   2
  -3   5   5 251.461 23.0194   2
  -3   5   5 642.542 63.9644   1
  -3   5   5 621.754 58.5269   1
  -3   5   5 393.710 40.9540   3
   2  -5  -5 15.6033 1.91629  -2
   2  -5  -5 15.6033 1.91629   1
   2  -5  -5 11.3569 1.23794   3
  -2   5   5 10.8650 1.51591   1
  -2   5   5 9.61981 1.42432   1
  -2   5   5 10.1824 1.11770   1
  -2   5   5 3.73328 0.56176   2
  -2   5   5 4.91446 0.79321   2
  -2   5   5 3.09363 0.91275   2
  -2   5   5 11.0456 1.40959   3
  -2   5   5 10.1130 1.13506   3
  -2   5   5 9.30495 1.48704   3
   1  -5  -5 2.21874 1.05028  -2
   1  -5  -5 2.21874 1.05028   1
   1  -5  -5 0.32796 0.57384   3
  -1   5   5 3.61451 1.50872  -2
  -1   5   5 3.61451 1.50872   1
  -1   5   5 1.88834 1.18576  -2
  -1   5   5 1.88834 1.18576   1
  -1   5   5 2.17011 0.90126  -2
  -1   5   5 2.17011 0.90126   1
  -1   5   5 0.45780 0.77918   3
  -1   5   5 -0.3087 0.44771   3
  -1   5   5 0.65474 0.72864   3
   0  -5  -5 74.1185 6.09607  -2
   0  -5  -5 74.1185 6.09607   1
   0  -5  -5 68.7990 6.61728  -2
   0  -5  -5 68.7990 6.61728   1
   0  -5  -5 36.7501 3.75835   3
   0  -5  -5 39.7740 4.00529   3
   0   5   5 62.6607 7.22159  -2
   0   5   5 62.6607 7.22159   1
   0   5   5 52.4566 6.03124  -2
   0   5   5 52.4566 6.03124   1
   0   5   5 61.6681 6.62808  -2
   0   5   5 61.6681 6.62808   1
   0   5   5 36.4957 4.40412   3
   0   5   5 38.3219 4.02438   3
   0   5   5 35.8960 3.67013   3
  -1  -5  -5 65.4808 6.74485  -2
  -1  -5  -5 65.4808 6.74485   1
  -1  -5  -5 60.2287 6.24018  -2
  -1  -5  -5 60.2287 6.24018   1
  -1  -5  -5 35.0958 3.61431   3
  -1  -5  -5 34.9523 3.81854   3
   1   5   5 42.0864 4.99542   1
   1   5   5 27.8602 3.50143   2
   1   5   5 38.5481 3.58185   3
   1   5   5 34.1154 4.26690   3
   1   5   5 66.5368 6.26742  -2
   1   5   5 66.5368 6.26742   1
  -2  -5  -5 13.8964 1.47387   1
  -2  -5  -5 9.71193 1.38213   2
  -2  -5  -5 16.6599 1.91916   3
   2   5   5 19.1399 2.01642   3
   2   5   5 14.5523 2.36663   3
   2   5   5 12.0047 1.60825   1
   2   5   5 7.85454 1.91895   1
   2   5   5 9.31644 1.37293   2
   2   5   5 9.44981 1.77973   2
  -3  -5  -5 1.54322 1.02604   1
  -3  -5  -5 2.12036 1.04047   3
  -3  -5  -5 3.18785 1.23579   2
   3   5   5 0.59320 1.59447   3
   3   5   5 -3.2341 1.51740   2
   3   5   5 0.43679 1.56862   1
  -4  -5  -5 19.4315 2.34264   2
  -4  -5  -5 36.6300 3.86162   3
  -4  -5  -5 21.8770 2.43984   1
   5  -6  -5 0.28624 0.95865   3
   5  -6  -5 -0.6608 0.91630   1
   5  -6  -5 -0.8664 0.83597   2
  -5   6   5 0.18672 1.37348   1
  -5   6   5 -0.3818 1.35882   3
  -5   6   5 0.01959 1.22101   2
   4  -6  -5 4.91955 0.94439   3
   4  -6  -5 4.50202 0.90815   1
   4  -6  -5 1.75300 0.67100   2
  -4   6   5 1.92007 0.99910   2
  -4   6   5 5.06761 1.29147   3
  -4   6   5 7.85744 1.34511   1
   3  -6  -5 45.4207 4.47883   2
   3  -6  -5 85.6325 7.78442   1
   3  -6  -5 82.0169 7.94388   3
  -3   6   5 47.2031 4.92976   2
  -3   6   5 76.8263 8.52288   1
  -3   6   5 85.0678 8.71988   3
   2  -6  -5 142.113 13.4347  -2
   2  -6  -5 142.113 13.4347   1
   2  -6  -5 76.5345 7.58944   3
  -2   6   5 72.4292 9.02353   1
  -2   6   5 78.9515 7.54017   1
  -2   6   5 92.5486 8.37694   1
  -2   6   5 49.8040 5.66091   2
  -2   6   5 48.1828 4.66262   2
  -2   6   5 50.2708 5.18736   2
  -2   6   5 79.6218 7.49636   3
  -2   6   5 80.5907 8.97195   3
  -2   6   5 81.6184 8.29257   3
   1  -6  -5 48.7135 4.82712   3
   1  -6  -5 65.2379 7.50254  -2
   1  -6  -5 65.2379 7.50254   1
  -1   6   5 54.1981 5.27993   3
  -1   6   5 49.2591 5.72997   3
  -1   6   5 47.9249 4.74887   3
  -1   6   5 88.1296 8.99944  -2
  -1   6   5 88.1296 8.99944   1
  -1   6   5 96.4320 8.29396  -2
  -1   6   5 96.4320 8.29396   1
  -1   6   5 78.8081 7.49760  -2
  -1   6   5 78.8081 7.49760   1
   0  -6  -5 1.56809 0.75144   3
   0  -6  -5 0.60375 0.77906   3
   0  -6  -5 -0.4117 1.05629  -2
   0  -6  -5 -0.4117 1.05629   1
   0  -6  -5 3.18612 1.22322  -2
   0  -6  -5 3.18612 1.22322   1
   0   6   5 0.06773 1.00683  -2
   0   6   5 0.06773 1.00683   1
   0   6   5 -0.1444 1.15002  -2
   0   6   5 -0.1444 1.15002   1
   0   6   5 0.54002 1.42152  -2
   0   6   5 0.54002 1.42152   1
   0   6   5 0.51723 0.90166   3
   0   6   5 0.43189 0.94992   3
   0   6   5 0.31469 0.61252   3
  -1  -6  -5 32.2319 3.46036  -2
  -1  -6  -5 32.2319 3.46036   1
  -1  -6  -5 32.8084 3.58771  -2
  -1  -6  -5 32.8084 3.58771   1
  -1  -6  -5 20.4380 2.14710   3
  -1  -6  -5 18.8290 2.28499   3
   1   6   5 20.0383 2.61380   3
   1   6   5 18.3730 2.11527   3
   1   6   5 32.3603 3.42142  -2
   1   6   5 32.3603 3.42142   1
   1   6   5 25.0902 4.17664  -2
   1   6   5 25.0902 4.17664   1
   2   6   5 1.45189 0.92559   2
   2   6   5 0.72844 1.36236   2
   2   6   5 2.99051 1.43896   3
   2   6   5 2.30993 1.15647   3
   2   6   5 3.86211 1.51112   1
   2   6   5 1.91267 1.16245   1
   3   6   5 -2.7279 1.81810   1
   3   6   5 -1.9930 1.63381   2
   3   6   5 1.88411 1.77833   3
   5  -7  -5 22.6807 2.47409   2
   5  -7  -5 52.2919 5.13727   3
   5  -7  -5 45.5396 4.57307   1
  -5   7   5 23.6976 2.88996   2
  -5   7   5 45.2149 5.12570   1
  -5   7   5 49.7400 5.65584   3
   4  -7  -5 2.67656 0.80803   1
   4  -7  -5 0.95731 0.69817   2
  -4   7   5 0.94335 1.12004   1
  -4   7   5 0.70421 1.20718   3
  -4   7   5 1.61239 1.01575   2
   3  -7  -5 8.31678 1.22364   2
   3  -7  -5 20.8051 2.16965   3
   3  -7  -5 37.5194 3.75682   1
  -3   7   5 20.0269 2.51351   3
  -3   7   5 14.3933 1.57215   2
  -3   7   5 38.1621 4.26106   1
   2  -7  -5 695.178 65.2102  -2
   2  -7  -5 695.178 65.2102   1
   2  -7  -5 405.798 38.0603   3
  -2   7   5 262.490 24.7622   2
  -2   7   5 261.661 27.1069   2
  -2   7   5 269.914 29.4111   2
  -2   7   5 402.194 40.1628   1
  -2   7   5 383.252 36.7025   1
  -2   7   5 394.984 43.5442   1
  -2   7   5 409.886 45.0050   3
  -2   7   5 399.671 41.5136   3
   1  -7  -5 45.0404 4.76738  -2
   1  -7  -5 45.0404 4.76738   1
   1  -7  -5 20.1665 2.18991   3
  -1   7   5 56.3408 5.36254  -2
  -1   7   5 56.3408 5.36254   1
  -1   7   5 47.5423 4.75000  -2
  -1   7   5 47.5423 4.75000   1
  -1   7   5 51.8318 5.82538  -2
  -1   7   5 51.8318 5.82538   1
  -1   7   5 16.9609 2.10670   3
  -1   7   5 25.2209 2.54767   3
  -1   7   5 22.4012 2.66885   3
   0  -7  -5 0.79123 1.19063  -2
   0  -7  -5 0.79123 1.19063   1
   0  -7  -5 -0.0695 0.93677  -2
   0  -7  -5 -0.0695 0.93677   1
   0  -7  -5 -0.1662 0.93790   3
   0   7   5 2.95953 1.65919  -3
   0   7   5 2.95953 1.65919  -2
   0   7   5 2.95953 1.65919   1
   0   7   5 0.03669 1.05639   3
   0   7   5 0.06844 0.98892   3
   0   7   5 0.87369 1.04041  -2
   0   7   5 0.87369 1.04041   1
   0   7   5 -0.7199 1.77500  -2
   0   7   5 -0.7199 1.77500   1
  -1  -7  -5 8.52893 2.06956  -2
  -1  -7  -5 8.52893 2.06956   1
  -1  -7  -5 9.11240 1.98763  -2
  -1  -7  -5 9.11240 1.98763   1
  -1  -7  -5 8.60069 1.26635   3
  -1  -7  -5 5.90063 1.31806   3
   1   7   5 2.01347 2.64458  -2
   1   7   5 2.01347 2.64458   1
   1   7   5 10.7645 1.91454  -2
   1   7   5 10.7645 1.91454   1
   1   7   5 5.80895 1.60581   3
   1   7   5 7.73281 1.21141   3
   2   7   5 39.1571 4.22513   1
   2   7   5 41.9612 5.11333   1
   2   7   5 36.0867 4.00319   3
   2   7   5 40.4492 4.82577   3
   2   7   5 26.2235 3.14347   2
   2   7   5 20.2150 2.46225   2
   3   7   5 13.7892 2.61806   3
   3   7   5 5.84056 2.23174   2
   3   7   5 9.38643 2.36167   1
   5  -8  -5 3.51449 1.17843   1
   5  -8  -5 4.37794 1.27545   3
   5  -8  -5 4.07073 1.06055   2
  -5   8   5 2.94061 1.83157   3
  -5   8   5 6.06839 1.97489   1
  -5   8   5 1.56104 1.45295   2
   4  -8  -5 45.5560 4.36007   1
   4  -8  -5 25.7707 2.66270   2
   4  -8  -5 41.2511 3.89510   3
  -4   8   5 34.1386 4.30824   3
  -4   8   5 40.1108 4.99798   1
  -4   8   5 22.8348 3.03140   2
   3  -8  -5 25.7483 2.83324   2
   3  -8  -5 43.7988 4.28262   3
   3  -8  -5 58.5003 5.52634   1
  -3   8   5 41.2739 4.70521   3
  -3   8   5 29.0496 3.12823   2
  -3   8   5 54.5598 6.09274   1
   2  -8  -5 307.005 28.8829  -2
   2  -8  -5 307.005 28.8829   1
   2  -8  -5 162.790 15.5585   3
  -2   8   5 164.704 17.0321   3
  -2   8   5 167.059 18.4205   3
  -2   8   5 116.741 12.3593   2
  -2   8   5 103.242 11.3725   2
  -2   8   5 173.175 19.1897   1
  -2   8   5 169.819 17.7139   1
   1  -8  -5 11.5754 1.84286   3
   1  -8  -5 17.5840 1.71111   3
   1  -8  -5 16.8065 2.23409  -2
   1  -8  -5 16.8065 2.23409   1
   1  -8  -5 20.9068 2.60826  -2
   1  -8  -5 20.9068 2.60826   1
  -1   8   5 12.4468 1.92232   3
  -1   8   5 12.0224 1.43989   3
  -1   8   5 15.8212 2.09492   3
  -1   8   5 17.9757 2.63536  -2
  -1   8   5 17.9757 2.63536   1
  -1   8   5 21.8584 3.08571  -2
  -1   8   5 21.8584 3.08571   1
  -1   8   5 19.3708 2.12062  -2
  -1   8   5 19.3708 2.12062   1
   0  -8  -5 7.13168 1.67363  -2
   0  -8  -5 7.13168 1.67363   1
   0  -8  -5 4.21935 0.96303   3
   0  -8  -5 1.98988 1.12612   3
   0   8   5 3.34262 0.77976   3
   0   8   5 4.08192 1.31446   3
   0   8   5 0.20816 1.29858   3
   0   8   5 1.75814 2.06773  -2
   0   8   5 1.75814 2.06773   1
   0   8   5 5.26649 1.30636  -2
   0   8   5 5.26649 1.30636   1
  -1  -8  -5 155.257 15.2916  -2
  -1  -8  -5 155.257 15.2916   1
  -1  -8  -5 81.4257 8.62264   3
  -1  -8  -5 81.0668 7.95212   3
   1   8   5 81.9469 7.82239   3
   1   8   5 81.7955 9.38643   3
   1   8   5 141.852 13.9667  -2
   1   8   5 141.852 13.9667   1
   1   8   5 145.094 16.7085  -2
   1   8   5 145.094 16.7085   1
   2   8   5 9.26591 1.96103   2
   2   8   5 3.58639 1.24539   2
   2   8   5 7.87494 1.52402   1
   2   8   5 7.43723 2.18026   1
   2   8   5 7.43414 2.12234   3
   2   8   5 10.5715 1.60062   3
   3   8   5 2.41212 2.20077   3
   3   8   5 -0.5250 2.29384   3
   3   8   5 0.67284 1.50885   2
   3   8   5 0.08327 2.30808   2
   3   8   5 0.98747 2.35610   1
   5  -9  -5 11.9237 2.20989   1
   5  -9  -5 14.8134 2.56128   3
   5  -9  -5 3.80696 1.60338   2
  -5   9   5 6.70905 1.78131   2
  -5   9   5 14.4574 2.54296   3
  -5   9   5 14.2110 2.47532   1
   4  -9  -5 1.76938 0.93315   2
   4  -9  -5 4.37249 1.16710   3
   4  -9  -5 6.25225 1.21873   1
  -4   9   5 6.19971 1.85650   1
  -4   9   5 0.43407 1.20270   2
  -4   9   5 4.20789 1.64095   3
   3  -9  -5 10.4905 1.31070   1
   3  -9  -5 1.85829 0.79778   2
   3  -9  -5 2.81331 0.99170   3
  -3   9   5 3.03013 1.12456   2
  -3   9   5 7.68605 1.86886   1
  -3   9   5 4.81873 1.38289   3
   2  -9  -5 28.5732 3.17044   3
   2  -9  -5 40.4679 4.21171  -2
   2  -9  -5 40.4679 4.21171   1
  -2   9   5 16.4654 2.08011   2
  -2   9   5 14.6833 2.27987   2
  -2   9   5 25.7699 3.20946   1
  -2   9   5 26.4333 3.40821   1
  -2   9   5 32.4406 3.54901   3
  -2   9   5 29.4010 3.78340   3
   1  -9  -5 1.47060 1.88848  -2
   1  -9  -5 1.47060 1.88848   1
   1  -9  -5 0.86509 1.24109   3
  -1   9   5 -0.2507 1.37367   3
  -1   9   5 1.44157 1.33147   3
  -1   9   5 0.38755 0.53760   3
  -1   9   5 1.38472 2.53221  -2
  -1   9   5 1.38472 2.53221   1
  -1   9   5 1.46030 1.10415  -2
  -1   9   5 1.46030 1.10415   1
  -1   9   5 2.58360 2.06595  -2
  -1   9   5 2.58360 2.06595   1
   0  -9  -5 14.4573 2.04908   3
   0  -9  -5 20.5331 2.90222  -2
   0  -9  -5 20.5331 2.90222   1
   0   9   5 15.5508 2.17771   3
   0   9   5 16.1760 2.40840   3
   0   9   5 36.7143 3.89744  -3
   0   9   5 36.7143 3.89744  -2
   0   9   5 36.7143 3.89744   1
   0   9   5 20.9309 3.58055  -2
   0   9   5 20.9309 3.58055   1
  -1  -9  -5 13.0071 2.16207   3
  -1  -9  -5 18.8255 2.36349   3
  -1  -9  -5 18.4509 3.09776  -2
  -1  -9  -5 18.4509 3.09776   1
   1   9   5 13.7113 1.74862   3
   1   9   5 11.0766 2.34048   3
   1   9   5 21.9307 4.00513  -2
   1   9   5 21.9307 4.00513   1
   1   9   5 18.3440 2.70647  -2
   1   9   5 18.3440 2.70647   1
   2   9   5 18.9999 3.17738   1
   2   9   5 18.5491 2.33739   1
   2   9   5 25.5203 3.13102   3
   2   9   5 14.0327 2.24271   3
   2   9   5 11.0114 1.67394   2
   2   9   5 11.3026 2.53976   2
   4 -10  -5 2.20078 1.03969   2
   4 -10  -5 17.7517 2.06934   1
   4 -10  -5 1.55775 1.30590   3
  -4  10   5 15.3817 2.64577   1
  -4  10   5 -0.0971 1.62542   3
  -4  10   5 0.23201 1.37840   2
   3 -10  -5 16.1586 1.83047   2
   3 -10  -5 36.2676 3.55233   1
   3 -10  -5 30.4585 3.42362   3
  -3  10   5 29.6713 3.95169   1
  -3  10   5 14.9334 2.31875   2
  -3  10   5 34.9605 3.96533   3
   2 -10  -5 7.66519 1.99266  -2
   2 -10  -5 7.66519 1.99266   1
   2 -10  -5 3.46215 1.13960   3
  -2  10   5 4.41435 1.58579   1
  -2  10   5 1.44665 1.59684   1
  -2  10   5 2.97409 1.22322   2
  -2  10   5 1.81286 1.45072   2
  -2  10   5 1.97536 1.62450   3
  -2  10   5 5.95584 1.52375   3
   1 -10  -5 48.2250 5.61897  -2
   1 -10  -5 48.2250 5.61897   1
   1 -10  -5 35.8922 4.01427   3
  -1  10   5 31.1663 3.88042   3
  -1  10   5 51.7484 5.71726  -2
  -1  10   5 51.7484 5.71726   1
  -1  10   5 49.6483 4.81161  -2
  -1  10   5 49.6483 4.81161   1
   0  10   5 1.77191 1.79880  -3
   0  10   5 1.77191 1.79880  -2
   0  10   5 1.77191 1.79880   1
   0  10   5 1.30909 3.14568  -2
   0  10   5 1.30909 3.14568   1
   0  10   5 2.28351 1.66686   3
  -1 -10  -5 -0.0409 1.65841   3
  -1 -10  -5 2.67696 3.02889  -2
  -1 -10  -5 2.67696 3.02889   1
   1  10   5 3.86147 1.92064   3
   1  10   5 1.34316 1.04249   3
   1  10   5 -5.0869 3.97919  -2
   1  10   5 -5.0869 3.97919   1
   1  10   5 -0.2779 2.20130  -2
   1  10   5 -0.2779 2.20130   1
   2  10   5 25.4645 3.03768   1
   2  10   5 28.8656 4.03380   1
   2  10   5 29.9283 3.60036   3
   2  10   5 42.8443 4.80152   3
   2  10   5 16.3753 3.03686   2
   2  10   5 17.6640 2.18858   2
   4 -11  -5 21.5344 2.53702   2
   4 -11  -5 33.4553 3.77331   1
   4 -11  -5 37.9639 4.06142   3
  -4  11   5 15.1233 2.94960   2
  -4  11   5 29.3630 4.33732   1
  -4  11   5 33.3182 4.42805   3
   3 -11  -5 1.37762 1.01776   2
   3 -11  -5 3.78760 1.28295   3
   3 -11  -5 1.69251 1.02714   1
  -3  11   5 1.96762 2.01049   3
  -3  11   5 -0.8769 1.66662   2
  -3  11   5 0.99989 1.76115   1
   2 -11  -5 2.51162 1.35910   2
   2 -11  -5 2.51078 1.48309   1
   2 -11  -5 3.79666 1.58277   3
   2 -11  -5 3.28095 1.40876   3
   2 -11  -5 8.10215 2.40229  -2
   2 -11  -5 8.10215 2.40229   1
  -2  11   5 3.55951 1.97129   3
  -2  11   5 4.16844 1.93201   3
  -2  11   5 0.77017 1.67310   2
  -2  11   5 2.88478 1.43679   2
  -2  11   5 3.20678 1.70246   1
  -2  11   5 5.91168 2.18034   1
   1 -11  -5 50.2670 5.62058   3
   1 -11  -5 80.4544 8.75278  -2
   1 -11  -5 80.4544 8.75278   1
   0 -11  -5 49.3496 5.56002  -3
   0 -11  -5 49.3496 5.56002  -2
   0 -11  -5 49.3496 5.56002   1
   0  11   5 46.7461 4.90289  -3
   0  11   5 46.7461 4.90289  -2
   0  11   5 46.7461 4.90289   1
  -1 -11  -5 30.9034 3.58990   1
  -1 -11  -5 22.1396 2.85659   2
  -1 -11  -5 31.4247 4.38992   3
   1  11   5 38.5708 4.66779   3
   1  11   5 33.9018 3.72560   3
   1  11   5 62.4441 8.28535  -2
   1  11   5 62.4441 8.28535   1
   1  11   5 25.5138 2.93463   1
   1  11   5 16.4812 2.05898   2
   3 -12  -5 4.84495 1.24517   2
   3 -12  -5 7.63830 1.79784   3
   3 -12  -5 11.8587 2.39194   3
   3 -12  -5 9.74288 2.17756   1
   3 -12  -5 9.86547 1.54626   1
  -3  12   5 9.55914 2.69272   3
  -3  12   5 6.97230 2.24449   1
  -3  12   5 5.07332 1.84468   2
   2 -12  -5 0.37577 1.82562   1
   2 -12  -5 2.58645 1.48406   3
   2 -12  -5 3.31080 1.85224   3
   2 -12  -5 1.63656 1.58735   2
   2 -12  -5 9.79051 2.71191  -2
   2 -12  -5 9.79051 2.71191   1
  -2  12   5 3.63463 2.11974   1
  -2  12   5 3.23233 2.14524   1
  -2  12   5 0.46423 1.89572   2
  -2  12   5 1.83196 1.68761   2
  -2  12   5 3.46981 2.09550   3
  -2  12   5 3.53830 2.23355   3
   1 -12  -5 3.94903 1.83913   1
   1 -12  -5 8.69804 3.56041  -3
   1 -12  -5 8.69804 3.56041  -2
   1 -12  -5 8.69804 3.56041   1
   1 -12  -5 5.83697 3.39957  -3
   1 -12  -5 5.83697 3.39957   2
  -1  12   5 1.53477 2.07529   1
  -1  12   5 16.0081 4.84660  -3
  -1  12   5 16.0081 4.84660  -2
  -1  12   5 16.0081 4.84660   1
   0 -12  -5 5.13372 3.73615  -3
   0 -12  -5 5.13372 3.73615  -2
   0 -12  -5 5.13372 3.73615   1
   0  12   5 3.01862 2.13580   3
   0  12   5 4.02561 1.42332  -3
   0  12   5 4.02561 1.42332   2
   0  12   5 1.75951 1.08703   1
   0  14  -6 7.70539 2.31872   2
   0 -14   6 0.26577 1.65461   2
   0 -14   6 6.52331 1.30990   2
   0 -14   6 10.7643 2.37435   3
   0 -14   6 8.73054 2.03185   1
  -1  14  -6 -0.3980 1.84032   2
  -1  14  -6 6.76080 2.92826  -3
  -1  14  -6 6.76080 2.92826   1
   1 -14   6 0.06555 0.95578   2
   1 -14   6 -3.8283 2.26982   2
   1 -14   6 0.78624 1.64112   3
   1 -14   6 3.24061 1.63491   1
   1 -14   6 6.64593 3.88173  -3
   1 -14   6 6.64593 3.88173   1
   1 -14   6 11.2572 2.39764  -3
   1 -14   6 11.2572 2.39764   1
   1  13  -6 25.0629 5.18321  -3
   1  13  -6 25.0629 5.18321   1
   1  13  -6 5.48587 2.25588   2
  -1 -13   6 4.44950 1.33284   2
  -1 -13   6 4.22266 1.49772   2
  -1 -13   6 9.25603 1.80334   1
  -1 -13   6 22.2361 3.73317  -3
  -1 -13   6 22.2361 3.73317   1
  -1 -13   6 9.79110 2.17603   3
   0  13  -6 -0.3431 4.11284  -3
   0  13  -6 -0.3431 4.11284   1
   0  13  -6 1.78586 1.95574   2
   0 -13   6 -0.4301 1.25450   2
   0 -13   6 -0.2668 0.99354   2
   0 -13   6 -2.2252 1.68513  -3
   0 -13   6 -2.2252 1.68513   1
   0 -13   6 1.15436 1.35586   1
   0 -13   6 0.77302 1.40174   3
  -1  13  -6 3.85907 1.66249   2
  -1  13  -6 21.9759 3.92672  -3
  -1  13  -6 21.9759 3.92672   1
   1 -13   6 5.10207 1.65859   2
   1 -13   6 3.18007 2.02972   2
   1 -13   6 4.13488 0.92468   2
   1 -13   6 35.2535 3.61117   1
   1 -13   6 36.1747 4.54345  -3
   1 -13   6 36.1747 4.54345   1
   1 -13   6 9.61442 1.83044   3
   1 -13   6 7.69630 1.25022   3
  -2  13  -6 1.31218 1.96835   3
  -2  13  -6 1.14670 1.95854   2
  -2  13  -6 5.66294 2.15441   1
   2 -13   6 13.2687 4.80050  -3
   2 -13   6 13.2687 4.80050   1
   2 -13   6 4.00637 0.93697   3
   2 -13   6 2.64434 0.73222   2
   2 -13   6 1.62029 2.06724   2
   2 -13   6 5.63731 0.96907   1
   3 -13   6 12.7912 1.45743   1
   3 -13   6 10.8461 3.02885   1
   3 -13   6 8.90138 1.18194   3
   3 -13   6 5.15125 2.90737   3
   2  12  -6 4.20840 0.97513   2
   2  12  -6 2.11760 2.17277   2
   2  12  -6 9.84820 1.36976   1
   2  12  -6 3.44576 2.16781   1
   2  12  -6 5.02711 2.55509   3
   2  12  -6 8.90141 1.32333   3
  -2 -12   6 8.31226 1.91186   3
  -2 -12   6 11.2374 1.84787   3
  -2 -12   6 5.38742 1.44074   2
  -2 -12   6 3.40616 1.47960   2
  -2 -12   6 6.09374 1.66523   1
  -2 -12   6 7.26797 1.68748   1
   1  12  -6 50.9675 7.36347  -3
   1  12  -6 50.9675 7.36347   1
   1  12  -6 7.99417 2.21557   2
   1  12  -6 11.0704 2.22754   2
   1  12  -6 27.7055 3.73963   3
   1  12  -6 24.0413 3.15770   1
  -1 -12   6 12.2183 1.59286   2
  -1 -12   6 12.8836 1.88691   2
  -1 -12   6 23.4992 2.96754   1
  -1 -12   6 57.8825 5.85513  -3
  -1 -12   6 57.8825 5.85513   1
  -1 -12   6 33.2373 3.67016   3
   0  12  -6 16.3660 2.37815   1
   0  12  -6 8.71223 1.96968   2
   0  12  -6 9.95042 1.93923   2
   0  12  -6 15.0288 2.47710   3
   0  12  -6 34.9328 4.73705  -3
   0  12  -6 34.9328 4.73705   1
   0 -12   6 16.6550 2.20412   1
   0 -12   6 21.2798 2.43067   3
   0 -12   6 25.6744 3.02415  -3
   0 -12   6 25.6744 3.02415   1
   0 -12   6 10.9735 1.29609   2
   0 -12   6 6.31104 1.50703   2
  -1  12  -6 0.93942 1.47910   2
  -1  12  -6 1.98584 1.28365   2
  -1  12  -6 10.7864 1.80421   1
  -1  12  -6 8.09360 2.45067  -3
  -1  12  -6 8.09360 2.45067   1
  -1  12  -6 5.20828 1.40945   3
   1 -12   6 9.51995 1.71428   1
   1 -12   6 10.8044 1.29168   1
   1 -12   6 3.08349 1.39061   2
   1 -12   6 2.98964 1.68002   2
   1 -12   6 3.07867 0.73332   2
   1 -12   6 5.10065 0.97681   3
   1 -12   6 6.45499 1.39920   3
   1 -12   6 14.7386 2.96009  -3
   1 -12   6 14.7386 2.96009   1
  -2  12  -6 19.2132 2.56307   1
  -2  12  -6 17.2088 2.93647   1
  -2  12  -6 21.0922 3.02246   3
  -2  12  -6 18.2718 2.63762   3
  -2  12  -6 10.3609 2.14318   2
  -2  12  -6 9.79086 1.85638   2
   2 -12   6 8.26494 2.13298   2
   2 -12   6 9.85647 1.14319   2
   2 -12   6 20.3016 2.08797   1
   2 -12   6 20.6029 2.08989   3
   2 -12   6 38.1794 5.85845  -3
   2 -12   6 38.1794 5.85845   1
  -3  12  -6 13.9199 2.82942   1
  -3  12  -6 9.85550 1.92590   1
  -3  12  -6 12.6162 2.90005   3
  -3  12  -6 16.8137 2.51286   3
  -3  12  -6 6.57846 1.99323   2
   3 -12   6 9.41680 2.92203   3
   3 -12   6 15.8710 1.63957   3
   3 -12   6 8.37700 2.12054   2
   3 -12   6 10.4933 2.65638   1
   3  11  -6 5.52544 2.31549   1
   3  11  -6 7.07061 1.54629   1
   3  11  -6 4.66586 1.26455   2
   3  11  -6 1.17761 2.24306   2
   3  11  -6 9.53588 1.49616   3
   3  11  -6 6.95591 1.98018   3
  -3 -11   6 6.54935 1.83070   3
  -3 -11   6 3.01714 1.54609   2
  -3 -11   6 9.82420 1.92387   1
   2  11  -6 -1.5415 0.93885   1
   2  11  -6 0.50083 1.67852   1
   2  11  -6 0.37708 1.63991   1
   2  11  -6 0.11125 1.39047   2
   2  11  -6 1.03787 1.75305   2
   2  11  -6 -0.2160 0.88229   2
   2  11  -6 -0.1931 1.87951   3
   2  11  -6 -1.8049 0.86102   3
   2  11  -6 1.76691 1.58011   3
  -2 -11   6 -1.4062 1.13646   1
  -2 -11   6 -0.3595 1.18997   1
  -2 -11   6 -0.1302 1.18793   3
  -2 -11   6 -1.5694 1.25112   3
  -2 -11   6 -0.6862 1.06380   2
  -2 -11   6 0.08883 1.13062   2
   1  11  -6 -0.7522 1.42543   2
   1  11  -6 0.43029 1.53965   2
   1  11  -6 0.81783 0.56895   3
   1  11  -6 -1.0773 1.28724   3
   1  11  -6 0.65087 3.09633  -3
   1  11  -6 0.65087 3.09633   1
   1  11  -6 1.03051 1.42127   1
  -1 -11   6 0.48638 1.28175   3
  -1 -11   6 -0.3595 0.98730   1
  -1 -11   6 -0.5498 1.05403   2
  -1 -11   6 -0.2235 0.87921   2
  -1 -11   6 4.56810 2.18228  -3
  -1 -11   6 4.56810 2.18228   1
   0  11  -6 0.57650 1.01506   3
   0  11  -6 8.92620 2.95811  -3
   0  11  -6 8.92620 2.95811   1
   0  11  -6 0.84663 1.37182   2
   0  11  -6 -0.2345 1.10565   2
   0  11  -6 7.01714 1.39090   1
   0 -11   6 3.08975 1.03274   1
   0 -11   6 1.53394 0.90164   2
   0 -11   6 1.07201 0.74200   2
   0 -11   6 7.88750 1.48645  -3
   0 -11   6 7.88750 1.48645   1
   0 -11   6 2.60858 1.19603   3
  -1  11  -6 7.42643 1.62885   2
  -1  11  -6 9.72365 1.72708   2
  -1  11  -6 28.2533 4.05113  -3
  -1  11  -6 28.2533 4.05113   1
  -1  11  -6 24.5555 2.85932   1
  -1  11  -6 19.1984 2.49916   3
   1 -11   6 21.4860 2.43075   3
   1 -11   6 18.4155 2.01724   3
   1 -11   6 11.0315 1.59836   2
   1 -11   6 9.15212 1.10510   2
   1 -11   6 11.9427 2.05863   2
   1 -11   6 20.3195 2.34389   1
   1 -11   6 26.4226 2.81121   1
   1 -11   6 36.6094 4.34313  -3
   1 -11   6 36.6094 4.34313   1
  -2  11  -6 5.05255 1.62959   2
  -2  11  -6 5.06587 1.47142   2
  -2  11  -6 8.91301 1.65356   3
  -2  11  -6 7.26195 1.51945   1
  -2  11  -6 19.3175 4.05140  -3
  -2  11  -6 19.3175 4.05140   1
   2 -11   6 7.64000 0.94314   1
   2 -11   6 5.07082 1.68813   2
   2 -11   6 4.32710 0.70421   2
   2 -11   6 10.0900 1.14172   3
   2 -11   6 19.6135 4.20480  -3
   2 -11   6 19.6135 4.20480   1
  -3  11  -6 5.95058 1.75449   3
  -3  11  -6 11.9704 1.90647   1
  -3  11  -6 0.75308 1.59517   2
   3 -11   6 4.35685 2.08662   3
   3 -11   6 6.07219 0.94782   3
   3 -11   6 9.25616 1.19943   1
   3 -11   6 12.0440 2.35629   1
   3 -11   6 3.70309 1.61985   2
  -4  11  -6 8.25987 2.31815   2
  -4  11  -6 14.5648 2.66552   3
  -4  11  -6 12.8831 2.56063   1
   4 -11   6 14.4635 2.79989   3
   4 -11   6 20.4249 1.94599   3
   4 -11   6 15.5838 1.69008   1
   4 -11   6 21.1780 2.84676   1
   4 -11   6 12.4536 2.47712   2
   3  10  -6 4.71717 1.13777   3
   3  10  -6 2.09143 1.59359   3
   3  10  -6 1.50749 2.01240   2
   3  10  -6 1.32246 0.99135   2
   3  10  -6 4.94172 1.26455   1
   3  10  -6 1.89631 1.86850   1
  -3 -10   6 3.95284 1.34686   2
  -3 -10   6 3.43311 1.28041   1
  -3 -10   6 3.75550 1.49552   3
   2  10  -6 3.47241 1.01070   1
   2  10  -6 5.07251 1.68375   1
   2  10  -6 4.45872 1.51314   1
   2  10  -6 1.85685 1.56657   2
   2  10  -6 3.77605 1.58380   2
   2  10  -6 3.84080 0.89735   2
   2  10  -6 10.1529 1.96826   3
   2  10  -6 5.97868 1.47117   3
   2  10  -6 4.94263 1.01936   3
  -2 -10   6 6.62973 1.37197   3
  -2 -10   6 5.05946 1.35226   3
  -2 -10   6 1.66777 1.14104   2
  -2 -10   6 0.59732 1.02600   2
  -2 -10   6 6.91332 1.23808   1
  -2 -10   6 4.69437 1.20981   1
   1  10  -6 117.697 11.2316   3
   1  10  -6 125.817 12.9194   3
   1  10  -6 54.3579 6.22280   2
   1  10  -6 61.2331 6.61942   2
   1  10  -6 144.945 14.7991   1
   1  10  -6 138.929 12.8772   1
   1  10  -6 266.517 29.7577  -3
   1  10  -6 266.517 29.7577   1
  -1 -10   6 127.626 14.1337   1
  -1 -10   6 116.113 12.3685   3
  -1 -10   6 266.127 25.1088  -3
  -1 -10   6 266.127 25.1088   1
  -1 -10   6 54.6434 5.43414   2
  -1 -10   6 54.2306 5.93268   2
   0  10  -6 76.3390 6.28936  -3
   0  10  -6 76.3390 6.28936   1
   0  10  -6 9.61028 1.62983   2
   0  10  -6 6.48037 1.51831   2
   0  10  -6 19.7513 2.52119   3
   0  10  -6 48.9335 5.46244   1
   0 -10   6 43.2462 4.87379  -3
   0 -10   6 43.2462 4.87379   1
   0 -10   6 21.2670 2.52518   3
   0 -10   6 8.43620 1.33771   2
   0 -10   6 10.9206 1.15945   2
   0 -10   6 12.5753 1.88275   2
  -1  10  -6 6.57027 1.87567  -3
  -1  10  -6 6.57027 1.87567   1
  -1  10  -6 3.33034 1.05843   1
  -1  10  -6 0.61239 1.05052   3
  -1  10  -6 0.36885 1.00037   2
  -1  10  -6 0.17649 1.02728   2
   1 -10   6 0.34858 0.45632   2
   1 -10   6 1.43584 0.96403   2
   1 -10   6 -0.1916 1.21302   2
   1 -10   6 0.94769 1.00886   3
   1 -10   6 2.53175 0.57594   3
   1 -10   6 3.08763 0.58839   1
   1 -10   6 2.68000 1.00006   1
   1 -10   6 3.21027 2.21538  -3
   1 -10   6 3.21027 2.21538   1
  -2  10  -6 1.21176 1.21272   2
  -2  10  -6 0.82953 1.40149   2
  -2  10  -6 1.13385 1.02047   3
  -2  10  -6 5.54227 1.27594   1
   2 -10   6 0.92122 0.58986   3
   2 -10   6 0.77379 0.48955   2
   2 -10   6 1.67810 1.35077   2
   2 -10   6 5.19371 0.77715   1
   2 -10   6 5.69318 3.23109  -3
   2 -10   6 5.69318 3.23109   1
  -3  10  -6 -0.7862 1.38842   2
  -3  10  -6 -0.1587 1.38374   3
  -3  10  -6 3.65289 1.34155   1
   3 -10   6 0.32860 0.65158   2
   3 -10   6 1.25749 1.46065   2
   3 -10   6 -1.1689 1.64463   2
   3 -10   6 -0.1076 0.62962   3
   3 -10   6 -0.7587 1.68079   3
   3 -10   6 2.17979 0.63038   1
   3 -10   6 5.30776 1.79454   1
  -4  10  -6 6.24215 1.77856   1
  -4  10  -6 3.66713 1.81023   3
  -4  10  -6 4.31899 1.87035   2
   4 -10   6 3.56296 1.91263   1
   4 -10   6 5.05892 0.88949   1
   4 -10   6 2.89089 0.82934   2
   4 -10   6 3.19404 1.88465   2
   4 -10   6 3.13552 2.04018   3
   4 -10   6 6.72251 1.01158   3
   4   9  -6 6.75826 2.40663   2
   4   9  -6 3.50721 1.34553   2
   4   9  -6 11.9902 1.99108   3
   4   9  -6 10.7866 2.35876   3
   4   9  -6 7.87959 2.45945   1
   4   9  -6 6.19211 1.76672   1
  -4  -9   6 9.57756 1.82225   1
  -4  -9   6 2.85826 1.50477   2
  -4  -9   6 11.4932 2.14407   3
   3   9  -6 7.54316 1.23438   3
   3   9  -6 5.76365 1.76618   3
   3   9  -6 3.82147 1.78052   2
   3   9  -6 3.12360 1.06903   2
   3   9  -6 4.85942 1.20325   1
   3   9  -6 10.9664 1.98785   1
  -3  -9   6 3.94151 1.18341   2
  -3  -9   6 6.24564 1.57600   3
  -3  -9   6 6.81125 1.35738   1
   2   9  -6 56.3765 6.38235   3
   2   9  -6 58.6672 5.55799   3
   2   9  -6 60.1338 6.83301   3
   2   9  -6 59.0871 5.35825   1
   2   9  -6 55.3833 6.48873   1
   2   9  -6 58.4901 6.22843   1
   2   9  -6 37.9990 4.07755   2
   2   9  -6 31.4487 3.10736   2
   2   9  -6 24.9950 3.69894   2
  -2  -9   6 30.3685 3.39805   2
  -2  -9   6 29.6479 3.25142   2
  -2  -9   6 62.5698 5.68590   3
  -2  -9   6 51.0153 6.12146   3
  -2  -9   6 49.8519 5.82240   1
  -2  -9   6 52.5154 5.43026   1
   1   9  -6 -0.4313 1.19200   2
   1   9  -6 0.30522 0.49513   2
   1   9  -6 0.99166 0.99686   2
   1   9  -6 2.51403 1.06510  -3
   1   9  -6 2.51403 1.06510   1
   1   9  -6 3.81733 2.67979  -3
   1   9  -6 3.81733 2.67979   1
   1   9  -6 1.21902 1.08604   3
   1   9  -6 0.25755 1.08527   1
  -1  -9   6 0.55403 0.78437   1
  -1  -9   6 -0.4466 0.70263   1
  -1  -9   6 0.56150 0.69139   2
  -1  -9   6 -0.2944 0.74881   2
  -1  -9   6 -0.0802 0.73884   3
  -1  -9   6 0.09561 0.87944   3
   0   9  -6 106.803 11.1037   2
   0   9  -6 99.2970 11.5368   2
   0   9  -6 337.218 36.8809  -3
   0   9  -6 337.218 36.8809   1
   0   9  -6 200.001 20.9724   3
   0   9  -6 165.658 17.6099   1
   0  -9   6 102.803 9.67837   2
   0  -9   6 95.7082 11.5249   2
   0  -9   6 106.922 10.5972   2
   0  -9   6 325.465 36.8971  -3
   0  -9   6 325.465 36.8971   1
   0  -9   6 153.043 15.4519   1
   0  -9   6 177.306 16.8843   1
   0  -9   6 195.608 18.4295   3
   0  -9   6 191.838 20.1230   3
  -1   9  -6 68.5724 8.43011   3
  -1   9  -6 75.1269 8.16017   1
  -1   9  -6 89.7094 11.0892  -3
  -1   9  -6 89.7094 11.0892   1
  -1   9  -6 40.0325 4.99178   2
  -1   9  -6 40.0530 4.74055   2
   1  -9   6 107.456 11.1316  -3
   1  -9   6 107.456 11.1316   1
   1  -9   6 75.5626 7.38323   3
   1  -9   6 93.9977 8.14738   3
   1  -9   6 70.5809 7.09058   1
   1  -9   6 81.7506 7.80474   1
   1  -9   6 42.5075 4.01026   2
   1  -9   6 40.6447 4.47494   2
   1  -9   6 45.0945 5.02116   2
  -2   9  -6 2.88852 1.44019   2
  -2   9  -6 4.50789 1.27835   2
  -2   9  -6 8.96657 1.47308   1
  -2   9  -6 11.3467 1.65124   3
   2  -9   6 8.47624 0.99437   1
   2  -9   6 4.73072 0.68816   2
   2  -9   6 7.16770 1.48170   2
   2  -9   6 11.0300 1.22122   3
   2  -9   6 17.8499 3.70745  -3
   2  -9   6 17.8499 3.70745   1
  -3   9  -6 10.9621 1.97079   2
  -3   9  -6 23.9306 3.02294   1
  -3   9  -6 32.3180 3.56002   3
   3  -9   6 32.6253 3.86858   3
   3  -9   6 27.6725 2.97451   3
   3  -9   6 29.8200 3.41044   1
   3  -9   6 24.1479 2.50890   1
   3  -9   6 11.9941 2.25102   2
   3  -9   6 15.5176 2.17142   2
   3  -9   6 13.9634 1.42338   2
  -4   9  -6 -0.6988 1.64335   2
  -4   9  -6 0.92575 1.48950   1
  -4   9  -6 0.78507 1.57155   3
   4  -9   6 0.18090 1.69508   2
   4  -9   6 0.38598 0.73406   2
   4  -9   6 -0.4014 1.62959   1
   4  -9   6 -0.3027 0.70278   1
   4  -9   6 -0.1635 0.81098   3
   4  -9   6 -2.4772 1.65690   3
   4   8  -6 6.45108 2.08871   3
   4   8  -6 8.54944 1.68123   3
   4   8  -6 3.59546 1.52800   1
   4   8  -6 9.89976 2.16917   1
   4   8  -6 4.41839 2.05782   2
   4   8  -6 1.76829 1.18470   2
  -4  -8   6 7.78670 1.59269   1
  -4  -8   6 3.90638 1.53607   2
  -4  -8   6 9.59920 1.96800   3
   3   8  -6 0.40225 1.36617   2
   3   8  -6 -0.0734 0.83109   2
   3   8  -6 -0.8839 1.16704   3
   3   8  -6 0.76911 0.90101   3
   3   8  -6 0.47720 1.47314   1
   3   8  -6 0.31105 0.88955   1
  -3  -8   6 0.30789 1.05454   3
  -3  -8   6 0.15728 0.90436   2
  -3  -8   6 0.71482 1.07078   1
   2   8  -6 11.2511 1.43408   1
   2   8  -6 11.2602 1.95267   1
   2   8  -6 14.3882 1.96104   1
   2   8  -6 14.0728 1.97169   3
   2   8  -6 11.7521 1.57442   3
   2   8  -6 16.9570 2.17197   3
   2   8  -6 9.61923 1.08214   2
   2   8  -6 8.64424 1.56315   2
   2   8  -6 7.56817 1.62531   2
  -2  -8   6 13.8364 1.94331   3
  -2  -8   6 14.8436 1.68353   3
  -2  -8   6 7.41728 1.29213   2
  -2  -8   6 4.95210 1.08715   2
  -2  -8   6 11.6764 1.64995   1
  -2  -8   6 14.4196 1.53391   1
   1   8  -6 48.9420 5.17967   2
   1   8  -6 46.1802 4.39048   2
   1   8  -6 41.9035 5.33313   2
   1   8  -6 131.366 12.5014   1
   1   8  -6 115.766 14.2819   1
   1   8  -6 87.7000 9.81289   3
   1   8  -6 94.5939 8.55433   3
   1   8  -6 255.049 28.4528  -3
   1   8  -6 255.049 28.4528   1
  -1  -8   6 42.7252 4.83828   2
  -1  -8   6 46.3553 5.41006   2
  -1  -8   6 48.9277 4.44849   2
  -1  -8   6 90.9522 8.61865   3
  -1  -8   6 86.2448 9.40989   3
  -1  -8   6 148.809 12.5544   1
  -1  -8   6 133.547 13.6958   1
   0   8  -6 203.916 22.8679  -3
   0   8  -6 203.916 22.8679   1
   0   8  -6 103.739 11.4878   3
   0   8  -6 104.206 10.5690   1
   0   8  -6 59.2084 6.74795   2
   0   8  -6 61.2692 6.46859   2
   0  -8   6 99.5940 10.0931   1
   0  -8   6 92.4936 9.22523   1
   0  -8   6 56.4648 5.60595   2
   0  -8   6 62.8876 6.80217   2
   0  -8   6 58.0965 6.16282   2
   0  -8   6 205.887 22.8957  -3
   0  -8   6 205.887 22.8957   1
   0  -8   6 110.271 11.0440   3
   0  -8   6 106.428 10.0811   3
  -1   8  -6 33.5053 3.81173   2
  -1   8  -6 28.8607 3.58324   2
  -1   8  -6 77.2234 9.37711  -3
  -1   8  -6 77.2234 9.37711   1
  -1   8  -6 52.2368 6.09589   1
  -1   8  -6 61.7439 6.44249   3
   1  -8   6 56.9948 5.30781   1
   1  -8   6 57.1260 5.83118   1
   1  -8   6 88.7026 9.40982  -3
   1  -8   6 88.7026 9.40982   1
   1  -8   6 32.6906 3.42188   2
   1  -8   6 32.4855 3.90596   2
   1  -8   6 30.5060 3.03458   2
   1  -8   6 61.0906 6.18175   3
   1  -8   6 55.5307 5.59484   3
  -2   8  -6 60.4454 6.14476   3
  -2   8  -6 29.0732 3.56399   2
  -2   8  -6 51.6327 5.76154   1
   2  -8   6 31.7081 3.00036   2
   2  -8   6 30.7532 3.85457   2
   2  -8   6 52.2598 4.96806   1
   2  -8   6 53.3575 5.30512   3
   2  -8   6 115.790 13.1794  -3
   2  -8   6 115.790 13.1794   1
  -3   8  -6 3.56189 1.07216   1
  -3   8  -6 0.26037 1.23253   2
  -3   8  -6 -0.0319 1.18773   3
   3  -8   6 0.40016 0.65022   2
   3  -8   6 -1.0662 1.20947   2
   3  -8   6 0.31943 1.25838   2
   3  -8   6 -0.3634 1.49862   3
   3  -8   6 0.44619 0.59516   3
   3  -8   6 8.38141 1.58270   1
   3  -8   6 4.50559 1.20205   1
   3  -8   6 5.87900 0.82305   1
  -4   8  -6 16.5267 2.84278   2
  -4   8  -6 41.5349 4.61825   1
  -4   8  -6 42.4553 5.14820   3
   4  -8   6 39.5735 4.71592   1
   4  -8   6 37.3827 3.81386   1
   4  -8   6 47.5205 4.39653   3
   4  -8   6 42.1865 5.21211   3
   4  -8   6 22.5722 2.95890   2
   4  -8   6 22.4252 2.25143   2
   4   7  -6 0.38154 1.07605   2
   4   7  -6 -0.7847 1.73968   2
   4   7  -6 1.09444 1.25570   3
   4   7  -6 0.95842 1.62013   3
   4   7  -6 1.30370 1.67146   1
   4   7  -6 1.07324 1.28650   1
  -4  -7   6 1.69916 1.23483   1
  -4  -7   6 0.76185 1.32535   3
  -4  -7   6 0.43040 1.29128   2
   3   7  -6 1.94582 0.91630   2
   3   7  -6 4.80793 1.51198   2
   3   7  -6 6.96049 1.52797   1
   3   7  -6 6.61370 1.17101   1
   3   7  -6 6.72934 1.46737   3
   3   7  -6 6.94836 1.25940   3
  -3  -7   6 7.94651 1.30511   1
  -3  -7   6 6.27476 1.13997   2
  -3  -7   6 7.65777 1.34118   3
   2   7  -6 5.37365 1.19148   2
   2   7  -6 4.72398 1.28754   2
   2   7  -6 4.42477 0.88148   2
   2   7  -6 12.9373 1.77732   3
   2   7  -6 8.60571 1.33451   3
  -2  -7   6 14.6366 1.50580   3
  -2  -7   6 13.0659 1.68941   3
  -2  -7   6 5.17628 1.30951   2
  -2  -7   6 6.19396 1.10272   2
  -2  -7   6 7.31632 0.94290   2
   1   7  -6 60.4832 6.78015   3
   1   7  -6 59.2677 5.66654   3
   1   7  -6 60.6157 6.53193   3
   1   7  -6 31.9792 3.10489   2
   1   7  -6 29.7433 3.64130   2
   1   7  -6 27.4105 3.78569   2
   1   7  -6 71.0662 7.92949   1
   1   7  -6 77.6739 6.64318   1
   1   7  -6 64.9857 7.61098   1
  -1  -7   6 127.309 14.3786  -3
  -1  -7   6 127.309 14.3786   1
  -1  -7   6 66.6634 6.65752   1
  -1  -7   6 67.9491 7.26552   1
  -1  -7   6 55.8181 6.21583   3
  -1  -7   6 61.3028 5.70184   3
  -1  -7   6 37.6024 3.46177   2
  -1  -7   6 30.7383 3.13208   2
  -1  -7   6 33.4616 3.85272   2
   0   7  -6 2.38603 0.80954   3
   0   7  -6 2.88734 0.44801   3
   0   7  -6 2.55491 0.48776   1
   0   7  -6 2.07530 0.90528   1
   0   7  -6 3.42642 0.45294   1
   0   7  -6 2.93206 0.84346   2
   0   7  -6 0.30720 0.86264   2
   0   7  -6 6.63792 1.79694  -3
   0   7  -6 6.63792 1.79694   1
   0  -7   6 1.22878 0.62145   2
   0  -7   6 1.93307 0.49437   2
   0  -7   6 0.78375 0.84012   2
   0  -7   6 6.40958 1.21270  -3
   0  -7   6 6.40958 1.21270   1
   0  -7   6 2.35089 2.05663  -3
   0  -7   6 2.35089 2.05663   1
   0  -7   6 4.05629 0.84401   3
   0  -7   6 3.41598 0.67871   1
  -1   7  -6 157.125 16.9863   1
  -1   7  -6 10.9332 1.68406   2
  -1   7  -6 15.2070 1.85907   2
  -1   7  -6 157.991 16.8687  -3
  -1   7  -6 157.991 16.8687   1
  -1   7  -6 22.7904 2.71210   3
   1  -7   6 154.265 16.2636   1
   1  -7   6 163.173 14.9067   1
   1  -7   6 144.054 16.8550  -3
   1  -7   6 144.054 16.8550   1
   1  -7   6 10.9347 1.26427   2
   1  -7   6 12.8332 1.49789   2
   1  -7   6 16.3996 1.85709   2
   1  -7   6 24.5302 2.28083   3
   1  -7   6 20.6946 2.52181   3
  -2   7  -6 85.0342 9.22221   2
  -2   7  -6 136.145 15.0955   1
  -2   7  -6 147.390 15.9247   3
   2  -7   6 143.943 13.2451   1
   2  -7   6 149.423 13.9779   3
   2  -7   6 81.0676 8.03962   2
   2  -7   6 93.8717 9.63529   2
   2  -7   6 278.316 31.0116  -3
   2  -7   6 278.316 31.0116   1
  -3   7  -6 59.1471 6.56326   3
  -3   7  -6 52.7840 5.93498   1
  -3   7  -6 35.0641 3.93747   2
   3  -7   6 36.1819 3.97001   2
   3  -7   6 31.1934 4.08967   2
   3  -7   6 33.3809 3.31189   2
   3  -7   6 47.0161 5.95409   1
   3  -7   6 55.4542 5.13816   1
   3  -7   6 62.7127 6.42534   1
   3  -7   6 56.9956 5.69054   3
   3  -7   6 68.5170 7.05109   3
  -4   7  -6 3.63075 1.52940   3
  -4   7  -6 1.52916 1.50087   2
  -4   7  -6 2.00781 1.26846   1
   4  -7   6 2.11043 1.56669   2
   4  -7   6 2.32436 0.77288   2
   4  -7   6 4.46252 1.61273   3
   4  -7   6 4.37469 0.95917   3
   4  -7   6 3.87193 0.80815   1
   4  -7   6 6.36384 1.45544   1
   5  -7   6 42.6973 4.86481   3
   5  -7   6 48.0913 5.47886   3
   5  -7   6 38.9315 4.64705   1
   5  -7   6 34.5435 3.84127   1
   5  -7   6 16.8355 2.89275   2
   5  -7   6 19.2781 2.36086   2
   5   6  -6 1.01300 2.23600   2
   5   6  -6 -0.4296 1.97404   1
   5   6  -6 0.01096 1.73936   3
  -5  -6   6 0.89942 1.53142   2
  -5  -6   6 -0.5392 1.76623   3
  -5  -6   6 -0.6177 1.50450   1
   4   6  -6 38.3574 4.37354   1
   4   6  -6 40.2536 4.80820   3
   4   6  -6 15.8210 2.20766   2
   4   6  -6 23.0647 2.73117   2
  -4  -6   6 39.7373 4.48635   3
  -4  -6   6 18.4104 2.39258   2
  -4  -6   6 32.8698 4.06982   1
   3   6  -6 21.3201 2.94890   2
   3   6  -6 27.4792 2.60415   2
   3   6  -6 42.2028 5.11841   3
   3   6  -6 46.6754 4.50290   3
   3   6  -6 43.4782 4.53304   1
   3   6  -6 52.4195 5.24759   1
  -3  -6   6 22.7289 2.71049   2
  -3  -6   6 42.7530 4.86653   1
  -3  -6   6 45.4854 4.88637   3
   2   6  -6 7.29734 1.31162   2
   2   6  -6 4.62779 1.15659   2
   2   6  -6 6.92671 0.93721   2
   2   6  -6 11.3091 1.44786   3
   2   6  -6 10.7448 1.75081   3
   2   6  -6 12.9137 1.78798   3
  -2  -6   6 11.3715 1.60091   3
  -2  -6   6 14.3373 1.49089   3
  -2  -6   6 19.0766 2.03232   3
  -2  -6   6 8.82983 1.05379   2
  -2  -6   6 4.93798 0.97457   2
  -2  -6   6 5.06941 1.28648   2
  -2  -6   6 47.0090 5.50341   1
  -2  -6   6 47.4006 4.63796   1
   1   6  -6 11.1862 1.07618   2
   1   6  -6 9.04763 1.42110   2
   1   6  -6 7.25691 1.31486   2
   1   6  -6 12.9148 2.05546   1
   1   6  -6 19.1252 2.04546   1
   1   6  -6 19.6131 1.72888   1
   1   6  -6 19.9369 2.21624   3
   1   6  -6 15.0160 2.25832   3
   1   6  -6 18.4026 1.90358   3
  -1  -6   6 11.6566 1.45046   2
  -1  -6   6 8.65804 1.18449   2
  -1  -6   6 8.87426 1.09790   2
  -1  -6   6 16.5730 1.77457   1
  -1  -6   6 13.9274 1.85046   1
  -1  -6   6 32.6540 4.24077  -3
  -1  -6   6 32.6540 4.24077   1
  -1  -6   6 21.1695 1.92477   3
  -1  -6   6 16.6216 2.07532   3
   0   6  -6 4.64454 0.52892   2
   0   6  -6 3.70174 0.94896   2
   0   6  -6 4.47642 0.51345   2
   0   6  -6 3.61353 0.99616   2
   0   6  -6 16.9416 2.54498  -3
   0   6  -6 16.9416 2.54498   1
   0   6  -6 12.1334 1.57601   1
   0   6  -6 13.7792 1.27273   1
   0   6  -6 11.6560 1.25963   1
   0   6  -6 9.90740 1.31807   3
   0   6  -6 8.96050 0.98574   3
   0  -6   6 4.20838 0.94899   2
   0  -6   6 3.22220 0.58022   2
   0  -6   6 3.08370 0.67269   2
   0  -6   6 9.84894 1.23877   3
   0  -6   6 9.74735 1.07684   3
   0  -6   6 11.7222 1.27109   1
   0  -6   6 10.8095 1.40387   1
   0  -6   6 15.7020 2.58294  -3
   0  -6   6 15.7020 2.58294   1
  -1   6  -6 1.12908 0.85575   2
  -1   6  -6 8.38113 1.14695   1
  -1   6  -6 1.36884 0.66355   3
   1  -6   6 0.37234 0.49581   2
   1  -6   6 0.01854 0.82542   2
   1  -6   6 0.65391 0.36103   2
   1  -6   6 0.80251 0.42753   3
   1  -6   6 0.69391 0.58140   3
   1  -6   6 7.35392 0.86857   1
   1  -6   6 9.40703 1.75620  -3
   1  -6   6 9.40703 1.75620   1
  -2   6  -6 63.0621 6.30771   2
  -2   6  -6 105.130 11.6181   3
  -2   6  -6 98.9132 10.7616   1
   2  -6   6 110.035 10.1881   3
   2  -6   6 206.362 23.0515  -3
   2  -6   6 206.362 23.0515   1
   2  -6   6 56.0296 6.54493   2
   2  -6   6 55.1302 5.43770   2
   2  -6   6 100.658 9.43202   1
  -3   6  -6 38.9326 4.64665   3
  -3   6  -6 27.1668 3.02887   2
  -3   6  -6 51.3500 5.45020   1
   3  -6   6 51.4803 5.77808   1
   3  -6   6 51.6563 5.49437   1
   3  -6   6 44.9230 4.68043   1
   3  -6   6 24.7910 3.10363   2
   3  -6   6 26.8347 3.06181   2
   3  -6   6 22.5281 2.52257   2
   3  -6   6 43.5427 4.68336   3
   3  -6   6 40.3862 4.02613   3
   3  -6   6 44.3475 4.97694   3
  -4   6  -6 2.18671 1.42102   3
  -4   6  -6 1.98705 1.29909   1
   4  -6   6 1.86731 0.74829   1
   4  -6   6 1.74874 1.23108   1
   4  -6   6 1.39267 0.77000   2
   4  -6   6 0.76932 1.45138   2
   4  -6   6 2.48169 1.44209   3
   4  -6   6 0.57024 0.84919   3
   5  -6   6 8.13343 1.42079   1
   5  -6   6 12.9832 2.33802   1
   5  -6   6 8.30957 1.51606   3
   5  -6   6 9.72338 2.08213   3
   5  -6   6 3.99574 1.25836   2
   5  -6   6 9.89012 2.06614   2
   5   5  -6 3.63351 2.13537   3
   5   5  -6 7.05961 2.02410   1
   5   5  -6 4.07761 2.06876   2
  -5  -5   6 6.63893 1.51063   1
  -5  -5   6 10.6179 1.77643   1
  -5  -5   6 3.57957 1.54407   2
  -5  -5   6 9.97651 1.90880   3
  -5  -5   6 8.16741 1.59468   3
   4   5  -6 2.83451 1.25964   3
   4   5  -6 0.15735 1.39174   1
   4   5  -6 1.70779 1.12928   2
   4   5  -6 2.12529 1.31950   2
  -4  -5   6 1.39854 1.09455   3
  -4  -5   6 2.72270 1.08188   3
  -4  -5   6 1.85250 1.13849   1
  -4  -5   6 1.38682 1.00121   1
  -4  -5   6 0.51450 1.00729   2
   3   5  -6 9.97653 1.82406   3
   3   5  -6 11.4622 1.61079   3
   3   5  -6 4.65954 0.98970   2
   3   5  -6 9.82413 1.52624   2
   3   5  -6 15.9710 2.18311   1
  -3  -5   6 7.58810 1.22299   2
  -3  -5   6 20.6691 1.91215   3
   2   5  -6 134.730 13.0219   3
   2   5  -6 127.905 15.4098   3
   2   5  -6 137.377 14.8269   3
   2   5  -6 69.2982 9.06237   2
   2   5  -6 84.8329 7.66037   2
   2   5  -6 89.1645 8.80366   2
   2   5  -6 291.121 28.6429   1
  -2  -5   6 145.262 15.4376   3
  -2  -5   6 139.659 13.0535   3
  -2  -5   6 145.201 14.2198   3
  -2  -5   6 82.2687 7.66903   2
  -2  -5   6 75.9199 9.07960   2
  -2  -5   6 84.2246 8.33634   2
  -2  -5   6 293.419 28.6831   1
  -2  -5   6 331.565 33.9095   1
   1   5  -6 43.7787 4.82575   2
   1   5  -6 40.2865 5.01413   2
   1   5  -6 43.3128 4.18456   2
   1   5  -6 110.038 10.5880   1
   1   5  -6 114.537 12.0969   1
   1   5  -6 109.856 12.5765   1
   1   5  -6 74.2329 7.29019   3
   1   5  -6 79.4846 8.67804   3
   1   5  -6 78.7991 8.33171   3
  -1  -5   6 46.5872 5.00768   2
  -1  -5   6 44.3586 4.56131   2
  -1  -5   6 43.3511 4.19807   2
  -1  -5   6 112.773 12.5771   1
  -1  -5   6 115.677 11.5609   1
  -1  -5   6 112.032 10.6112   1
  -1  -5   6 72.0836 7.97105   3
  -1  -5   6 82.8078 8.70358   3
  -1  -5   6 77.5383 7.31837   3
   0   5  -6 9.22960 1.34635   3
   0   5  -6 10.5608 1.07223   3
   0   5  -6 4.67696 0.60461   2
   0   5  -6 4.92570 0.97772   2
   0   5  -6 5.43047 0.60132   2
   0   5  -6 4.66512 0.97241   2
   0   5  -6 42.3545 4.73872   1
   0   5  -6 44.0479 4.10287   1
   0  -5   6 6.18263 0.73619   2
   0  -5   6 4.72654 0.99099   2
   0  -5   6 4.58124 0.64430   2
   0  -5   6 9.97355 1.25055   3
   0  -5   6 11.1150 1.12762   3
   0  -5   6 42.7186 4.49149   1
   0  -5   6 43.2227 4.13818   1
   0  -5   6 50.5726 5.86904  -3
   0  -5   6 50.5726 5.86904   1
  -1   5  -6 17.3509 1.92751   3
  -1   5  -6 16.8605 1.98260   1
  -1   5  -6 10.7322 1.31619   2
   1  -5   6 27.2842 3.53216  -3
   1  -5   6 27.2842 3.53216   1
   1  -5   6 9.20212 1.35618   2
   1  -5   6 8.18251 0.97702   2
   1  -5   6 14.6890 1.69823   1
   1  -5   6 17.6529 1.80335   1
   1  -5   6 15.3799 1.77562   3
   1  -5   6 15.9383 1.66844   3
  -2   5  -6 28.0612 3.22388   1
  -2   5  -6 22.1311 2.68595   3
  -2   5  -6 15.0337 1.77776   2
   2  -5   6 13.8005 1.40596   2
   2  -5   6 10.6823 1.83804   2
   2  -5   6 21.6075 2.29988   3
   2  -5   6 27.0991 2.93545   3
   2  -5   6 28.9595 2.80528   1
   2  -5   6 28.6522 3.54292   1
  -3   5  -6 -1.6995 0.92462   2
  -3   5  -6 0.64073 1.00258   1
  -3   5  -6 -0.8853 0.87786   3
   3  -5   6 0.32758 0.57642   2
   3  -5   6 0.38123 1.04205   2
   3  -5   6 0.63919 0.99780   2
   3  -5   6 -0.1519 0.67980   3
   3  -5   6 1.05685 1.20144   3
   3  -5   6 0.97794 0.96297   3
   3  -5   6 0.52249 1.25889   1
   3  -5   6 0.82373 0.59240   1
   3  -5   6 1.45100 1.07561   1
  -4   5  -6 52.0611 5.66373   3
  -4   5  -6 44.2329 4.82357   1
   4  -5   6 33.0477 3.77042   2
   4  -5   6 27.7898 3.06493   2
   4  -5   6 41.0301 4.87515   1
   4  -5   6 41.8351 4.15036   1
   4  -5   6 51.5679 5.71378   3
   4  -5   6 47.3142 4.82674   3
   5  -5   6 0.95169 1.87177   3
   5  -5   6 1.28928 1.19360   3
   5  -5   6 -0.0322 1.14398   2
   5  -5   6 -0.6881 1.83139   2
   5  -5   6 -0.3335 1.65143   1
   5  -5   6 2.65088 1.09683   1
   5   4  -6 1.97363 1.88122   1
   5   4  -6 1.74540 1.84945   2
   5   4  -6 -1.6436 1.67135   3
  -5  -4   6 1.68872 1.33934   3
  -5  -4   6 0.17798 1.11919   3
  -5  -4   6 -0.6012 1.31772   1
  -5  -4   6 -0.4981 1.05133   1
  -5  -4   6 0.17855 1.06129   2
  -5  -4   6 1.77673 1.36015   2
   4   4  -6 7.55285 1.52428   3
   4   4  -6 2.58545 1.22478   2
   4   4  -6 6.54816 1.67913   1
  -4  -4   6 7.91311 1.22980   1
  -4  -4   6 10.8618 1.54325   1
  -4  -4   6 1.98260 1.05755   2
  -4  -4   6 5.24311 0.98947   2
  -4  -4   6 9.24746 1.29234   3
  -4  -4   6 6.15970 1.37046   3
   3   4  -6 3.66969 1.09866   1
   3   4  -6 1.94995 0.81692   1
   3   4  -6 3.65762 1.01158   3
   3   4  -6 2.95362 0.90914   3
   3   4  -6 1.62459 1.00221   2
   3   4  -6 1.93464 0.72734   2
  -3  -4   6 2.63319 0.89223   1
  -3  -4   6 3.14912 0.77774   1
  -3  -4   6 5.82927 0.97566   3
  -3  -4   6 1.96005 0.82453   3
  -3  -4   6 2.66891 0.82769   2
  -3  -4   6 2.40626 0.82043   2
   2   4  -6 0.24302 0.81152   3
   2   4  -6 0.53103 0.55159   3
   2   4  -6 -0.0003 0.74658   3
   2   4  -6 0.28168 0.57229   2
   2   4  -6 -0.0250 0.72698   2
   2   4  -6 -0.0811 0.90807   2
  -2  -4   6 -0.0962 0.53317   2
  -2  -4   6 0.41821 0.54187   2
  -2  -4   6 -0.5229 0.58422   2
  -2  -4   6 -0.0014 0.67504   2
  -2  -4   6 59.3091 6.71863   1
  -2  -4   6 -0.0780 0.62372   3
  -2  -4   6 -0.6464 0.73968   3
  -2  -4   6 1.41131 0.58458   3
  -2  -4   6 0.12333 0.69330   3
   1   4  -6 188.228 20.4444   3
   1   4  -6 189.062 17.9549   3
   1   4  -6 198.126 22.0106   1
   1   4  -6 194.961 19.3287   1
   1   4  -6 110.135 12.8381   2
   1   4  -6 109.735 10.8292   2
   1   4  -6 112.663 12.3588   2
  -1  -4   6 130.051 10.8611   2
  -1  -4   6 114.659 11.8130   2
  -1  -4   6 114.258 10.8462   2
  -1  -4   6 116.245 12.8401   2
  -1  -4   6 416.111 46.1693  -3
  -1  -4   6 416.111 46.1693   1
  -1  -4   6 201.480 21.0934   1
  -1  -4   6 219.698 19.3704   1
  -1  -4   6 215.297 19.3253   1
  -1  -4   6 192.723 19.6033   3
  -1  -4   6 193.842 17.9565   3
  -1  -4   6 192.445 17.9910   3
   0   4  -6 170.245 16.5334   1
   0   4  -6 180.026 18.8598   1
   0   4  -6 183.699 16.5463   1
   0   4  -6 28.1330 1.71004   3
   0   4  -6 14.5129 1.60740   3
   0   4  -6 13.3575 1.88070   3
   0   4  -6 11.4788 1.03791   2
   0   4  -6 8.01837 1.00464   2
   0   4  -6 7.95162 1.25665   2
   0  -4   6 204.619 22.7817  -3
   0  -4   6 204.619 22.7817   1
   0  -4   6 12.2070 1.74612   3
   0  -4   6 17.3092 1.64832   3
   0  -4   6 170.908 18.0539   1
   0  -4   6 179.373 16.5837   1
   0  -4   6 10.1464 1.11362   2
   0  -4   6 7.93862 1.00284   2
   0  -4   6 12.4070 1.32130   2
  -1   4  -6 0.01405 0.65404   2
  -1   4  -6 0.09302 0.23766   2
  -1   4  -6 0.39563 0.29446   2
  -1   4  -6 0.88874 0.57386   3
  -1   4  -6 0.94561 0.32663   3
  -1   4  -6 5.86247 0.90274  -3
  -1   4  -6 5.86247 0.90274   1
  -1   4  -6 2.95855 0.71329   1
  -1   4  -6 2.97294 0.41107   1
   1  -4   6 0.28312 0.43662   3
   1  -4   6 0.21902 0.35561   3
   1  -4   6 6.16453 1.72477  -3
   1  -4   6 6.16453 1.72477   1
   1  -4   6 1.10769 0.44692   2
   1  -4   6 0.72253 0.67473   2
   1  -4   6 3.32875 0.56324   1
  -2   4  -6 262.537 27.8547   3
  -2   4  -6 238.815 25.7374   1
  -2   4  -6 139.925 15.2495   2
   2  -4   6 261.968 24.5071   3
   2  -4   6 258.110 29.0192   3
   2  -4   6 137.004 15.8690   2
   2  -4   6 148.233 13.3933   2
   2  -4   6 243.132 22.6441   1
   2  -4   6 241.036 26.8214   1
  -3   4  -6 3.30539 0.99837   3
  -3   4  -6 3.29808 0.95924   1
  -3   4  -6 2.63004 1.03296   2
   3  -4   6 2.54658 1.15814   1
   3  -4   6 5.00583 0.72359   1
   3  -4   6 1.45744 1.20537   1
   3  -4   6 1.20701 0.63232   2
   3  -4   6 2.59739 1.10873   2
   3  -4   6 1.19724 1.00708   2
   3  -4   6 4.85624 0.83081   3
   3  -4   6 0.00365 0.96855   3
   3  -4   6 1.49118 1.29345   3
  -4   4  -6 5.82290 1.44479   3
   4  -4   6 3.04317 0.92692   2
   4  -4   6 2.94312 1.33282   2
   4  -4   6 5.67188 1.01611   1
   4  -4   6 7.73532 1.61502   1
   4  -4   6 7.03703 1.20377   3
   4  -4   6 9.34476 1.75667   3
   5  -4   6 2.10109 1.96855   1
   5  -4   6 0.77443 1.11532   1
   5  -4   6 1.89971 1.28307   3
   5  -4   6 0.55718 1.63811   3
   5  -4   6 1.15008 1.68873   2
   5  -4   6 1.62031 1.20370   2
   5   3  -6 0.34638 1.57975   2
   5   3  -6 -0.6260 1.37876   1
   5   3  -6 -0.0786 1.44861   3
  -5  -3   6 -0.1643 1.22787   2
  -5  -3   6 -0.1800 1.00776   2
  -5  -3   6 -0.0900 1.28762   3
  -5  -3   6 0.57667 1.06081   3
  -5  -3   6 -0.6915 0.96114   1
  -5  -3   6 0.40534 1.30365   1
   4   3  -6 -0.4604 1.10030   2
   4   3  -6 0.78802 1.07937   3
   4   3  -6 1.57911 1.14230   1
  -4  -3   6 1.09871 0.75712   1
  -4  -3   6 1.06444 0.91364   1
  -4  -3   6 0.15983 0.89798   3
  -4  -3   6 0.13541 0.80379   3
  -4  -3   6 -0.7933 0.73492   2
  -4  -3   6 0.82007 0.86409   2
   3   3  -6 -0.5313 0.81510   3
   3   3  -6 -0.2733 0.82633   3
   3   3  -6 5.18631 1.07021   1
   3   3  -6 -0.4498 0.96120   2
   3   3  -6 0.09898 0.70446   2
  -3  -3   6 -0.0623 0.66472   2
  -3  -3   6 0.40810 0.56659   2
  -3  -3   6 -0.3472 0.70837   3
  -3  -3   6 -0.2784 0.62516   3
   2   3  -6 6.06013 0.97210   1
   2   3  -6 4.67199 1.16054   1
   2   3  -6 0.97994 0.54978   3
   2   3  -6 0.16197 0.64972   3
   2   3  -6 0.13207 0.48189   3
   2   3  -6 0.45729 0.54049   2
   2   3  -6 0.24679 0.72239   2
  -2  -3   6 1.30117 0.60756   3
  -2  -3   6 0.99691 0.51491   3
  -2  -3   6 0.50175 0.59246   3
  -2  -3   6 1.95841 0.69183   3
  -2  -3   6 16.1095 1.27376   1
  -2  -3   6 0.33655 0.53545   2
  -2  -3   6 1.11039 0.54784   2
  -2  -3   6 0.74632 0.46605   2
  -2  -3   6 0.76548 0.65242   2
   1   3  -6 13.9913 1.61193   3
   1   3  -6 19.3167 1.63700   3
   1   3  -6 13.5917 1.82867   3
   1   3  -6 9.32084 1.11548   2
   1   3  -6 9.94968 1.35167   2
   1   3  -6 9.11062 1.08829   2
   1   3  -6 23.6716 2.63757   1
   1   3  -6 23.2940 3.01000   1
   1   3  -6 28.6844 2.66644   1
  -1  -3   6 29.0579 2.84289   1
  -1  -3   6 25.3289 2.61394   1
  -1  -3   6 31.7156 2.65998   1
  -1  -3   6 14.8539 1.64498   3
  -1  -3   6 14.8548 1.75242   3
  -1  -3   6 15.8690 1.63023   3
  -1  -3   6 8.88185 1.34557   2
  -1  -3   6 8.73088 1.09516   2
  -1  -3   6 12.8733 1.13006   2
  -1  -3   6 12.2577 1.20236   2
  -1  -3   6 47.1537 5.47876  -3
  -1  -3   6 47.1537 5.47876   1
   0   3  -6 18.0329 1.80138   2
   0   3  -6 16.4834 2.08198   2
   0   3  -6 53.0179 5.97972   1
   0   3  -6 55.7589 5.23305   1
   0   3  -6 33.2714 3.39818   3
   0   3  -6 27.4589 2.95020   3
   0  -3   6 29.8265 3.21399   3
   0  -3   6 31.0853 3.03183   3
   0  -3   6 33.5889 2.98369   3
   0  -3   6 17.6299 1.87932   2
   0  -3   6 18.0403 1.79509   2
   0  -3   6 16.9990 2.17712   2
   0  -3   6 19.8840 1.87557   2
   0  -3   6 59.0463 5.25138   1
   0  -3   6 51.8591 5.68183   1
   0  -3   6 58.2074 5.25206   1
   0  -3   6 88.4524 9.94506  -3
   0  -3   6 88.4524 9.94506   1
  -1   3  -6 56.9412 4.94769   1
  -1   3  -6 49.5789 4.94342   1
  -1   3  -6 47.9815 5.67171   1
  -1   3  -6 26.5615 3.08854   2
  -1   3  -6 25.1977 2.65574   2
  -1   3  -6 28.4500 2.63388   2
  -1   3  -6 48.9441 4.51667   3
  -1   3  -6 48.6076 4.50643   3
  -1   3  -6 46.3018 5.17648   3
   1  -3   6 40.0973 5.41246   3
   1  -3   6 51.3422 4.54959   3
   1  -3   6 49.1870 5.95540   1
   1  -3   6 56.1006 4.98663   1
   1  -3   6 27.0762 3.22519   2
   1  -3   6 29.9148 2.68284   2
  -2   3  -6 0.22374 0.32512   3
  -2   3  -6 0.90154 0.70060   3
  -2   3  -6 -0.2153 0.26873   2
  -2   3  -6 -0.1182 0.77950   2
  -2   3  -6 2.61196 0.76245   1
   2  -3   6 -0.6782 0.69248   2
   2  -3   6 -0.1942 0.52420   2
   2  -3   6 -0.3056 0.83353   2
   2  -3   6 -0.7660 0.86847   3
   2  -3   6 0.28689 0.57655   3
   2  -3   6 0.89692 0.86135   1
  -3   3  -6 12.2053 1.46446   3
  -3   3  -6 8.49079 0.93142   3
  -3   3  -6 10.8644 1.41372   1
  -3   3  -6 5.92329 1.22322   2
   3  -3   6 9.75554 1.18070   3
   3  -3   6 8.54015 1.45266   3
   3  -3   6 6.77474 1.60016   3
   3  -3   6 6.45437 1.26797   2
   3  -3   6 6.96375 0.96801   2
   3  -3   6 4.93080 1.26643   2
   3  -3   6 8.05083 1.48899   1
   3  -3   6 8.02518 1.07395   1
   3  -3   6 7.38785 1.54538   1
   4  -3   6 0.82799 1.36751   2
   4  -3   6 0.18842 0.87194   2
   4  -3   6 1.00446 1.14303   1
   4  -3   6 1.23426 0.81729   1
   4  -3   6 0.38802 1.30745   3
   4  -3   6 0.87055 0.93973   3
   5  -3   6 7.91169 2.11444   1
   5  -3   6 10.6597 1.58004   1
   5  -3   6 4.20707 1.30549   2
   5  -3   6 4.84784 2.17813   2
   5  -3   6 7.84312 1.59144   3
   5  -3   6 6.90452 1.95850   3
   5   2  -6 4.59790 1.61428   2
   5   2  -6 13.7671 2.13788   3
   5   2  -6 7.80251 1.93380   1
  -5  -2   6 11.3960 1.51691   3
  -5  -2   6 7.71808 1.88850   3
  -5  -2   6 9.21489 1.31317   1
  -5  -2   6 9.63311 1.77570   1
  -5  -2   6 3.57669 1.45532   2
  -5  -2   6 5.49684 1.10709   2
   4   2  -6 1.78694 1.22118   2
   4   2  -6 9.60093 1.57339   3
   4   2  -6 1.91330 1.24657   3
  -4  -2   6 8.19237 1.37964   3
  -4  -2   6 10.0217 1.21829   3
  -4  -2   6 6.16719 1.01270   2
  -4  -2   6 2.20309 0.83816   2
   3   2  -6 35.0736 4.11823   1
   3   2  -6 43.2074 4.10888   1
   3   2  -6 47.4528 4.66211   1
   3   2  -6 28.8439 3.01959   2
   3   2  -6 24.9500 2.66897   2
   3   2  -6 21.2963 2.58538   2
   3   2  -6 39.6133 4.17616   3
   3   2  -6 44.1916 4.72333   3
  -3  -2   6 44.1507 4.43432   1
  -3  -2   6 38.9340 4.02747   1
  -3  -2   6 25.9693 2.75863   2
  -3  -2   6 24.7904 2.55506   2
  -3  -2   6 40.7360 4.15074   3
  -3  -2   6 44.6440 4.51387   3
   2   2  -6 55.6074 6.24824   2
   2   2  -6 54.6755 5.46322   2
   2   2  -6 56.4913 5.45335   2
   2   2  -6 93.1850 10.3605   3
   2   2  -6 107.202 9.12861   3
   2   2  -6 92.6136 9.10363   3
   2   2  -6 101.233 9.62979   1
   2   2  -6 100.269 10.9448   1
   2   2  -6 111.943 9.63328   1
  -2  -2   6 96.1356 9.59252   1
  -2  -2   6 103.561 9.63192   1
  -2  -2   6 99.3090 10.4811   1
  -2  -2   6 60.3339 5.46124   2
  -2  -2   6 58.3258 6.42646   2
  -2  -2   6 57.2002 5.43896   2
  -2  -2   6 56.5257 5.92692   2
  -2  -2   6 206.188 22.9244  -3
  -2  -2   6 206.188 22.9244   1
  -2  -2   6 99.1477 9.11767   3
  -2  -2   6 94.1374 9.92306   3
  -2  -2   6 92.3270 9.09288   3
   1   2  -6 8.93404 0.86121   2
   1   2  -6 5.96893 1.06585   2
   1   2  -6 8.37984 0.88393   2
   1   2  -6 87.0323 8.10073   1
   1   2  -6 90.5436 8.11547   1
   1   2  -6 86.0170 9.22963   1
   1   2  -6 13.2963 1.72894   3
   1   2  -6 14.6446 1.52172   3
   1   2  -6 13.8843 1.52652   3
  -1  -2   6 6.52054 0.81200   2
  -1  -2   6 6.79062 0.87916   2
  -1  -2   6 6.56765 0.82508   2
  -1  -2   6 15.5152 1.88222   3
  -1  -2   6 16.7218 1.55003   3
  -1  -2   6 14.8943 1.65316   3
  -1  -2   6 13.7034 1.51528   3
  -1  -2   6 84.2937 8.82235   1
  -1  -2   6 83.2907 8.08551   1
  -1  -2   6 84.6165 8.10936   1
  -1  -2   6 94.4287 10.5935  -2
  -1  -2   6 94.4287 10.5935   1
   0   2  -6 2.87809 0.49102   1
   0   2  -6 2.23109 0.55702   1
   0   2  -6 1.06274 0.54708   3
   0   2  -6 0.87965 0.54924   3
   0   2  -6 0.81778 0.40022   3
   0   2  -6 0.73982 0.39555   2
   0   2  -6 0.13245 0.51133   2
   0  -2   6 1.28582 0.66240   3
   0  -2   6 1.21080 0.36282   3
   0  -2   6 0.75059 0.50793   3
   0  -2   6 0.85893 0.43827   3
   0  -2   6 0.44185 0.41176   2
   0  -2   6 0.77287 0.28100   2
   0  -2   6 0.32455 0.55548   2
   0  -2   6 0.08764 0.41017   2
   0  -2   6 3.14568 0.65202   1
   0  -2   6 3.13788 0.56213   1
   0  -2   6 3.30692 0.52523   1
   0  -2   6 1.19392 0.38729   1
  -1   2  -6 0.46642 0.65912   2
  -1   2  -6 0.48830 0.39073   2
  -1   2  -6 1.38339 0.39389   3
  -1   2  -6 1.79850 0.68141   3
   1  -2   6 12.0587 2.05644  -3
   1  -2   6 12.0587 2.05644   1
   1  -2   6 0.70722 0.44824   2
   1  -2   6 0.27678 0.67826   2
   1  -2   6 0.86248 0.50554   3
  -2   2  -6 0.03156 0.35181   1
  -2   2  -6 -0.3262 0.70297   1
  -2   2  -6 -0.3007 0.71585   2
  -2   2  -6 0.07810 0.36692   2
  -2   2  -6 0.13724 0.41509   3
  -2   2  -6 -0.2563 0.78470   3
   2  -2   6 0.10141 0.74410   2
   2  -2   6 0.25775 0.53826   2
   2  -2   6 -0.5192 0.83050   2
   2  -2   6 0.06902 0.61568   3
   2  -2   6 0.45740 0.91316   3
   2  -2   6 0.33293 0.56839   1
   2  -2   6 0.02029 0.89498   1
   2  -2   6 0.55540 0.76959   1
  -3   2  -6 176.289 16.8972   3
  -3   2  -6 173.963 19.2857   3
  -3   2  -6 176.971 18.4735   1
  -3   2  -6 160.087 16.1679   1
  -3   2  -6 101.005 10.0921   2
  -3   2  -6 100.291 11.5717   2
   3  -2   6 109.396 10.1602   2
   3  -2   6 121.148 12.0808   2
   3  -2   6 110.212 11.5881   2
   3  -2   6 177.725 16.9768   3
   3  -2   6 190.003 20.1132   3
   3  -2   6 186.332 19.3072   3
   3  -2   6 190.299 18.5141   1
   3  -2   6 176.846 19.2593   1
   3  -2   6 169.946 16.2453   1
  -4   2  -6 0.47914 0.45117   1
  -4   2  -6 -0.0523 0.52652   2
  -4   2  -6 -0.3040 0.51026   3
   4  -2   6 1.68715 1.37330   1
   4  -2   6 1.28135 0.90164   1
   4  -2   6 0.82426 1.16712   3
   4  -2   6 1.35713 1.01687   3
   4  -2   6 0.24002 1.40824   2
   4  -2   6 -0.1203 0.85088   2
   5  -2   6 -1.6381 1.73453   2
   5  -2   6 0.16713 1.23658   2
   5  -2   6 0.56728 1.81595   3
   5  -2   6 -1.3940 1.38867   3
   5  -2   6 0.73985 1.27740   1
   5  -2   6 -2.2270 1.78898   1
   5   1  -6 4.11041 1.37509   3
   5   1  -6 4.25640 1.44614   3
   5   1  -6 3.22603 1.63330   2
   5   1  -6 6.88726 1.50244   1
  -5  -1   6 2.98216 0.94541   3
  -5  -1   6 2.81306 1.28038   3
  -5  -1   6 3.80049 1.34816   1
  -5  -1   6 3.39281 0.94382   1
  -5  -1   6 1.80374 0.90485   2
  -5  -1   6 1.42783 1.18189   2
   4   1  -6 5.84323 1.05388   2
   4   1  -6 7.36690 1.50763   2
   4   1  -6 11.0580 1.64601   3
   4   1  -6 12.7346 1.96429   3
   4   1  -6 11.6624 1.76369   1
   4   1  -6 9.40788 1.44245   1
  -4  -1   6 14.8179 1.57500   3
  -4  -1   6 14.5355 1.87101   3
  -4  -1   6 13.1067 1.40735   1
  -4  -1   6 13.8584 1.66532   1
  -4  -1   6 5.88017 1.16573   2
  -4  -1   6 6.77606 0.98686   2
   3   1  -6 198.020 19.9064   2
   3   1  -6 217.864 19.9188   2
   3   1  -6 214.319 22.6405   2
   3   1  -6 366.876 32.7909   1
   3   1  -6 354.157 37.2402   1
   3   1  -6 348.814 32.6490   3
   3   1  -6 352.768 37.0721   3
  -3  -1   6 343.000 32.5745   3
  -3  -1   6 345.944 35.5786   3
  -3  -1   6 206.715 19.8705   2
  -3  -1   6 220.834 21.7067   2
  -3  -1   6 347.737 35.7337   1
  -3  -1   6 330.068 32.7116   1
   2   1  -6 311.678 29.6530   2
   2   1  -6 317.130 33.7357   2
   2   1  -6 315.633 29.6868   2
   2   1  -6 533.612 49.5940   1
   2   1  -6 538.582 49.6675   1
   2   1  -6 534.831 56.3989   1
   2   1  -6 544.364 49.2930   3
   2   1  -6 537.055 55.9657   3
   2   1  -6 530.863 49.2080   3
  -2  -1   6 530.744 49.5769   1
  -2  -1   6 519.019 54.1175   1
  -2  -1   6 524.565 58.6909   1
  -2  -1   6 525.699 49.6691   1
  -2  -1   6 333.615 35.0825   2
  -2  -1   6 321.373 29.6899   2
  -2  -1   6 308.834 32.3466   2
  -2  -1   6 305.021 29.6314   2
  -2  -1   6 494.320 49.1967   3
  -2  -1   6 525.185 49.2841   3
  -2  -1   6 529.527 53.7093   3
  -2  -1   6 519.298 58.2308   3
   1   1  -6 8.44645 0.85885   2
   1   1  -6 5.14774 0.83142   2
   1   1  -6 8.60079 1.04172   2
   1   1  -6 9.69009 1.17047   1
   1   1  -6 12.5129 1.20031   1
   1   1  -6 9.17178 1.32135   1
   1   1  -6 7.52669 1.10976   3
   1   1  -6 9.65978 1.12437   3
   1   1  -6 8.88583 1.31023   3
  -1  -1   6 14.5457 1.18008   3
  -1  -1   6 10.9506 1.23930   3
  -1  -1   6 12.8343 1.19079   3
  -1  -1   6 10.1358 1.26060   1
  -1  -1   6 14.4989 1.21395   1
  -1  -1   6 10.4780 1.18323   1
  -1  -1   6 6.02196 0.80347   2
  -1  -1   6 7.45782 0.85337   2
  -1  -1   6 6.05002 0.78786   2
  -1  -1   6 7.67084 1.03464   2
  -1  -1   6 20.7617 2.66638  -3
  -1  -1   6 20.7617 2.66638   1
   0   1  -6 -0.4364 0.59728   2
   0   1  -6 -1.0192 0.43334   2
   0   1  -6 -0.5513 0.37523   2
   0   1  -6 238.772 22.4234   1
   0   1  -6 0.45641 0.52861   3
   0   1  -6 0.15527 0.46626   3
   0   1  -6 1.04222 0.45282   3
   0  -1   6 1.63694 0.43319   3
   0  -1   6 0.39210 0.36224   3
   0  -1   6 1.15376 0.62847   3
   0  -1   6 -0.5011 0.42630   2
   0  -1   6 -0.3771 0.36536   2
   0  -1   6 -0.3257 0.35805   2
   0  -1   6 0.11369 0.55487   2
   0  -1   6 224.273 21.0514  -3
   0  -1   6 224.273 21.0514   1
  -1   1  -6 76.0674 8.03791   1
  -1   1  -6 66.2979 7.04312   1
  -1   1  -6 67.4994 6.37476   3
  -1   1  -6 64.7837 7.25109   3
  -1   1  -6 37.6568 3.92768   2
  -1   1  -6 44.2083 4.49240   2
   1  -1   6 85.1178 7.12080   1
   1  -1   6 78.2236 7.07717   1
   1  -1   6 72.6230 8.40659   1
   1  -1   6 67.4350 7.61716   3
   1  -1   6 71.8628 6.40505   3
   1  -1   6 65.5473 6.42449   3
   1  -1   6 39.6760 4.69053   2
   1  -1   6 38.1176 3.94458   2
   1  -1   6 44.7321 3.93333   2
  -2   1  -6 36.4292 4.04687   3
  -2   1  -6 34.6919 3.49890   3
  -2   1  -6 39.5774 3.47499   1
  -2   1  -6 33.8230 4.04360   1
  -2   1  -6 21.1793 2.66360   2
  -2   1  -6 21.6053 2.23258   2
   2  -1   6 26.3533 2.68958   2
   2  -1   6 21.1855 2.26868   2
   2  -1   6 21.8558 2.78752   2
   2  -1   6 39.4860 4.06288   3
   2  -1   6 31.6926 4.28109   3
   2  -1   6 38.8552 3.56940   3
   2  -1   6 37.5545 3.56648   1
   2  -1   6 25.7627 4.27050   1
   2  -1   6 39.8376 4.07646   1
  -3   1  -6 6.14907 0.79141   1
  -3   1  -6 9.34028 1.27653   1
  -3   1  -6 10.2524 1.08656   3
  -3   1  -6 8.26876 1.42768   3
  -3   1  -6 2.95871 0.65201   2
   3  -1   6 4.61702 0.86163   2
   3  -1   6 3.60385 1.25776   2
   3  -1   6 4.94773 1.21991   2
   3  -1   6 7.38127 1.01415   1
   3  -1   6 4.21799 1.33865   1
   3  -1   6 4.92847 1.44415   1
   3  -1   6 8.29426 1.69043   3
   3  -1   6 9.00274 1.48486   3
   3  -1   6 8.81110 1.28037   3
  -4   1  -6 28.3373 2.75237   3
  -4   1  -6 20.2107 2.19040   1
  -4   1  -6 10.0250 1.33400   2
   4  -1   6 17.6441 1.63249   2
   4  -1   6 11.7438 1.99382   2
   4  -1   6 28.4899 2.94658   3
   4  -1   6 24.3871 3.32592   3
   4  -1   6 22.1177 2.39023   1
   4  -1   6 30.1286 3.00928   1
  -5   1  -6 3.08206 0.82568   2
  -5   1  -6 7.31345 1.05337   1
  -5   1  -6 14.5854 1.74483   3
   5  -1   6 5.98393 1.95750   2
   5  -1   6 5.66990 1.48154   2
   5  -1   6 18.8687 2.76252   3
   5  -1   6 15.0501 2.31168   3
   5  -1   6 13.8394 2.37512   1
   5  -1   6 11.9169 1.71260   1
   5   0  -6 0.41374 1.55070   2
   5   0  -6 1.12590 1.45959   2
   5   0  -6 4.24470 1.47724   3
   5   0  -6 3.76401 1.30241   3
   5   0  -6 2.07279 1.34240   1
   5   0  -6 3.87659 1.12362   1
  -5   0   6 3.42616 0.87393   2
  -5   0   6 1.30018 1.33573   2
  -5   0   6 7.22731 0.99081   1
  -5   0   6 0.82953 1.29113   1
  -5   0   6 3.69293 0.97329   3
  -5   0   6 4.06097 1.30969   3
   4   0  -6 18.7843 2.05936   3
   4   0  -6 19.0877 2.32515   3
   4   0  -6 10.8678 1.39160   2
   4   0  -6 11.3879 1.71705   2
   4   0  -6 18.3596 2.57160   1
   4   0  -6 18.9188 2.20132   1
  -4   0   6 16.8888 1.92707   3
  -4   0   6 19.5174 2.29635   3
  -4   0   6 7.89192 1.45419   2
  -4   0   6 11.8908 1.25859   2
  -4   0   6 26.8686 2.59359   1
  -4   0   6 20.2002 2.21773   1
   3   0  -6 -0.0211 0.72602   3
   3   0  -6 0.91848 0.75994   3
   3   0  -6 0.98739 0.53937   1
   3   0  -6 0.78399 0.74438   1
   3   0  -6 1.02162 0.60314   2
   3   0  -6 0.69340 0.89409   2
  -3   0   6 0.49450 0.49755   2
  -3   0   6 0.69013 0.69737   2
  -3   0   6 -0.5438 0.71606   1
  -3   0   6 1.30240 0.52843   1
  -3   0   6 -0.5294 0.64522   3
  -3   0   6 1.05505 0.55906   3
   2   0  -6 46.7364 4.95931   2
   2   0  -6 45.8557 4.37059   2
   2   0  -6 46.8723 4.34056   2
   2   0  -6 81.7567 7.10690   3
   2   0  -6 71.7531 8.04394   3
   2   0  -6 70.9207 7.08696   3
   2   0  -6 116.445 12.4124   1
   2   0  -6 118.277 10.9285   1
   2   0  -6 114.926 10.9174   1
  -2   0   6 116.154 10.9297   1
  -2   0   6 112.114 11.9080   1
  -2   0   6 116.735 10.8996   1
  -2   0   6 79.0652 7.11138   3
  -2   0   6 73.3767 7.72846   3
  -2   0   6 72.6984 7.07485   3
  -2   0   6 193.358 21.5006  -3
  -2   0   6 193.358 21.5006   1
  -2   0   6 38.2152 4.70047   2
  -2   0   6 44.9343 4.33239   2
  -2   0   6 46.6996 4.31445   2
  -2   0   6 48.1626 5.11662   2
   1   0  -6 9.71525 1.34046   3
   1   0  -6 9.11316 1.18646   3
   1   0  -6 11.5250 1.21737   3
   1   0  -6 6.23960 0.79734   2
   1   0  -6 8.13448 0.86684   2
   1   0  -6 4.33888 0.91295   2
   1   0  -6 58.4945 5.86803   1
   1   0  -6 64.5418 6.66422   1
   1   0  -6 64.4754 5.88068   1
  -1   0   6 10.5727 1.29408   3
  -1   0   6 12.3481 1.22461   3
  -1   0   6 16.0427 1.26957   3
  -1   0   6 67.5894 5.87953   1
  -1   0   6 58.4101 6.37468   1
  -1   0   6 58.6191 5.86099   1
  -1   0   6 5.32936 0.82188   2
  -1   0   6 6.23582 0.79858   2
  -1   0   6 9.55796 0.99004   2
  -1   0   6 6.45927 0.76004   2
  -1   0   6 59.6521 6.75942  -3
  -1   0   6 59.6521 6.75942   1
   0   0  -6 59.9552 5.70040   3
   0   0  -6 59.7657 6.46012   3
   0   0  -6 56.7302 5.72658   3
   0   0  -6 35.1863 3.55980   2
   0   0  -6 38.3431 3.54926   2
   0   0  -6 36.2255 4.01480   2
   0   0  -6 60.4981 7.10035   1
   0   0  -6 62.3793 6.26572   1
   0   0  -6 67.0946 6.25388   1
   0   0   6 67.9598 6.79673   1
   0   0   6 71.8233 6.26839   1
   0   0   6 66.6424 6.25653   1
   0   0   6 36.5317 3.80113   2
   0   0   6 39.3604 3.53403   2
   0   0   6 34.4623 3.52219   2
   0   0   6 60.9145 6.18508   3
   0   0   6 56.6541 5.70912   3
   0   0   6 65.0735 5.71132   3
   0   0   6 172.470 19.2260  -3
   0   0   6 172.470 19.2260  -2
   0   0   6 172.470 19.2260   1
  -1   0  -6 8.54817 0.94879   2
  -1   0  -6 6.83170 1.09351   2
  -1   0  -6 13.9036 1.67886   3
  -1   0  -6 13.6674 1.47455   3
  -1   0  -6 11.1035 1.78163   1
   1   0   6 16.1195 1.55288   3
   1   0   6 13.2157 1.82782   3
   1   0   6 14.1161 1.55026   3
   1   0   6 6.43508 1.17920   2
   1   0   6 6.52207 0.90990   2
   1   0   6 8.33237 0.90569   2
   1   0   6 25.1504 1.72992   1
   1   0   6 11.8185 1.92904   1
   1   0   6 22.7600 1.76944   1
  -2   0  -6 3.18757 0.82316   2
  -2   0  -6 1.95433 0.55165   2
  -2   0  -6 6.32771 0.83393   3
  -2   0  -6 4.98485 1.00042   3
  -2   0  -6 4.10776 0.97157   1
  -2   0  -6 4.66138 0.67440   1
   2   0   6 4.52639 1.02023   3
   2   0   6 5.88549 1.26943   3
   2   0   6 4.88126 0.88280   3
   2   0   6 2.79184 0.72048   2
   2   0   6 2.88297 0.82455   2
   2   0   6 3.26649 0.97806   2
   2   0   6 4.26168 0.78446   1
   2   0   6 4.61645 1.14251   1
   2   0   6 5.84913 1.02831   1
  -3   0  -6 0.47634 0.51705   2
  -3   0  -6 0.43312 0.44474   1
  -3   0  -6 1.30898 0.76713   3
   3   0   6 -0.3491 1.03987   1
   3   0   6 -0.0140 0.76398   1
   3   0   6 0.30380 1.16023   1
   3   0   6 -0.4010 1.23403   3
   3   0   6 0.02344 1.02234   3
   3   0   6 1.55927 0.91896   3
   3   0   6 -0.4442 1.06286   2
   3   0   6 0.28738 1.12701   2
   3   0   6 0.23485 0.79881   2
  -4   0  -6 7.90937 1.21862   2
  -4   0  -6 30.3620 3.20248   1
  -4   0  -6 36.5136 3.50924   3
   4   0   6 37.2700 3.91038   1
   4   0   6 33.2186 3.47640   1
   4   0   6 19.0660 1.65701   2
   4   0   6 14.8017 2.06149   2
   4   0   6 38.6815 4.27130   3
   4   0   6 30.1241 3.60221   3
   5  -1  -6 2.92639 1.27377   1
   5  -1  -6 2.08545 0.99863   1
   5  -1  -6 2.07308 1.43253   3
   5  -1  -6 2.90469 1.21550   3
   5  -1  -6 2.65456 1.62141   2
   5  -1  -6 2.41815 1.07841   2
  -5   1   6 1.76067 0.84183   1
  -5   1   6 4.40067 1.27000   1
  -5   1   6 3.07448 0.89423   3
  -5   1   6 5.37578 1.26531   3
  -5   1   6 1.13404 0.80098   2
  -5   1   6 0.80899 1.15520   2
   4  -1  -6 3.80734 0.90113   3
   4  -1  -6 2.99328 1.09417   3
   4  -1  -6 7.74094 1.33161   1
   4  -1  -6 1.74149 1.22668   2
   4  -1  -6 2.17293 0.78400   2
  -4   1   6 3.52492 0.94050   2
  -4   1   6 2.36324 0.67328   2
  -4   1   6 2.29594 0.99274   3
  -4   1   6 3.44820 0.76146   3
   3  -1  -6 1.18298 0.67607   1
   3  -1  -6 0.57175 0.56070   1
   3  -1  -6 -0.1450 0.59097   3
   3  -1  -6 1.06131 0.83642   3
   3  -1  -6 -0.3305 0.83579   2
   3  -1  -6 0.56604 0.54899   2
  -3   1   6 -0.0404 0.49111   2
  -3   1   6 0.31286 0.69305   2
  -3   1   6 0.85417 0.74836   1
  -3   1   6 0.19056 0.50107   1
  -3   1   6 -0.2148 0.68558   3
  -3   1   6 0.50704 0.55308   3
   2  -1  -6 196.630 21.0762   1
   2  -1  -6 193.603 18.5665   1
   2  -1  -6 190.469 18.5435   1
   2  -1  -6 87.8587 7.90899   2
   2  -1  -6 83.9913 7.92189   2
   2  -1  -6 83.9003 8.99727   2
   2  -1  -6 132.469 14.6066   3
   2  -1  -6 136.285 12.8765   3
   2  -1  -6 138.100 12.8579   3
  -2   1   6 132.937 12.8439   3
  -2   1   6 137.649 14.0398   3
  -2   1   6 141.467 15.1898   3
  -2   1   6 91.1992 9.34860   2
  -2   1   6 77.1012 8.61004   2
  -2   1   6 78.2101 7.88269   2
  -2   1   6 200.178 20.2369   1
  -2   1   6 213.653 21.9411   1
  -2   1   6 190.040 18.5250   1
   1  -1  -6 3.06806 0.56298   2
   1  -1  -6 2.23953 0.64693   2
   1  -1  -6 2.56313 0.60832   2
   1  -1  -6 6.78770 0.78156   3
   1  -1  -6 3.64458 0.68486   3
   1  -1  -6 3.29252 0.64681   3
   1  -1  -6 8.34763 1.11036   1
   1  -1  -6 11.3849 1.04712   1
   1  -1  -6 7.03086 1.00216   1
  -1   1   6 13.6872 2.09108  -3
  -1   1   6 13.6872 2.09108   1
  -1   1   6 8.34198 0.99373   1
  -1   1   6 9.13969 0.98759   1
  -1   1   6 8.69136 1.08087   1
  -1   1   6 2.85722 0.54631   2
  -1   1   6 3.30358 0.49996   2
  -1   1   6 2.77266 0.55497   2
  -1   1   6 2.62392 0.71484   2
  -1   1   6 5.87590 0.71545   3
  -1   1   6 3.64078 0.68162   3
   0  -1  -6 9.82504 1.23482   2
   0  -1  -6 12.8909 1.26911   2
   0  -1  -6 14.7152 1.45659   2
   0  -1  -6 21.7456 2.53219   1
   0  -1  -6 26.9650 2.30944   1
   0  -1  -6 28.4293 2.29199   1
   0  -1  -6 15.1252 1.63787   3
   0  -1  -6 15.7482 1.79240   3
   0  -1  -6 15.5940 1.63567   3
   0   1   6 21.8549 2.29350   1
   0   1   6 18.2720 2.43304   1
   0   1   6 23.5162 2.28144   1
   0   1   6 12.0477 1.31763   2
   0   1   6 8.61067 1.20766   2
   0   1   6 12.8996 1.27047   2
   0   1   6 16.3264 1.66735   3
   0   1   6 19.3001 1.72222   3
   0   1   6 13.6979 1.70879   3
   0   1   6 48.9986 5.72808  -3
   0   1   6 48.9986 5.72808  -2
   0   1   6 48.9986 5.72808   1
  -1  -1  -6 44.3842 5.07729   1
  -1  -1  -6 46.8630 4.47657   1
  -1  -1  -6 40.7666 3.89293   3
  -1  -1  -6 40.5177 4.39473   3
  -1  -1  -6 27.1388 3.17182   2
  -1  -1  -6 26.6437 2.82738   2
   1   1   6 40.3544 3.94840   3
   1   1   6 37.2762 4.63784   3
   1   1   6 42.3971 3.93263   3
   1   1   6 42.2234 5.32959   1
   1   1   6 48.5289 4.50890   1
   1   1   6 47.0048 4.52089   1
   1   1   6 50.8064 5.08898   1
   1   1   6 28.0321 2.84291   2
   1   1   6 26.2358 3.36388   2
   1   1   6 30.0768 3.15783   2
   1   1   6 30.0595 2.80832   2
  -2  -1  -6 -0.6859 0.71557   3
  -2  -1  -6 0.13212 0.65981   3
  -2  -1  -6 -0.1011 0.54319   2
  -2  -1  -6 0.27226 0.56712   1
  -2  -1  -6 -0.2802 0.81423   1
   2   1   6 -0.1077 0.75765   3
   2   1   6 0.13367 0.99475   3
   2   1   6 -0.4106 0.78022   3
   2   1   6 0.08824 0.72549   1
   2   1   6 -1.5705 1.02543   1
   2   1   6 0.09880 0.84390   1
   2   1   6 -1.1313 0.69189   2
   2   1   6 0.51926 0.89631   2
   2   1   6 0.12577 0.68273   2
  -3  -1  -6 45.6084 4.42222   3
  -3  -1  -6 21.9693 2.69981   2
  -3  -1  -6 41.5515 4.36996   1
   3   1   6 49.3332 5.12629   1
   3   1   6 51.2618 5.41546   1
   3   1   6 42.7110 4.47019   1
   3   1   6 43.8114 5.40319   3
   3   1   6 45.2612 5.10041   3
   3   1   6 45.8257 4.52499   3
   3   1   6 31.3609 3.48400   2
   3   1   6 30.1551 2.87997   2
   3   1   6 28.3756 3.25559   2
  -4  -1  -6 -1.1094 0.77129   3
  -4  -1  -6 -0.2428 0.74827   1
  -4  -1  -6 0.80493 0.85968   2
   4   1   6 0.48230 1.22704   3
   4   1   6 0.86329 1.22070   3
   4   1   6 0.57761 1.36779   1
   4   1   6 0.99359 1.13782   1
   4   1   6 -0.6392 1.15594   2
   4   1   6 0.39488 1.32011   2
   5  -2  -6 96.1412 10.5215   3
   5  -2  -6 100.147 9.29928   3
   5  -2  -6 73.7794 7.20133   2
   5  -2  -6 55.5357 6.19342   2
   5  -2  -6 102.325 9.46109   1
   5  -2  -6 98.6008 10.7159   1
  -5   2   6 63.0966 6.82535   2
  -5   2   6 64.0208 6.08992   2
  -5   2   6 95.1273 9.32291   1
  -5   2   6 100.231 10.3299   1
  -5   2   6 97.9046 9.15975   3
  -5   2   6 91.3439 10.1263   3
   4  -2  -6 3.26197 1.33457   2
   4  -2  -6 4.59746 0.90888   2
   4  -2  -6 8.18836 1.36423   1
   4  -2  -6 6.67323 1.06331   1
   4  -2  -6 5.66055 1.26239   3
   4  -2  -6 8.44599 1.47231   3
  -4   2   6 11.3853 1.56661   3
  -4   2   6 10.1716 1.13177   3
  -4   2   6 7.16566 0.97197   1
  -4   2   6 8.59895 1.44653   1
  -4   2   6 7.33292 1.13079   2
  -4   2   6 5.39190 0.82218   2
   3  -2  -6 10.2165 1.47190   2
   3  -2  -6 11.4493 1.19853   2
   3  -2  -6 18.7789 1.92704   1
   3  -2  -6 14.1499 2.12478   1
   3  -2  -6 19.3165 1.85971   3
   3  -2  -6 16.7059 2.10698   3
  -3   2   6 10.3014 1.33980   2
  -3   2   6 8.72178 1.09401   2
  -3   2   6 20.1891 1.86827   1
  -3   2   6 18.6609 2.12487   1
  -3   2   6 16.8111 2.07613   3
  -3   2   6 16.1599 1.81536   3
   2  -2  -6 76.7873 8.47318   3
   2  -2  -6 77.4988 7.49351   3
   2  -2  -6 48.9477 5.39626   2
   2  -2  -6 51.7631 4.74813   2
   2  -2  -6 111.069 10.2707   1
   2  -2  -6 104.230 11.6393   1
  -2   2   6 51.8648 5.60140   2
  -2   2   6 45.2942 5.16454   2
  -2   2   6 101.748 10.2318   1
  -2   2   6 107.275 11.1903   1
  -2   2   6 121.747 12.1492   1
  -2   2   6 77.3342 8.16157   3
  -2   2   6 83.0369 8.81870   3
   1  -2  -6 23.0703 2.55929   3
   1  -2  -6 24.3165 2.56919   3
   1  -2  -6 27.4156 2.81929   3
   1  -2  -6 27.7525 3.34338   1
   1  -2  -6 29.8699 3.01963   1
   1  -2  -6 31.1695 3.01616   1
   1  -2  -6 17.5508 1.93233   2
   1  -2  -6 17.3061 1.85866   2
   1  -2  -6 17.9571 2.06357   2
  -1   2   6 49.8196 4.60308  -2
  -1   2   6 49.8196 4.60308   1
  -1   2   6 44.7436 4.55621  -2
  -1   2   6 44.7436 4.55621   1
  -1   2   6 25.8089 2.75300   3
  -1   2   6 22.9017 2.57505   3
  -1   2   6 27.6375 2.99611   3
  -1   2   6 24.9978 2.53758   3
  -1   2   6 34.2159 3.60202   1
  -1   2   6 32.4038 3.26077   1
  -1   2   6 16.8458 1.98326   2
  -1   2   6 20.6943 2.24344   2
   0  -2  -6 73.6049 7.01376   2
   0  -2  -6 75.6395 7.92901   2
   0  -2  -6 79.3596 7.03837   2
   0  -2  -6 132.842 14.6054   1
   0  -2  -6 128.091 12.8691   1
   0  -2  -6 101.383 9.80605   3
   0  -2  -6 104.847 9.77096   3
   0  -2  -6 103.317 11.0579   3
   0   2   6 150.619 14.0441   1
   0   2   6 102.636 9.77690   3
   0   2   6 106.967 9.78248   3
   0   2   6 101.868 10.6399   3
   0   2   6 228.820 20.1632  -2
   0   2   6 228.820 20.1632   1
   0   2   6 201.629 20.1805  -2
   0   2   6 201.629 20.1805   1
   0   2   6 69.0685 7.61135   2
   0   2   6 326.365 36.2628  -3
   0   2   6 326.365 36.2628  -2
   0   2   6 326.365 36.2628   1
  -1  -2  -6 285.507 31.4780   3
  -1  -2  -6 310.706 30.2487   3
  -1  -2  -6 301.946 27.7080   3
  -1  -2  -6 331.094 31.9487   1
  -1  -2  -6 338.260 36.3158   1
  -1  -2  -6 190.955 21.2749   2
  -1  -2  -6 208.079 18.7422   2
   1   2   6 291.334 27.7580   3
   1   2   6 298.503 27.7220   3
   1   2   6 285.268 32.8290   3
   1   2   6 296.213 31.4852   3
   1   2   6 212.842 18.7649   2
   1   2   6 194.904 22.1978   2
   1   2   6 199.373 21.2828   2
   1   2   6 191.853 18.7309   2
   1   2   6 343.647 31.9732   1
   1   2   6 351.515 37.8783   1
   1   2   6 343.173 32.0091   1
   1   2   6 340.153 36.3234   1
  -2  -2  -6 0.50321 0.73237   3
  -2  -2  -6 0.37735 0.68884   1
  -2  -2  -6 0.64385 0.60609   2
   2   2   6 0.13154 0.80735   3
   2   2   6 1.10222 0.78041   3
   2   2   6 0.07835 0.99697   3
   2   2   6 0.03835 0.97648   2
   2   2   6 -0.4823 0.83291   2
   2   2   6 0.15314 0.77304   2
   2   2   6 -0.5197 0.91710   1
   2   2   6 -0.1677 0.78321   1
   2   2   6 -0.7474 0.83753   1
  -3  -2  -6 28.9897 2.62336   1
  -3  -2  -6 15.2727 1.83710   2
  -3  -2  -6 26.9732 2.88781   3
   3   2   6 16.5661 2.37870   2
   3   2   6 17.2296 2.22246   2
   3   2   6 15.7196 1.96345   2
   3   2   6 23.5128 3.50913   3
   3   2   6 32.5558 3.07008   3
   3   2   6 28.8341 3.32728   3
   3   2   6 26.1911 3.10725   1
   3   2   6 22.6399 2.65644   1
   3   2   6 21.2803 3.25583   1
  -4  -2  -6 9.91255 1.36123   1
  -4  -2  -6 17.9180 1.96943   3
  -4  -2  -6 6.54590 1.20647   2
   4   2   6 6.84977 1.84448   2
   4   2   6 15.7942 2.51489   3
   4   2   6 12.6356 2.02238   1
   5  -3  -6 32.3885 3.47774   2
   5  -3  -6 21.3506 2.74304   2
   5  -3  -6 37.9292 4.41844   1
   5  -3  -6 49.2266 5.12143   1
   5  -3  -6 53.9399 5.39628   3
   5  -3  -6 47.2115 4.74802   3
  -5   3   6 44.2658 5.12944   3
  -5   3   6 44.4737 4.50106   3
  -5   3   6 30.6830 3.27505   2
  -5   3   6 45.0690 4.27112   1
  -5   3   6 43.5972 4.88284   1
   4  -3  -6 112.269 11.0768   2
   4  -3  -6 127.948 12.6448   2
   4  -3  -6 206.012 20.9561   1
   4  -3  -6 191.193 18.4324   1
   4  -3  -6 201.164 20.7115   3
   4  -3  -6 186.933 18.2323   3
  -4   3   6 112.471 12.1012   2
  -4   3   6 196.185 20.1238   1
  -4   3   6 191.452 18.3591   1
  -4   3   6 194.828 19.8961   3
  -4   3   6 191.510 18.1485   3
   3  -3  -6 25.6523 3.02637   2
   3  -3  -6 26.3652 2.61141   2
   3  -3  -6 77.0052 7.40778   1
   3  -3  -6 74.7305 8.39039   1
   3  -3  -6 45.2450 4.18301   3
   3  -3  -6 40.0508 4.70690   3
  -3   3   6 78.3433 7.36148   1
  -3   3   6 82.4720 8.11919   1
  -3   3   6 26.3938 2.82110   2
  -3   3   6 24.4346 2.51520   2
  -3   3   6 42.7582 4.09803   3
  -3   3   6 42.7056 4.54764   3
   2  -3  -6 26.5917 3.12522   2
   2  -3  -6 28.6063 2.77246   2
   2  -3  -6 132.767 13.0739   1
   2  -3  -6 146.046 14.8204   1
   2  -3  -6 42.2673 4.62799   3
   2  -3  -6 43.1200 4.12926   3
  -2   3   6 28.2898 2.72749   2
  -2   3   6 25.8403 2.98150   2
  -2   3   6 30.1960 3.28278   2
  -2   3   6 133.798 14.2595   1
  -2   3   6 135.452 13.0388   1
  -2   3   6 144.503 15.4660   1
  -2   3   6 38.1415 4.06412   3
  -2   3   6 50.0101 4.86625   3
  -2   3   6 40.2172 4.48078   3
   1  -3  -6 64.7143 7.60230   1
   1  -3  -6 71.7731 6.69691   1
   1  -3  -6 71.8873 6.69896   1
   1  -3  -6 60.4370 6.56525   3
   1  -3  -6 58.9782 5.80576   3
   1  -3  -6 65.8453 5.82832   3
   1  -3  -6 37.7145 3.91822   2
   1  -3  -6 38.3305 4.34440   2
   1  -3  -6 40.8654 3.87784   2
  -1   3   6 60.3275 6.86104   3
  -1   3   6 61.0104 6.32249   3
  -1   3   6 58.9147 5.79208   3
  -1   3   6 99.9386 10.1214  -2
  -1   3   6 99.9386 10.1214   1
  -1   3   6 96.1140 9.26249  -2
  -1   3   6 96.1140 9.26249   1
  -1   3   6 44.1764 4.60609   2
  -1   3   6 73.2798 7.93856   1
   0  -3  -6 29.8893 2.65898   1
   0  -3  -6 17.1062 1.77951   3
   0  -3  -6 14.3778 1.71990   3
   0  -3  -6 38.0239 2.84440  -2
   0  -3  -6 38.0239 2.84440   1
   0  -3  -6 11.5369 1.26857   2
   0   3   6 23.4177 2.75973  -2
   0   3   6 23.4177 2.75973   1
   0   3   6 22.1407 3.08709  -2
   0   3   6 22.1407 3.08709   1
   0   3   6 23.1899 2.89402   1
   0   3   6 10.8222 1.35828   2
   0   3   6 19.2660 1.77246   3
   0   3   6 14.5062 2.03360   3
   0   3   6 16.9154 1.89506   3
  -1  -3  -6 53.4878 5.03110   1
  -1  -3  -6 51.7832 5.44874   1
  -1  -3  -6 54.2140 4.83857   3
  -1  -3  -6 42.1600 4.62172   3
  -1  -3  -6 46.9341 4.96684   3
  -1  -3  -6 35.7274 3.45101   2
  -1  -3  -6 33.8529 3.31747   2
   1   3   6 51.5899 5.51843   3
   1   3   6 48.5075 5.17531   3
   1   3   6 53.6466 4.92849   3
   1   3   6 42.8970 4.66309   3
   1   3   6 38.7988 3.88829   2
   1   3   6 28.8737 3.24182   2
   1   3   6 30.1504 3.60958   2
   1   3   6 28.3623 3.24427   2
   1   3   6 50.2223 5.65713   1
   1   3   6 55.9744 6.01365   1
   1   3   6 54.9216 5.04200   1
   1   3   6 47.5916 5.05312   1
  -2  -3  -6 231.118 22.3360   2
  -2  -3  -6 384.959 35.1987   3
  -2  -3  -6 382.655 35.7056   1
   2   3   6 234.393 25.4046   2
   2   3   6 250.262 26.5034   2
   2   3   6 369.701 41.7167   3
   2   3   6 370.214 40.0498   3
   2   3   6 392.549 42.3449   1
   2   3   6 369.516 40.6052   1
  -3  -3  -6 40.5749 4.43009   2
  -3  -3  -6 75.8175 7.29462   3
  -3  -3  -6 65.4874 6.66608   1
   3   3   6 39.8617 5.01492   2
   3   3   6 56.6034 5.48503   2
   3   3   6 79.8702 8.15726   1
   3   3   6 68.2357 7.63873   1
   3   3   6 76.1985 8.83600   3
  -4  -3  -6 44.4389 4.56222   3
  -4  -3  -6 18.7137 2.16316   2
  -4  -3  -6 39.5217 4.00709   1
   5  -4  -6 35.1685 3.72081   1
   5  -4  -6 34.8117 3.70897   3
   5  -4  -6 12.5670 1.86735   2
  -5   4   6 37.8287 4.20179   1
  -5   4   6 34.9259 4.04182   3
  -5   4   6 17.5833 1.76434   2
  -5   4   6 18.1723 2.31571   2
   4  -4  -6 119.757 11.5038   1
   4  -4  -6 62.3333 5.98799   2
   4  -4  -6 103.067 9.64609   3
  -4   4   6 64.1395 6.55008   2
  -4   4   6 60.8618 5.89474   2
  -4   4   6 100.267 9.53157   3
  -4   4   6 101.073 10.5400   3
  -4   4   6 120.542 11.4191   1
  -4   4   6 125.095 12.5905   1
   3  -4  -6 97.2744 9.25346   1
   3  -4  -6 47.8808 4.71541   2
   3  -4  -6 91.4576 8.30138   3
  -3   4   6 49.9096 4.66697   2
  -3   4   6 48.3796 5.15589   2
  -3   4   6 78.7853 9.05019   3
  -3   4   6 89.6162 8.22786   3
  -3   4   6 102.656 10.1217   1
  -3   4   6 94.7743 9.19434   1
   2  -4  -6 98.0202 9.61314   3
   2  -4  -6 106.872 10.2208   1
   2  -4  -6 67.3769 6.17944   2
  -2   4   6 106.630 11.1500   1
  -2   4   6 110.004 12.0874   1
  -2   4   6 108.302 10.1731   1
  -2   4   6 65.9357 7.30291   2
  -2   4   6 60.0269 6.11680   2
  -2   4   6 67.8102 6.74477   2
  -2   4   6 105.953 9.56621   3
  -2   4   6 103.454 11.3599   3
  -2   4   6 96.9021 10.4861   3
   1  -4  -6 12.0459 1.59191  -2
   1  -4  -6 12.0459 1.59191   1
   1  -4  -6 0.85298 0.70659   3
  -1   4   6 6.70281 1.50628  -2
  -1   4   6 6.70281 1.50628   1
  -1   4   6 6.84193 1.33881  -2
  -1   4   6 6.84193 1.33881   1
  -1   4   6 0.87924 0.76614   3
  -1   4   6 0.85963 0.78552   3
  -1   4   6 1.55010 0.59633   3
  -1   4   6 2.15709 0.77641   2
  -1   4   6 1.04810 0.81806   1
   0  -4  -6 0.09816 0.73255   3
   0  -4  -6 5.99476 1.30954  -2
   0  -4  -6 5.99476 1.30954   1
   0   4   6 0.21008 1.29026  -2
   0   4   6 0.21008 1.29026   1
   0   4   6 0.61149 1.44174  -2
   0   4   6 0.61149 1.44174   1
   0   4   6 -0.3415 0.62828   2
   0   4   6 0.55403 0.76134   3
   0   4   6 1.34126 0.83406   3
   0   4   6 0.46769 0.69607   3
   0   4   6 0.18412 0.68207   1
  -1  -4  -6 113.256 10.7964  -2
  -1  -4  -6 113.256 10.7964   1
  -1  -4  -6 59.4684 6.02103   3
  -1  -4  -6 63.1608 6.47951   3
  -1  -4  -6 48.2379 4.73941   2
  -1  -4  -6 64.2801 6.90631   1
   1   4   6 74.4717 7.16289   3
   1   4   6 52.8436 6.02005   3
   1   4   6 62.9418 6.39827   1
   1   4   6 76.2178 7.65340   1
   1   4   6 46.0965 5.26391   2
   1   4   6 39.6412 4.38831   2
  -2  -4  -6 28.0424 2.74191   1
  -2  -4  -6 28.6053 3.21802   3
  -2  -4  -6 11.2493 1.53563   2
   2   4   6 22.7626 3.28586   1
   2   4   6 17.3614 2.15013   2
   2   4   6 31.7392 3.81526   3
  -3  -4  -6 59.0554 5.89998   2
  -3  -4  -6 88.3938 8.94442   3
  -3  -4  -6 89.0387 8.69870   1
   3   4   6 100.846 10.7308   3
   3   4   6 94.2339 10.4708   1
   3   4   6 60.3347 7.05002   2
  -4  -4  -6 60.5335 6.08287   3
  -4  -4  -6 25.4445 2.79729   2
  -4  -4  -6 52.5584 5.25100   1
   5  -5  -6 0.70372 0.95252   1
   5  -5  -6 1.63910 1.12086   3
   5  -5  -6 0.18826 0.92929   2
  -5   5   6 -1.6525 1.31302   2
  -5   5   6 -0.4713 1.29133   1
  -5   5   6 0.86712 1.31260   3
   4  -5  -6 1.72703 0.85589   3
   4  -5  -6 0.88892 0.73857   2
   4  -5  -6 4.78960 0.87198   1
  -4   5   6 0.89928 0.51393   2
  -4   5   6 1.19967 1.00018   2
  -4   5   6 0.48588 1.06478   3
  -4   5   6 2.51406 1.15669   1
   3  -5  -6 11.2749 1.53008   3
   3  -5  -6 7.38763 0.97455   2
   3  -5  -6 48.2050 4.97713   1
  -3   5   6 14.1434 1.38337   3
  -3   5   6 12.9427 1.80129   3
  -3   5   6 5.10356 1.11820   2
  -3   5   6 7.18561 0.84560   2
  -3   5   6 51.3503 4.89450   1
  -3   5   6 54.4485 5.45751   1
   2  -5  -6 56.6235 5.55237  -2
   2  -5  -6 56.6235 5.55237   1
   2  -5  -6 12.5991 1.42679   3
  -2   5   6 10.3192 1.01071   2
  -2   5   6 6.94541 1.33717   2
  -2   5   6 6.71191 1.15826   2
  -2   5   6 11.0772 1.68232   3
  -2   5   6 11.8680 1.26561   3
  -2   5   6 10.6791 1.54089   3
  -2   5   6 22.5515 2.84850   1
   1  -5  -6 20.2738 1.91966  -2
   1  -5  -6 20.2738 1.91966   1
   1  -5  -6 0.33206 0.73115   3
  -1   5   6 21.5864 2.47502  -2
  -1   5   6 21.5864 2.47502   1
  -1   5   6 19.0706 1.80058  -2
  -1   5   6 19.0706 1.80058   1
  -1   5   6 4.62486 1.86771  -2
  -1   5   6 4.62486 1.86771   1
  -1   5   6 1.31553 0.91255   3
  -1   5   6 2.07459 0.66881   3
  -1   5   6 0.81148 0.82138   3
   0  -5  -6 8.36030 1.31353   3
   0  -5  -6 8.72882 1.30632   3
   0  -5  -6 15.3430 1.95890  -2
   0  -5  -6 15.3430 1.95890   1
   0  -5  -6 12.5699 1.96183  -2
   0  -5  -6 12.5699 1.96183   1
   0   5   6 14.5542 2.05558  -2
   0   5   6 14.5542 2.05558   1
   0   5   6 15.7454 2.27535  -2
   0   5   6 15.7454 2.27535   1
   0   5   6 13.1894 1.82384  -2
   0   5   6 13.1894 1.82384   1
   0   5   6 8.96807 1.36346   3
   0   5   6 11.2568 1.17520   3
   0   5   6 6.78318 1.44904   3
  -1  -5  -6 116.538 12.0668   3
  -1  -5  -6 90.1359 9.33835   2
  -1  -5  -6 120.877 12.4576   1
   1   5   6 210.617 20.2324  -2
   1   5   6 210.617 20.2324   1
   1   5   6 220.162 24.0345  -2
   1   5   6 220.162 24.0345   1
   1   5   6 112.521 13.1665   3
   1   5   6 121.390 11.0955   3
   2   5   6 0.71534 1.34826   3
   2   5   6 0.21514 1.13507   3
   2   5   6 2.46775 1.20154   1
   2   5   6 1.11431 1.45611   1
   2   5   6 0.80974 1.05704   2
   2   5   6 -0.4120 1.29446   2
  -3  -5  -6 88.8161 8.82003   3
  -3  -5  -6 90.9060 8.71430   1
  -3  -5  -6 47.5370 5.30674   2
   3   5   6 57.2882 6.35686   2
   3   5   6 90.3452 10.4569   1
   3   5   6 95.4366 10.5713   3
   5  -6  -6 39.7859 3.87742   1
   5  -6  -6 18.0782 2.06244   2
   5  -6  -6 24.1935 2.98496   3
  -5   6   6 33.5780 4.28673   1
  -5   6   6 17.2525 2.42964   2
  -5   6   6 35.5754 3.56710   3
   4  -6  -6 3.67622 0.86581   2
   4  -6  -6 6.56755 1.14604   3
   4  -6  -6 9.02463 1.33942   1
  -4   6   6 4.54566 1.30872   2
  -4   6   6 6.76984 1.44966   3
  -4   6   6 13.1423 1.76220   1
   3  -6  -6 85.8053 7.79500   1
   3  -6  -6 35.0076 3.22540   2
   3  -6  -6 56.6636 5.12350   3
  -3   6   6 80.3793 7.68937   1
  -3   6   6 79.2589 8.53448   1
  -3   6   6 27.8675 3.47445   2
  -3   6   6 32.4414 3.08797   2
  -3   6   6 48.0324 5.57757   3
   2  -6  -6 0.48941 0.80340   3
   2  -6  -6 2.75641 1.49561  -2
   2  -6  -6 2.75641 1.49561   1
  -2   6   6 0.54586 0.98480   3
  -2   6   6 -0.0265 1.02787   3
  -2   6   6 0.08011 0.51772   3
  -2   6   6 -0.1345 1.03582   1
  -2   6   6 0.50884 0.52400   1
  -2   6   6 0.59326 0.89580   1
  -2   6   6 2.42534 0.95120   2
  -2   6   6 1.37912 0.50249   2
  -2   6   6 0.39586 0.94699   2
   1  -6  -6 0.25280 0.77224   3
   1  -6  -6 0.40321 1.23355  -2
   1  -6  -6 0.40321 1.23355   1
  -1   6   6 -0.0349 0.60152   3
  -1   6   6 -0.0584 0.99360   3
  -1   6   6 0.36233 0.94610   3
  -1   6   6 0.37101 1.49404  -2
  -1   6   6 0.37101 1.49404   1
  -1   6   6 -2.1052 1.84697  -2
  -1   6   6 -2.1052 1.84697   1
  -1   6   6 -0.9959 1.04382  -2
  -1   6   6 -0.9959 1.04382   1
   0  -6  -6 0.34783 1.45745  -2
   0  -6  -6 0.34783 1.45745   1
   0  -6  -6 0.98286 1.30028  -2
   0  -6  -6 0.98286 1.30028   1
   0  -6  -6 -0.1962 0.88972   3
   0  -6  -6 1.12967 0.88293   3
   0   6   6 0.86505 1.00409   3
   0   6   6 -0.7581 1.08988   3
   0   6   6 0.26107 0.71097   3
   0   6   6 -1.6786 1.62245  -2
   0   6   6 -1.6786 1.62245   1
   0   6   6 -0.3416 1.16698  -2
   0   6   6 -0.3416 1.16698   1
   0   6   6 1.22459 1.37366  -2
   0   6   6 1.22459 1.37366   1
  -1  -6  -6 37.8166 4.39534   3
   1   6   6 44.8765 4.12873   3
   1   6   6 40.4199 4.85450   3
   1   6   6 76.2054 7.69024  -2
   1   6   6 76.2054 7.69024   1
   1   6   6 82.3438 9.22030  -2
   1   6   6 82.3438 9.22030   1
   2   6   6 36.1010 4.62796   2
   2   6   6 36.7194 3.89728   2
   2   6   6 60.2441 5.81178   1
   2   6   6 55.4391 6.86935   1
   2   6   6 51.5023 5.39109   3
   2   6   6 54.5519 6.36834   3
   3   6   6 0.80424 1.96210   1
   3   6   6 0.40053 1.92830   2
   3   6   6 0.77419 2.06827   3
   5  -7  -6 3.91434 1.12393   2
   5  -7  -6 5.91572 1.30956   1
   5  -7  -6 6.75400 1.42278   3
  -5   7   6 4.53416 1.48294   2
  -5   7   6 6.96065 1.99112   1
  -5   7   6 6.02572 1.77845   3
   4  -7  -6 3.66645 0.91274   2
   4  -7  -6 7.19777 1.22076   3
   4  -7  -6 10.0751 1.39881   1
  -4   7   6 10.9518 1.77439   1
  -4   7   6 5.99085 1.46428   3
  -4   7   6 2.42652 1.08994   2
   3  -7  -6 112.826 10.5681   3
   3  -7  -6 66.7265 6.36128   2
   3  -7  -6 151.764 14.3071   1
  -3   7   6 108.600 11.5625   3
  -3   7   6 150.655 15.6464   1
  -3   7   6 65.2548 6.96285   2
   2  -7  -6 16.6862 2.28467  -2
   2  -7  -6 16.6862 2.28467   1
   2  -7  -6 10.1908 1.70755   3
  -2   7   6 5.64003 1.42799   2
  -2   7   6 8.10746 0.94055   2
  -2   7   6 8.33023 1.32389   2
  -2   7   6 12.8784 1.42085   1
  -2   7   6 11.1772 2.03436   1
  -2   7   6 17.0589 1.96227   1
  -2   7   6 18.7479 1.57981   3
  -2   7   6 16.0090 2.07883   3
  -2   7   6 11.4474 2.13859   3
   1  -7  -6 8.33817 1.48973  -2
   1  -7  -6 8.33817 1.48973   1
   1  -7  -6 2.07154 0.88195   3
  -1   7   6 10.1465 2.28215  -2
  -1   7   6 10.1465 2.28215   1
  -1   7   6 11.6813 1.53252  -2
  -1   7   6 11.6813 1.53252   1
  -1   7   6 10.8798 1.98796  -2
  -1   7   6 10.8798 1.98796   1
  -1   7   6 1.64175 0.68469   3
  -1   7   6 1.13693 1.05754   3
  -1   7   6 1.17042 1.18726   3
   0  -7  -6 262.648 26.3987  -2
   0  -7  -6 262.648 26.3987   1
   0  -7  -6 140.428 14.9209   3
   0   7   6 144.695 13.6244   3
   0   7   6 135.838 16.1822   3
   0   7   6 157.752 14.9472   3
   0   7   6 273.928 26.4133  -2
   0   7   6 273.928 26.4133   1
   0   7   6 238.446 24.1540  -2
   0   7   6 238.446 24.1540   1
   0   7   6 257.846 28.6932  -2
   0   7   6 257.846 28.6932   1
   1   7   6 128.387 12.5196  -2
   1   7   6 128.387 12.5196   1
   1   7   6 135.129 14.9371  -2
   1   7   6 135.129 14.9371   1
   1   7   6 66.2043 7.96147   3
   1   7   6 71.9100 6.72560   3
   2   7   6 16.2246 2.61630   3
   2   7   6 15.3165 2.09065   3
   2   7   6 9.38327 2.00497   2
   2   7   6 7.15509 1.41151   2
   2   7   6 9.18686 1.60299   1
   2   7   6 10.6733 2.15615   1
   3   7   6 18.9941 3.28125   3
   3   7   6 23.1253 3.72514   1
   3   7   6 14.8048 3.02406   2
   5  -8  -6 2.15615 1.24594   1
   5  -8  -6 2.16972 1.10734   2
   5  -8  -6 1.13243 1.29396   3
  -5   8   6 4.03647 1.85134   1
  -5   8   6 -0.6425 1.65887   2
  -5   8   6 3.59734 1.93105   3
   4  -8  -6 -0.0935 0.88025   2
   4  -8  -6 0.19266 1.02164   3
   4  -8  -6 2.89689 1.08524   1
  -4   8   6 0.02105 1.21002   2
  -4   8   6 8.57818 1.69111   1
  -4   8   6 0.79241 1.40523   3
   3  -8  -6 1.07281 0.96277   3
   3  -8  -6 2.55348 0.96418   1
   3  -8  -6 1.33145 0.82553   2
  -3   8   6 2.25977 1.38727   1
  -3   8   6 0.57476 1.22442   3
  -3   8   6 1.08157 1.04031   2
   2  -8  -6 4.07670 1.15237   3
   2  -8  -6 7.54034 1.88056  -2
   2  -8  -6 7.54034 1.88056   1
  -2   8   6 3.63891 1.37996   1
  -2   8   6 5.97645 1.56059   1
  -2   8   6 5.40554 0.80736   1
  -2   8   6 7.21180 1.44842   3
  -2   8   6 7.85669 1.57526   3
  -2   8   6 2.65850 1.38623   2
  -2   8   6 3.86662 1.14762   2
  -2   8   6 3.87084 0.68551   2
   1  -8  -6 6.96323 1.22729   3
   1  -8  -6 4.60235 1.50930  -2
   1  -8  -6 4.60235 1.50930   1
   1  -8  -6 7.44368 1.88773  -2
   1  -8  -6 7.44368 1.88773   1
  -1   8   6 5.85655 1.53142   3
  -1   8   6 3.58377 1.45259   3
  -1   8   6 3.88958 0.87735   3
  -1   8   6 4.57981 2.47682  -2
  -1   8   6 4.57981 2.47682   1
  -1   8   6 6.51858 1.38055  -2
  -1   8   6 6.51858 1.38055   1
  -1   8   6 5.37125 1.92202  -2
  -1   8   6 5.37125 1.92202   1
   0  -8  -6 5.28421 1.33232   3
   0  -8  -6 7.42692 1.27151   3
   0  -8  -6 12.2690 2.12356  -2
   0  -8  -6 12.2690 2.12356   1
   0  -8  -6 13.5204 2.00913  -2
   0  -8  -6 13.5204 2.00913   1
   0   8   6 11.7512 1.84661  -2
   0   8   6 11.7512 1.84661   1
   0   8   6 8.30675 2.55001  -2
   0   8   6 8.30675 2.55001   1
   0   8   6 14.2404 2.15338  -2
   0   8   6 14.2404 2.15338   1
   0   8   6 6.10690 1.44340   3
   0   8   6 6.99737 1.70834   3
   0   8   6 6.29373 1.12473   3
   1   8   6 1.40449 1.08651   3
   1   8   6 1.02392 1.54922   3
   1   8   6 0.79479 1.90760  -2
   1   8   6 0.79479 1.90760   1
   1   8   6 5.98229 2.70903  -2
   1   8   6 5.98229 2.70903   1
   2   8   6 30.6157 3.63456   3
   2   8   6 40.6461 4.61222   3
   2   8   6 15.9226 2.05159   2
   2   8   6 16.6597 2.78203   2
   2   8   6 24.3137 3.98738   1
   2   8   6 31.4425 3.17867   1
   4  -9  -6 7.27171 1.27014   2
   4  -9  -6 12.1504 1.72613   3
   4  -9  -6 108.549 10.8250   1
  -4   9   6 7.44928 2.19332   3
  -4   9   6 5.80982 1.58214   2
  -4   9   6 120.580 11.9679   1
   3  -9  -6 0.19454 1.00677   3
   3  -9  -6 -0.0606 0.82383   2
   3  -9  -6 0.25642 0.95313   1
  -3   9   6 0.54441 1.41042   3
  -3   9   6 -0.2158 1.17047   2
  -3   9   6 -0.5242 1.56845   1
   2  -9  -6 4.54637 1.84188  -2
   2  -9  -6 4.54637 1.84188   1
   2  -9  -6 0.88464 1.12900   3
  -2   9   6 2.00959 1.49301   1
  -2   9   6 0.79278 1.43707   1
  -2   9   6 -0.1633 1.32937   3
  -2   9   6 0.25390 1.26586   3
  -2   9   6 2.99073 1.32637   2
  -2   9   6 4.09709 1.47589   2
   1  -9  -6 -0.6962 1.20370   3
   1  -9  -6 1.26472 1.21473   3
   1  -9  -6 8.18200 1.85480  -2
   1  -9  -6 8.18200 1.85480   1
   1  -9  -6 4.76831 2.31359  -2
   1  -9  -6 4.76831 2.31359   1
  -1   9   6 -1.1846 1.33799   3
  -1   9   6 0.48019 1.34711   3
  -1   9   6 -0.2030 0.67340   3
  -1   9   6 11.3118 1.52010  -2
  -1   9   6 11.3118 1.52010   1
  -1   9   6 7.17189 2.80728  -2
  -1   9   6 7.17189 2.80728   1
  -1   9   6 12.7897 2.48514  -2
  -1   9   6 12.7897 2.48514   1
   0  -9  -6 19.8650 2.75674   3
   0  -9  -6 27.8034 2.65987   3
   0  -9  -6 34.9217 3.82350  -2
   0  -9  -6 34.9217 3.82350   1
   0  -9  -6 28.5617 3.40030  -2
   0  -9  -6 28.5617 3.40030   1
   0   9   6 16.6426 2.98373   3
   0   9   6 19.9458 2.27741   3
   0   9   6 25.1611 2.90357   3
   0   9   6 27.8410 3.24944  -2
   0   9   6 27.8410 3.24944   1
   0   9   6 35.4852 4.50624  -2
   0   9   6 35.4852 4.50624   1
   1   9   6 35.3086 4.30476   3
   1   9   6 30.2774 3.36990   3
   1   9   6 58.5921 7.33924  -2
   1   9   6 58.5921 7.33924   1
   1   9   6 53.5616 5.63501  -2
   1   9   6 53.5616 5.63501   1
   2   9   6 13.2595 2.83920   1
   2   9   6 11.4003 2.01685   1
   2   9   6 11.5375 2.03485   3
   2   9   6 12.4892 2.78778   3
   2   9   6 7.32803 2.32906   2
   2   9   6 3.16203 1.43797   2
   4 -10  -6 21.4295 2.58689   1
   4 -10  -6 5.85414 1.51953   3
   4 -10  -6 3.28744 1.17089   2
  -4  10   6 2.10177 1.87107   3
  -4  10   6 26.3762 3.28171   1
  -4  10   6 -0.2799 1.49701   2
   3 -10  -6 10.6304 1.58704   1
   3 -10  -6 5.69253 1.33730   2
   3 -10  -6 19.7861 2.18801   3
  -3  10   6 8.20757 1.68365   2
  -3  10   6 13.1697 2.53204   3
  -3  10   6 9.04255 2.05498   1
   2 -10  -6 26.5772 2.83676   3
   2 -10  -6 35.3974 3.93504  -2
   2 -10  -6 35.3974 3.93504   1
  -2  10   6 11.3965 2.06086   2
  -2  10   6 13.2577 2.21516   2
  -2  10   6 25.4249 3.44350   3
  -2  10   6 22.9576 3.25544   3
  -2  10   6 20.4588 2.89957   1
  -2  10   6 17.1278 2.73026   1
   1 -10  -6 0.83058 2.11711  -2
   1 -10  -6 0.83058 2.11711   1
   1 -10  -6 0.33449 1.38654   3
  -1  10   6 5.28495 3.99398  -3
  -1  10   6 5.28495 3.99398  -2
  -1  10   6 5.28495 3.99398   1
  -1  10   6 3.39849 2.31327  -2
  -1  10   6 3.39849 2.31327   1
  -1  10   6 3.74658 1.34323  -2
  -1  10   6 3.74658 1.34323   1
  -1  10   6 1.04006 0.66172   3
  -1  10   6 1.48815 1.54449   3
   0 -10  -6 1.17387 1.36694   3
   0 -10  -6 -0.5489 1.23698   3
   0 -10  -6 2.31693 2.21433  -2
   0 -10  -6 2.31693 2.21433   1
   0 -10  -6 0.54435 2.35131  -2
   0 -10  -6 0.54435 2.35131   1
   0  10   6 -0.9738 1.75908   3
   0  10   6 0.09821 0.93990   3
   0  10   6 -4.3245 3.01908  -2
   0  10   6 -4.3245 3.01908   1
   0  10   6 1.81226 1.65980  -2
   0  10   6 1.81226 1.65980   1
   1  10   6 5.94656 1.37475   3
   1  10   6 7.19787 2.23110   3
   1  10   6 10.6552 2.74735  -2
   1  10   6 10.6552 2.74735   1
   1  10   6 12.3023 4.63907  -2
   1  10   6 12.3023 4.63907   1
   3 -11  -6 3.73224 1.17467   2
   3 -11  -6 7.49994 1.71001   3
   3 -11  -6 8.09439 1.43895   1
  -3  11   6 4.17597 1.74545   2
  -3  11   6 5.31511 2.11325   3
  -3  11   6 4.70769 2.08016   1
   2 -11  -6 8.01104 1.80068   1
   2 -11  -6 1.95544 1.64065   2
   2 -11  -6 9.56401 2.65353  -2
   2 -11  -6 9.56401 2.65353   1
   2 -11  -6 5.72548 2.00673   3
   2 -11  -6 5.39181 1.65694   3
  -2  11   6 7.23934 2.01750   3
  -2  11   6 4.27951 2.02187   3
  -2  11   6 9.60198 4.18078  -2
  -2  11   6 9.60198 4.18078   1
  -2  11   6 2.19334 1.74624   2
  -2  11   6 3.32620 1.95968   1
   1 -11  -6 0.52071 2.81652  -2
   1 -11  -6 0.52071 2.81652   1
   1 -11  -6 0.42893 1.30239   3
   1 -11  -6 0.35448 1.78506   3
  -1  11   6 2.61459 4.57710  -3
  -1  11   6 2.61459 4.57710  -2
  -1  11   6 2.61459 4.57710   1
  -1  11   6 -0.3993 1.98354   3
   0 -11  -6 73.8113 8.10769  -2
   0 -11  -6 73.8113 8.10769   1
   0 -11  -6 47.1038 5.14087   3
   0  11   6 42.8166 4.43529   3
   0  11   6 71.4565 7.09819  -2
   0  11   6 71.4565 7.09819   1
   2 -12  -6 13.8260 2.24435   3
   1 -14   7 1.13453 2.60440   2
   1 -14   7 -1.7045 1.09959   2
   1 -14   7 15.3355 2.20581   1
   1 -14   7 1.03940 1.88511   3
   1  13  -7 2.83013 1.98681   1
   1  13  -7 3.24793 1.96907   3
   1  13  -7 3.08023 1.95692   2
  -1 -13   7 6.35931 1.83867   3
  -1 -13   7 5.34200 1.47053   3
  -1 -13   7 3.60087 2.49258   2
  -1 -13   7 3.21072 1.65525   2
  -1 -13   7 1.95754 1.18283   2
  -1 -13   7 6.12852 1.75022   1
  -1 -13   7 2.84257 1.27905   1
   0  13  -7 5.41147 3.78372  -3
   0  13  -7 5.41147 3.78372   1
   0  13  -7 0.15012 1.62914   2
   0 -13   7 0.21230 1.40207   2
   0 -13   7 0.95334 2.02765   2
   0 -13   7 1.35424 0.91903   2
   0 -13   7 -0.4722 1.48898   3
   0 -13   7 1.16476 1.07582   3
   0 -13   7 13.9556 4.94244  -3
   0 -13   7 13.9556 4.94244   1
   0 -13   7 3.96784 1.04769   1
   0 -13   7 2.47788 1.57190   1
  -1  13  -7 8.57310 2.13628   2
  -1  13  -7 11.1492 2.07930   3
  -1  13  -7 12.9502 2.53768   3
  -1  13  -7 8.58552 2.41065   1
   1 -13   7 5.94243 2.23814   2
   1 -13   7 6.88754 1.16609   2
   1 -13   7 14.9669 3.70583  -3
   1 -13   7 14.9669 3.70583   1
   1 -13   7 12.2439 1.50951   1
   1 -13   7 10.9458 1.57961   3
  -2  13  -7 20.9675 2.75869   3
  -2  13  -7 13.6022 3.29034   3
  -2  13  -7 8.01814 2.33092   2
  -2  13  -7 19.4106 3.59149   1
   2 -13   7 38.4458 6.64275  -3
   2 -13   7 38.4458 6.64275   1
   2 -13   7 20.2964 2.14572   3
   2 -13   7 4.08675 2.41114   2
   2 -13   7 6.83307 1.02021   2
   2 -13   7 22.4687 2.32532   1
   2  12  -7 5.65893 2.10260   3
   2  12  -7 5.69131 1.23248   3
   2  12  -7 6.97489 2.49276   3
   2  12  -7 1.75552 0.85815   2
   2  12  -7 0.56704 1.95363   2
   2  12  -7 1.11889 1.85453   2
   2  12  -7 2.75613 1.99516   1
   2  12  -7 1.78916 2.06224   1
   2  12  -7 6.03410 1.24361   1
  -2 -12   7 4.19121 1.75920   3
  -2 -12   7 3.85385 1.63846   3
  -2 -12   7 1.94433 1.41056   1
  -2 -12   7 3.12926 1.52228   1
  -2 -12   7 4.61823 2.27163   2
  -2 -12   7 2.27844 1.30776   2
  -2 -12   7 0.83937 1.36011   2
   1  12  -7 3.98355 1.64056   2
   1  12  -7 4.19376 1.72062   2
   1  12  -7 10.1070 2.15122   1
   1  12  -7 11.0219 1.97085   1
   1  12  -7 9.85407 1.96363   3
   1  12  -7 6.71404 1.93448   3
  -1 -12   7 7.29543 1.54699   2
  -1 -12   7 3.04983 1.11758   2
  -1 -12   7 5.14352 2.17000   2
  -1 -12   7 9.64128 1.50473   1
  -1 -12   7 8.98192 1.79693   1
  -1 -12   7 13.3941 1.60687   3
  -1 -12   7 7.46203 1.94898   3
   0  12  -7 3.78215 1.47789   3
   0  12  -7 12.2459 1.92121   1
   0  12  -7 3.56900 1.72490   2
   0  12  -7 3.40545 1.41308   2
   0  12  -7 17.2892 3.94099  -3
   0  12  -7 17.2892 3.94099   1
   0 -12   7 5.26161 1.60091   3
   0 -12   7 5.84669 1.09909   3
   0 -12   7 18.0548 4.49978  -3
   0 -12   7 18.0548 4.49978   1
   0 -12   7 12.3678 1.35405   1
   0 -12   7 5.78846 1.56696   1
   0 -12   7 -0.2608 0.99739   2
   0 -12   7 0.97799 0.77628   2
   0 -12   7 2.79267 1.81800   2
  -1  12  -7 4.94393 1.49081   3
  -1  12  -7 2.18866 1.77603   3
  -1  12  -7 4.93039 1.49070   1
  -1  12  -7 3.24407 1.91443   1
  -1  12  -7 0.83342 1.59868   2
  -1  12  -7 0.99818 1.53376   2
   1 -12   7 7.25976 2.97106  -3
   1 -12   7 7.25976 2.97106   1
   1 -12   7 7.82245 1.04941   1
   1 -12   7 2.82558 0.92583   3
   1 -12   7 1.06389 1.78028   2
   1 -12   7 1.35894 0.76702   2
  -2  12  -7 -0.8052 1.16701   3
  -2  12  -7 0.38848 1.91307   3
  -2  12  -7 1.83322 1.94325   2
  -2  12  -7 0.09874 1.52304   2
  -2  12  -7 -0.3743 1.99745   1
  -2  12  -7 1.21548 1.40301   1
   2 -12   7 3.17652 4.48152  -3
   2 -12   7 3.17652 4.48152   1
   2 -12   7 -0.0950 0.80586   3
   2 -12   7 0.85372 0.77942   1
   2 -12   7 0.45885 0.68565   2
   2 -12   7 -0.2781 1.88989   2
  -3  12  -7 6.15603 2.01319   2
  -3  12  -7 7.10035 2.04306   1
  -3  12  -7 11.6017 2.28971   3
   3 -12   7 9.77686 1.30136   1
   3 -12   7 9.73806 2.65856   1
   3 -12   7 11.7866 2.80879   3
   3 -12   7 10.4943 1.44320   3
   3 -12   7 5.86923 0.99095   2
   3 -12   7 7.92695 2.22619   2
   3  11  -7 4.20882 2.34015   1
   3  11  -7 0.71404 1.59999   1
   3  11  -7 -0.5318 1.32400   3
   3  11  -7 0.91450 2.08517   3
   3  11  -7 0.98760 1.98299   2
  -3 -11   7 -1.2415 1.54348   2
   2  11  -7 216.617 28.0134   1
   2  11  -7 269.803 26.9873   1
   2  11  -7 274.289 23.6023   1
   2  11  -7 132.391 16.0473   2
   2  11  -7 139.643 13.4101   2
   2  11  -7 152.575 15.4810   2
   2  11  -7 292.314 31.1239   3
   2  11  -7 288.544 29.8734   3
   2  11  -7 290.617 26.1652   3
  -2 -11   7 255.628 26.2764   3
  -2 -11   7 264.221 28.6414   3
  -2 -11   7 245.688 23.6870   1
  -2 -11   7 242.030 25.8093   1
  -2 -11   7 256.636 28.0869   1
  -2 -11   7 141.217 14.7299   2
  -2 -11   7 141.109 13.5311   2
  -2 -11   7 152.163 16.1595   2
   1  11  -7 2.50726 1.38559   2
   1  11  -7 1.72756 1.54672   2
   1  11  -7 13.2536 3.35963  -3
   1  11  -7 13.2536 3.35963   1
   1  11  -7 6.04538 1.65625   3
   1  11  -7 9.26143 1.07573   3
   1  11  -7 6.65033 1.59348   1
  -1 -11   7 10.2624 1.42088   3
  -1 -11   7 10.6680 1.79179   3
  -1 -11   7 8.68177 1.51726   1
  -1 -11   7 5.90206 1.16574   1
  -1 -11   7 1.74489 1.09269   2
  -1 -11   7 5.40890 1.88176   2
  -1 -11   7 2.75378 0.91722   2
  -1 -11   7 14.2375 4.27862  -3
  -1 -11   7 14.2375 4.27862   1
   0  11  -7 10.2265 1.91284   2
   0  11  -7 13.9727 2.04469   2
   0  11  -7 166.411 19.4615  -3
   0  11  -7 166.411 19.4615   1
   0  11  -7 25.0621 3.34436   3
   0  11  -7 131.498 14.4084   1
   0 -11   7 35.5967 3.43434   3
   0 -11   7 25.2088 2.89323   3
   0 -11   7 134.737 12.6157   1
   0 -11   7 12.8778 2.25180   2
   0 -11   7 8.63375 1.27669   2
   0 -11   7 14.2148 1.70739   2
   0 -11   7 180.216 19.5782  -3
   0 -11   7 180.216 19.5782   1
  -1  11  -7 6.24212 1.69898   2
  -1  11  -7 5.12649 1.60037   2
  -1  11  -7 10.8199 2.18288   3
  -1  11  -7 12.2468 1.85711   3
  -1  11  -7 20.8902 2.56620   1
  -1  11  -7 15.6938 2.63668   1
   1 -11   7 4.63024 1.69582   2
   1 -11   7 5.30012 0.85150   2
   1 -11   7 21.3493 3.46509  -3
   1 -11   7 21.3493 3.46509   1
   1 -11   7 19.3371 2.05300   1
   1 -11   7 13.2966 1.46004   3
  -2  11  -7 0.29785 1.38775   2
  -2  11  -7 0.87829 1.67085   2
  -2  11  -7 7.59462 1.53783   1
  -2  11  -7 -0.0382 1.19794   3
   2 -11   7 6.68738 3.72972  -3
   2 -11   7 6.68738 3.72972   1
   2 -11   7 1.08364 1.67213   2
   2 -11   7 -0.2230 0.57319   2
   2 -11   7 -0.2457 0.69245   3
   2 -11   7 6.03134 0.94435   1
  -3  11  -7 28.9398 3.28570   1
  -3  11  -7 26.9021 3.20365   3
  -3  11  -7 11.9666 2.29376   2
   3 -11   7 8.25658 2.26825   2
   3 -11   7 14.1021 1.44836   2
   3 -11   7 11.4543 2.87538   2
   3 -11   7 27.6805 3.63730   1
   3 -11   7 22.2226 2.57392   1
   3 -11   7 21.7522 3.49267   3
   3 -11   7 21.8822 2.47664   3
   3  10  -7 0.32924 1.26481   1
   3  10  -7 2.31131 1.92092   1
   3  10  -7 3.19672 1.59655   3
   3  10  -7 -0.3577 1.10909   3
   3  10  -7 0.62225 1.08624   2
   3  10  -7 1.89549 1.91871   2
  -3 -10   7 0.42851 1.62420   3
  -3 -10   7 -1.2354 1.21721   2
  -3 -10   7 -0.5344 1.40180   1
   2  10  -7 25.4191 2.71160   2
   2  10  -7 23.9662 3.28968   2
   2  10  -7 27.0263 3.33041   2
   2  10  -7 43.2975 5.62836   1
   2  10  -7 41.7746 5.88573   1
   2  10  -7 58.8712 4.91581   1
   2  10  -7 50.1525 5.09329   3
   2  10  -7 52.2319 6.23852   3
   2  10  -7 53.8680 5.90216   3
  -2 -10   7 19.8298 2.62979   2
  -2 -10   7 29.0653 2.99143   2
  -2 -10   7 28.9354 3.51533   2
  -2 -10   7 51.6338 5.24746   3
  -2 -10   7 51.8339 5.65803   3
  -2 -10   7 51.2663 6.09966   1
  -2 -10   7 52.6441 5.32450   1
  -2 -10   7 45.1733 4.93355   1
   1  10  -7 22.0256 3.16003   2
   1  10  -7 17.1892 3.12137   2
   1  10  -7 50.2292 4.86398   3
   1  10  -7 49.4484 5.76516   3
   1  10  -7 61.8876 5.79243   1
   1  10  -7 49.8027 4.82686   1
   1  10  -7 104.423 11.7237  -3
   1  10  -7 104.423 11.7237   1
  -1 -10   7 53.7819 5.02153   3
  -1 -10   7 49.6163 5.47332   3
  -1 -10   7 98.0682 11.9327  -3
  -1 -10   7 98.0682 11.9327   1
  -1 -10   7 44.6706 4.93285   1
  -1 -10   7 50.6002 5.43810   1
  -1 -10   7 27.1496 2.90328   2
  -1 -10   7 27.2124 2.66982   2
  -1 -10   7 34.1400 3.36467   2
   0  10  -7 19.5347 2.68678   1
   0  10  -7 2.49398 1.15267   3
   0  10  -7 25.4939 4.07522  -3
   0  10  -7 25.4939 4.07522   1
   0  10  -7 0.23371 1.31061   2
   0  10  -7 1.01035 1.23393   2
   0 -10   7 0.43148 1.11782   3
   0 -10   7 1.33936 0.83418   3
   0 -10   7 22.0717 2.30544   1
   0 -10   7 0.59418 1.28634   2
   0 -10   7 0.02726 0.68188   2
   0 -10   7 0.59556 0.92420   2
   0 -10   7 29.7925 4.26880  -3
   0 -10   7 29.7925 4.26880   1
  -1  10  -7 4.29943 1.15343   3
  -1  10  -7 8.03880 2.51096  -3
  -1  10  -7 8.03880 2.51096   1
  -1  10  -7 3.51714 1.35834   2
  -1  10  -7 2.84141 1.31478   2
  -1  10  -7 3.34435 1.25333   1
   1 -10   7 1.57349 1.36888   2
   1 -10   7 1.84868 0.59847   2
   1 -10   7 3.57222 0.73904   1
   1 -10   7 13.3711 2.64513  -3
   1 -10   7 13.3711 2.64513   1
   1 -10   7 4.63288 0.83020   3
  -2  10  -7 13.6521 1.85839   2
  -2  10  -7 21.3725 2.73615   3
  -2  10  -7 18.5754 2.73447   1
   2 -10   7 23.6397 2.26215   1
   2 -10   7 39.7272 5.60661  -3
   2 -10   7 39.7272 5.60661   1
   2 -10   7 21.9745 2.29792   3
   2 -10   7 9.16084 1.95343   2
   2 -10   7 9.09119 1.15086   2
  -3  10  -7 4.74579 1.63393   3
  -3  10  -7 5.45468 1.53620   1
  -3  10  -7 0.87019 1.53022   2
   3 -10   7 3.39452 1.59017   2
   3 -10   7 0.52519 1.71299   2
   3 -10   7 2.30238 0.79091   2
   3 -10   7 4.00069 1.91699   1
   3 -10   7 5.28891 0.88771   1
   3 -10   7 6.28524 1.97038   3
   3 -10   7 4.40389 0.87617   3
  -4  10  -7 8.51872 2.16150   2
  -4  10  -7 12.8530 2.28260   3
  -4  10  -7 6.89435 2.06782   1
   4 -10   7 13.2490 1.71820   3
   4 -10   7 13.9589 2.48146   3
   4 -10   7 9.70168 2.35884   1
   4 -10   7 9.36857 1.22613   1
   4 -10   7 4.51005 1.04433   2
   4 -10   7 3.75731 2.25243   2
   3   9  -7 0.70855 1.05250   3
   3   9  -7 0.57089 1.40257   3
   3   9  -7 0.47303 1.05583   1
   3   9  -7 -0.9338 1.82538   1
   3   9  -7 0.08017 1.01140   2
   3   9  -7 0.55544 1.58794   2
  -3  -9   7 1.27051 1.09137   2
  -3  -9   7 -0.3633 1.25031   1
  -3  -9   7 1.70717 1.24061   3
   2   9  -7 -0.5275 1.19513   1
   2   9  -7 1.09107 0.79155   1
   2   9  -7 0.76560 1.30694   1
   2   9  -7 -0.2555 1.22709   3
   2   9  -7 1.65219 1.38626   3
   2   9  -7 -0.3403 0.75861   3
   2   9  -7 -0.5408 1.23080   2
   2   9  -7 2.00607 1.46405   2
   2   9  -7 0.39788 0.79779   2
  -2  -9   7 1.32449 1.69914   1
  -2  -9   7 0.58111 0.83477   1
  -2  -9   7 0.37569 0.96830   1
  -2  -9   7 -0.1116 0.91198   2
  -2  -9   7 0.26365 0.76969   2
  -2  -9   7 -0.1870 1.43894   2
  -2  -9   7 -0.3572 0.88305   3
  -2  -9   7 0.47232 1.08675   3
  -2  -9   7 2.10081 1.80722   3
   1   9  -7 53.4528 5.37157   1
   1   9  -7 13.8732 2.20420   2
   1   9  -7 18.2796 1.73454   2
   1   9  -7 14.0372 2.23964   2
   1   9  -7 31.1595 3.49457   3
   1   9  -7 29.2867 2.92331   3
   1   9  -7 93.9656 11.6430  -3
   1   9  -7 93.9656 11.6430   1
  -1  -9   7 60.4415 5.44353   1
  -1  -9   7 14.9892 1.98471   2
  -1  -9   7 18.3849 1.84920   2
  -1  -9   7 15.3811 2.40755   2
  -1  -9   7 33.2386 3.35502   3
  -1  -9   7 24.8010 3.02666   3
  -1  -9   7 111.418 11.7467  -3
  -1  -9   7 111.418 11.7467   1
   0   9  -7 38.0494 4.71386   1
   0   9  -7 36.5347 4.44142   1
   0   9  -7 23.3731 3.01171   2
   0   9  -7 24.2746 2.88862   2
   0   9  -7 51.1927 5.52811   3
   0   9  -7 43.0816 5.17825   3
   0  -9   7 45.4772 4.25893   1
   0  -9   7 37.0320 3.85095   1
   0  -9   7 51.1879 4.98681   3
   0  -9   7 41.7470 4.51104   3
   0  -9   7 79.4920 9.29938  -3
   0  -9   7 79.4920 9.29938   1
   0  -9   7 23.4567 2.66954   2
   0  -9   7 22.5969 3.02089   2
   0  -9   7 22.6362 2.41885   2
  -1   9  -7 103.525 10.4039   1
  -1   9  -7 52.7868 6.36591   2
  -1   9  -7 63.5652 6.69265   2
  -1   9  -7 148.727 19.5218  -3
  -1   9  -7 148.727 19.5218   1
  -1   9  -7 99.1162 10.3386   3
   1  -9   7 213.607 19.6674  -3
   1  -9   7 213.607 19.6674   1
   1  -9   7 93.0471 9.04595   3
   1  -9   7 91.5666 9.06015   1
   1  -9   7 57.3896 5.45205   2
   1  -9   7 55.2534 6.67117   2
  -2   9  -7 51.3153 5.65982   1
  -2   9  -7 28.3225 3.45654   2
  -2   9  -7 41.1542 5.04062   3
   2  -9   7 50.7467 4.89811   1
   2  -9   7 101.101 11.7504  -3
   2  -9   7 101.101 11.7504   1
   2  -9   7 25.2918 2.78748   2
   2  -9   7 34.5032 3.62873   2
   2  -9   7 46.8870 4.33555   3
  -3   9  -7 1.81229 1.37758   2
  -3   9  -7 7.48652 1.53494   1
  -3   9  -7 6.24332 1.52986   3
   3  -9   7 5.58945 0.92110   1
   3  -9   7 8.95148 1.89904   1
   3  -9   7 5.22724 0.92399   3
   3  -9   7 3.79704 1.75112   3
   3  -9   7 1.26545 1.48794   2
   3  -9   7 1.59702 0.67979   2
   3  -9   7 2.38068 1.48709   2
  -4   9  -7 5.79267 1.76332   1
  -4   9  -7 1.36601 1.78526   2
  -4   9  -7 8.29665 1.67841   3
   4  -9   7 3.99165 0.92122   1
   4  -9   7 3.65655 1.94915   1
   4  -9   7 3.89866 1.76990   3
   4  -9   7 2.75636 1.03702   3
   4  -9   7 -0.4791 1.93785   2
   4  -9   7 1.89605 0.90200   2
   4   8  -7 0.63365 1.29224   2
   4   8  -7 0.13357 2.06031   2
   4   8  -7 1.47794 1.33584   3
   4   8  -7 1.88490 1.86887   3
   4   8  -7 2.09832 1.98651   1
   4   8  -7 0.95527 1.35859   1
  -4  -8   7 1.12725 1.54438   3
  -4  -8   7 -0.9334 1.35127   2
  -4  -8   7 3.71838 1.65062   1
   3   8  -7 4.04224 1.53740   1
   3   8  -7 2.13373 1.12586   1
   3   8  -7 2.96926 1.04364   3
   3   8  -7 3.78244 1.53636   3
   3   8  -7 0.66531 1.63972   2
   3   8  -7 2.03157 0.97405   2
  -3  -8   7 4.36140 1.30457   1
  -3  -8   7 2.65857 1.03030   2
  -3  -8   7 5.73353 1.30753   3
   2   8  -7 14.1748 1.77584   1
   2   8  -7 15.7911 2.25933   1
   2   8  -7 10.9891 2.19864   1
   2   8  -7 7.16127 1.11588   2
   2   8  -7 8.81691 1.51078   2
   2   8  -7 5.73422 1.61394   2
   2   8  -7 17.0633 2.21527   3
   2   8  -7 12.8020 1.72631   3
   2   8  -7 11.7150 2.18137   3
  -2  -8   7 8.24373 1.37720   2
  -2  -8   7 5.85305 1.22232   2
  -2  -8   7 9.47421 1.74946   2
  -2  -8   7 20.9190 1.99027   3
  -2  -8   7 14.2639 2.00809   3
  -2  -8   7 22.4137 2.49910   3
  -2  -8   7 20.8104 1.93299   1
  -2  -8   7 21.1240 2.53823   1
  -2  -8   7 17.8476 2.03283   1
   1   8  -7 118.569 11.2542   1
   1   8  -7 105.810 12.8735   1
   1   8  -7 35.6656 4.13764   2
   1   8  -7 28.0252 4.26575   2
   1   8  -7 34.9931 3.42982   2
   1   8  -7 67.7664 6.26803   3
   1   8  -7 62.1758 7.21855   3
   1   8  -7 197.476 21.4083  -3
   1   8  -7 197.476 21.4083   1
  -1  -8   7 31.0322 3.50552   2
  -1  -8   7 40.9904 3.83855   2
  -1  -8   7 41.3911 4.34566   2
  -1  -8   7 69.3208 6.94802   3
  -1  -8   7 63.4054 6.34762   3
  -1  -8   7 183.840 21.4521  -3
  -1  -8   7 183.840 21.4521   1
  -1  -8   7 124.691 12.3449   1
  -1  -8   7 127.637 11.3143   1
   0   8  -7 3.78364 1.03145   1
   0   8  -7 3.51132 1.25160   1
   0   8  -7 2.40282 1.16352   3
   0   8  -7 1.36819 0.96038   3
   0   8  -7 0.32944 1.19768   2
   0   8  -7 -0.5697 0.89781   2
   0  -8   7 4.54893 0.70153   1
   0  -8   7 2.69350 0.76263   1
   0  -8   7 5.98351 2.64830  -3
   0  -8   7 5.98351 2.64830   1
   0  -8   7 0.73030 0.54195   2
   0  -8   7 -0.1715 0.69765   2
   0  -8   7 1.17022 1.25588   2
   0  -8   7 0.43356 0.84561   3
   0  -8   7 0.70455 0.61573   3
  -1   8  -7 67.0612 6.88012   2
  -1   8  -7 59.6061 7.16698   2
  -1   8  -7 115.548 12.0562   3
  -1   8  -7 139.728 14.1546   1
   1  -8   7 126.378 12.3886   1
   1  -8   7 109.195 10.5530   3
   1  -8   7 68.2030 7.21603   2
   1  -8   7 59.4079 5.94436   2
   1  -8   7 246.987 27.5730  -3
   1  -8   7 246.987 27.5730   1
  -2   8  -7 1.02901 0.97681   3
  -2   8  -7 -0.1142 1.09139   2
   2  -8   7 0.27827 1.22116   2
   2  -8   7 0.15502 0.62418   2
   2  -8   7 0.78039 0.64484   3
   2  -8   7 2.43134 1.42317   3
  -3   8  -7 11.1101 1.75541   1
  -3   8  -7 6.06030 1.54133   2
  -3   8  -7 15.5253 2.18698   3
   3  -8   7 11.5173 2.13401   1
   3  -8   7 13.3670 1.42174   1
   3  -8   7 15.0942 1.67959   3
   3  -8   7 16.3409 2.44690   3
   3  -8   7 10.1236 1.17076   2
   3  -8   7 8.27486 1.82725   2
   3  -8   7 8.42949 1.64151   2
  -4   8  -7 -0.5502 1.51661   1
  -4   8  -7 0.49604 1.50721   2
  -4   8  -7 1.91555 1.42826   3
   4  -8   7 1.79661 0.96476   3
   4  -8   7 1.55304 1.59664   3
   4  -8   7 0.29748 1.52008   2
   4  -8   7 0.13794 0.93643   2
   4  -8   7 0.22753 0.82242   1
   4  -8   7 2.61580 1.72713   1
   4   7  -7 1.92509 1.22000   2
   4   7  -7 1.37166 1.80186   2
   4   7  -7 6.99373 1.41668   1
   4   7  -7 6.86387 1.87301   1
   4   7  -7 9.21024 1.83461   3
   4   7  -7 6.19237 1.46170   3
  -4  -7   7 3.18959 1.53065   2
  -4  -7   7 4.84465 1.49131   1
  -4  -7   7 6.51730 1.82104   3
   3   7  -7 3.63673 1.01847   3
   3   7  -7 4.49882 1.30946   3
   3   7  -7 5.09881 1.45422   1
   3   7  -7 3.83927 1.07661   1
   3   7  -7 1.47204 1.51465   2
   3   7  -7 2.33474 0.86855   2
  -3  -7   7 2.85609 1.05330   1
  -3  -7   7 4.45216 1.20605   3
  -3  -7   7 2.08161 0.98100   2
   2   7  -7 19.3715 2.59871   3
   2   7  -7 17.6036 2.18452   3
   2   7  -7 22.4117 2.70319   3
   2   7  -7 9.57711 1.76630   2
   2   7  -7 8.68791 1.74108   2
   2   7  -7 12.5643 1.41245   2
  -2  -7   7 12.2251 1.45556   2
  -2  -7   7 11.4202 1.51849   2
  -2  -7   7 13.5029 1.88827   2
  -2  -7   7 22.6341 2.82750   3
  -2  -7   7 19.5212 2.46459   3
  -2  -7   7 26.7706 2.33985   3
  -2  -7   7 53.5171 5.26810   1
  -2  -7   7 54.3883 6.27733   1
   1   7  -7 3.73203 0.64772   2
   1   7  -7 2.22581 1.01192   2
   1   7  -7 3.46813 1.17015   2
   1   7  -7 37.1817 3.56673   1
   1   7  -7 5.68077 0.82227   3
   1   7  -7 6.69825 1.17499   3
   1   7  -7 48.2910 5.92785  -3
   1   7  -7 48.2910 5.92785   1
  -1  -7   7 5.28465 0.91747   3
  -1  -7   7 4.70565 1.10336   3
  -1  -7   7 7.75993 1.44821   3
  -1  -7   7 37.6745 3.59895   1
  -1  -7   7 33.5165 4.40902   1
  -1  -7   7 3.51444 0.72222   2
  -1  -7   7 2.95212 0.83228   2
  -1  -7   7 6.66474 1.25288   2
   0   7  -7 1.10510 1.07862   2
   0   7  -7 1.55000 0.95756   2
   0   7  -7 3.55300 0.91453   1
   0   7  -7 2.15246 0.44134   1
   0   7  -7 2.05690 0.46502   3
   0   7  -7 0.98612 0.80464   3
   0  -7   7 2.70721 2.18087  -3
   0  -7   7 2.70721 2.18087   1
   0  -7   7 2.69475 0.73346   1
   0  -7   7 2.82103 0.59639   1
   0  -7   7 1.44536 0.75384   3
   0  -7   7 1.33915 0.56777   3
   0  -7   7 0.63937 0.45889   2
   0  -7   7 1.34480 1.02235   2
   0  -7   7 0.44132 0.64034   2
  -1   7  -7 72.7020 8.18194   1
  -1   7  -7 45.3186 4.83860   2
  -1   7  -7 74.1811 7.91060   3
   1  -7   7 77.5270 7.16452   1
   1  -7   7 44.7771 5.07190   2
   1  -7   7 41.0061 4.11295   2
   1  -7   7 167.383 18.7741  -3
   1  -7   7 167.383 18.7741   1
   1  -7   7 71.9663 6.92156   3
  -2   7  -7 101.765 11.2223   1
  -2   7  -7 99.7328 11.0591   3
  -2   7  -7 52.1967 5.98751   2
   2  -7   7 102.746 9.70029   3
   2  -7   7 106.453 11.6202   3
   2  -7   7 53.8453 5.17250   2
   2  -7   7 57.2599 6.29517   2
   2  -7   7 109.729 11.7465   1
   2  -7   7 102.240 9.81669   1
  -3   7  -7 0.10139 1.06194   3
  -3   7  -7 0.55146 1.08743   1
  -3   7  -7 0.02913 1.13234   2
   3  -7   7 0.15348 1.30549   2
   3  -7   7 1.65803 1.18502   2
   3  -7   7 1.41775 0.71195   2
   3  -7   7 1.69385 1.46235   3
   3  -7   7 0.48578 0.76350   3
   3  -7   7 -0.3026 1.37701   1
   3  -7   7 1.17272 1.17134   1
   3  -7   7 0.72730 0.67271   1
  -4   7  -7 11.8087 2.14537   2
  -4   7  -7 18.4327 2.40115   1
  -4   7  -7 22.9508 2.85407   3
   4  -7   7 11.4116 2.15796   2
   4  -7   7 10.2255 1.40110   2
   4  -7   7 20.3627 2.90276   3
   4  -7   7 18.0057 2.17835   3
   4  -7   7 15.6549 1.84221   1
   4  -7   7 16.5467 2.46438   1
   4   6  -7 3.65188 1.55077   1
   4   6  -7 0.77620 1.59886   3
   4   6  -7 1.59653 1.68017   2
   4   6  -7 2.68578 1.16490   2
  -4  -6   7 2.67415 1.20316   1
  -4  -6   7 4.66923 1.35445   3
  -4  -6   7 1.08502 1.15343   2
   3   6  -7 13.6012 1.79609   2
   3   6  -7 8.00360 1.26706   2
   3   6  -7 20.6533 3.29514   1
   3   6  -7 28.7866 2.95772   1
   3   6  -7 24.0463 2.38829   3
   3   6  -7 15.9314 2.70470   3
  -3  -6   7 25.6415 2.64814   3
  -3  -6   7 29.9237 3.05997   1
  -3  -6   7 8.50591 1.41323   2
   2   6  -7 5.48027 1.34212   2
   2   6  -7 4.92630 1.28245   2
   2   6  -7 8.06863 1.02851   2
   2   6  -7 12.9083 1.53240   3
   2   6  -7 15.1428 1.92512   3
   2   6  -7 14.6376 1.96356   3
  -2  -6   7 4.29386 1.22156   2
  -2  -6   7 6.03421 1.02880   2
  -2  -6   7 9.99422 1.05148   2
  -2  -6   7 68.7031 7.80317   1
  -2  -6   7 14.4487 2.02812   3
  -2  -6   7 11.0059 1.68608   3
  -2  -6   7 13.6762 1.60696   3
   1   6  -7 193.117 20.2590   2
   1   6  -7 184.169 17.0653   2
   1   6  -7 180.557 19.4744   2
   1   6  -7 316.039 29.9168   1
   1   6  -7 334.367 34.0885   1
   1   6  -7 306.810 28.6643   3
   1   6  -7 304.133 32.6450   3
  -1  -6   7 298.375 31.3091   3
  -1  -6   7 313.428 28.7335   3
  -1  -6   7 311.128 32.6640   1
  -1  -6   7 318.265 29.9800   1
  -1  -6   7 175.762 18.6343   2
  -1  -6   7 181.873 20.2483   2
  -1  -6   7 176.397 17.1037   2
  -1  -6   7 619.687 68.7466  -3
  -1  -6   7 619.687 68.7466   1
   0   6  -7 0.09352 0.74954   2
   0   6  -7 0.06927 0.38296   2
   0   6  -7 2.35541 0.79534   1
   0   6  -7 1.26972 0.45812   1
   0   6  -7 -0.3114 0.38725   3
   0   6  -7 0.27442 0.79127   3
   0  -6   7 2.21247 0.56271   1
   0  -6   7 1.83237 0.60657   1
   0  -6   7 0.41766 0.60687   3
   0  -6   7 -0.6459 0.52112   3
   0  -6   7 1.06565 1.90605  -3
   0  -6   7 1.06565 1.90605   1
   0  -6   7 -0.0415 0.49925   2
   0  -6   7 -0.1003 0.42370   2
   0  -6   7 -1.2692 0.87286   2
  -1   6  -7 51.6772 5.67656   1
  -1   6  -7 30.2381 3.40686   3
  -1   6  -7 20.0477 2.36166   2
   1  -6   7 51.8928 4.95811   1
   1  -6   7 19.3262 1.97236   2
   1  -6   7 18.1173 2.40010   2
   1  -6   7 81.3532 9.33796  -3
   1  -6   7 81.3532 9.33796   1
   1  -6   7 30.0280 2.97130   3
  -2   6  -7 305.642 31.5291   1
  -2   6  -7 287.345 30.9703   3
  -2   6  -7 164.592 18.5012   2
   2  -6   7 181.856 19.2656   2
   2  -6   7 171.837 16.2371   2
   2  -6   7 292.096 32.2785   3
   2  -6   7 290.939 27.2391   3
   2  -6   7 290.206 32.8328   1
   2  -6   7 291.046 27.7146   1
  -3   6  -7 -0.7257 0.93401   3
  -3   6  -7 0.12610 1.11805   2
  -3   6  -7 1.22050 0.92650   1
   3  -6   7 0.08143 1.00801   1
   3  -6   7 -0.7007 1.46375   1
   3  -6   7 0.27256 0.69657   1
   3  -6   7 0.62618 1.29325   2
   3  -6   7 0.55273 0.72495   2
   3  -6   7 0.82525 1.25996   2
   3  -6   7 0.26048 0.73641   3
   3  -6   7 -1.6140 1.37901   3
  -4   6  -7 4.28949 1.33579   1
  -4   6  -7 5.57012 1.77538   3
  -4   6  -7 4.77908 1.73874   2
   4  -6   7 0.92623 1.66745   2
   4  -6   7 4.17176 0.96994   2
   4  -6   7 3.47423 0.96852   1
   4  -6   7 3.09445 1.45653   1
   4  -6   7 7.91188 1.89452   3
   4  -6   7 8.07316 1.27236   3
   5   5  -7 3.85153 1.86138   1
   5   5  -7 6.32304 2.09485   3
   5   5  -7 -0.6662 2.04192   2
  -5  -5   7 1.13900 1.43208   2
  -5  -5   7 3.22620 1.84676   3
  -5  -5   7 5.14538 1.50772   3
  -5  -5   7 2.74084 1.31648   1
  -5  -5   7 4.87800 1.79336   1
   4   5  -7 0.66654 1.30641   1
   4   5  -7 1.16057 1.56962   2
   4   5  -7 2.60438 1.14825   2
   4   5  -7 2.22472 1.46936   3
  -4  -5   7 2.39904 1.21938   1
  -4  -5   7 1.81699 1.15747   3
  -4  -5   7 1.07060 1.04194   2
   3   5  -7 11.8490 1.82549   3
   3   5  -7 7.78840 1.40087   3
   3   5  -7 8.10833 1.43247   1
   3   5  -7 14.0105 1.80542   1
   3   5  -7 6.72369 1.17558   2
   3   5  -7 7.77194 1.61417   2
  -3  -5   7 12.9934 1.65790   1
  -3  -5   7 9.69047 1.33968   2
  -3  -5   7 16.7603 1.71386   3
   2   5  -7 21.2964 2.75036   3
   2   5  -7 20.9477 2.44169   3
   2   5  -7 23.0107 2.87601   3
   2   5  -7 101.542 10.9165   1
   2   5  -7 9.03865 1.73806   2
   2   5  -7 14.7716 1.83023   2
   2   5  -7 15.5625 1.48006   2
  -2  -5   7 23.6677 2.40338   3
  -2  -5   7 25.9545 2.88138   3
  -2  -5   7 23.0132 2.60492   3
  -2  -5   7 10.6081 1.72810   2
  -2  -5   7 11.1196 1.41130   2
  -2  -5   7 13.4954 1.53765   2
  -2  -5   7 100.066 10.8883   1
  -2  -5   7 89.6638 9.21328   1
   1   5  -7 4.86177 1.12798   2
   1   5  -7 6.21830 0.86561   2
   1   5  -7 46.4296 5.34454   1
   1   5  -7 46.6195 4.65842   1
   1   5  -7 10.9488 1.59605   3
   1   5  -7 12.6556 1.31481   3
  -1  -5   7 7.72770 1.22489   2
  -1  -5   7 7.19537 0.89571   2
  -1  -5   7 7.46463 0.96670   2
  -1  -5   7 10.4579 1.49920   3
  -1  -5   7 13.7656 1.39097   3
  -1  -5   7 52.5965 4.68560   1
  -1  -5   7 48.5737 5.07938   1
  -1  -5   7 61.0424 7.10914  -3
  -1  -5   7 61.0424 7.10914   1
   0   5  -7 152.990 14.0440   1
   0   5  -7 152.355 16.0413   1
   0   5  -7 41.7225 3.82883   2
   0   5  -7 34.7452 4.43642   2
   0   5  -7 68.4610 7.40611   3
   0   5  -7 71.7615 6.45932   3
   0  -5   7 39.0284 3.84956   2
   0  -5   7 42.9357 4.65552   2
   0  -5   7 40.3422 4.16112   2
   0  -5   7 143.869 15.3294   1
   0  -5   7 150.090 14.0850   1
   0  -5   7 217.840 24.2868  -3
   0  -5   7 217.840 24.2868   1
   0  -5   7 65.6513 7.06430   3
   0  -5   7 66.8402 6.49675   3
  -1   5  -7 89.6090 8.94513   1
  -1   5  -7 38.0495 3.79946   2
  -1   5  -7 54.9536 6.33860   3
  -1   5  -7 59.1267 5.49997   3
  -1   5  -7 61.8391 5.53618   3
   1  -5   7 37.4100 3.96532   2
   1  -5   7 28.1394 3.26833   2
   1  -5   7 55.6741 5.56528   3
   1  -5   7 138.935 15.5980  -3
   1  -5   7 138.935 15.5980   1
   1  -5   7 77.8376 7.82918   1
  -2   5  -7 179.737 19.2905   3
  -2   5  -7 109.994 11.2324   2
  -2   5  -7 154.601 17.3333   1
   2  -5   7 186.244 20.1237   3
   2  -5   7 176.316 16.9598   3
   2  -5   7 164.562 15.2374   1
   2  -5   7 166.572 18.0868   1
   2  -5   7 95.1539 11.6696   2
   2  -5   7 106.318 9.82324   2
  -3   5  -7 65.8939 7.51525   1
  -3   5  -7 67.8079 7.81488   3
  -3   5  -7 43.5015 4.90346   2
   3  -5   7 66.9431 7.54768   1
   3  -5   7 69.3933 6.57313   1
   3  -5   7 74.6085 7.98157   1
   3  -5   7 49.1797 5.25559   2
   3  -5   7 40.5469 4.22134   2
   3  -5   7 42.8559 4.92651   2
   3  -5   7 75.6576 8.25332   3
   3  -5   7 73.0008 6.86134   3
   3  -5   7 70.7425 7.89261   3
  -4   5  -7 0.54008 1.17696   1
  -4   5  -7 0.88043 1.47984   3
   4  -5   7 1.64366 1.59492   3
   4  -5   7 0.22617 0.97941   3
   4  -5   7 0.29031 0.86106   1
   4  -5   7 -0.4908 1.29534   1
   4  -5   7 0.37039 0.86978   2
   4  -5   7 -0.4348 1.54684   2
   5   4  -7 1.23584 1.63541   3
   5   4  -7 -0.2426 1.80271   1
   5   4  -7 0.26695 1.73705   2
  -5  -4   7 2.10174 1.14848   1
  -5  -4   7 2.29176 1.45858   1
  -5  -4   7 1.64108 1.35322   2
  -5  -4   7 -1.0048 1.24848   2
  -5  -4   7 0.76077 1.34823   3
  -5  -4   7 4.00876 1.64508   3
   4   4  -7 9.44087 1.80435   2
   4   4  -7 14.2771 2.02849   1
   4   4  -7 11.6096 1.99996   3
  -4  -4   7 18.7843 1.76324   3
  -4  -4   7 10.6348 1.83942   3
  -4  -4   7 7.64180 1.43497   2
  -4  -4   7 10.3768 1.56339   1
  -4  -4   7 16.5111 1.95006   1
   3   4  -7 3.53813 0.90397   1
   3   4  -7 3.76547 1.12421   1
   3   4  -7 0.76569 0.76160   2
   3   4  -7 1.90076 1.17187   2
   3   4  -7 0.69966 0.75585   3
   3   4  -7 1.24836 0.97916   3
  -3  -4   7 2.65335 0.81889   3
  -3  -4   7 1.53332 0.87371   3
  -3  -4   7 0.43722 0.75166   2
  -3  -4   7 2.57544 0.76258   1
  -3  -4   7 3.73879 0.88223   1
   2   4  -7 26.2737 3.16070   3
   2   4  -7 22.6870 2.73142   3
   2   4  -7 15.8419 1.78837   2
   2   4  -7 17.4474 2.16756   2
   2   4  -7 33.1332 3.43326   1
   2   4  -7 27.1179 2.92782   1
  -2  -4   7 30.4622 3.13763   1
  -2  -4   7 28.5527 2.97974   1
  -2  -4   7 24.6067 3.02925   1
  -2  -4   7 29.2775 3.51350   1
  -2  -4   7 19.2395 1.80239   2
  -2  -4   7 13.3344 2.09927   2
  -2  -4   7 17.7344 1.93718   2
  -2  -4   7 32.7941 2.96716   3
  -2  -4   7 24.2769 2.77149   3
  -2  -4   7 28.0156 3.28350   3
  -2  -4   7 25.5036 2.75970   3
   1   4  -7 98.2239 11.1381   1
   1   4  -7 103.400 9.76936   1
   1   4  -7 57.7616 6.75003   2
   1   4  -7 60.3722 5.89950   2
   1   4  -7 93.4465 9.29768   3
   1   4  -7 99.3300 10.6097   3
  -1  -4   7 105.277 9.33565   3
  -1  -4   7 97.3873 10.1541   3
  -1  -4   7 212.906 23.7154  -3
  -1  -4   7 212.906 23.7154   1
  -1  -4   7 105.977 10.6506   1
  -1  -4   7 105.490 9.78744   1
  -1  -4   7 63.8596 7.02279   2
  -1  -4   7 65.1311 6.41944   2
  -1  -4   7 61.7362 5.90601   2
   0   4  -7 96.7951 9.16661   3
   0   4  -7 91.5526 10.4710   3
   0   4  -7 93.8038 9.12276   1
   0   4  -7 95.7247 10.4355   1
   0   4  -7 54.2896 6.30952   2
   0   4  -7 63.8788 5.50379   2
   0  -4   7 55.8382 5.96517   2
   0  -4   7 56.8848 5.50911   2
   0  -4   7 58.8402 6.56461   2
   0  -4   7 97.3732 10.0073   3
   0  -4   7 103.035 9.20554   3
   0  -4   7 199.544 22.2518  -3
   0  -4   7 199.544 22.2518   1
   0  -4   7 104.189 9.16188   1
   0  -4   7 95.1175 9.94040   1
  -1   4  -7 15.0677 1.59870   1
  -1   4  -7 17.1428 1.96708   1
  -1   4  -7 16.8550 1.95735   3
  -1   4  -7 14.0752 1.60666   3
  -1   4  -7 7.14863 0.83916   2
  -1   4  -7 8.05059 1.25180   2
   1  -4   7 17.0220 1.68353   1
   1  -4   7 15.2136 2.12450   1
   1  -4   7 9.06639 1.31389   2
   1  -4   7 7.56144 0.90876   2
   1  -4   7 16.9512 2.10711   3
   1  -4   7 17.0020 1.68544   3
  -2   4  -7 4.57241 1.23380   2
  -2   4  -7 10.1598 1.60274   3
  -2   4  -7 10.5630 1.52809   1
   2  -4   7 13.1849 1.39968   3
   2  -4   7 12.8639 1.87980   3
   2  -4   7 12.3052 1.75955   1
   2  -4   7 10.9846 1.27528   1
   2  -4   7 6.76275 0.88172   2
   2  -4   7 6.67883 1.32106   2
  -3   4  -7 11.5051 1.76757   3
  -3   4  -7 6.33098 1.36273   2
  -3   4  -7 11.5649 1.64757   1
   3  -4   7 6.40119 0.96701   2
   3  -4   7 6.08349 1.37770   2
   3  -4   7 5.18842 1.38036   2
   3  -4   7 11.1932 1.34562   1
   3  -4   7 12.3927 1.97450   1
   3  -4   7 9.56502 1.71167   1
   3  -4   7 12.3117 1.81812   3
   3  -4   7 10.8887 2.03923   3
   3  -4   7 13.6717 1.50971   3
  -4   4  -7 1.03490 1.25328   1
  -4   4  -7 0.12126 1.22875   3
   4  -4   7 -0.3435 0.93448   2
   4  -4   7 0.03113 1.39354   2
   4  -4   7 0.25570 1.34729   3
   4  -4   7 -0.3800 0.94675   3
   4  -4   7 -2.0144 1.48783   1
   4  -4   7 0.79038 0.88566   1
   5   3  -7 36.8161 4.67161   3
   5   3  -7 22.9033 2.98194   2
   5   3  -7 35.2364 4.54298   1
  -5  -3   7 43.4039 4.06957   3
  -5  -3   7 34.1877 4.37530   3
  -5  -3   7 42.6972 4.35975   1
  -5  -3   7 32.3034 3.81400   1
  -5  -3   7 23.4583 2.79781   2
  -5  -3   7 17.6916 2.33717   2
   4   3  -7 17.0027 2.61464   3
   4   3  -7 14.3778 2.10511   2
   4   3  -7 22.1596 2.54571   1
  -4  -3   7 11.3357 1.74265   2
  -4  -3   7 12.5915 1.55989   2
  -4  -3   7 24.7831 2.30269   3
  -4  -3   7 18.8973 2.47497   3
  -4  -3   7 18.1749 2.37300   1
  -4  -3   7 17.6642 2.02741   1
   3   3  -7 1.61131 1.03144   1
   3   3  -7 5.00560 0.96228   1
   3   3  -7 -0.3050 0.82859   3
   3   3  -7 -0.1893 1.00778   3
   3   3  -7 -0.6372 0.75112   2
   3   3  -7 -0.1979 0.93488   2
  -3  -3   7 -0.1343 0.66841   2
  -3  -3   7 0.59230 0.72650   2
  -3  -3   7 -0.1583 0.73534   3
  -3  -3   7 -0.4146 0.86656   3
  -3  -3   7 6.11981 0.91089   1
   2   3  -7 21.7985 2.47341   1
   2   3  -7 28.4712 2.89549   1
   2   3  -7 23.2548 2.55426   3
   2   3  -7 30.3575 2.88499   3
   2   3  -7 23.0477 2.22501   2
   2   3  -7 13.3971 1.75354   2
  -2  -3   7 23.3997 2.65809   1
  -2  -3   7 22.7395 2.42657   1
  -2  -3   7 25.5167 2.50008   1
  -2  -3   7 23.6380 2.94112   1
  -2  -3   7 16.4857 1.74123   2
  -2  -3   7 17.6803 1.72706   2
  -2  -3   7 15.9769 2.03061   2
  -2  -3   7 14.5192 1.85136   2
  -2  -3   7 23.5757 2.56540   3
  -2  -3   7 22.4911 2.58157   3
  -2  -3   7 23.7791 3.01087   3
  -2  -3   7 24.4077 2.72533   3
   1   3  -7 32.1548 3.14245   3
   1   3  -7 30.8777 3.57426   3
   1   3  -7 62.0631 7.07343   1
   1   3  -7 66.5341 6.20766   1
   1   3  -7 17.7959 2.03510   2
   1   3  -7 19.7560 2.40639   2
  -1  -3   7 18.7191 2.42757   2
  -1  -3   7 22.4579 2.00788   2
  -1  -3   7 19.5908 2.14674   2
  -1  -3   7 19.6201 2.03035   2
  -1  -3   7 32.0020 3.14921   3
  -1  -3   7 30.9125 3.40656   3
  -1  -3   7 34.5232 3.15203   3
  -1  -3   7 62.2681 6.18744   1
  -1  -3   7 66.8104 6.74913   1
  -1  -3   7 68.6353 6.21568   1
  -1  -3   7 108.468 12.1901  -3
  -1  -3   7 108.468 12.1901   1
   0   3  -7 13.2683 1.30758   3
   0   3  -7 9.28664 1.53474   3
   0   3  -7 6.43793 0.82523   2
   0   3  -7 5.18553 1.02678   2
   0   3  -7 58.2988 5.90707   1
   0  -3   7 12.1161 1.32859   3
   0  -3   7 14.1689 1.73857   3
   0  -3   7 12.3940 1.38659   3
   0  -3   7 61.0610 7.05715   1
   0  -3   7 67.7596 5.93215   1
   0  -3   7 4.89476 1.02273   2
   0  -3   7 7.18842 0.80018   2
   0  -3   7 6.44456 0.76898   2
  -1   3  -7 2.34775 0.43471   1
  -1   3  -7 2.17203 0.78241   1
  -1   3  -7 0.52765 0.41075   3
  -1   3  -7 -0.0911 0.66644   3
  -1   3  -7 0.04618 0.46319   2
  -1   3  -7 0.18329 0.73476   2
   1  -3   7 -0.3752 0.48134   2
   1  -3   7 0.43549 0.78099   2
   1  -3   7 -0.2115 0.50322   3
   1  -3   7 6.64975 1.96462  -3
   1  -3   7 6.64975 1.96462   1
   1  -3   7 1.41639 0.54102   1
  -2   3  -7 89.0707 8.96855   1
  -2   3  -7 78.9982 7.79862   1
  -2   3  -7 45.3229 4.56687   2
  -2   3  -7 48.3296 5.33480   2
  -2   3  -7 94.6650 9.66411   3
  -2   3  -7 88.4264 8.41860   3
   2  -3   7 50.4142 5.56368   2
   2  -3   7 50.4636 4.63847   2
   2  -3   7 89.1939 8.48884   3
   2  -3   7 85.4958 10.1141   3
   2  -3   7 88.6189 9.40563   1
   2  -3   7 80.9609 7.87132   1
  -3   3  -7 86.7193 9.24875   3
  -3   3  -7 80.2346 8.02062   3
  -3   3  -7 88.4607 8.36360   1
  -3   3  -7 66.0601 7.20384   1
  -3   3  -7 49.9508 4.89561   2
  -3   3  -7 37.1180 4.08643   2
   3  -3   7 89.4826 9.28026   3
   3  -3   7 102.693 9.78195   3
   3  -3   7 80.8909 8.13556   3
   3  -3   7 53.2181 5.14217   2
   3  -3   7 49.0249 4.25875   2
   3  -3   7 44.1800 4.89725   2
   3  -3   7 84.3213 7.32241   1
   3  -3   7 84.5321 8.38895   1
   3  -3   7 84.8245 8.81519   1
   4  -3   7 0.25972 1.55397   3
   4  -3   7 0.36333 1.09550   3
   4  -3   7 0.14585 1.52744   2
   4  -3   7 0.87755 1.02949   2
   4  -3   7 0.42357 1.27687   1
   4  -3   7 0.65725 0.89983   1
   5   2  -7 19.9659 3.04215   1
   5   2  -7 11.5695 2.29743   2
   5   2  -7 17.1900 2.68102   3
  -5  -2   7 25.4411 2.46295   1
  -5  -2   7 20.3339 2.85822   1
  -5  -2   7 9.89816 1.82589   2
  -5  -2   7 11.8651 1.62945   2
  -5  -2   7 20.9371 2.25200   3
  -5  -2   7 18.3952 2.57001   3
   4   2  -7 37.6567 4.32944   3
   4   2  -7 18.0426 2.79581   2
   4   2  -7 44.7202 4.66672   1
  -4  -2   7 22.5463 2.64687   2
  -4  -2   7 25.6555 2.40709   2
  -4  -2   7 42.8643 4.40872   1
  -4  -2   7 34.3899 3.94112   1
  -4  -2   7 36.0009 3.72337   3
  -4  -2   7 36.1612 4.04342   3
   3   2  -7 285.025 29.9729   1
   3   2  -7 291.405 29.8596   1
   3   2  -7 325.144 33.9203   1
   3   2  -7 325.759 35.5827   3
   3   2  -7 338.386 31.3410   3
   3   2  -7 188.068 20.0869   2
   3   2  -7 184.506 17.6532   2
  -3  -2   7 333.889 29.7916   1
  -3  -2   7 337.877 32.5452   1
  -3  -2   7 192.622 19.2389   2
  -3  -2   7 184.095 17.6163   2
  -3  -2   7 332.713 34.1483   3
  -3  -2   7 336.078 31.2668   3
   2   2  -7 11.8621 1.41923   2
   2   2  -7 7.85066 1.40586   2
   2   2  -7 9.08367 1.15899   2
   2   2  -7 17.2255 2.18180   3
   2   2  -7 14.9334 1.86935   3
   2   2  -7 19.3624 1.94119   3
   2   2  -7 25.1993 2.62882   1
   2   2  -7 26.4950 2.64543   1
   2   2  -7 25.7516 2.96428   1
  -2  -2   7 19.9934 2.23937   3
  -2  -2   7 15.5446 2.05318   3
  -2  -2   7 19.4839 1.96106   3
  -2  -2   7 21.7735 1.92417   3
  -2  -2   7 14.3338 1.39963   2
  -2  -2   7 8.78679 1.22959   2
  -2  -2   7 8.00860 1.07566   2
  -2  -2   7 8.66961 1.06978   2
  -2  -2   7 28.4054 2.60065   1
  -2  -2   7 21.6672 2.55664   1
  -2  -2   7 27.4121 2.81428   1
  -2  -2   7 25.4933 3.06701   1
   1   2  -7 105.127 12.3360   3
   1   2  -7 117.124 10.8795   3
   1   2  -7 113.422 10.8448   3
   1   2  -7 54.4255 7.32904   2
   1   2  -7 72.2112 6.46089   2
   1   2  -7 68.5510 6.54793   2
   1   2  -7 184.678 20.4914   1
   1   2  -7 185.404 18.0087   1
   1   2  -7 197.767 18.0431   1
  -1  -2   7 195.618 19.6403   1
  -1  -2   7 199.204 18.0414   1
  -1  -2   7 196.358 18.0065   1
  -1  -2   7 182.662 21.3282   1
  -1  -2   7 116.271 10.8534   3
  -1  -2   7 120.897 12.8504   3
  -1  -2   7 112.542 11.8287   3
  -1  -2   7 121.091 10.8686   3
  -1  -2   7 67.9769 6.44317   2
  -1  -2   7 71.0398 6.99434   2
  -1  -2   7 70.9575 6.43216   2
  -1  -2   7 68.5477 7.61799   2
   0   2  -7 297.029 29.1700   1
   0   2  -7 309.095 33.1967   1
   0   2  -7 171.176 17.3313   2
   0   2  -7 184.627 19.7447   2
   0   2  -7 293.397 31.3594   3
   0   2  -7 293.036 27.5636   3
   0  -2   7 291.059 27.6131   3
   0  -2   7 295.021 30.0621   3
   0  -2   7 297.917 27.5762   3
   0  -2   7 594.381 65.9148  -3
   0  -2   7 594.381 65.9148   1
   0  -2   7 185.521 17.3536   2
   0  -2   7 182.261 20.5367   2
   0  -2   7 183.197 18.8772   2
   0  -2   7 203.149 17.3502   2
   0  -2   7 306.298 29.2235   1
   0  -2   7 325.413 31.8151   1
   0  -2   7 317.263 29.1798   1
  -1   2  -7 35.0118 3.60013   2
  -1   2  -7 36.3602 4.16782   2
  -1   2  -7 75.5373 8.27509   1
  -1   2  -7 81.1848 7.23997   1
  -1   2  -7 63.9859 6.78599   3
  -1   2  -7 58.1595 5.92793   3
   1  -2   7 61.7548 7.09442   3
   1  -2   7 67.7798 5.97469   3
   1  -2   7 76.3412 7.26836   1
   1  -2   7 70.7320 8.65953   1
   1  -2   7 37.9454 4.35009   2
   1  -2   7 40.1034 3.63512   2
  -2   2  -7 54.0187 4.85048   3
  -2   2  -7 51.8136 5.57310   3
  -2   2  -7 26.4324 3.34930   2
  -2   2  -7 27.7592 2.85645   2
  -2   2  -7 49.3466 5.43731   1
  -2   2  -7 49.6565 4.71486   1
   2  -2   7 47.5254 4.92629   3
   2  -2   7 46.7455 5.90799   3
   2  -2   7 29.8450 3.57060   2
   2  -2   7 32.9219 3.37923   2
   2  -2   7 30.3621 2.94331   2
   2  -2   7 47.8573 5.78954   1
   2  -2   7 50.8003 4.78897   1
  -3   2  -7 33.2846 3.88955   3
  -3   2  -7 34.7284 3.27928   3
  -3   2  -7 32.2259 3.56114   1
  -3   2  -7 27.0278 2.91143   1
  -3   2  -7 19.6700 2.23640   2
  -3   2  -7 26.0376 2.85901   2
   3  -2   7 35.2345 4.24878   3
   3  -2   7 30.2856 3.91146   3
   3  -2   7 34.8700 3.47065   3
   3  -2   7 23.2966 2.92052   2
   3  -2   7 21.6227 2.79977   2
   3  -2   7 22.6340 2.40383   2
   3  -2   7 35.2594 3.87020   1
   3  -2   7 32.3169 3.61750   1
   3  -2   7 29.7493 3.08147   1
  -4   2  -7 4.48734 0.76265   1
  -4   2  -7 3.74122 0.77394   2
  -4   2  -7 5.11719 0.71035   3
   4  -2   7 7.97682 1.18018   1
   4  -2   7 4.72559 1.66000   1
   4  -2   7 7.53982 1.56490   3
   4  -2   7 6.35829 1.34035   3
   4  -2   7 4.11308 1.65738   2
   4  -2   7 6.25142 1.22765   2
   5   1  -7 3.26223 1.79055   2
   5   1  -7 1.95187 1.49449   1
   5   1  -7 3.50119 1.73131   3
  -5  -1   7 2.79266 1.01293   1
  -5  -1   7 6.16108 1.45198   1
  -5  -1   7 2.68493 1.31425   3
  -5  -1   7 4.33257 1.03331   3
  -5  -1   7 1.75413 1.22500   2
  -5  -1   7 1.08728 0.91026   2
   4   1  -7 29.2057 3.51443   1
   4   1  -7 29.5711 3.06544   1
   4   1  -7 31.2604 3.23082   3
   4   1  -7 33.0320 3.52961   3
   4   1  -7 16.1527 2.20322   2
  -4  -1   7 31.9933 3.29269   1
  -4  -1   7 25.4481 2.95633   1
  -4  -1   7 20.9128 1.80443   2
  -4  -1   7 10.3711 1.92454   2
  -4  -1   7 27.4592 3.34462   3
  -4  -1   7 26.9826 3.03486   3
   3   1  -7 72.0551 7.33035   2
   3   1  -7 63.7585 6.41878   2
   3   1  -7 123.936 11.8736   1
   3   1  -7 129.236 13.4993   1
   3   1  -7 123.631 12.8820   3
   3   1  -7 121.586 11.3543   3
  -3  -1   7 66.2069 6.97282   2
  -3  -1   7 66.6065 6.37517   2
  -3  -1   7 121.782 12.3584   3
  -3  -1   7 113.041 11.2833   3
  -3  -1   7 132.784 12.9380   1
  -3  -1   7 117.745 11.8240   1
   2   1  -7 135.345 12.3279   1
   2   1  -7 127.327 12.3116   1
   2   1  -7 131.287 14.0109   1
   2   1  -7 78.4206 8.28193   2
   2   1  -7 75.7791 7.25968   2
   2   1  -7 74.6574 7.24421   2
   2   1  -7 121.577 11.7177   3
   2   1  -7 121.568 13.3239   3
   2   1  -7 123.297 11.7418   3
  -2  -1   7 70.6118 7.21875   2
  -2  -1   7 75.3570 8.56011   2
  -2  -1   7 74.8868 7.24474   2
  -2  -1   7 84.7330 7.89165   2
  -2  -1   7 130.546 12.3235   1
  -2  -1   7 130.518 12.2916   1
  -2  -1   7 128.560 13.4172   1
  -2  -1   7 125.320 11.7092   3
  -2  -1   7 129.122 12.7909   3
  -2  -1   7 265.227 29.4707  -3
  -2  -1   7 265.227 29.4707   1
   1   1  -7 40.1994 4.11925   3
   1   1  -7 43.4286 4.68805   3
   1   1  -7 44.7801 4.16704   3
   1   1  -7 40.6742 4.44784   1
   1   1  -7 41.9535 4.45996   1
   1   1  -7 44.0889 5.04970   1
   1   1  -7 23.9173 2.42937   2
   1   1  -7 23.2936 2.46876   2
   1   1  -7 20.9921 2.78136   2
  -1  -1   7 26.8998 2.90237   2
  -1  -1   7 23.6704 2.58225   2
  -1  -1   7 27.3163 2.44872   2
  -1  -1   7 23.8700 2.41606   2
  -1  -1   7 50.5326 4.81983   1
  -1  -1   7 48.9512 4.45829   1
  -1  -1   7 49.9473 4.44821   1
  -1  -1   7 41.2491 4.13622   3
  -1  -1   7 44.9240 4.15054   3
  -1  -1   7 42.9571 4.48122   3
  -1  -1   7 87.2275 9.82181  -3
  -1  -1   7 87.2275 9.82181   1
   0   1  -7 164.663 18.1419   3
   0   1  -7 168.393 15.9544   3
   0   1  -7 106.163 11.5395   2
   0   1  -7 102.403 10.1396   2
   0   1  -7 194.156 20.5857   1
   0   1  -7 180.883 18.0925   1
   0  -1   7 108.540 11.0108   2
   0  -1   7 101.144 10.1224   2
   0  -1   7 111.539 12.0134   2
   0  -1   7 114.575 10.1427   2
   0  -1   7 170.508 18.9148   3
   0  -1   7 170.476 15.9652   3
   0  -1   7 175.673 15.9827   3
   0  -1   7 169.503 17.3835   3
   0  -1   7 208.709 18.1318   1
   0  -1   7 195.442 21.4576   1
   0  -1   7 187.367 19.7196   1
  -1   1  -7 91.9963 10.8932   1
  -1   1  -7 114.665 9.57421   1
  -1   1  -7 86.0489 8.36890   3
  -1   1  -7 89.3386 9.53103   3
  -1   1  -7 54.4837 6.35662   2
  -1   1  -7 54.4187 5.58256   2
   1  -1   7 93.0566 8.40966   3
   1  -1   7 86.1263 9.98069   3
   1  -1   7 58.6777 6.64688   2
   1  -1   7 66.5511 5.60107   2
   1  -1   7 105.554 9.60262   1
   1  -1   7 90.7491 11.3950   1
  -2   1  -7 2.17651 0.64832   3
  -2   1  -7 1.49781 0.87925   3
  -2   1  -7 1.54659 0.50772   2
  -2   1  -7 1.03855 0.93948   2
  -2   1  -7 2.35424 0.52500   1
  -2   1  -7 1.92603 0.79062   1
   2  -1   7 1.32933 1.06189   1
   2  -1   7 1.94612 0.83708   1
   2  -1   7 2.32586 0.81446   1
   2  -1   7 3.47372 1.11386   3
   2  -1   7 2.08475 0.79730   3
   2  -1   7 1.31772 0.80015   3
   2  -1   7 0.63155 0.68505   2
   2  -1   7 1.15226 0.96620   2
   2  -1   7 1.43794 0.94087   2
  -3   1  -7 12.6153 1.44432   2
  -3   1  -7 27.0662 2.85796   1
  -3   1  -7 18.8127 2.20266   1
  -3   1  -7 27.5827 2.59038   3
  -3   1  -7 26.3489 3.00214   3
   3  -1   7 24.9231 2.64402   3
   3  -1   7 19.6411 2.97949   3
   3  -1   7 25.2812 3.25988   3
   3  -1   7 15.4190 1.62529   2
   3  -1   7 12.5685 1.96972   2
   3  -1   7 10.7483 2.06019   2
   3  -1   7 23.8967 3.00021   1
   3  -1   7 25.6398 2.45232   1
   3  -1   7 22.4661 2.82320   1
  -4   1  -7 30.4433 3.22288   1
  -4   1  -7 36.3695 3.75559   3
   4  -1   7 22.4530 2.39857   2
   4  -1   7 19.4252 2.82672   2
   4  -1   7 39.1143 4.18960   1
   4  -1   7 36.6419 3.56572   1
   4  -1   7 37.0713 4.54829   3
   4  -1   7 41.0002 4.05574   3
   5   0  -7 2.39435 1.21507   1
   5   0  -7 1.37533 1.50201   1
   5   0  -7 0.91547 1.34880   3
   5   0  -7 0.62495 1.55819   3
   5   0  -7 0.27249 1.44157   2
  -5   0   7 1.15823 1.28275   2
  -5   0   7 -0.6507 0.88819   2
  -5   0   7 -0.9315 0.93091   3
  -5   0   7 0.00251 1.33579   3
  -5   0   7 0.61749 1.24368   1
  -5   0   7 2.25930 0.89718   1
   4   0  -7 8.92426 1.66076   2
   4   0  -7 7.72637 1.29082   2
   4   0  -7 11.7591 1.78446   3
   4   0  -7 15.1702 2.13133   3
   4   0  -7 5.09811 1.36022   1
   4   0  -7 15.5649 1.85951   1
  -4   0   7 9.47482 1.17435   2
  -4   0   7 8.72596 1.38714   2
  -4   0   7 9.82730 1.58967   1
  -4   0   7 16.9110 1.42307   1
  -4   0   7 15.0581 1.90804   3
  -4   0   7 15.4076 1.67701   3
   3   0  -7 4.03606 0.80164   1
   3   0  -7 3.09183 0.87278   1
   3   0  -7 1.92503 0.98255   2
   3   0  -7 0.45863 0.63169   2
   3   0  -7 1.16553 0.94151   3
   3   0  -7 0.96558 0.74385   3
  -3   0   7 2.27313 0.69207   1
  -3   0   7 3.65829 0.86054   1
  -3   0   7 0.63877 0.52769   2
  -3   0   7 0.41603 0.67585   2
  -3   0   7 1.92544 0.78280   3
  -3   0   7 1.83832 0.65730   3
   2   0  -7 56.9320 4.89279   3
   2   0  -7 49.6609 5.51569   3
   2   0  -7 55.1061 4.88223   3
   2   0  -7 82.1512 7.36984   1
   2   0  -7 72.4027 7.35429   1
   2   0  -7 73.1946 8.35490   1
   2   0  -7 35.4579 3.86773   2
   2   0  -7 33.2373 3.35493   2
   2   0  -7 33.2281 3.39632   2
  -2   0   7 49.7550 4.85551   3
  -2   0   7 43.1743 5.29334   3
  -2   0   7 50.1857 5.71080   3
  -2   0   7 35.5796 3.94517   2
  -2   0   7 33.7982 3.31834   2
  -2   0   7 33.1560 3.63702   2
  -2   0   7 74.5315 7.33438   1
  -2   0   7 77.6551 8.00677   1
  -2   0   7 84.2942 8.69176   1
   1   0  -7 8.75980 1.21404   2
   1   0  -7 6.55482 1.03520   2
   1   0  -7 8.19384 1.02869   2
   1   0  -7 24.1285 2.46078   1
   1   0  -7 25.4795 2.45799   1
   1   0  -7 20.9662 2.72565   1
   1   0  -7 14.4727 1.56505   3
   1   0  -7 13.1425 1.75457   3
   1   0  -7 13.2518 1.58226   3
  -1   0   7 12.1579 1.53327   3
  -1   0   7 16.8105 1.72740   3
  -1   0   7 16.2953 1.58695   3
  -1   0   7 17.5834 1.88177   3
  -1   0   7 25.9065 2.92387   1
  -1   0   7 27.5141 2.43946   1
  -1   0   7 25.4002 2.61295   1
  -1   0   7 20.6238 2.43097   1
  -1   0   7 8.00002 1.05803   2
  -1   0   7 11.0095 1.25004   2
  -1   0   7 9.79816 1.02561   2
  -1   0   7 7.62760 0.98982   2
   0   0  -7 15.6985 1.91270   2
   0   0  -7 16.5902 1.70291   2
   0   0  -7 14.3062 1.63802   2
   0   0  -7 24.4553 2.60542   3
   0   0  -7 30.5964 2.67369   3
   0   0  -7 25.2887 2.91855   3
   0   0   7 17.3036 1.68444   2
   0   0   7 18.0320 2.06302   2
   0   0   7 14.3404 1.60066   2
   0   0   7 14.8690 1.69699   2
   0   0   7 24.7762 2.77506   3
   0   0   7 26.3028 3.14939   3
   0   0   7 25.3723 2.64011   3
   0   0   7 27.8806 2.62331   3
   0   0   7 44.1522 5.09016   1
  -1   0  -7 18.2573 1.78133   1
  -1   0  -7 15.2499 2.05851   1
  -1   0  -7 15.7247 1.95101   3
  -1   0  -7 16.4502 1.70783   3
  -1   0  -7 8.30223 1.03382   2
  -1   0  -7 9.63628 1.23439   2
   1   0   7 20.3999 1.84361   3
   1   0   7 14.1395 2.09523   3
   1   0   7 19.0832 1.89916   1
   1   0   7 16.6827 2.23595   1
   1   0   7 7.27178 1.04240   2
   1   0   7 7.08097 1.25591   2
  -2   0  -7 3.55387 1.01955   2
  -2   0  -7 2.93396 0.66337   2
  -2   0  -7 5.42505 1.09470   1
  -2   0  -7 5.28262 0.84432   1
  -2   0  -7 5.78565 1.06936   3
  -2   0  -7 6.05791 0.88517   3
   2   0   7 2.86773 0.81150   2
   2   0   7 3.17826 1.01743   2
   2   0   7 2.48009 1.09685   2
   2   0   7 5.52585 1.14719   1
   2   0   7 6.02339 0.94744   1
   2   0   7 5.44055 1.29857   1
   2   0   7 2.93037 1.30153   3
   2   0   7 4.58034 0.98587   3
   2   0   7 6.51088 1.16212   3
  -3   0  -7 18.3266 2.19775   1
  -3   0  -7 21.9676 2.59838   3
  -3   0  -7 7.43586 1.18345   2
   3   0   7 28.7464 3.30367   3
   3   0   7 28.9554 3.12261   3
   3   0   7 23.4369 2.67716   3
   3   0   7 25.1495 2.35915   1
   3   0   7 23.5600 2.94929   1
   3   0   7 23.2928 2.77021   1
   3   0   7 10.5916 1.66126   2
   3   0   7 13.4787 1.84019   2
   3   0   7 14.5311 1.47560   2
  -4   0  -7 0.82598 0.79435   2
  -4   0  -7 2.17236 0.80097   1
  -4   0  -7 4.30171 0.90366   3
   4   0   7 3.65074 1.56514   1
   4   0   7 3.90055 1.24949   1
   4   0   7 0.74783 1.18311   2
   4   0   7 0.17885 1.64598   2
   4   0   7 2.51623 1.43429   3
   4   0   7 1.67072 1.61649   3
   5  -1  -7 11.3744 1.77421   3
   5  -1  -7 11.9992 2.07712   3
   5  -1  -7 4.75049 1.19461   2
   5  -1  -7 4.95147 1.76927   2
   5  -1  -7 6.86363 1.61353   1
   5  -1  -7 10.4808 2.07823   1
  -5   1   7 5.16831 1.40467   2
  -5   1   7 6.34450 1.08118   2
  -5   1   7 12.0577 1.42238   3
  -5   1   7 6.06644 1.74188   3
  -5   1   7 18.7457 1.56452   1
  -5   1   7 10.0664 1.87982   1
   4  -1  -7 0.33232 0.90220   3
   4  -1  -7 -0.1068 1.18474   3
   4  -1  -7 -0.3989 0.79356   2
   4  -1  -7 -0.3016 1.17140   2
   4  -1  -7 6.41246 1.33239   1
   4  -1  -7 4.57158 1.01277   1
  -4   1   7 4.96139 1.21727   1
  -4   1   7 5.66791 0.90014   1
  -4   1   7 0.72737 0.65819   2
  -4   1   7 0.47435 0.86494   2
  -4   1   7 0.12504 0.89567   3
  -4   1   7 0.55417 0.72750   3
   3  -1  -7 36.7542 3.81886   1
   3  -1  -7 35.4747 4.31998   1
   3  -1  -7 32.0679 3.89627   3
   3  -1  -7 32.6098 3.45506   3
   3  -1  -7 23.1324 2.73939   2
   3  -1  -7 20.6174 2.37030   2
  -3   1   7 39.2189 3.77093   3
  -3   1   7 33.4939 3.38322   3
  -3   1   7 42.3290 4.15077   1
  -3   1   7 39.7397 3.76916   1
  -3   1   7 22.6702 2.30987   2
  -3   1   7 22.9420 2.52357   2
   2  -1  -7 52.3371 5.83367   1
   2  -1  -7 54.3012 5.16215   1
   2  -1  -7 50.9278 5.17789   1
   2  -1  -7 11.2275 1.35653   2
   2  -1  -7 10.9075 1.29670   2
   2  -1  -7 11.3697 1.54948   2
   2  -1  -7 24.8661 2.11453   3
   2  -1  -7 16.2341 2.27800   3
  -2   1   7 56.5229 6.09651   1
  -2   1   7 53.1521 5.61381   1
  -2   1   7 54.0131 5.12627   1
  -2   1   7 14.9889 1.60480   2
  -2   1   7 10.1823 1.25553   2
  -2   1   7 11.3470 1.45983   2
  -2   1   7 17.1099 2.23179   3
  -2   1   7 19.8909 2.45449   3
  -2   1   7 22.3917 2.04745   3
   1  -1  -7 34.9257 3.15281   1
   1  -1  -7 29.7870 3.50048   1
   1  -1  -7 30.8335 3.14252   1
   1  -1  -7 20.7274 1.95086   2
   1  -1  -7 18.5379 2.20553   2
   1  -1  -7 19.0609 2.02311   2
   1  -1  -7 28.6220 3.03018   3
   1  -1  -7 29.7621 3.06174   3
   1  -1  -7 32.3286 3.38630   3
  -1   1   7 15.7006 1.93389   2
  -1   1   7 17.5431 2.03824   2
  -1   1   7 22.5225 2.35448   2
  -1   1   7 17.0093 1.90277   2
  -1   1   7 32.9252 3.13057   1
  -1   1   7 32.9783 3.35977   1
  -1   1   7 29.6422 3.11565   1
  -1   1   7 68.8217 7.89371  -3
  -1   1   7 68.8217 7.89371   1
  -1   1   7 29.0415 3.02301   3
  -1   1   7 30.9088 3.26361   3
  -1   1   7 31.2286 3.03428   3
   0  -1  -7 33.1549 3.13391   3
   0  -1  -7 28.3765 3.06959   3
   0  -1  -7 31.1685 3.40320   3
   0  -1  -7 31.7336 3.47181   1
   0  -1  -7 27.8477 3.09664   1
   0  -1  -7 27.4650 3.07779   1
   0  -1  -7 19.9396 2.12931   2
   0  -1  -7 21.8614 2.15660   2
   0  -1  -7 18.6919 2.39396   2
   0   1   7 28.8796 3.06459   3
   0   1   7 31.7510 3.68346   3
   0   1   7 33.1802 3.07150   3
   0   1   7 29.6999 3.25330   3
   0   1   7 34.0995 3.32596   1
   0   1   7 31.4693 3.11583   1
   0   1   7 31.6348 3.08941   1
   0   1   7 35.5788 3.74703   1
   0   1   7 18.7816 2.12310   2
   0   1   7 22.3155 2.13767   2
   0   1   7 23.0448 2.60878   2
   0   1   7 20.4712 2.23415   2
  -1  -1  -7 238.446 25.8364   2
  -1  -1  -7 242.923 22.7371   2
  -1  -1  -7 377.282 35.3747   3
  -1  -1  -7 367.689 40.2109   3
  -1  -1  -7 382.924 38.3771   1
  -1  -1  -7 400.985 43.6366   1
   1   1   7 246.360 25.8403   2
   1   1   7 223.715 22.7742   2
   1   1   7 250.679 26.9394   2
   1   1   7 248.291 22.7723   2
   1   1   7 388.524 41.9216   3
   1   1   7 369.227 35.4442   3
   1   1   7 386.974 35.3993   3
   1   1   7 417.440 38.4566   1
   1   1   7 417.543 45.4833   1
   1   1   7 436.308 38.4347   1
  -2  -1  -7 0.67794 0.69862   1
  -2  -1  -7 -1.2607 0.79415   1
  -2  -1  -7 1.48026 0.83721   3
  -2  -1  -7 0.39642 0.70888   3
  -2  -1  -7 -0.2794 0.61738   2
   2   1   7 -0.9063 1.09948   3
   2   1   7 0.21287 0.88975   3
   2   1   7 0.72373 0.88754   3
   2   1   7 0.28151 0.99489   2
   2   1   7 -0.0201 0.92971   2
   2   1   7 0.54821 0.83363   2
   2   1   7 -0.4332 1.21138   1
   2   1   7 0.16322 0.86716   1
   2   1   7 -0.5869 0.77301   1
  -3  -1  -7 11.2059 1.73390   2
  -3  -1  -7 24.8619 2.72947   1
  -3  -1  -7 28.8928 3.12974   3
   3   1   7 31.7990 3.89034   3
   3   1   7 28.2106 3.68084   3
   3   1   7 35.1355 3.27421   3
   3   1   7 28.7334 2.90785   1
   3   1   7 28.4616 3.26319   1
   3   1   7 24.1875 3.45144   1
   3   1   7 20.1489 1.94116   2
   3   1   7 14.5559 2.17133   2
   3   1   7 16.6937 2.28174   2
  -4  -1  -7 5.95085 1.17191   3
  -4  -1  -7 6.94463 1.09391   1
  -4  -1  -7 3.03293 1.08076   2
   4   1   7 6.21528 1.80239   1
   4   1   7 9.78439 1.77948   3
   4   1   7 6.34093 1.66742   2
   5  -2  -7 3.38534 1.24605   2
   5  -2  -7 9.34045 1.87102   2
   5  -2  -7 11.5360 2.03641   1
   5  -2  -7 9.73060 1.58467   1
   5  -2  -7 15.5620 2.25129   3
   5  -2  -7 12.0446 1.78385   3
  -5   2   7 12.7439 2.06062   3
  -5   2   7 12.8609 1.56412   3
  -5   2   7 12.7580 1.49445   1
  -5   2   7 15.0537 2.05996   1
  -5   2   7 6.67867 1.03218   2
  -5   2   7 6.47699 1.60656   2
   4  -2  -7 7.11023 1.50595   2
   4  -2  -7 6.99055 1.11609   2
   4  -2  -7 7.48469 1.26142   1
   4  -2  -7 12.9166 1.66092   1
   4  -2  -7 13.5090 1.88526   3
   4  -2  -7 10.6162 1.56880   3
  -4   2   7 12.1352 1.41141   3
  -4   2   7 13.0507 1.82141   3
  -4   2   7 8.71981 1.58546   1
  -4   2   7 10.1366 1.18579   1
  -4   2   7 6.04829 0.95414   2
  -4   2   7 8.26253 1.28788   2
   3  -2  -7 25.8681 3.14626   3
   3  -2  -7 26.2670 2.80514   3
   3  -2  -7 16.9858 1.86119   2
   3  -2  -7 16.1858 2.23731   2
   3  -2  -7 36.8010 4.57630   1
   3  -2  -7 39.1746 4.05205   1
  -3   2   7 45.9785 4.44148   1
  -3   2   7 42.5210 3.98877   1
  -3   2   7 17.9645 2.10494   2
  -3   2   7 18.7000 1.84784   2
  -3   2   7 27.8085 2.71878   3
  -3   2   7 27.4243 3.01719   3
   2  -2  -7 1.22485 0.59335   2
   2  -2  -7 0.16750 0.78043   2
   2  -2  -7 123.672 12.8782   1
   2  -2  -7 123.785 11.3597   1
   2  -2  -7 0.38226 0.62397   3
   2  -2  -7 -0.1247 0.65540   3
  -2   2   7 1.11411 0.57072   3
  -2   2   7 0.21147 0.71826   3
  -2   2   7 0.00047 0.65832   3
  -2   2   7 121.079 11.3221   1
  -2   2   7 104.600 12.3643   1
  -2   2   7 129.013 13.4422   1
  -2   2   7 1.45246 0.48368   2
  -2   2   7 0.91950 0.60023   2
  -2   2   7 1.71193 0.73445   2
   1  -2  -7 4.20889 0.81634   1
   1  -2  -7 3.85664 0.83269   1
   1  -2  -7 6.57092 0.88335   1
   1  -2  -7 3.73469 0.74904   3
   1  -2  -7 4.81494 0.76342   3
   1  -2  -7 4.61196 0.84256   3
   1  -2  -7 2.74594 0.71663   2
   1  -2  -7 3.15693 0.65557   2
   1  -2  -7 1.52195 0.62859   2
  -1   2   7 5.00733 0.83846   3
  -1   2   7 3.44008 0.74497   3
  -1   2   7 3.15074 0.82266   3
  -1   2   7 1.56027 0.58976   2
  -1   2   7 2.33853 0.82802   2
  -1   2   7 7.11565 1.48435  -2
  -1   2   7 7.11565 1.48435   1
  -1   2   7 6.27777 0.92419   1
  -1   2   7 5.77069 1.07895   1
   0  -2  -7 57.4619 5.64623   3
   0  -2  -7 55.7437 5.60963   3
   0  -2  -7 58.8449 6.29557   3
   0  -2  -7 75.9592 6.95573   1
   0  -2  -7 78.7474 6.95464   1
   0  -2  -7 70.2260 7.84482   1
   0  -2  -7 35.8744 3.96311   2
   0  -2  -7 35.4788 3.61636   2
   0  -2  -7 34.1951 3.54199   2
   0   2   7 55.4466 5.61354   3
   0   2   7 59.6194 5.63130   3
   0   2   7 59.0083 6.65334   3
   0   2   7 61.7840 6.08874   3
   0   2   7 77.5906 6.96480   1
   0   2   7 66.2677 7.55122   1
   0   2   7 60.8818 6.94495  -2
   0   2   7 60.8818 6.94495   1
   0   2   7 39.1629 3.81807   2
   0   2   7 34.8982 3.54126   2
  -1  -2  -7 159.194 18.1686   2
  -1  -2  -7 170.593 16.0206   2
  -1  -2  -7 287.324 30.4495   1
  -1  -2  -7 280.846 26.7953   1
  -1  -2  -7 256.499 23.8105   3
  -1  -2  -7 244.785 27.0408   3
   1   2   7 285.721 26.8453   1
   1   2   7 292.013 31.7797   1
   1   2   7 289.051 30.4618   1
   1   2   7 279.039 26.8211   1
   1   2   7 260.339 28.2283   3
   1   2   7 248.049 27.0464   3
   1   2   7 262.408 23.8586   3
   1   2   7 253.289 23.8340   3
   1   2   7 169.207 16.0094   2
   1   2   7 166.701 18.1729   2
   1   2   7 179.378 18.9806   2
   1   2   7 179.031 16.0348   2
  -2  -2  -7 315.662 29.3561   3
  -2  -2  -7 192.178 18.3420   2
  -2  -2  -7 321.595 30.8358   1
   2   2   7 199.769 20.8698   2
   2   2   7 194.734 18.3881   2
   2   2   7 193.199 21.7687   2
   2   2   7 312.301 33.3801   3
   2   2   7 306.525 29.4213   3
   2   2   7 317.346 34.8187   3
   2   2   7 321.371 30.9059   1
   2   2   7 336.047 36.5886   1
   2   2   7 338.017 35.0861   1
  -3  -2  -7 1.44107 0.71511   1
  -3  -2  -7 4.51981 0.95040   3
  -3  -2  -7 0.81417 1.01066   2
   3   2   7 2.15532 1.34235   2
   3   2   7 0.99432 1.38777   2
   3   2   7 2.99921 1.54170   3
   3   2   7 3.62066 1.52909   3
   3   2   7 3.77719 1.49529   1
   3   2   7 2.14592 1.23977   1
  -4  -2  -7 -0.5279 1.04380   2
  -4  -2  -7 -1.0891 0.84866   1
  -4  -2  -7 -0.1380 1.05635   3
   5  -3  -7 0.69950 1.11999   3
   5  -3  -7 -0.8454 0.98887   2
   5  -3  -7 0.35373 1.04577   1
  -5   3   7 0.51112 1.22284   2
  -5   3   7 -0.0075 0.71189   3
  -5   3   7 -0.9656 1.30185   3
  -5   3   7 0.47522 0.72794   1
  -5   3   7 -0.1889 1.33615   1
   4  -3  -7 7.09635 1.11475   2
   4  -3  -7 18.2410 2.80978   3
   4  -3  -7 14.1857 1.83510   3
   4  -3  -7 16.6306 1.77691   1
  -4   3   7 19.1146 1.71353   3
  -4   3   7 10.3343 2.07398   3
  -4   3   7 17.2772 2.04573   1
  -4   3   7 13.2877 1.61717   1
  -4   3   7 9.16061 1.02754   2
  -4   3   7 6.05577 1.35864   2
   3  -3  -7 78.4427 8.30940   1
   3  -3  -7 18.3650 1.86851   2
   3  -3  -7 29.2850 3.07775   3
  -3   3   7 91.1918 9.07692   1
  -3   3   7 91.4541 8.26074   1
  -3   3   7 29.4769 3.37756   3
  -3   3   7 31.8117 3.01777   3
  -3   3   7 18.3941 2.10585   2
  -3   3   7 15.6376 1.82136   2
   2  -3  -7 110.587 10.0443   3
   2  -3  -7 247.382 23.8383   1
   2  -3  -7 67.7930 6.79545   2
  -2   3   7 73.7829 6.75041   2
  -2   3   7 67.1248 7.38965   2
  -2   3   7 75.7148 8.03787   2
  -2   3   7 108.048 11.8445   3
  -2   3   7 100.070 9.98594   3
  -2   3   7 106.101 10.9455   3
  -2   3   7 250.026 25.9804   1
  -2   3   7 259.162 28.1882   1
  -2   3   7 257.250 23.7829   1
   1  -3  -7 0.70264 0.72958   3
   1  -3  -7 2.04168 0.68666   2
  -1   3   7 -0.0675 0.67504   2
  -1   3   7 1.00857 0.52903   2
  -1   3   7 3.54508 0.82954   2
  -1   3   7 2.05294 0.81310   3
  -1   3   7 2.83976 0.67632   3
  -1   3   7 1.84402 0.81673   3
   0  -3  -7 3.40562 0.79576   1
   0  -3  -7 4.73587 0.83094   1
   0  -3  -7 1.93492 0.74217   2
   0  -3  -7 2.69924 0.85954   2
   0  -3  -7 4.58938 0.85964   3
   0  -3  -7 4.37562 0.94614   3
   0   3   7 1.59303 0.70429   2
   0   3   7 4.65100 1.54970  -2
   0   3   7 4.65100 1.54970   1
   0   3   7 3.00104 1.08911  -2
   0   3   7 3.00104 1.08911   1
   0   3   7 3.44132 0.86778   3
   0   3   7 2.63550 0.94041   3
   0   3   7 4.00789 0.93130   3
   0   3   7 3.69052 0.87787   1
  -1  -3  -7 16.2621 1.93287   3
  -1  -3  -7 17.3088 1.85382   1
  -1  -3  -7 11.7894 1.48134   2
   1   3   7 16.8079 2.03953   3
   1   3   7 21.4047 2.44081   3
   1   3   7 16.4168 1.94436   1
   1   3   7 16.5271 2.33992   1
   1   3   7 11.0726 1.37523   2
   1   3   7 10.3646 1.69665   2
  -2  -3  -7 102.559 9.71089   3
  -2  -3  -7 61.7211 6.16958   2
  -2  -3  -7 100.803 9.35872   1
   2   3   7 101.350 11.5658   3
   2   3   7 66.1218 7.37209   2
   2   3   7 94.9802 11.1741   1
  -3  -3  -7 -0.6864 0.73708   1
  -3  -3  -7 0.69141 1.13080   2
  -3  -3  -7 0.54702 0.94247   3
   3   3   7 -0.7241 1.54613   2
   3   3   7 0.87633 1.69318   1
   3   3   7 -0.9856 1.52784   3
  -4  -3  -7 1.53749 1.23665   3
  -4  -3  -7 1.93800 1.19214   2
  -4  -3  -7 2.27152 1.04126   1
   5  -4  -7 1.77770 1.04651   1
   5  -4  -7 0.00588 1.13958   3
   5  -4  -7 1.16278 1.04503   2
  -5   4   7 -0.4293 0.66059   1
  -5   4   7 1.20810 1.58084   1
  -5   4   7 -0.5972 1.37393   3
  -5   4   7 -0.6498 1.37947   2
  -5   4   7 -0.0951 0.74042   2
   4  -4  -7 80.4643 8.27036   3
   4  -4  -7 49.2673 4.89395   2
   4  -4  -7 90.8371 8.50651   1
  -4   4   7 94.9584 9.04922   3
  -4   4   7 84.9683 8.14979   3
  -4   4   7 96.4372 9.30929   1
  -4   4   7 83.7104 8.39930   1
  -4   4   7 52.9148 5.32502   2
  -4   4   7 47.9633 4.77986   2
   3  -4  -7 47.7514 4.93167   1
   3  -4  -7 28.5118 2.73609   2
   3  -4  -7 50.8278 5.14314   3
  -3   4   7 56.4927 5.59775   3
  -3   4   7 51.1516 5.04439   3
  -3   4   7 25.9669 2.61428   2
  -3   4   7 24.5881 2.90855   2
  -3   4   7 53.9543 4.86004   1
  -3   4   7 48.5670 5.37936   1
   2  -4  -7 108.409 10.1802   3
   2  -4  -7 147.969 14.1001   1
   2  -4  -7 66.9989 6.22010   2
  -2   4   7 103.908 10.1094   3
  -2   4   7 111.091 11.1003   3
  -2   4   7 106.531 11.9957   3
  -2   4   7 62.8677 7.35013   2
  -2   4   7 62.5171 6.15321   2
  -2   4   7 67.8775 6.77496   2
  -2   4   7 146.774 14.0473   1
  -2   4   7 146.232 16.6787   1
  -2   4   7 157.748 15.3907   1
   1  -4  -7 1.45284 0.74511   3
   1  -4  -7 1.47544 0.75748   2
  -1   4   7 1.61133 0.80834   3
  -1   4   7 0.17691 0.65410   3
  -1   4   7 -0.0130 0.85690   3
  -1   4   7 86.7876 7.62234  -2
  -1   4   7 86.7876 7.62234   1
  -1   4   7 71.6700 8.33443  -2
  -1   4   7 71.6700 8.33443   1
  -1   4   7 1.91510 0.95003   1
  -1   4   7 3.14284 0.85242   2
   0  -4  -7 1.50581 0.94054   3
   0  -4  -7 -0.0046 0.81094   2
   0  -4  -7 0.77211 0.70538   2
   0  -4  -7 2.28969 0.80832   1
   0   4   7 1.30997 0.77362   1
   0   4   7 1.99784 0.77071   3
   0   4   7 0.54670 0.85355   3
   0   4   7 1.21869 1.00969   3
   0   4   7 0.02766 1.54243  -2
   0   4   7 0.02766 1.54243   1
   0   4   7 0.14606 1.33612  -2
   0   4   7 0.14606 1.33612   1
   0   4   7 0.25912 0.74500   2
  -1  -4  -7 159.462 15.1239  -2
  -1  -4  -7 159.462 15.1239   1
  -1  -4  -7 88.3798 8.96035   3
   1   4   7 69.5936 6.40487   2
   1   4   7 63.2489 7.58331   2
   1   4   7 100.975 8.97118   3
   1   4   7 92.4057 10.5987   3
   1   4   7 105.266 9.83216   1
   1   4   7 101.149 11.6910   1
  -2  -4  -7 1.53084 1.03148   1
  -2  -4  -7 0.47526 0.94018   2
  -2  -4  -7 -0.2365 1.01915   3
   2   4   7 0.08971 1.40397   1
   2   4   7 0.43299 1.25616   2
   2   4   7 -1.0524 1.34732   3
  -3  -4  -7 0.94308 0.87618   1
  -3  -4  -7 0.16515 1.28683   2
  -3  -4  -7 0.26956 1.08344   3
   3   4   7 -0.2120 1.70676   2
   3   4   7 0.89830 1.71684   1
   3   4   7 -0.4450 1.79338   3
   5  -5  -7 -0.3437 1.19123   3
   5  -5  -7 7.36706 1.26644   1
   5  -5  -7 0.62346 1.08350   2
  -5   5   7 2.99931 1.27071   2
  -5   5   7 0.28372 0.63954   2
  -5   5   7 4.49884 1.58935   1
  -5   5   7 -0.6319 1.63879   3
   4  -5  -7 -0.7397 0.91901   3
   4  -5  -7 0.81277 0.86445   1
   4  -5  -7 -0.0251 0.80988   2
  -4   5   7 0.63447 1.11038   1
  -4   5   7 0.47855 0.62033   1
  -4   5   7 -0.2551 1.10831   3
  -4   5   7 -0.8330 0.92012   2
  -4   5   7 0.03088 0.55141   2
   3  -5  -7 20.9536 2.16360   2
   3  -5  -7 41.9179 4.32393   1
   3  -5  -7 32.1697 3.42213   3
  -3   5   7 31.2318 3.69949   3
  -3   5   7 34.4918 3.26381   3
  -3   5   7 18.3504 2.44158   2
  -3   5   7 21.1639 2.11488   2
  -3   5   7 42.5630 4.23073   1
  -3   5   7 47.3370 4.74096   1
   2  -5  -7 6.15076 0.87238   2
   2  -5  -7 0.52077 0.85455   3
  -2   5   7 0.59567 0.95040   3
  -2   5   7 1.47320 1.05875   3
  -2   5   7 0.74426 0.61767   3
  -2   5   7 3.03803 0.98260   2
  -2   5   7 7.49201 1.20087   2
   1  -5  -7 45.3745 4.69726   3
   1  -5  -7 81.9532 8.38345  -2
   1  -5  -7 81.9532 8.38345   1
  -1   5   7 50.3903 4.59571   3
  -1   5   7 48.8406 5.05577   3
  -1   5   7 43.3518 5.49280   3
  -1   5   7 86.8858 8.34803  -2
  -1   5   7 86.8858 8.34803   1
  -1   5   7 92.2758 10.0052  -2
  -1   5   7 92.2758 10.0052   1
  -1   5   7 89.9572 9.14498  -2
  -1   5   7 89.9572 9.14498   1
   0  -5  -7 0.29993 0.87507   3
   0  -5  -7 0.08698 1.03815   3
   0  -5  -7 0.31346 1.65952  -2
   0  -5  -7 0.31346 1.65952   1
   0  -5  -7 -0.8448 0.75972   2
   0  -5  -7 -0.7376 0.79941   1
   0   5   7 0.73004 0.96474   1
   0   5   7 1.66624 1.08420   3
   0   5   7 0.40952 1.01724   3
   0   5   7 0.96725 0.74667   3
   0   5   7 3.42988 1.85353  -2
   0   5   7 3.42988 1.85353   1
   0   5   7 0.53278 1.46349  -2
   0   5   7 0.53278 1.46349   1
   0   5   7 1.30482 0.85113   2
   1   5   7 118.829 11.3540  -2
   1   5   7 118.829 11.3540   1
   1   5   7 67.0950 6.46488   3
   1   5   7 65.5785 7.69923   3
   1   5   7 73.1412 8.43807   1
   1   5   7 44.8835 5.39281   2
   2   5   7 0.35348 1.47524   3
   2   5   7 -2.1610 1.44378   1
   2   5   7 -4.2571 1.45167   2
  -3  -5  -7 1.00518 1.53720   2
  -3  -5  -7 2.23938 1.07165   1
  -3  -5  -7 2.59295 1.26802   3
   3   5   7 3.18773 1.98292   3
   3   5   7 1.88166 1.95610   1
   3   5   7 2.45080 1.92566   2
   5  -6  -7 4.85222 1.34198   1
   5  -6  -7 7.53075 1.48167   3
   5  -6  -7 3.69905 1.15657   2
  -5   6   7 2.92138 1.69857   3
  -5   6   7 9.26472 1.86181   1
  -5   6   7 3.34700 1.48712   2
   4  -6  -7 5.20540 1.18112   3
   4  -6  -7 0.99246 0.87605   2
   4  -6  -7 3.32766 1.03462   1
  -4   6   7 1.57332 0.57018   2
  -4   6   7 1.42542 1.23042   2
  -4   6   7 4.22856 1.42982   3
  -4   6   7 6.63464 1.44636   1
   3  -6  -7 115.702 11.9327   1
   3  -6  -7 73.8284 6.87837   3
   3  -6  -7 43.7868 4.39058   2
  -3   6   7 136.339 13.0657   1
  -3   6   7 126.827 11.8373   1
  -3   6   7 71.0901 7.52953   3
  -3   6   7 69.6186 6.72066   3
  -3   6   7 43.8369 4.73835   2
  -3   6   7 44.3875 4.24680   2
   2  -6  -7 1.47121 0.87489   3
   2  -6  -7 2.91070 0.90400   1
   2  -6  -7 0.10641 0.72001   2
  -2   6   7 2.67034 1.23501   1
  -2   6   7 2.68964 0.67554   1
  -2   6   7 3.68823 1.19508   1
  -2   6   7 1.55446 0.63768   3
  -2   6   7 1.46661 1.12953   3
  -2   6   7 1.48053 1.13831   3
  -2   6   7 -0.2960 1.10511   2
  -2   6   7 1.22883 0.62810   2
  -2   6   7 1.35036 0.97193   2
   1  -6  -7 37.4396 4.04148  -2
   1  -6  -7 37.4396 4.04148   1
   1  -6  -7 28.7386 2.79419   3
  -1   6   7 30.5279 3.09820   3
  -1   6   7 23.4065 2.65934   3
  -1   6   7 22.5306 3.21995   3
  -1   6   7 37.1202 3.91832  -2
  -1   6   7 37.1202 3.91832   1
  -1   6   7 39.3923 4.96205  -2
  -1   6   7 39.3923 4.96205   1
  -1   6   7 44.5788 4.46597  -2
  -1   6   7 44.5788 4.46597   1
   0  -6  -7 211.931 21.1787  -2
   0  -6  -7 211.931 21.1787   1
   0  -6  -7 110.711 11.6645   3
   0  -6  -7 112.227 10.7477   3
   0   6   7 120.570 11.6929   3
   0   6   7 107.499 12.6646   3
   0   6   7 111.710 10.6684   3
   0   6   7 188.752 19.3756  -2
   0   6   7 188.752 19.3756   1
   0   6   7 202.335 23.0217  -2
   0   6   7 202.335 23.0217   1
   0   6   7 223.438 21.1978  -2
   0   6   7 223.438 21.1978   1
   1   6   7 10.7350 2.35361  -2
   1   6   7 10.7350 2.35361   1
   1   6   7 8.09390 3.11583  -2
   1   6   7 8.09390 3.11583   1
   1   6   7 5.78690 1.56281   3
   1   6   7 8.06696 1.30297   3
   2   6   7 1.09229 1.41199   3
   2   6   7 0.43955 1.59839   3
   2   6   7 1.73745 1.58084   2
   2   6   7 0.33098 1.26561   2
   2   6   7 -1.2212 1.67630   1
   2   6   7 1.17376 1.75832   1
   3   6   7 0.90497 2.18847   2
   3   6   7 0.27811 2.31530   1
   3   6   7 2.06367 2.30031   3
   5  -7  -7 -0.0437 1.16977   2
   5  -7  -7 0.41846 1.30463   3
   5  -7  -7 1.43108 1.25422   1
  -5   7   7 0.12688 1.87528   1
  -5   7   7 1.66119 1.84642   3
  -5   7   7 1.43899 1.60303   2
   4  -7  -7 9.10626 1.50442   3
   4  -7  -7 16.2548 1.95246   1
   4  -7  -7 4.90239 1.07425   2
  -4   7   7 16.6303 2.34400   1
  -4   7   7 10.7507 1.85114   3
  -4   7   7 3.40081 1.26630   2
   3  -7  -7 2.90889 1.12960   1
   3  -7  -7 3.37439 0.93607   2
   3  -7  -7 4.52344 1.17104   3
  -3   7   7 7.65393 1.64930   1
  -3   7   7 6.76847 0.82731   1
  -3   7   7 2.13885 0.62484   2
  -3   7   7 1.89213 1.10476   2
  -3   7   7 4.17689 1.31488   3
   2  -7  -7 2.93753 1.95058  -2
   2  -7  -7 2.93753 1.95058   1
   2  -7  -7 0.16699 0.89778   3
  -2   7   7 0.03215 0.57501   2
  -2   7   7 1.04108 1.23661   2
  -2   7   7 0.63873 1.06872   2
  -2   7   7 1.23103 1.28536   3
  -2   7   7 0.47599 0.64503   3
  -2   7   7 -0.9378 1.31791   3
  -2   7   7 0.17627 0.60440   1
  -2   7   7 1.34916 1.39077   1
  -2   7   7 -1.4590 1.21020   1
   1  -7  -7 5.76438 1.74821  -2
   1  -7  -7 5.76438 1.74821   1
   1  -7  -7 6.63836 1.29271   3
  -1   7   7 4.59643 1.50481   3
  -1   7   7 2.64845 1.43391   3
  -1   7   7 5.96381 0.97026   3
  -1   7   7 9.67022 1.57437  -2
  -1   7   7 9.67022 1.57437   1
  -1   7   7 10.2847 2.41474  -2
  -1   7   7 10.2847 2.41474   1
  -1   7   7 7.78938 2.11432  -2
  -1   7   7 7.78938 2.11432   1
   0  -7  -7 -0.9381 1.64368  -2
   0  -7  -7 -0.9381 1.64368   1
   0  -7  -7 0.89592 1.13542   3
   0   7   7 -0.8239 0.88135   3
   0   7   7 0.37199 1.35618   3
   0   7   7 -0.4974 1.22971   3
   0   7   7 1.56917 1.58870  -2
   0   7   7 1.56917 1.58870   1
   0   7   7 -0.4061 2.04362  -2
   0   7   7 -0.4061 2.04362   1
   1   7   7 4.43261 2.25931  -2
   1   7   7 4.43261 2.25931   1
   1   7   7 3.12855 3.12639  -2
   1   7   7 3.12855 3.12639   1
   1   7   7 2.05869 1.49028   3
   1   7   7 0.47339 1.13009   3
   2   7   7 5.04484 1.62698   3
   2   7   7 3.38678 2.05256   3
   2   7   7 3.34050 1.55631   1
   2   7   7 2.35237 1.91047   1
   2   7   7 -0.2776 1.89652   2
   2   7   7 2.96980 1.23650   2
   4  -8  -7 34.2534 3.79585   3
   4  -8  -7 66.1948 6.58820   1
   4  -8  -7 16.7791 2.00780   2
  -4   8   7 67.2818 7.24794   1
  -4   8   7 15.2242 2.41912   2
  -4   8   7 39.3428 4.39474   3
   3  -8  -7 244.515 24.0412   1
   3  -8  -7 193.970 18.6484   3
   3  -8  -7 116.470 11.1819   2
  -3   8   7 269.204 26.2833   1
  -3   8   7 201.374 20.4009   3
  -3   8   7 119.098 12.2508   2
   2  -8  -7 1.77949 1.84485  -2
   2  -8  -7 1.77949 1.84485   1
   2  -8  -7 1.87795 1.14889   3
  -2   8   7 2.32073 1.49849   3
  -2   8   7 0.95952 0.69984   3
  -2   8   7 1.11364 1.31783   3
  -2   8   7 -0.1351 1.36714   2
  -2   8   7 0.44509 0.65115   2
  -2   8   7 0.59047 1.22428   2
  -2   8   7 2.82401 1.57404   1
  -2   8   7 0.76547 1.34997   1
  -2   8   7 1.10825 0.71116   1
   1  -8  -7 -0.9758 1.66350  -2
   1  -8  -7 -0.9758 1.66350   1
   1  -8  -7 -0.0621 2.01271  -2
   1  -8  -7 -0.0621 2.01271   1
   1  -8  -7 2.31193 1.23148   3
  -1   8   7 1.92877 1.48871   3
  -1   8   7 2.59939 1.42465   3
  -1   8   7 0.61555 0.80897   3
  -1   8   7 1.62249 1.39706  -2
  -1   8   7 1.62249 1.39706   1
  -1   8   7 2.17168 2.09744  -2
  -1   8   7 2.17168 2.09744   1
  -1   8   7 1.73788 2.39214  -2
  -1   8   7 1.73788 2.39214   1
   0  -8  -7 12.4529 2.28457  -2
   0  -8  -7 12.4529 2.28457   1
   0  -8  -7 11.7737 1.55341   3
   0  -8  -7 7.02869 1.59496   3
   0   8   7 7.40272 1.35274   3
   0   8   7 8.65819 1.94899   3
   0   8   7 7.52169 1.66589   3
   0   8   7 12.1823 2.03897  -2
   0   8   7 12.1823 2.03897   1
   0   8   7 14.3833 2.74459  -2
   0   8   7 14.3833 2.74459   1
   1   8   7 66.0857 7.20011  -2
   1   8   7 66.0857 7.20011   1
   1   8   7 47.9331 5.68389  -2
   1   8   7 47.9331 5.68389   1
   1   8   7 33.1688 4.51014   3
   1   8   7 36.3035 3.68427   3
   2   8   7 0.96794 1.58061   1
   2   8   7 0.97894 2.35349   1
   2   8   7 -0.1837 1.53093   3
   2   8   7 0.50825 2.18251   3
   2   8   7 0.61507 1.40506   2
   2   8   7 -3.9316 2.06454   2
   4  -9  -7 7.47844 1.57148   1
   4  -9  -7 0.87848 1.51642   3
   4  -9  -7 0.64310 1.16440   2
  -4   9   7 1.36785 1.81214   3
  -4   9   7 0.69856 1.42894   2
  -4   9   7 10.6942 2.28934   1
   3  -9  -7 38.6006 4.15970   3
   3  -9  -7 19.2792 2.37504   2
   3  -9  -7 35.8291 3.99997   1
  -3   9   7 24.4755 2.76802   2
  -3   9   7 39.0963 4.56613   3
  -3   9   7 41.4742 4.60062   1
   2  -9  -7 37.2510 3.82788   3
   2  -9  -7 46.8193 4.88662  -2
   2  -9  -7 46.8193 4.88662   1
  -2   9   7 28.4320 2.88519   1
  -2   9   7 33.9938 3.85898   1
  -2   9   7 25.4527 3.46658   1
  -2   9   7 18.5895 2.19377   2
  -2   9   7 25.2320 3.01506   2
  -2   9   7 22.9208 2.72132   2
  -2   9   7 32.3171 4.22009   3
  -2   9   7 39.8013 4.76024   3
   1  -9  -7 5.06638 1.54404   3
   1  -9  -7 3.35224 1.63393   3
   1  -9  -7 17.8128 2.74223  -2
   1  -9  -7 17.8128 2.74223   1
   1  -9  -7 16.3060 3.17539  -2
   1  -9  -7 16.3060 3.17539   1
  -1   9   7 2.06850 1.74565   3
  -1   9   7 6.28042 0.99885   3
  -1   9   7 9.26423 1.74070   3
  -1   9   7 22.6821 3.27271  -2
  -1   9   7 22.6821 3.27271   1
  -1   9   7 35.2332 2.66856  -2
  -1   9   7 35.2332 2.66856   1
  -1   9   7 13.0487 3.83635  -2
  -1   9   7 13.0487 3.83635   1
   0  -9  -7 48.9781 5.27986  -2
   0  -9  -7 48.9781 5.27986   1
   0  -9  -7 52.3632 5.67135  -2
   0  -9  -7 52.3632 5.67135   1
   0  -9  -7 29.0854 3.55406   3
   0  -9  -7 35.1395 3.41920   3
   0   9   7 29.6387 4.05324   3
   0   9   7 31.3903 3.71594   3
   0   9   7 27.8192 3.10470   3
   0   9   7 48.0137 5.04318  -2
   0   9   7 48.0137 5.04318   1
   0   9   7 54.0373 6.31506  -2
   0   9   7 54.0373 6.31506   1
   1   9   7 -3.4303 2.43158  -2
   1   9   7 -3.4303 2.43158   1
   1   9   7 -3.0698 3.89717  -2
   1   9   7 -3.0698 3.89717   1
   1   9   7 0.68541 2.06567   3
   1   9   7 1.13623 1.29536   3
   3 -10  -7 1.65689 1.29541   1
   3 -10  -7 3.30888 1.49217   3
   3 -10  -7 2.16500 1.21697   2
  -3  10   7 0.44331 2.04359   3
  -3  10   7 3.75832 2.11767   1
  -3  10   7 0.19618 1.51506   2
   2 -10  -7 129.980 13.2868  -2
   2 -10  -7 129.980 13.2868   1
   2 -10  -7 89.2626 8.75225   3
   2 -10  -7 95.0243 9.78942   1
  -2  10   7 94.8093 10.3294   3
  -2  10   7 83.4845 9.56544   3
  -2  10   7 89.1095 9.80278   1
  -2  10   7 155.777 16.0672  -2
  -2  10   7 155.777 16.0672   1
  -2  10   7 62.0009 6.82483   2
   1 -10  -7 17.2181 3.01855   3
   1 -10  -7 38.8509 4.48860  -2
   1 -10  -7 38.8509 4.48860   1
  -1  10   7 34.6338 3.68169  -2
  -1  10   7 34.6338 3.68169   1
  -1  10   7 37.2669 5.25106  -2
  -1  10   7 37.2669 5.25106   1
  -1  10   7 30.6845 4.56697  -2
  -1  10   7 30.6845 4.56697   1
  -1  10   7 23.0870 2.32758   3
  -1  10   7 25.1929 3.32406   3
  -1  10   7 20.4250 3.01101   3
   0 -10  -7 -0.1397 1.64388   3
   0 -10  -7 -0.9698 1.43979   3
   0 -10  -7 1.25200 2.44739  -2
   0 -10  -7 1.25200 2.44739   1
   0  10   7 0.55292 1.15400   3
   0  10   7 -0.4067 1.95479   3
   0  10   7 -0.8411 3.35118  -2
   0  10   7 -0.8411 3.35118   1
   0  10   7 1.31097 1.82968  -2
   0  10   7 1.31097 1.82968   1
   2 -11  -7 1.26957 1.79468   3
   2 -11  -7 3.32326 2.11151   3
   2 -11  -7 1.00573 1.94402   1
   2 -11  -7 5.51040 2.86062  -2
   2 -11  -7 5.51040 2.86062   1
   2 -11  -7 2.40143 1.83621   2
  -2  11   7 -0.2149 1.89603   2
  -2  11   7 2.33325 4.35957  -2
  -2  11   7 2.33325 4.35957   1
  -2  11   7 1.05841 2.11497   3
  -2  11   7 2.08703 2.34300   3
  -2  11   7 0.26037 2.25604   1
   1 -11  -7 41.5793 4.24035   3
   1 -11  -7 30.8817 4.73973   3
   1 -11  -7 73.3215 7.57321  -2
   1 -11  -7 73.3215 7.57321   1
  -1  11   7 61.4135 6.34016  -2
  -1  11   7 61.4135 6.34016   1
  -1  11   7 70.3313 8.40849  -2
  -1  11   7 70.3313 8.40849   1
  -1  11   7 45.8131 4.94890   3
  -1  11   7 40.2234 3.92661   3
  -1  11   7 39.5614 5.14317   3
   1  13  -8 0.50097 1.98171   1
   1  13  -8 2.51769 2.14749   1
   1  13  -8 -0.3556 2.07825   3
   1  13  -8 0.73564 1.90636   3
   1  13  -8 0.16566 1.99703   2
   1  13  -8 -1.4651 1.92596   2
  -1 -13   8 0.63737 1.92374   3
  -1 -13   8 -0.0524 1.55871   3
  -1 -13   8 0.95033 1.33990   2
  -1 -13   8 -1.0258 1.67201   2
  -1 -13   8 -0.2717 2.20214   2
  -1 -13   8 0.50714 1.74456   1
  -1 -13   8 0.53616 1.38350   1
  -1 -13   8 3.64924 5.94858  -3
  -1 -13   8 3.64924 5.94858   1
   0  13  -8 0.20467 1.78693   3
   0  13  -8 0.22030 2.12329   3
   0  13  -8 -1.2056 1.95911   2
   0  13  -8 0.38399 2.05518   2
   0  13  -8 6.70198 2.29931   1
   0  13  -8 7.88148 2.17415   1
   0 -13   8 8.02728 1.37660   1
   0 -13   8 6.93211 2.36618   1
   0 -13   8 4.33023 1.79845   1
   0 -13   8 0.23082 2.46300   3
   0 -13   8 1.20967 1.23728   3
   0 -13   8 2.43623 1.81275   3
   0 -13   8 1.34877 2.11117   2
   0 -13   8 -0.6265 1.05285   2
  -1  13  -8 7.89149 1.92442   3
  -1  13  -8 6.76016 2.41092   3
  -1  13  -8 1.53580 1.94978   2
  -1  13  -8 1.15603 2.27777   2
  -1  13  -8 35.4610 4.64364   1
  -1  13  -8 33.5803 4.25268   1
   1 -13   8 34.5790 3.65016   1
   1 -13   8 42.3866 6.75477  -3
   1 -13   8 42.3866 6.75477   1
   1 -13   8 0.04167 2.26307   2
   1 -13   8 3.48728 0.94906   2
   1 -13   8 3.66839 1.19087   3
  -2  13  -8 21.1621 3.19414   1
  -2  13  -8 25.9036 3.28206   3
  -2  13  -8 12.3041 2.44315   2
   2 -13   8 21.9720 3.76607   1
   2 -13   8 24.8825 2.51091   1
   2 -13   8 26.5106 3.98126   3
   2 -13   8 22.6195 2.55157   3
   2 -13   8 10.0016 2.87831   2
   2 -13   8 12.9391 1.56387   2
   2  12  -8 8.92607 2.71461   1
   2  12  -8 10.9990 2.77219   1
   2  12  -8 13.2762 1.75261   1
   2  12  -8 17.5081 2.98106   3
   2  12  -8 16.9790 2.01998   3
   2  12  -8 12.7403 3.03128   3
   2  12  -8 8.58287 2.35787   2
   2  12  -8 7.60536 1.21651   2
   2  12  -8 6.42883 2.37201   2
  -2 -12   8 10.3111 2.04599   2
  -2 -12   8 10.5547 1.84294   2
  -2 -12   8 13.7627 2.89975   2
  -2 -12   8 18.4971 3.52775   3
  -2 -12   8 21.5401 2.61376   3
  -2 -12   8 20.6269 2.88596   3
  -2 -12   8 15.3376 3.41566   1
  -2 -12   8 17.8100 2.31525   1
  -2 -12   8 17.8402 2.23774   1
   1  12  -8 2.17744 1.83536   2
   1  12  -8 4.66073 1.65898   2
   1  12  -8 7.34731 2.28428   1
   1  12  -8 14.6887 2.26468   1
   1  12  -8 8.13296 2.02795   3
   1  12  -8 9.13844 2.17603   3
  -1 -12   8 4.24848 1.38574   2
  -1 -12   8 9.10899 2.11340   2
  -1 -12   8 2.83947 1.21409   2
  -1 -12   8 7.80885 1.57985   1
  -1 -12   8 9.15756 1.74642   1
  -1 -12   8 11.3299 1.83107   3
  -1 -12   8 8.59842 1.66928   3
  -1 -12   8 21.9319 5.68655  -3
  -1 -12   8 21.9319 5.68655   1
   0  12  -8 0.86857 1.83794   3
   0  12  -8 -0.0489 1.48698   3
   0  12  -8 4.69750 1.76354   1
   0  12  -8 3.65517 1.95221   1
   0  12  -8 -0.3074 1.77419   2
   0  12  -8 -0.3170 1.77104   2
   0 -12   8 -1.3324 1.26513   3
   0 -12   8 -0.1669 1.00767   3
   0 -12   8 4.64968 1.05978   1
   0 -12   8 2.90905 1.39648   1
   0 -12   8 0.28975 1.94777   2
   0 -12   8 0.49591 0.89910   2
   0 -12   8 1.62544 4.49234  -3
   0 -12   8 1.62544 4.49234   1
  -1  12  -8 10.3939 1.86732   3
  -1  12  -8 9.82056 2.34884   3
  -1  12  -8 5.91048 2.23526   1
  -1  12  -8 10.2393 1.93382   1
  -1  12  -8 5.59142 1.92416   2
  -1  12  -8 5.02142 2.07894   2
   1 -12   8 3.99411 0.94377   2
   1 -12   8 5.12660 2.08167   2
   1 -12   8 7.41394 1.25677   3
   1 -12   8 19.6361 4.72083  -3
   1 -12   8 19.6361 4.72083   1
   1 -12   8 8.07015 1.21593   1
  -2  12  -8 20.7417 2.92297   1
  -2  12  -8 9.51119 2.01992   3
  -2  12  -8 5.65875 1.86027   2
   2 -12   8 28.3872 3.51131   1
   2 -12   8 19.8868 2.24759   1
   2 -12   8 5.63966 1.05050   2
   2 -12   8 7.04608 2.17467   2
   2 -12   8 9.30534 2.63155   3
   2 -12   8 11.9542 1.47063   3
   2  11  -8 39.5015 3.52434   3
   2  11  -8 26.8196 4.30135   3
   2  11  -8 36.3700 4.21497   3
   2  11  -8 24.7210 2.84874   1
   2  11  -8 27.3526 3.78429   1
   2  11  -8 22.5293 3.53023   1
   2  11  -8 11.6506 1.55460   2
   2  11  -8 12.8809 2.39623   2
   2  11  -8 12.4223 2.42527   2
  -2 -11   8 15.1322 1.92531   2
  -2 -11   8 12.6575 2.00750   2
  -2 -11   8 15.8026 2.59309   2
  -2 -11   8 32.2562 3.10088   1
  -2 -11   8 31.2794 3.39956   1
  -2 -11   8 28.9245 3.90038   1
  -2 -11   8 30.5020 3.97433   3
  -2 -11   8 29.3060 3.61601   3
  -2 -11   8 38.4412 4.81148   3
   1  11  -8 40.9429 5.03735   3
   1  11  -8 42.1566 5.41831   3
   1  11  -8 30.9304 4.04057   1
   1  11  -8 31.3313 4.21289   1
   1  11  -8 20.6783 3.02833   2
   1  11  -8 16.8974 3.08734   2
  -1 -11   8 21.3518 3.18339   2
  -1 -11   8 22.7722 2.44387   2
  -1 -11   8 27.9253 2.79501   2
  -1 -11   8 32.9612 4.27889   1
  -1 -11   8 35.0483 3.54439   1
  -1 -11   8 33.6310 3.81373   1
  -1 -11   8 43.4131 5.39079   3
  -1 -11   8 46.7806 4.84922   3
  -1 -11   8 39.5635 4.42452   3
   0  11  -8 23.2822 3.28189   1
   0  11  -8 28.3321 3.13646   1
   0  11  -8 9.59579 2.04442   2
   0  11  -8 7.46464 1.99197   2
   0  11  -8 18.0519 2.89534   3
   0  11  -8 25.9739 3.22593   3
   0 -11   8 25.1885 2.93477   3
   0 -11   8 28.3479 3.37918   3
   0 -11   8 22.5431 2.46894   3
   0 -11   8 20.2169 2.45568   1
   0 -11   8 25.2211 3.34488   1
   0 -11   8 24.8532 2.86335   1
   0 -11   8 9.85534 2.07930   2
   0 -11   8 11.2127 1.31315   2
  -1  11  -8 -0.0631 1.54302   2
  -1  11  -8 -1.0308 1.69474   2
  -1  11  -8 1.68499 1.75494   3
  -1  11  -8 0.50416 1.14693   3
  -1  11  -8 28.5364 3.68589   1
  -1  11  -8 25.6981 3.34343   1
   1 -11   8 25.9589 2.79235   1
   1 -11   8 -0.1101 0.77842   3
   1 -11   8 23.6213 4.45823  -3
   1 -11   8 23.6213 4.45823   1
   1 -11   8 0.15571 1.63714   2
   1 -11   8 0.73248 0.71995   2
  -2  11  -8 2.70336 1.45970   2
  -2  11  -8 11.2393 2.25270   1
  -2  11  -8 4.72530 1.54977   3
   2 -11   8 18.8393 1.84456   1
   2 -11   8 21.0188 2.91084   1
   2 -11   8 8.14207 2.33138   3
   2 -11   8 12.1323 1.25336   3
   2 -11   8 5.05373 0.91974   2
   2 -11   8 3.91048 1.90762   2
  -3  11  -8 64.2057 7.07954   1
  -3  11  -8 61.5603 6.64809   3
  -3  11  -8 26.3299 3.96953   2
   3 -11   8 54.0455 5.58394   3
   3 -11   8 63.3118 7.42904   3
   3 -11   8 34.0529 4.26452   2
   3 -11   8 31.3983 4.10852   2
   3 -11   8 32.4018 3.23521   2
   3 -11   8 63.1225 6.03569   1
   3 -11   8 56.9278 7.71262   1
   3  10  -8 1.36976 2.17114   1
   3  10  -8 2.76476 1.35617   1
   3  10  -8 -0.0193 1.32583   2
   3  10  -8 2.40032 1.84260   2
   3  10  -8 1.46662 1.65553   3
   3  10  -8 0.51007 1.24543   3
  -3 -10   8 2.13487 1.64811   1
  -3 -10   8 -1.1454 1.28798   2
  -3 -10   8 0.47708 1.73655   3
   2  10  -8 18.4307 2.13120   3
   2  10  -8 19.9345 2.74955   3
   2  10  -8 13.3917 2.76891   3
   2  10  -8 5.79179 1.18450   2
   2  10  -8 8.57599 1.92704   2
   2  10  -8 11.1390 1.99311   2
   2  10  -8 16.3736 1.85228   1
   2  10  -8 11.4191 2.43251   1
   2  10  -8 13.1525 2.49187   1
  -2 -10   8 15.8054 2.67746   1
  -2 -10   8 18.3793 2.14846   1
  -2 -10   8 16.8939 2.04149   1
  -2 -10   8 21.5019 2.58873   3
  -2 -10   8 16.8883 2.27465   3
  -2 -10   8 24.9313 3.07635   3
  -2 -10   8 9.55738 2.06605   2
  -2 -10   8 9.19707 1.47066   2
  -2 -10   8 9.07007 1.67382   2
   1  10  -8 55.0145 6.30459   3
   1  10  -8 52.3392 5.01920   3
   1  10  -8 49.5272 5.94545   3
   1  10  -8 50.5208 5.80135   1
   1  10  -8 46.8285 6.18253   1
   1  10  -8 50.6488 4.90314   1
   1  10  -8 26.3520 3.57989   2
   1  10  -8 27.7141 3.48977   2
  -1 -10   8 52.0911 5.64446   3
  -1 -10   8 48.0952 6.42872   3
  -1 -10   8 55.2015 5.22998   3
  -1 -10   8 30.4223 3.16420   2
  -1 -10   8 24.9778 3.57967   2
  -1 -10   8 26.9561 2.94947   2
  -1 -10   8 52.8006 5.07450   1
  -1 -10   8 59.2125 5.51387   1
  -1 -10   8 42.6567 6.19372   1
   0  10  -8 112.122 12.2797   2
   0  10  -8 110.514 12.7764   2
   0  10  -8 399.299 43.9753  -3
   0  10  -8 399.299 43.9753   1
   0  10  -8 185.566 20.5319   1
   0  10  -8 184.398 20.4899   3
   0 -10   8 205.998 19.6599   1
   0 -10   8 182.475 18.0075   1
   0 -10   8 390.107 43.9718  -3
   0 -10   8 390.107 43.9718   1
   0 -10   8 193.086 18.0222   3
   0 -10   8 195.122 19.6626   3
   0 -10   8 110.504 10.6798   2
   0 -10   8 118.969 12.7787   2
  -1  10  -8 7.53714 1.52355   1
  -1  10  -8 5.62975 1.39218   2
  -1  10  -8 5.45249 1.70914   2
  -1  10  -8 7.00078 1.68537   3
   1 -10   8 7.26051 1.69293   2
   1 -10   8 3.17822 0.78392   2
   1 -10   8 17.8766 3.80817  -3
   1 -10   8 17.8766 3.80817   1
   1 -10   8 11.4376 1.28032   3
   1 -10   8 8.68534 1.11889   1
  -2  10  -8 2.11869 1.27110   1
  -2  10  -8 1.89452 1.25568   3
  -2  10  -8 2.49508 1.42881   2
   2 -10   8 2.99963 1.81438   3
   2 -10   8 2.87046 0.79996   3
   2 -10   8 1.54354 1.57856   2
   2 -10   8 1.06555 0.72975   2
   2 -10   8 2.65749 0.81641   1
   2 -10   8 2.93635 1.77186   1
  -3  10  -8 3.07924 1.59358   1
  -3  10  -8 2.03800 1.67813   2
  -3  10  -8 4.56314 1.79577   3
   3 -10   8 6.05156 1.12640   3
   3 -10   8 4.99366 2.08940   3
   3 -10   8 3.41827 1.95006   1
   3 -10   8 4.47094 0.94001   1
   3 -10   8 2.97125 0.90727   2
   3 -10   8 1.88554 1.77105   2
   3 -10   8 3.11624 1.78542   2
   3   9  -8 1.29427 1.63000   3
   3   9  -8 0.73820 1.13148   3
   3   9  -8 2.29737 1.24387   1
   3   9  -8 6.11463 1.89438   1
   3   9  -8 0.82595 1.19102   2
   3   9  -8 0.37967 1.56792   2
  -3  -9   8 2.65184 1.59189   3
  -3  -9   8 0.06905 1.19712   2
  -3  -9   8 0.35669 1.44339   1
   2   9  -8 11.1843 2.11770   2
   2   9  -8 9.56234 2.13667   2
   2   9  -8 12.2367 1.52149   2
   2   9  -8 28.7593 2.87383   1
   2   9  -8 32.4238 3.45729   1
   2   9  -8 26.0349 3.49853   1
   2   9  -8 29.0218 2.85073   3
   2   9  -8 22.6426 3.54169   3
   2   9  -8 25.6243 3.36946   3
  -2  -9   8 13.9698 1.76004   2
  -2  -9   8 14.5626 2.29893   2
  -2  -9   8 13.2106 1.64019   2
  -2  -9   8 23.9620 3.04988   1
  -2  -9   8 23.1570 3.48703   1
  -2  -9   8 24.8732 2.80140   1
  -2  -9   8 22.0994 3.14901   3
  -2  -9   8 32.0903 3.77706   3
  -2  -9   8 34.7866 3.01361   3
   1   9  -8 15.4742 1.67666   2
   1   9  -8 16.9786 2.23195   2
   1   9  -8 14.6606 2.31240   2
   1   9  -8 27.0892 2.92595   3
   1   9  -8 25.7720 3.54501   3
   1   9  -8 31.5826 3.76488   3
   1   9  -8 62.8920 7.01270   1
   1   9  -8 60.4767 6.65578   1
   1   9  -8 58.7821 5.67127   1
  -1  -9   8 59.2083 7.00027   1
  -1  -9   8 59.6007 5.77216   1
  -1  -9   8 57.0820 6.25890   1
  -1  -9   8 35.6195 3.89793   3
  -1  -9   8 29.4070 3.02653   3
  -1  -9   8 30.9205 3.37411   3
  -1  -9   8 18.3063 2.00247   2
  -1  -9   8 12.8966 1.71834   2
  -1  -9   8 15.7694 2.37936   2
   0   9  -8 37.2967 4.55455   2
   0   9  -8 43.4938 4.38069   2
   0   9  -8 72.6822 7.53701   1
   0   9  -8 64.1965 7.54139   3
   0  -9   8 71.5005 7.14487   1
   0  -9   8 62.3259 6.53017   1
   0  -9   8 34.9539 4.52556   2
   0  -9   8 33.5547 3.59132   2
   0  -9   8 76.3240 7.23767   3
   0  -9   8 66.2906 6.62008   3
   0  -9   8 128.157 14.6565  -3
   0  -9   8 128.157 14.6565   1
  -1   9  -8 20.4138 2.64441   1
  -1   9  -8 24.9890 3.06897   3
  -1   9  -8 8.94699 1.66309   2
   1  -9   8 8.45423 1.15611   2
   1  -9   8 14.8660 1.92406   2
   1  -9   8 25.3242 3.33908   3
   1  -9   8 24.6884 2.53337   3
   1  -9   8 21.2394 2.18688   1
   1  -9   8 19.1457 2.84913   1
  -2   9  -8 3.87279 1.25706   3
  -2   9  -8 1.98213 1.32666   2
   2  -9   8 4.64220 0.87754   3
   2  -9   8 5.33970 1.67342   3
   2  -9   8 1.37145 1.49876   2
   2  -9   8 1.82966 0.76884   2
   2  -9   8 23.4791 2.47233   1
  -3   9  -8 12.9433 2.26802   1
  -3   9  -8 5.75037 1.80827   2
  -3   9  -8 17.6269 2.41401   3
   3  -9   8 16.2651 1.71392   1
   3  -9   8 13.4100 2.62603   1
   3  -9   8 8.22714 1.17732   2
   3  -9   8 9.93097 1.96256   2
   3  -9   8 5.82648 2.01418   2
   3  -9   8 11.1896 2.63772   3
   3  -9   8 15.1869 1.72351   3
  -4   9  -8 9.14332 2.08938   1
  -4   9  -8 18.9974 2.83566   3
  -4   9  -8 9.97488 2.34202   2
   4  -9   8 10.1264 2.30881   1
   4  -9   8 12.9669 1.49531   1
   4  -9   8 5.94297 2.19490   2
   4  -9   8 9.54719 1.36525   2
   4  -9   8 17.9431 2.14459   3
   4  -9   8 15.1073 2.92871   3
   4   8  -8 -1.0041 1.40359   3
   4   8  -8 -0.0308 1.87588   3
   4   8  -8 0.00727 1.44988   1
   4   8  -8 -1.5535 2.17096   1
   4   8  -8 0.65700 2.29957   2
   4   8  -8 -0.3322 1.41144   2
  -4  -8   8 -1.1720 1.55548   1
  -4  -8   8 -1.5959 1.48637   3
  -4  -8   8 -0.8934 1.48932   2
   3   8  -8 1.50948 1.06587   3
   3   8  -8 2.56298 1.53680   3
   3   8  -8 1.75391 1.45908   1
   3   8  -8 2.68824 1.13979   1
   3   8  -8 0.25035 0.96603   2
   3   8  -8 2.25505 1.58196   2
  -3  -8   8 2.14838 1.41753   3
  -3  -8   8 1.26129 1.25583   2
  -3  -8   8 1.30825 1.14244   1
   2   8  -8 4.34342 1.49010   2
   2   8  -8 3.80640 1.34485   2
   2   8  -8 3.72634 0.89001   2
   2   8  -8 6.49635 1.11243   1
   2   8  -8 6.92211 1.63401   1
   2   8  -8 5.42927 1.65804   1
   2   8  -8 6.20754 1.76765   3
   2   8  -8 8.12396 1.21367   3
   2   8  -8 6.96034 1.63079   3
  -2  -8   8 3.14204 0.99112   2
  -2  -8   8 2.79822 1.05827   2
  -2  -8   8 2.76823 1.38579   2
  -2  -8   8 8.73117 1.85314   3
  -2  -8   8 7.82254 1.51725   3
  -2  -8   8 9.34557 1.35789   3
  -2  -8   8 8.01719 1.20042   1
  -2  -8   8 4.62392 1.16362   1
  -2  -8   8 7.70667 1.79590   1
   1   8  -8 3.75096 1.44381   3
   1   8  -8 3.07082 1.23407   3
   1   8  -8 3.67544 0.73241   3
   1   8  -8 2.66482 1.15541   2
   1   8  -8 0.61444 1.25807   2
   1   8  -8 1.51258 0.59726   2
   1   8  -8 22.4145 2.13608   1
  -1  -8   8 3.78207 0.93152   3
  -1  -8   8 3.78148 1.07192   3
  -1  -8   8 5.39133 1.50687   3
  -1  -8   8 1.27172 0.73689   2
  -1  -8   8 2.93327 0.82704   2
  -1  -8   8 1.78089 1.30714   2
  -1  -8   8 18.3278 2.12342   1
  -1  -8   8 19.3426 2.72087   1
   0   8  -8 9.02548 1.59315   2
   0   8  -8 5.87725 1.29487   2
   0   8  -8 11.6945 1.69346   3
   0   8  -8 11.7937 1.22303   3
   0   8  -8 15.0402 2.12066   1
   0  -8   8 23.8383 3.90126  -3
   0  -8   8 23.8383 3.90126   1
   0  -8   8 12.3292 1.58944   3
   0  -8   8 10.7061 1.37097   3
   0  -8   8 15.3324 1.75662   1
   0  -8   8 18.0599 1.94336   1
   0  -8   8 5.38251 0.88202   2
   0  -8   8 5.32259 1.46828   2
  -1   8  -8 44.6519 5.27261   3
  -1   8  -8 24.3875 3.03228   2
  -1   8  -8 46.1709 5.32512   1
   1  -8   8 49.1108 4.58157   1
   1  -8   8 44.6246 5.68415   1
   1  -8   8 24.6065 2.52505   2
   1  -8   8 25.1986 3.12257   2
   1  -8   8 50.3047 4.61682   3
   1  -8   8 46.5159 5.72661   3
  -2   8  -8 2.95407 1.12902   3
  -2   8  -8 2.43203 1.05604   1
  -2   8  -8 -1.1258 1.18618   2
   2  -8   8 2.02323 1.28219   2
   2  -8   8 0.79569 0.65343   2
   2  -8   8 1.37762 1.44895   1
   2  -8   8 3.99984 0.82796   1
   2  -8   8 2.59112 0.80648   3
   2  -8   8 2.50742 1.50557   3
  -3   8  -8 1.85431 1.28629   2
  -3   8  -8 5.33444 1.43485   3
  -3   8  -8 5.91949 1.49159   1
   3  -8   8 1.44727 1.63504   1
   3  -8   8 4.58752 0.93492   1
   3  -8   8 1.21109 1.60749   2
   3  -8   8 1.71537 0.85640   2
   3  -8   8 0.90303 1.34428   2
   3  -8   8 4.82436 1.08622   3
   3  -8   8 4.06381 1.91948   3
  -4   8  -8 1.10748 1.92961   2
  -4   8  -8 1.34840 1.75163   3
  -4   8  -8 2.20725 1.55026   1
   4  -8   8 1.07014 0.95376   1
   4  -8   8 1.10917 1.68349   1
   4  -8   8 0.55056 1.04556   2
   4  -8   8 2.87392 2.03762   2
   4  -8   8 0.70413 1.09794   3
   4  -8   8 -0.7360 1.94110   3
   4   7  -8 0.01036 1.48752   1
   4   7  -8 -0.5013 1.91844   1
   4   7  -8 0.29271 1.34092   3
   4   7  -8 1.00883 1.79002   3
   4   7  -8 0.59980 1.33537   2
   4   7  -8 2.14496 1.83598   2
  -4  -7   8 -0.3502 1.38703   3
  -4  -7   8 0.15466 1.31286   1
  -4  -7   8 -0.6592 1.28484   2
   3   7  -8 0.83306 1.37823   2
   3   7  -8 1.97078 0.97444   2
   3   7  -8 4.47373 1.11845   1
   3   7  -8 3.43907 1.60611   1
   3   7  -8 3.57461 1.34463   3
   3   7  -8 3.69239 1.04767   3
  -3  -7   8 1.45766 1.12550   2
  -3  -7   8 2.53572 1.10308   1
  -3  -7   8 4.34476 1.26198   3
   2   7  -8 154.282 17.0655   3
   2   7  -8 161.291 14.9739   3
   2   7  -8 160.095 17.7640   3
   2   7  -8 151.033 16.8197   1
   2   7  -8 159.696 14.1600   1
   2   7  -8 141.812 16.1449   1
   2   7  -8 90.2267 8.43339   2
   2   7  -8 92.8391 10.0911   2
   2   7  -8 89.1739 9.71385   2
  -2  -7   8 84.5462 10.0398   2
  -2  -7   8 87.3048 9.18457   2
  -2  -7   8 87.5982 8.47594   2
  -2  -7   8 154.488 14.2046   1
  -2  -7   8 154.669 15.4516   1
  -2  -7   8 135.972 16.7848   1
  -2  -7   8 163.035 15.0403   3
  -2  -7   8 153.007 17.7981   3
  -2  -7   8 159.393 16.3782   3
   1   7  -8 33.5861 3.95887   2
   1   7  -8 34.1030 3.28226   2
   1   7  -8 37.4378 4.15189   2
   1   7  -8 110.415 10.1482   1
   1   7  -8 106.155 11.6189   1
   1   7  -8 60.7476 6.45182   3
   1   7  -8 59.5187 5.59202   3
  -1  -7   8 30.4042 3.32979   2
  -1  -7   8 34.9523 3.62644   2
  -1  -7   8 30.3125 4.10187   2
  -1  -7   8 58.6066 5.66721   3
  -1  -7   8 57.3440 6.14400   3
  -1  -7   8 55.1044 6.79055   3
  -1  -7   8 113.153 12.1220   1
  -1  -7   8 100.216 10.1926   1
  -1  -7   8 108.173 11.0933   1
   0   7  -8 7.72935 1.42144   1
   0   7  -8 8.09356 0.93903   1
   0   7  -8 3.77372 1.09934   2
   0   7  -8 8.92568 1.37369   3
   0   7  -8 8.05607 0.99661   3
   0  -7   8 9.46166 1.10541   3
   0  -7   8 7.82323 1.30059   3
   0  -7   8 3.94204 0.73539   2
   0  -7   8 5.59411 1.30429   2
   0  -7   8 7.72512 1.18423   1
   0  -7   8 9.56967 1.06162   1
   0  -7   8 10.0272 2.80792  -3
   0  -7   8 10.0272 2.80792   1
  -1   7  -8 87.0311 9.79441   2
  -1   7  -8 150.066 16.2522   3
  -1   7  -8 146.728 17.1060   1
   1  -7   8 337.348 37.5522  -3
   1  -7   8 337.348 37.5522   1
   1  -7   8 87.6496 8.53237   2
   1  -7   8 97.1267 10.2061   2
   1  -7   8 152.691 14.2846   3
   1  -7   8 170.319 15.0385   1
  -2   7  -8 17.4201 2.37586   2
  -2   7  -8 32.7601 3.73320   1
  -2   7  -8 34.0561 3.76825   3
   2  -7   8 33.9839 4.15286   3
   2  -7   8 30.1422 3.23257   3
   2  -7   8 30.7667 3.22962   1
   2  -7   8 35.6147 4.16030   1
   2  -7   8 16.9829 2.41062   2
   2  -7   8 18.1055 1.86317   2
  -3   7  -8 2.13169 1.07942   1
  -3   7  -8 0.76716 1.25417   2
  -3   7  -8 3.48308 1.28810   3
   3  -7   8 2.32530 1.19655   1
   3  -7   8 2.12795 0.83038   1
   3  -7   8 3.20243 1.63988   1
   3  -7   8 0.37835 0.81264   2
   3  -7   8 2.41210 1.51632   2
   3  -7   8 1.48629 1.47116   2
   3  -7   8 2.46931 1.58229   3
   3  -7   8 3.48215 0.90864   3
  -4   7  -8 -0.7695 1.60190   2
  -4   7  -8 2.39022 1.58617   3
  -4   7  -8 2.47587 1.70871   1
   4  -7   8 1.53897 1.10887   3
   4  -7   8 1.25464 1.69428   3
   4  -7   8 1.22625 1.82472   1
   4  -7   8 1.30343 1.00720   1
   4  -7   8 1.06357 1.02425   2
   4  -7   8 0.92117 1.62344   2
   4   6  -8 11.6551 2.29330   1
   4   6  -8 5.48399 1.48079   2
   4   6  -8 11.7062 2.17470   2
   4   6  -8 8.64723 2.03801   3
  -4  -6   8 7.85430 1.66623   3
  -4  -6   8 6.44676 1.49896   2
  -4  -6   8 15.0730 2.11742   1
   3   6  -8 51.1371 5.92661   3
   3   6  -8 51.8836 5.24014   3
   3   6  -8 36.9716 4.07563   2
   3   6  -8 32.0413 3.40508   2
   3   6  -8 49.6448 5.01405   1
   3   6  -8 55.0734 5.76685   1
  -3  -6   8 46.8204 5.32220   1
  -3  -6   8 55.1747 5.68355   3
  -3  -6   8 30.1877 3.61627   2
   2   6  -8 -0.3167 0.67500   2
   2   6  -8 0.84091 1.05977   2
   2   6  -8 1.68663 1.24150   3
   2   6  -8 1.50970 1.07110   3
   2   6  -8 0.08989 0.73853   3
  -2  -6   8 -0.1585 0.95432   3
  -2  -6   8 -0.5743 0.79262   3
  -2  -6   8 0.33352 1.13516   3
  -2  -6   8 26.6183 3.31044   1
  -2  -6   8 -0.6307 1.06633   2
  -2  -6   8 0.83211 0.83739   2
  -2  -6   8 0.54804 0.75940   2
   1   6  -8 -0.5727 0.83382   3
   1   6  -8 0.46889 0.56250   3
   1   6  -8 -0.1674 0.88459   2
   1   6  -8 0.65215 0.56073   2
   1   6  -8 29.0093 3.07832   1
   1   6  -8 25.6383 2.55578   1
  -1  -6   8 0.58255 0.70770   3
  -1  -6   8 1.73362 1.11080   3
  -1  -6   8 1.97524 0.73951   3
  -1  -6   8 22.7760 2.63992   1
  -1  -6   8 23.5643 2.76585   1
  -1  -6   8 27.5646 3.15638   1
  -1  -6   8 0.05795 1.01170   2
  -1  -6   8 1.06863 0.66398   2
  -1  -6   8 0.63262 0.60551   2
   0   6  -8 1.35149 0.88249   2
   0   6  -8 0.31560 0.48092   2
   0   6  -8 2.05369 0.83368   3
   0   6  -8 1.78913 0.56474   3
   0   6  -8 48.8530 5.20607   1
   0   6  -8 46.1869 4.47469   1
   0  -6   8 0.71730 0.88363   2
   0  -6   8 0.84998 0.51390   2
   0  -6   8 2.15669 0.64965   3
   0  -6   8 2.53009 0.72181   3
   0  -6   8 48.8657 5.99819  -3
   0  -6   8 48.8657 5.99819   1
   0  -6   8 54.2216 4.56335   1
   0  -6   8 42.2093 4.90180   1
  -1   6  -8 105.557 11.3144   2
  -1   6  -8 186.001 18.9974   3
  -1   6  -8 202.021 22.3587   1
   1  -6   8 108.097 9.88714   2
   1  -6   8 99.2533 11.7230   2
   1  -6   8 164.605 19.7874   3
   1  -6   8 180.152 16.6925   3
   1  -6   8 217.511 23.3109   1
   1  -6   8 208.593 19.6608   1
  -2   6  -8 6.77285 1.35068   1
  -2   6  -8 8.81923 1.36469   3
  -2   6  -8 4.16490 1.19070   2
   2  -6   8 9.11268 1.13602   3
   2  -6   8 6.83818 1.76947   3
   2  -6   8 2.64804 0.74422   2
   2  -6   8 3.47617 1.23931   2
   2  -6   8 10.8899 1.72582   1
   2  -6   8 8.84214 1.12056   1
  -3   6  -8 0.21189 1.14901   3
  -3   6  -8 -0.3064 1.00535   1
  -3   6  -8 -1.0146 1.34648   2
   3  -6   8 0.30234 0.82764   2
   3  -6   8 0.46151 1.41064   2
   3  -6   8 0.42822 1.40222   2
   3  -6   8 0.98711 0.81989   1
   3  -6   8 -0.1412 1.06014   1
   3  -6   8 -0.4805 1.41755   1
   3  -6   8 -0.1603 1.55065   3
   3  -6   8 0.65142 0.93125   3
  -4   6  -8 45.2497 5.39490   3
  -4   6  -8 33.4663 4.46003   1
  -4   6  -8 26.9036 3.61535   2
   4  -6   8 39.8249 3.83577   1
   4  -6   8 38.6807 4.55474   1
   4  -6   8 26.5809 2.85127   2
   4  -6   8 28.2934 3.68599   2
   4  -6   8 47.6260 4.62069   3
   4  -6   8 41.8386 5.46392   3
   5   5  -8 0.95947 3.14154   2
   5   5  -8 -0.4618 2.05680   1
   5   5  -8 -0.9140 2.67287   3
  -5  -5   8 1.85887 1.60980   3
  -5  -5   8 2.83184 2.11987   3
  -5  -5   8 2.75761 2.11481   1
  -5  -5   8 2.30735 1.87390   2
   4   5  -8 12.6511 1.79183   2
   4   5  -8 9.37773 2.23974   2
   4   5  -8 23.9601 3.09573   3
   4   5  -8 23.7173 2.98192   1
  -4  -5   8 20.3664 2.75095   1
  -4  -5   8 21.9474 2.81634   3
  -4  -5   8 14.3537 1.90904   2
   3   5  -8 0.70801 1.08047   3
   3   5  -8 0.13532 0.87092   3
   3   5  -8 -0.0997 0.95813   1
   3   5  -8 1.14027 1.14480   1
   3   5  -8 0.37604 0.85652   2
   3   5  -8 0.35441 1.19871   2
  -3  -5   8 0.56748 0.95728   1
  -3  -5   8 -1.1011 0.92193   2
  -3  -5   8 -0.2233 0.91697   3
   2   5  -8 8.17030 1.33454   3
   2   5  -8 6.68654 1.03868   3
   2   5  -8 3.25894 0.77794   2
   2   5  -8 2.13690 1.16975   2
   2   5  -8 23.1759 2.53177   1
  -2  -5   8 27.6957 2.71750   1
  -2  -5   8 25.5313 2.96074   1
  -2  -5   8 18.8946 2.44129   1
  -2  -5   8 5.35195 1.32886   3
  -2  -5   8 6.79705 1.11747   3
  -2  -5   8 4.79284 1.19241   3
  -2  -5   8 3.50070 0.88872   2
  -2  -5   8 3.20727 1.04922   2
  -2  -5   8 1.63895 0.75394   2
   1   5  -8 89.6327 8.18697   1
   1   5  -8 96.2801 9.39180   1
   1   5  -8 19.4780 2.54322   2
   1   5  -8 23.4184 2.18070   2
   1   5  -8 36.7176 3.47038   3
   1   5  -8 42.1615 4.02541   3
  -1  -5   8 86.8333 9.75609   1
  -1  -5   8 80.9781 8.92548   1
  -1  -5   8 82.0148 8.21106   1
  -1  -5   8 21.0210 2.18091   2
  -1  -5   8 21.3364 2.62773   2
  -1  -5   8 19.0090 2.31566   2
  -1  -5   8 31.1316 3.78200   3
  -1  -5   8 32.6226 3.52189   3
  -1  -5   8 36.6857 4.25486   3
   0   5  -8 9.83790 1.30831   2
   0   5  -8 6.88734 0.86217   2
   0   5  -8 15.0800 1.65877   3
   0   5  -8 15.8052 1.96258   3
   0   5  -8 20.6219 2.22066   1
   0   5  -8 18.6567 1.84640   1
   0  -5   8 32.1723 4.16354  -3
   0  -5   8 32.1723 4.16354   1
   0  -5   8 13.7664 1.79546   3
   0  -5   8 17.9889 1.68241   3
   0  -5   8 7.38670 1.30817   2
   0  -5   8 6.48494 0.92279   2
   0  -5   8 15.4141 1.97198   1
   0  -5   8 19.0529 1.91979   1
  -1   5  -8 1.46057 0.84116   3
  -1   5  -8 3.72686 0.53921   3
  -1   5  -8 2.06590 0.95824   2
  -1   5  -8 1.47944 0.41958   2
   1  -5   8 1.04304 1.05545   2
   1  -5   8 0.84956 0.62192   2
   1  -5   8 3.09593 1.22320   3
   1  -5   8 2.78528 0.76361   3
  -2   5  -8 8.17225 1.38892   1
  -2   5  -8 6.61386 1.22012   3
  -2   5  -8 3.40836 1.11569   2
   2  -5   8 8.88367 1.08902   1
   2  -5   8 6.95537 1.61165   1
   2  -5   8 7.72283 1.05300   3
   2  -5   8 7.19950 1.60228   3
   2  -5   8 4.41046 0.86983   2
   2  -5   8 2.30900 1.18734   2
  -3   5  -8 2.07140 1.21805   3
  -3   5  -8 0.81993 1.05587   1
  -3   5  -8 1.14977 1.30535   2
   3  -5   8 0.47450 1.28866   3
   3  -5   8 0.34212 1.46778   3
   3  -5   8 0.35737 0.91698   3
   3  -5   8 0.67598 1.41125   2
   3  -5   8 -0.0720 1.37607   2
   3  -5   8 0.29259 0.78925   2
   3  -5   8 0.62792 0.77031   1
   3  -5   8 0.59941 1.48612   1
   3  -5   8 0.35681 1.12156   1
  -4   5  -8 2.12671 1.68334   3
  -4   5  -8 0.35573 1.34922   1
   4  -5   8 2.40181 1.49974   1
   4  -5   8 1.32491 0.97557   1
   4  -5   8 0.22553 1.54347   2
   4  -5   8 1.08357 1.03830   2
   4  -5   8 2.19534 1.18129   3
   4  -5   8 5.67374 1.84244   3
   5   4  -8 5.33059 2.04126   1
   5   4  -8 10.6058 2.38832   3
   5   4  -8 1.37216 2.25271   2
  -5  -4   8 6.96588 1.43944   1
  -5  -4   8 8.29871 1.83247   1
  -5  -4   8 9.73196 2.13950   3
  -5  -4   8 10.0698 1.77216   3
  -5  -4   8 1.02001 1.46451   2
   4   4  -8 1.69494 1.38301   2
   4   4  -8 4.17955 1.54522   3
   4   4  -8 4.46847 1.59549   1
  -4  -4   8 2.59013 0.93560   1
  -4  -4   8 4.56837 1.19831   1
  -4  -4   8 3.48484 1.18280   3
  -4  -4   8 2.28343 1.14434   3
  -4  -4   8 2.45658 1.21130   2
   3   4  -8 -1.2867 1.08754   2
   3   4  -8 1.72630 0.83793   2
   3   4  -8 -0.7615 1.14100   3
   3   4  -8 0.18500 0.84149   3
   3   4  -8 1.16136 0.93974   1
   3   4  -8 1.42805 1.21280   1
  -3  -4   8 0.25341 0.82900   2
  -3  -4   8 -0.2200 0.89204   3
  -3  -4   8 1.38264 0.91275   3
  -3  -4   8 0.45875 0.83148   1
   2   4  -8 44.7130 4.95832   2
   2   4  -8 49.5697 4.29385   2
   2   4  -8 78.5633 7.04093   3
   2   4  -8 77.7600 8.02083   3
   2   4  -8 83.8665 8.30408   1
   2   4  -8 77.2420 7.25630   1
  -2  -4   8 71.0673 7.06824   3
  -2  -4   8 68.5607 8.32667   3
  -2  -4   8 72.4161 7.65867   3
  -2  -4   8 68.5097 8.59608   1
  -2  -4   8 73.8125 7.27119   1
  -2  -4   8 77.2911 7.87973   1
  -2  -4   8 40.1514 4.27781   2
  -2  -4   8 44.0163 4.61203   2
  -2  -4   8 39.9421 5.04338   2
   1   4  -8 64.9695 6.58136   1
   1   4  -8 59.7841 5.73180   1
   1   4  -8 33.5977 3.61285   2
   1   4  -8 34.4684 3.14162   2
   1   4  -8 57.5015 6.23289   3
   1   4  -8 56.9659 5.42393   3
  -1  -4   8 60.1778 6.22795   1
  -1  -4   8 55.4436 6.83495   1
  -1  -4   8 59.8174 5.74621   1
  -1  -4   8 29.8954 3.35370   2
  -1  -4   8 27.5110 3.73593   2
  -1  -4   8 32.9041 3.11078   2
  -1  -4   8 57.9392 6.49529   3
  -1  -4   8 56.8278 5.92905   3
  -1  -4   8 54.6367 5.46403   3
   0   4  -8 3.83402 1.04090   2
   0   4  -8 2.42705 0.63618   2
   0   4  -8 24.4605 2.48838   1
   0   4  -8 5.67203 0.74934   3
   0   4  -8 5.48688 0.94800   3
   0  -4   8 2.26071 0.60845   2
   0  -4   8 2.45766 0.96507   2
   0  -4   8 5.36587 1.17099   3
   0  -4   8 4.31074 0.78860   3
   0  -4   8 4.41920 0.79896   3
   0  -4   8 24.8603 2.54013   1
   0  -4   8 26.4811 3.15869   1
  -1   4  -8 3.98628 0.91256   3
  -1   4  -8 1.53300 0.49983   3
  -1   4  -8 2.19172 0.92445   2
  -1   4  -8 1.15877 0.52319   2
   1  -4   8 2.65870 1.03173   3
   1  -4   8 2.69125 0.70972   3
   1  -4   8 0.96460 0.90969   2
   1  -4   8 1.14800 0.58091   2
  -2   4  -8 115.461 12.0760   1
  -2   4  -8 107.879 10.5099   1
  -2   4  -8 122.266 11.1731   3
  -2   4  -8 117.469 12.8024   3
  -2   4  -8 51.8297 5.55240   2
  -2   4  -8 67.5801 6.54441   2
   2  -4   8 119.140 12.6270   1
   2  -4   8 112.178 10.5947   1
   2  -4   8 119.392 11.2564   3
   2  -4   8 112.368 13.3846   3
   2  -4   8 66.8250 5.69795   2
   2  -4   8 70.9046 6.83477   2
  -3   4  -8 2.79028 1.24084   2
  -3   4  -8 0.63443 1.20254   3
  -3   4  -8 1.85972 1.07223   1
   3  -4   8 2.42532 0.92670   3
   3  -4   8 0.57322 1.29714   3
   3  -4   8 1.42212 1.40377   3
   3  -4   8 0.94722 0.83217   2
   3  -4   8 1.83496 1.21809   2
   3  -4   8 0.76107 1.34566   2
   3  -4   8 2.28836 1.18882   1
   3  -4   8 1.50074 1.47982   1
   3  -4   8 0.85688 0.81204   1
  -4   4  -8 1.34698 1.60157   1
  -4   4  -8 3.93893 1.52979   3
   4  -4   8 0.88559 1.08075   1
   4  -4   8 0.17107 1.71234   1
   4  -4   8 -0.0182 1.66670   2
   4  -4   8 0.84853 1.07964   2
   4  -4   8 1.45906 1.16724   3
   4  -4   8 0.19318 1.52803   3
   5   3  -8 3.03772 1.93645   2
   5   3  -8 11.5771 2.38572   3
   5   3  -8 9.04783 2.15717   1
  -5  -3   8 11.6061 2.10388   1
  -5  -3   8 11.8018 1.68683   1
  -5  -3   8 9.77568 1.98184   3
  -5  -3   8 12.1328 1.75843   3
  -5  -3   8 8.69908 1.54803   2
  -5  -3   8 4.13361 1.56458   2
   4   3  -8 0.13422 1.18763   3
   4   3  -8 2.06703 1.38479   1
   4   3  -8 0.98787 1.48216   2
  -4  -3   8 1.11171 1.04260   1
  -4  -3   8 1.74990 0.87961   1
  -4  -3   8 1.46735 1.05335   3
  -4  -3   8 0.46866 0.94607   3
  -4  -3   8 -1.0354 1.06687   2
  -4  -3   8 0.66143 0.95397   2
   3   3  -8 7.01141 1.11289   1
   3   3  -8 5.84636 1.25901   1
   3   3  -8 4.75595 1.28552   3
   3   3  -8 2.34764 1.01809   3
   3   3  -8 2.59161 0.93308   2
   3   3  -8 1.37355 1.30705   2
  -3  -3   8 6.50339 0.96709   1
  -3  -3   8 3.81429 1.04405   1
  -3  -3   8 3.26995 0.95440   3
  -3  -3   8 5.70714 0.94967   3
  -3  -3   8 2.53984 0.87184   2
  -3  -3   8 4.32033 0.91808   2
   2   3  -8 0.02741 0.65031   1
   2   3  -8 0.07255 0.78542   1
   2   3  -8 0.00742 0.67774   2
   2   3  -8 -0.1045 1.02837   2
   2   3  -8 -0.4073 0.88119   3
   2   3  -8 -1.0954 0.66018   3
  -2  -3   8 -0.6728 0.89871   2
  -2  -3   8 0.08948 0.65052   2
  -2  -3   8 -0.3934 0.55842   2
  -2  -3   8 0.60626 0.57143   1
  -2  -3   8 1.26709 0.69095   1
  -2  -3   8 -0.1764 0.61235   1
  -2  -3   8 -0.1724 0.70886   3
  -2  -3   8 -0.3988 0.63787   3
  -2  -3   8 -0.1600 0.73463   3
  -2  -3   8 -1.5037 2.11139  -3
  -2  -3   8 -1.5037 2.11139   1
   1   3  -8 0.90437 0.60222   1
   1   3  -8 2.79958 0.84451   1
   1   3  -8 0.61556 0.69792   3
   1   3  -8 0.38307 0.51519   3
   1   3  -8 0.14536 0.76071   2
   1   3  -8 -0.2497 0.56042   2
  -1  -3   8 0.45049 0.49858   2
  -1  -3   8 -0.3260 0.53966   2
  -1  -3   8 -0.5910 0.78151   2
  -1  -3   8 0.92856 0.93223   1
  -1  -3   8 1.15066 0.57136   1
  -1  -3   8 2.76813 0.65674   1
  -1  -3   8 -0.1787 0.52127   3
  -1  -3   8 0.17030 0.89062   3
  -1  -3   8 -0.2125 0.58064   3
   0   3  -8 169.333 16.0139   1
   0   3  -8 156.865 18.2408   1
   0   3  -8 71.8938 8.09343   2
   0   3  -8 78.1404 7.08136   2
   0   3  -8 116.104 12.8663   3
   0   3  -8 119.056 11.2870   3
   0  -3   8 76.5379 8.41215   2
   0  -3   8 71.5415 7.08700   2
   0  -3   8 125.743 11.3265   3
   0  -3   8 121.918 13.4189   3
   0  -3   8 117.423 12.2952   3
   0  -3   8 184.175 16.0578   1
   0  -3   8 171.000 19.0127   1
  -1   3  -8 123.765 12.7331   1
  -1   3  -8 119.257 11.1427   1
  -1   3  -8 84.9147 9.06546   3
  -1   3  -8 86.0908 7.91794   3
  -1   3  -8 49.0124 5.05042   2
  -1   3  -8 60.4580 5.86597   2
   1  -3   8 53.8245 6.09783   2
   1  -3   8 52.2321 5.08932   2
   1  -3   8 78.6914 9.45662   3
   1  -3   8 84.0220 7.97499   3
   1  -3   8 114.217 11.1891   1
   1  -3   8 116.811 13.2912   1
  -2   3  -8 17.4630 1.96232   2
  -2   3  -8 19.4414 2.43766   2
  -2   3  -8 36.0258 3.84903   1
  -2   3  -8 31.2401 3.24206   1
  -2   3  -8 37.2530 3.41155   3
  -2   3  -8 35.5039 4.02064   3
   2  -3   8 33.2382 3.52516   3
   2  -3   8 32.4260 4.24612   3
   2  -3   8 24.4183 2.56567   2
   2  -3   8 18.5959 2.04204   2
   2  -3   8 31.8745 4.16044   1
   2  -3   8 37.2548 3.37709   1
  -3   3  -8 0.41374 1.03670   1
  -3   3  -8 1.09559 0.45450   1
  -3   3  -8 0.71745 0.51939   2
  -3   3  -8 0.85954 1.16568   2
  -3   3  -8 2.48173 1.08545   3
  -3   3  -8 0.99118 0.53388   3
   3  -3   8 1.67156 1.15268   1
   3  -3   8 0.30952 1.41992   1
   3  -3   8 0.96710 0.82306   1
   3  -3   8 1.08767 1.17107   2
   3  -3   8 1.79427 1.42390   2
   3  -3   8 0.21922 0.89120   2
   3  -3   8 1.96046 1.45652   3
   3  -3   8 1.46021 1.15284   3
  -4   3  -8 0.05053 1.63794   3
   4  -3   8 0.85180 1.16445   2
   4  -3   8 0.87103 1.49681   2
   4  -3   8 0.16896 1.43490   1
   4  -3   8 -0.2776 1.05251   1
   4  -3   8 -0.2145 1.76406   3
   4  -3   8 -0.0578 1.20437   3
   5   2  -8 6.31285 1.89136   1
   5   2  -8 10.3407 2.24383   3
   5   2  -8 7.61915 2.10314   2
  -5  -2   8 8.00026 1.76126   1
  -5  -2   8 10.3796 1.43717   1
  -5  -2   8 4.61314 1.23865   2
  -5  -2   8 4.94478 1.50754   2
  -5  -2   8 11.4317 1.57294   3
  -5  -2   8 8.22572 1.98037   3
   4   2  -8 28.6940 3.29756   3
   4   2  -8 17.1452 2.42631   2
   4   2  -8 31.1013 3.60813   1
  -4  -2   8 25.9233 2.74757   3
  -4  -2   8 24.8287 3.07095   3
  -4  -2   8 26.7829 3.35637   1
  -4  -2   8 29.8212 3.07852   1
  -4  -2   8 23.0753 2.29366   2
  -4  -2   8 13.4180 1.89931   2
   3   2  -8 23.2386 2.84456   3
   3   2  -8 8.06504 1.81713   2
   3   2  -8 11.0898 1.58551   2
   3   2  -8 50.7006 5.98225   1
  -3  -2   8 52.1911 5.22863   1
  -3  -2   8 59.6941 5.74880   1
  -3  -2   8 12.3229 1.56727   2
  -3  -2   8 14.7043 1.44935   2
  -3  -2   8 23.2854 2.65358   3
  -3  -2   8 22.2104 2.38947   3
   2   2  -8 66.9769 6.66648   2
   2   2  -8 61.7992 5.84199   2
   2   2  -8 110.250 12.1251   1
   2   2  -8 112.350 10.6725   1
   2   2  -8 101.083 9.89119   3
   2   2  -8 107.789 11.2382   3
  -2  -2   8 120.048 11.6258   1
  -2  -2   8 96.7059 10.8499   1
  -2  -2   8 113.150 10.6466   1
  -2  -2   8 115.007 12.6116   1
  -2  -2   8 58.7113 5.79615   2
  -2  -2   8 63.2650 6.89171   2
  -2  -2   8 57.3447 5.81648   2
  -2  -2   8 58.1621 6.29771   2
  -2  -2   8 107.308 11.6943   3
  -2  -2   8 96.9238 9.88836   3
  -2  -2   8 108.241 10.7896   3
   1   2  -8 5.17235 1.03520   1
   1   2  -8 8.11480 0.96084   1
   1   2  -8 4.87992 0.98567   3
   1   2  -8 5.74674 0.85408   3
   1   2  -8 3.52797 0.73281   2
   1   2  -8 3.17270 0.86854   2
  -1  -2   8 5.83505 0.90129   3
  -1  -2   8 9.77870 1.20036   3
  -1  -2   8 5.32492 0.93030   3
  -1  -2   8 5.49268 0.90099   3
  -1  -2   8 4.70361 0.89584   1
  -1  -2   8 8.49862 1.25010   1
  -1  -2   8 7.42685 0.96145   1
  -1  -2   8 6.96186 0.92582   1
  -1  -2   8 1.91687 0.65282   2
  -1  -2   8 3.47586 0.92082   2
  -1  -2   8 3.23205 0.66403   2
  -1  -2   8 5.71248 0.76462   2
   0   2  -8 -0.0018 0.56708   3
   0   2  -8 1.09966 0.71610   3
   0   2  -8 -0.1384 0.83966   2
   0   2  -8 0.52456 0.62906   2
   0  -2   8 0.16300 0.73293   2
   0  -2   8 -0.1701 0.49052   2
   0  -2   8 1.35029 0.84567   3
   0  -2   8 -0.2192 0.62413   3
   0  -2   8 0.53007 0.52852   3
  -1   2  -8 14.7888 1.55659   1
  -1   2  -8 13.8608 1.81660   1
  -1   2  -8 8.43196 1.01409   2
  -1   2  -8 8.70198 1.32128   2
  -1   2  -8 16.2728 1.82834   3
  -1   2  -8 13.6629 1.50057   3
   1  -2   8 6.94935 1.26599   2
   1  -2   8 7.97323 1.06466   2
   1  -2   8 13.3229 1.56137   3
   1  -2   8 13.9841 2.01571   3
   1  -2   8 14.7338 1.58602   1
   1  -2   8 13.0871 1.93245   1
  -2   2  -8 25.4609 2.89102   3
  -2   2  -8 20.5246 2.40658   3
  -2   2  -8 10.8335 1.30393   2
  -2   2  -8 15.0018 1.82500   2
  -2   2  -8 21.6392 2.80934   1
  -2   2  -8 22.5216 2.32483   1
   2  -2   8 25.8517 3.06302   3
   2  -2   8 24.2560 2.49251   3
   2  -2   8 11.8061 1.42742   2
   2  -2   8 11.3798 1.77153   2
   2  -2   8 12.2557 1.78532   2
   2  -2   8 23.1456 2.48582   1
   2  -2   8 27.2319 3.06102   1
  -3   2  -8 5.99529 0.93519   3
  -3   2  -8 8.42500 1.40229   3
  -3   2  -8 3.21706 1.38072   2
  -3   2  -8 1.81948 0.65944   2
  -3   2  -8 10.4870 1.58735   1
  -3   2  -8 6.92017 0.95663   1
   3  -2   8 5.39026 1.72988   3
   3  -2   8 6.96055 1.24620   3
   3  -2   8 4.85193 1.39161   3
   3  -2   8 4.13166 1.38127   2
   3  -2   8 2.15418 1.00371   2
   3  -2   8 5.42296 1.63453   2
   3  -2   8 8.57496 1.26083   1
   3  -2   8 7.14124 1.61483   1
   3  -2   8 7.70018 1.83406   1
  -4   2  -8 25.9602 2.80427   3
  -4   2  -8 8.57673 1.25716   2
  -4   2  -8 22.6894 2.36242   1
   4  -2   8 25.3582 2.61771   1
   4  -2   8 22.7992 3.13142   1
   4  -2   8 28.3514 3.11432   3
   4  -2   8 34.0369 3.70543   3
   4  -2   8 19.0351 1.80368   2
   4  -2   8 14.4837 2.13778   2
   5   1  -8 -0.7112 1.66166   1
   5   1  -8 1.28634 1.78418   3
   5   1  -8 -0.1934 1.80469   2
  -5  -1   8 0.43096 1.37452   1
  -5  -1   8 -0.2239 1.03085   1
  -5  -1   8 0.50402 1.02173   2
  -5  -1   8 1.78983 1.33818   2
  -5  -1   8 -0.4345 1.05767   3
  -5  -1   8 1.06265 1.51256   3
   4   1  -8 7.22285 1.52642   1
   4   1  -8 0.39759 1.19854   2
   4   1  -8 0.71770 1.28709   3
  -4  -1   8 1.28625 1.11693   3
  -4  -1   8 -0.5321 0.81118   3
  -4  -1   8 6.75310 1.03771   1
  -4  -1   8 5.95537 1.25494   1
  -4  -1   8 -0.0808 0.78524   2
  -4  -1   8 0.59915 0.93165   2
   3   1  -8 132.790 13.4336   3
   3   1  -8 123.050 11.8357   3
   3   1  -8 156.425 16.9055   1
   3   1  -8 74.4833 8.12769   2
  -3  -1   8 116.948 12.8803   3
  -3  -1   8 125.615 11.7804   3
  -3  -1   8 74.7719 7.74754   2
  -3  -1   8 73.8180 7.09685   2
  -3  -1   8 163.988 16.2208   1
  -3  -1   8 152.837 14.8352   1
   2   1  -8 6.53121 1.16301   3
   2   1  -8 8.17102 1.13422   3
   2   1  -8 7.11906 1.00656   3
   2   1  -8 9.65961 1.29538   1
   2   1  -8 4.77065 1.02656   1
   2   1  -8 8.61220 1.11802   1
   2   1  -8 4.97220 0.87933   2
   2   1  -8 4.58983 1.15034   2
  -2  -1   8 8.82606 1.23898   3
  -2  -1   8 9.14958 1.09881   3
  -2  -1   8 6.08966 1.07885   3
  -2  -1   8 4.30672 1.00047   2
  -2  -1   8 4.44930 0.79616   2
  -2  -1   8 3.89568 0.74369   2
  -2  -1   8 9.66657 1.31081   1
  -2  -1   8 6.84849 1.01799   1
  -2  -1   8 8.34924 1.16726   1
   1   1  -8 110.818 12.0320   1
   1   1  -8 109.183 10.5826   1
   1   1  -8 47.7327 5.85250   2
   1   1  -8 55.3748 5.15371   2
   1   1  -8 84.1241 9.66185   3
   1   1  -8 91.1134 8.51036   3
  -1  -1   8 106.719 10.5752   1
  -1  -1   8 119.195 11.5199   1
  -1  -1   8 117.073 12.5449   1
  -1  -1   8 108.427 10.5938   1
  -1  -1   8 86.6466 8.51731   3
  -1  -1   8 89.9051 9.25635   3
  -1  -1   8 95.7855 8.52737   3
  -1  -1   8 91.1173 10.0782   3
  -1  -1   8 55.2958 6.08867   2
  -1  -1   8 52.6218 5.12512   2
  -1  -1   8 52.5690 5.12169   2
  -1  -1   8 55.4126 5.54152   2
   0   1  -8 60.1064 6.10889   2
   0   1  -8 63.0153 6.95947   2
   0   1  -8 110.432 10.5782   1
   0   1  -8 113.213 12.0354   1
   0   1  -8 108.840 11.9923   3
   0   1  -8 104.015 10.5445   3
   0  -1   8 67.4530 6.11124   2
   0  -1   8 64.9293 7.24945   2
   0  -1   8 112.453 10.5830   3
   0  -1   8 126.326 11.5623   3
   0  -1   8 108.103 12.5240   3
   0  -1   8 114.096 10.5763   3
   0  -1   8 110.139 12.5483   1
   0  -1   8 114.394 10.5985   1
  -1   1  -8 33.3034 3.91471   3
  -1   1  -8 35.8201 3.44269   3
  -1   1  -8 37.0676 3.63245   1
  -1   1  -8 37.6908 4.17108   1
  -1   1  -8 24.9203 2.16927   2
  -1   1  -8 17.0878 2.35857   2
   1  -1   8 21.8805 2.14836   2
   1  -1   8 17.6373 2.45531   2
   1  -1   8 37.6968 3.66627   1
   1  -1   8 36.7446 4.41156   1
   1  -1   8 34.3029 3.51102   3
   1  -1   8 38.2330 4.24522   3
  -2   1  -8 57.3792 5.92130   2
  -2   1  -8 48.1701 5.09936   2
  -2   1  -8 95.4685 9.78784   1
  -2   1  -8 85.2590 8.54466   1
  -2   1  -8 94.2861 9.82631   3
  -2   1  -8 89.3155 8.59203   3
   2  -1   8 90.6159 9.83960   3
   2  -1   8 86.9566 10.2867   3
   2  -1   8 92.3520 8.67871   3
   2  -1   8 94.8247 8.63479   1
   2  -1   8 90.9233 9.80049   1
   2  -1   8 87.0732 10.2517   1
   2  -1   8 54.6834 5.88459   2
   2  -1   8 53.2462 5.17438   2
   2  -1   8 55.8989 6.19069   2
  -3   1  -8 1.36697 0.56370   1
  -3   1  -8 0.80190 1.27178   1
  -3   1  -8 1.60559 0.85465   3
  -3   1  -8 1.98836 1.29108   3
  -3   1  -8 -0.7010 0.52801   2
   3  -1   8 2.25249 1.37657   1
   3  -1   8 0.83320 1.46060   1
   3  -1   8 0.84064 0.98411   1
   3  -1   8 0.06116 1.45983   2
   3  -1   8 2.08538 1.05459   2
   3  -1   8 1.01032 1.16750   2
   3  -1   8 2.14779 1.11283   3
   3  -1   8 1.60713 1.35193   3
   3  -1   8 0.66527 1.52629   3
  -4   1  -8 4.85756 1.00755   3
  -4   1  -8 0.67168 0.64538   2
  -4   1  -8 3.61511 0.72709   1
   4  -1   8 4.96267 1.39174   1
   4  -1   8 4.68295 1.66100   1
   4  -1   8 4.79071 1.39599   2
   4  -1   8 4.01335 1.70257   2
   4  -1   8 5.22308 1.88376   3
   4  -1   8 6.34739 1.60688   3
   5   0  -8 9.08099 1.96371   3
   5   0  -8 6.62587 1.85726   1
   5   0  -8 5.34319 1.89346   2
  -5   0   8 5.63565 1.56058   3
  -5   0   8 5.93877 1.25579   3
  -5   0   8 6.08208 1.71697   2
  -5   0   8 5.32533 1.18204   2
  -5   0   8 6.18369 1.23185   1
  -5   0   8 4.12221 1.47299   1
   4   0  -8 18.2630 2.25748   1
   4   0  -8 15.7311 1.92315   1
   4   0  -8 9.67141 1.72681   2
   4   0  -8 9.33037 1.92572   3
   4   0  -8 10.8916 1.64150   3
  -4   0   8 14.4168 1.56368   3
  -4   0   8 12.6070 1.81123   3
  -4   0   8 6.25180 1.12208   2
  -4   0   8 7.21888 1.36414   2
  -4   0   8 16.3877 1.82403   1
  -4   0   8 15.6073 2.09411   1
   3   0  -8 45.4784 4.62711   2
   3   0  -8 34.1384 4.00154   2
   3   0  -8 66.2185 7.04662   3
   3   0  -8 65.4335 6.26501   3
   3   0  -8 95.7287 9.70815   1
   3   0  -8 85.4313 8.54206   1
  -3   0   8 40.9837 3.95757   2
  -3   0   8 41.7696 4.37107   2
  -3   0   8 90.8782 9.30668   1
  -3   0   8 86.5011 8.49056   1
  -3   0   8 63.4263 6.20222   3
  -3   0   8 62.8789 6.76632   3
   2   0  -8 4.82659 0.92233   1
   2   0  -8 2.49408 0.77643   1
   2   0  -8 3.00484 0.80377   1
   2   0  -8 2.70562 0.79651   2
   2   0  -8 1.99925 0.89898   2
   2   0  -8 2.59365 0.70843   2
   2   0  -8 2.81103 0.77193   3
   2   0  -8 2.46678 0.75558   3
   2   0  -8 1.62141 0.85154   3
  -2   0   8 1.66642 0.79045   3
  -2   0   8 2.04267 0.81590   3
  -2   0   8 1.26804 0.69844   3
  -2   0   8 0.04454 0.77263   2
  -2   0   8 1.14911 0.61701   2
  -2   0   8 1.43369 0.61506   2
  -2   0   8 3.26297 0.72476   1
  -2   0   8 2.89539 0.76011   1
  -2   0   8 3.80970 0.94639   1
   1   0  -8 114.232 12.0541   3
   1   0  -8 112.850 10.6168   3
   1   0  -8 111.842 10.6516   3
   1   0  -8 180.565 20.3331   1
   1   0  -8 194.706 17.8970   1
   1   0  -8 197.484 17.9252   1
   1   0  -8 68.7103 6.70601   2
   1   0  -8 65.8959 7.59202   2
  -1   0   8 73.5435 6.67957   2
  -1   0   8 66.8158 7.23398   2
  -1   0   8 76.3822 7.90962   2
  -1   0   8 106.961 10.6095   3
  -1   0   8 117.196 12.5797   3
  -1   0   8 111.373 10.6244   3
  -1   0   8 112.168 11.5624   3
  -1   0   8 196.941 17.9153   1
  -1   0   8 184.367 19.5016   1
  -1   0   8 189.263 21.1892   1
   0   0  -8 95.9655 8.99065   3
   0   0  -8 90.7658 10.1864   3
   0   0  -8 63.1739 6.93151   2
   0   0  -8 60.2337 6.10907   2
   0   0  -8 101.151 10.7353   1
   0   0  -8 94.1487 9.44658   1
   0   0   8 92.7995 8.99555   3
   0   0   8 100.480 10.6625   3
   0   0   8 95.3604 9.00010   3
   0   0   8 62.9163 6.11266   2
   0   0   8 60.4226 6.10682   2
   0   0   8 72.7206 7.25424   2
   0   0   8 104.528 9.47110   1
   0   0   8 103.966 11.2329   1
   0   0   8 96.6491 9.46253   1
  -1   0  -8 2.37660 0.72933   2
  -1   0  -8 1.90408 0.92471   2
  -1   0  -8 3.27454 0.67488   1
  -1   0  -8 2.73825 0.89562   1
  -1   0  -8 2.71548 0.81536   3
  -1   0  -8 4.03869 0.70902   3
   1   0   8 1.59122 0.76587   2
   1   0   8 1.30346 0.89338   2
   1   0   8 3.33063 0.83702   1
   1   0   8 2.70057 1.01567   1
   1   0   8 4.05543 1.15509   3
   1   0   8 1.17072 0.92377   3
  -2   0  -8 2.49176 0.78949   2
  -2   0  -8 3.99705 1.20743   2
  -2   0  -8 9.57280 1.19797   3
  -2   0  -8 8.27234 1.43482   3
  -2   0  -8 8.11517 1.10431   1
  -2   0  -8 9.11179 1.35489   1
   2   0   8 5.62932 1.16480   1
   2   0   8 6.98377 1.54403   1
   2   0   8 8.90611 1.41962   1
   2   0   8 4.36404 0.99751   2
   2   0   8 8.17778 1.42422   2
   2   0   8 5.37047 1.21559   2
   2   0   8 7.51654 1.52153   3
   2   0   8 9.26614 1.34931   3
   2   0   8 13.1720 1.81036   3
  -3   0  -8 2.08125 0.79963   1
  -3   0  -8 0.24907 0.76305   2
  -3   0  -8 3.98811 0.87129   3
   3   0   8 2.07751 1.03680   2
   3   0   8 2.58313 1.40665   2
   3   0   8 0.31246 1.44853   2
   3   0   8 3.60888 1.18499   3
   3   0   8 5.09961 1.69473   3
   3   0   8 6.13240 1.55860   3
   3   0   8 4.28617 1.60534   1
   3   0   8 1.35631 1.22779   1
   3   0   8 7.02514 1.22963   1
  -4   0  -8 0.40725 0.89158   3
  -4   0  -8 0.22445 0.82845   1
  -4   0  -8 0.95715 0.99089   2
   4   0   8 0.06186 1.58526   3
   4   0   8 -0.3671 1.80144   3
   4   0   8 0.33383 1.70641   1
   4   0   8 -0.8709 1.36777   1
   4   0   8 -0.1187 1.85994   2
   4   0   8 -0.0692 1.29558   2
   5  -1  -8 18.6712 2.57576   1
   5  -1  -8 16.1842 2.11872   1
   5  -1  -8 13.1262 2.12978   3
   5  -1  -8 16.5743 2.65875   3
   5  -1  -8 11.3663 2.21957   2
  -5   1   8 23.1888 2.57307   1
  -5   1   8 15.3596 1.99992   1
  -5   1   8 20.8228 2.02775   3
  -5   1   8 16.7143 2.48101   3
  -5   1   8 9.87451 1.45204   2
  -5   1   8 12.1497 1.98208   2
   4  -1  -8 7.11476 1.40944   1
   4  -1  -8 4.41121 1.09865   1
   4  -1  -8 2.23713 0.95214   2
   4  -1  -8 4.59961 1.50690   2
   4  -1  -8 6.58696 1.29584   3
   4  -1  -8 8.72565 1.60886   3
  -4   1   8 6.01824 1.34156   1
  -4   1   8 5.18213 0.97066   1
  -4   1   8 2.86265 0.80348   2
  -4   1   8 2.78930 1.12966   2
  -4   1   8 7.72763 1.10779   3
  -4   1   8 4.50976 1.28979   3
   3  -1  -8 5.93021 1.24340   1
   3  -1  -8 6.75581 1.05886   1
   3  -1  -8 1.78367 0.83383   2
   3  -1  -8 3.77738 1.18454   2
   3  -1  -8 8.04306 1.15764   3
   3  -1  -8 7.77245 1.25389   3
  -3   1   8 5.61070 0.98608   3
  -3   1   8 5.63444 1.22004   3
  -3   1   8 5.20652 0.78465   2
  -3   1   8 4.83308 0.94318   2
  -3   1   8 5.44212 1.16186   1
  -3   1   8 7.23616 0.94354   1
   2  -1  -8 -0.6879 0.69216   2
   2  -1  -8 0.42347 0.80979   2
   2  -1  -8 0.06991 0.80931   2
   2  -1  -8 0.26667 0.75233   3
   2  -1  -8 1.61085 0.73876   3
   2  -1  -8 1.43190 0.79159   1
   2  -1  -8 0.31549 0.68703   1
  -2   1   8 0.18761 0.89220   1
  -2   1   8 0.70146 0.77305   1
  -2   1   8 1.13930 0.85145   3
  -2   1   8 0.65760 0.60753   3
  -2   1   8 1.26843 0.76689   3
  -2   1   8 0.14518 0.57869   2
  -2   1   8 0.35061 0.87040   2
  -2   1   8 0.08080 0.63387   2
   1  -1  -8 9.87234 1.35527   2
   1  -1  -8 11.3526 1.32259   2
   1  -1  -8 9.51124 1.19941   2
   1  -1  -8 20.9849 2.52105   1
   1  -1  -8 23.2308 2.31570   1
   1  -1  -8 22.7124 2.25516   1
   1  -1  -8 12.2752 1.68052   3
   1  -1  -8 15.3872 1.81619   3
   1  -1  -8 12.2673 1.59528   3
  -1   1   8 17.8110 2.63584   1
  -1   1   8 20.8951 2.24620   1
  -1   1   8 23.3856 2.41590   1
  -1   1   8 7.78349 1.11776   2
  -1   1   8 9.15943 1.20916   2
  -1   1   8 12.1346 1.48218   2
  -1   1   8 16.9932 1.66698   3
  -1   1   8 16.4956 1.99607   3
  -1   1   8 16.0726 1.79482   3
   0  -1  -8 55.5140 5.86220   2
   0  -1  -8 51.5759 5.23488   2
   0  -1  -8 86.2324 9.42025   1
   0  -1  -8 78.6749 8.30372   1
   0  -1  -8 80.7414 8.09042   3
   0  -1  -8 84.3771 9.14667   3
   0   1   8 88.5939 8.10474   3
   0   1   8 87.6522 9.60524   3
   0   1   8 84.1151 8.10680   3
   0   1   8 98.9188 9.90562   1
   0   1   8 91.5037 8.34233   1
   0   1   8 87.4195 8.32767   1
   0   1   8 55.5051 5.20883   2
   0   1   8 49.0012 5.17572   2
   0   1   8 57.8612 6.19045   2
  -1  -1  -8 73.6504 6.67805   3
  -1  -1  -8 68.1482 7.55490   3
  -1  -1  -8 41.1734 5.25442   2
  -1  -1  -8 47.7493 4.66805   2
  -1  -1  -8 69.1063 8.21441   1
  -1  -1  -8 80.4174 7.25613   1
   1   1   8 78.5213 8.66806   1
   1   1   8 78.9620 7.29677   1
   1   1   8 71.4265 6.73130   3
   1   1   8 66.1613 7.93614   3
   1   1   8 46.0173 5.23523   2
   1   1   8 54.6526 5.58056   2
   1   1   8 50.8005 4.67687   2
  -2  -1  -8 3.72526 0.88566   1
  -2  -1  -8 3.10262 1.05828   1
  -2  -1  -8 5.39366 1.21157   2
  -2  -1  -8 1.61747 0.89045   2
  -2  -1  -8 4.71098 0.97091   3
  -2  -1  -8 5.30638 1.18027   3
   2   1   8 2.91054 1.01490   1
   2   1   8 2.07334 1.10016   1
   2   1   8 2.20160 1.26535   1
   2   1   8 3.75541 1.04608   2
   2   1   8 1.33690 1.17418   2
   2   1   8 2.23716 1.12892   2
   2   1   8 4.07466 1.40500   3
   2   1   8 5.19790 1.17592   3
   2   1   8 6.23381 1.24701   3
  -3  -1  -8 11.0496 1.44747   1
  -3  -1  -8 13.8131 1.66795   3
  -3  -1  -8 5.48197 1.10440   2
   3   1   8 16.6368 2.42479   3
   3   1   8 11.7275 2.12054   3
   3   1   8 4.84557 1.55693   2
   3   1   8 3.08390 1.50054   2
   3   1   8 15.4827 1.76135   1
   3   1   8 13.1347 2.07403   1
   3   1   8 13.6623 2.32417   1
  -4  -1  -8 20.3520 2.30871   3
  -4  -1  -8 5.67845 1.34571   2
  -4  -1  -8 15.9564 1.88340   1
   4   1   8 17.6629 2.54554   1
   4   1   8 13.8545 2.30669   2
   5  -2  -8 29.3104 3.23825   3
   5  -2  -8 15.2082 2.64586   3
   5  -2  -8 15.3825 1.97795   2
   5  -2  -8 20.1090 2.64621   1
  -5   2   8 28.2562 3.07122   3
  -5   2   8 14.3901 1.81211   2
  -5   2   8 17.3545 2.46047   2
  -5   2   8 29.4236 3.10237   1
   4  -2  -8 9.14725 1.34635   2
   4  -2  -8 8.72921 1.81814   2
   4  -2  -8 34.1698 3.12653   1
   4  -2  -8 14.2581 1.83109   3
   4  -2  -8 16.5627 2.17697   3
  -4   2   8 12.1660 1.98774   3
  -4   2   8 15.3712 1.66897   3
  -4   2   8 24.8810 3.30982   1
  -4   2   8 6.95471 1.58665   2
  -4   2   8 9.36501 1.20711   2
   3  -2  -8 36.7709 4.27112   3
   3  -2  -8 38.0582 3.83082   3
   3  -2  -8 25.7697 2.96700   2
   3  -2  -8 23.7918 2.57974   2
   3  -2  -8 44.5804 4.69437   1
  -3   2   8 50.3168 5.08412   1
  -3   2   8 38.2727 4.11067   3
  -3   2   8 22.5136 2.69468   2
   2  -2  -8 3.27714 0.96572   3
   2  -2  -8 4.51111 0.94358   1
   2  -2  -8 1.73584 0.75239   2
  -2   2   8 0.70851 0.83314   2
  -2   2   8 1.46673 0.55260   2
  -2   2   8 1.38516 0.75510   2
  -2   2   8 4.01428 1.01916   3
  -2   2   8 5.31807 0.83768   3
  -2   2   8 4.10132 0.93124   3
  -2   2   8 3.56836 0.90061   1
  -2   2   8 3.71729 0.75815   1
  -2   2   8 5.33329 1.15605   1
   1  -2  -8 1.77671 0.83878   3
   1  -2  -8 2.43877 0.78593   3
   1  -2  -8 -1.5435 0.82437   2
   1  -2  -8 -0.1288 0.69709   2
  -1   2   8 1.65680 0.86626   3
  -1   2   8 1.86600 0.82042   3
  -1   2   8 2.80649 0.85433   3
  -1   2   8 2.63180 0.92804   2
  -1   2   8 0.00082 0.69012   2
  -1   2   8 0.79582 0.58647   2
   0  -2  -8 22.8723 2.75563   3
   0  -2  -8 45.3717 3.72051   1
   0  -2  -8 15.8165 1.89636   2
   0   2   8 34.8139 3.72169   1
   0   2   8 30.2940 4.44964   1
   0   2   8 16.7480 1.82611   2
   0   2   8 18.7046 2.23586   2
   0   2   8 28.3386 2.73149   3
   0   2   8 26.9183 3.19860   3
  -1  -2  -8 18.1939 1.74808   2
  -1  -2  -8 24.2223 2.53654   1
  -1  -2  -8 25.0541 2.30912   3
   1   2   8 10.6762 1.99428   2
   1   2   8 22.8203 3.05902   1
   1   2   8 18.3495 2.74386   3
  -2  -2  -8 69.1104 6.90906   3
  -2  -2  -8 86.1670 7.60244   1
  -2  -2  -8 49.7513 4.80829   2
   2   2   8 70.0246 9.08694   1
   2   2   8 46.8764 5.74850   2
   2   2   8 76.1416 8.32524   3
  -3  -2  -8 5.06121 1.18258   3
  -3  -2  -8 5.42166 1.26592   2
  -3  -2  -8 4.87639 0.96197   1
   3   2   8 8.10226 1.82019   3
   3   2   8 2.94733 1.63097   2
   3   2   8 7.71909 1.88786   1
   5  -3  -8 21.4466 2.73102   1
   5  -3  -8 29.7383 2.90794   3
   5  -3  -8 8.46183 1.56924   2
  -5   3   8 33.3494 3.32907   1
  -5   3   8 23.7790 2.54763   1
  -5   3   8 10.5462 1.29303   2
  -5   3   8 10.9475 1.84716   2
  -5   3   8 20.0008 3.10628   3
  -5   3   8 25.0652 2.56202   3
   4  -3  -8 60.0473 6.50799   3
   4  -3  -8 66.6195 6.68507   1
   4  -3  -8 35.7625 3.66352   2
  -4   3   8 37.2587 3.51602   2
  -4   3   8 32.9995 3.93239   2
  -4   3   8 76.1850 7.27645   1
  -4   3   8 65.1998 6.55890   1
  -4   3   8 70.5003 6.37530   3
  -4   3   8 66.1962 7.10882   3
   3  -3  -8 56.1585 5.65927   3
   3  -3  -8 33.9500 3.35641   2
   3  -3  -8 52.4031 5.46153   1
  -3   3   8 54.3265 5.37908   1
  -3   3   8 63.2479 6.00213   1
  -3   3   8 58.2575 5.55881   3
  -3   3   8 58.8534 6.18247   3
  -3   3   8 32.9480 3.58686   2
  -3   3   8 31.7558 3.23204   2
   2  -3  -8 -0.6603 0.86002   3
   2  -3  -8 1.46265 0.84078   1
   2  -3  -8 0.55236 0.76015   2
  -2   3   8 -0.2675 0.87817   3
  -2   3   8 0.89359 0.82216   3
  -2   3   8 -0.1103 0.73440   3
  -2   3   8 -0.1068 0.68662   2
  -2   3   8 0.53904 0.86241   2
  -2   3   8 0.14990 0.65560   2
  -2   3   8 0.53733 0.94502   1
  -2   3   8 0.56729 0.60818   1
  -2   3   8 0.85628 0.89801   1
   1  -3  -8 2.28767 0.91024   3
   1  -3  -8 10.7331 1.18091   1
   1  -3  -8 2.94005 0.88844   2
  -1   3   8 8.27758 1.01704   1
  -1   3   8 4.92297 1.33053   1
  -1   3   8 5.03374 1.16356   1
  -1   3   8 2.55970 0.99632   2
  -1   3   8 1.56427 0.85221   2
  -1   3   8 3.36097 0.67243   2
  -1   3   8 3.14019 0.96901   3
  -1   3   8 4.79401 1.08649   3
  -1   3   8 6.56751 0.90692   3
   0  -3  -8 89.4630 8.67666   2
   0  -3  -8 140.994 13.8924   1
   0  -3  -8 130.545 12.9011   3
   0   3   8 147.808 13.8974   1
   0   3   8 153.722 16.4947   1
   0   3   8 142.536 12.9040   3
   0   3   8 136.079 15.2798   3
   0   3   8 83.9927 8.62485   2
   0   3   8 99.8802 10.2510   2
  -1  -3  -8 5.63582 1.02243   1
  -1  -3  -8 3.33317 1.04201   2
  -1  -3  -8 6.33155 1.14040   3
   1   3   8 9.90843 1.38808   3
   1   3   8 5.53797 1.45402   3
   1   3   8 2.21204 0.92863   2
   1   3   8 3.80631 1.13679   2
   1   3   8 5.17192 1.21239   1
   1   3   8 3.77710 1.29369   1
  -2  -3  -8 12.2898 1.58534   2
  -2  -3  -8 25.6193 2.43726   1
  -2  -3  -8 22.8752 2.31988   3
   2   3   8 17.3962 2.98132   1
   2   3   8 18.5106 2.88118   3
   2   3   8 10.1130 1.94868   2
  -3  -3  -8 56.3461 6.22949   2
  -3  -3  -8 104.852 10.1667   3
  -3  -3  -8 80.8949 8.43734   1
   3   3   8 108.513 12.2180   3
   3   3   8 76.6352 7.69298   2
   3   3   8 106.499 10.3603   1
   5  -4  -8 9.10439 1.62300   3
   5  -4  -8 4.73465 1.35542   2
   5  -4  -8 8.61953 1.55613   1
  -5   4   8 7.75593 1.14401   1
  -5   4   8 8.79765 1.84100   1
  -5   4   8 5.54378 1.00829   2
  -5   4   8 2.80923 1.45541   2
  -5   4   8 8.23944 1.17243   3
  -5   4   8 7.83164 1.87646   3
   4  -4  -8 -0.1953 1.03905   3
   4  -4  -8 1.51755 0.96328   1
   4  -4  -8 -0.1237 0.91302   2
  -4   4   8 0.79658 0.69026   1
  -4   4   8 0.24917 1.13645   1
  -4   4   8 1.13390 1.13992   3
  -4   4   8 2.61214 0.72448   3
  -4   4   8 1.32668 1.01742   2
  -4   4   8 0.04930 0.69705   2
   3  -4  -8 30.4876 2.94179   3
   3  -4  -8 48.5435 5.34882   1
   3  -4  -8 19.9201 1.74375   2
  -3   4   8 24.4885 2.84672   3
  -3   4   8 30.4245 3.29396   3
  -3   4   8 12.6135 1.83900   2
  -3   4   8 13.0827 1.55860   2
  -3   4   8 59.7909 5.83038   1
  -3   4   8 55.1924 5.25769   1
   2  -4  -8 65.6853 5.54047   1
   2  -4  -8 24.8865 2.64058   3
   2  -4  -8 11.5211 1.57567   2
  -2   4   8 13.3568 1.48627   2
  -2   4   8 17.0601 1.77366   2
  -2   4   8 13.1006 1.92734   2
  -2   4   8 30.4242 2.95933   3
  -2   4   8 23.0194 2.58742   3
  -2   4   8 21.8857 3.06173   3
  -2   4   8 68.1233 5.46969   1
  -2   4   8 53.1197 5.97787   1
  -2   4   8 40.3268 6.49470   1
   1  -4  -8 16.1268 1.91477   2
   1  -4  -8 33.8129 3.54753   3
  -1   4   8 57.0697 5.34280   1
  -1   4   8 42.3193 5.81303   1
  -1   4   8 33.1783 3.44171   3
  -1   4   8 33.6869 3.75604   3
  -1   4   8 34.9995 4.09314   3
  -1   4   8 19.1544 2.12815   2
  -1   4   8 17.5514 2.33603   2
  -1   4   8 95.7559 9.17233  -2
  -1   4   8 95.7559 9.17233   1
   0   4   8 1.08571 1.07867   3
   0   4   8 2.47696 0.93850   3
   0   4   8 -0.3296 1.48058  -2
   0   4   8 -0.3296 1.48058   1
   0   4   8 3.73198 1.86626  -2
   0   4   8 3.73198 1.86626   1
  -1  -4  -8 50.7394 4.98808   1
  -1  -4  -8 31.5957 2.92450   2
   1   4   8 25.1484 2.74160   2
   1   4   8 23.2934 3.34510   2
   1   4   8 48.4439 4.94652   1
   1   4   8 49.6118 5.91933   1
   1   4   8 38.0977 5.16953   3
   1   4   8 50.7650 4.45770   3
  -2  -4  -8 -0.2024 1.07594   1
  -2  -4  -8 -0.1328 1.12171   3
  -2  -4  -8 0.45898 1.21137   2
   2   4   8 -0.2830 1.45998   1
   2   4   8 2.19425 1.50021   2
   2   4   8 0.15961 1.53585   3
  -3  -4  -8 3.96690 1.08695   1
  -3  -4  -8 3.83314 1.30075   2
  -3  -4  -8 8.03043 1.56136   3
   3   4   8 2.19597 2.09064   2
   3   4   8 3.74661 2.13912   1
   3   4   8 8.21112 2.39415   3
   5  -5  -8 3.75766 1.47138   3
   5  -5  -8 4.07807 1.39634   1
   5  -5  -8 0.96408 1.16636   2
  -5   5   8 5.72527 1.74477   3
  -5   5   8 1.22999 1.43323   2
  -5   5   8 2.07063 0.75773   2
  -5   5   8 9.35416 2.01416   1
   4  -5  -8 20.0600 2.37019   1
   4  -5  -8 -0.3785 0.92875   2
   4  -5  -8 1.66922 1.11435   3
  -4   5   8 1.00505 1.22593   2
  -4   5   8 1.31297 0.68588   2
  -4   5   8 19.9733 2.21633   1
  -4   5   8 29.1036 2.87283   1
  -4   5   8 1.68189 0.75411   3
  -4   5   8 4.31293 1.36334   3
   3  -5  -8 35.3172 3.50893   3
   3  -5  -8 19.7885 2.22696   2
   3  -5  -8 54.2843 5.18747   1
  -3   5   8 32.3466 3.84211   3
  -3   5   8 34.2958 3.41846   3
  -3   5   8 19.5248 2.17071   2
  -3   5   8 21.9795 2.46083   2
  -3   5   8 49.3785 5.02916   1
  -3   5   8 54.4775 5.65566   1
   2  -5  -8 0.90827 0.76967   2
   2  -5  -8 0.34189 0.93445   3
  -2   5   8 0.32376 0.75600   3
  -2   5   8 -0.1838 0.92801   3
  -2   5   8 0.17282 1.10548   3
  -2   5   8 2.30444 0.72572   2
  -2   5   8 1.60827 1.12060   2
  -2   5   8 1.03641 0.91669   2
   1  -5  -8 0.72116 0.99415   3
   1  -5  -8 3.72670 1.76802  -2
   1  -5  -8 3.72670 1.76802   1
  -1   5   8 0.56437 1.98686  -2
  -1   5   8 0.56437 1.98686   1
  -1   5   8 -1.2774 1.56440  -2
  -1   5   8 -1.2774 1.56440   1
  -1   5   8 0.38558 1.13205   3
  -1   5   8 -0.0926 0.79201   3
  -1   5   8 0.56208 1.04362   3
  -1   5   8 0.12967 1.15287   1
  -1   5   8 0.14705 1.05580   2
   0  -5  -8 0.20709 1.46800   3
   0   5   8 -0.7107 2.19002  -2
   0   5   8 -0.7107 2.19002   1
   0   5   8 2.52011 1.75457  -2
   0   5   8 2.52011 1.75457   1
   0   5   8 -0.6383 0.83680   3
   0   5   8 0.33356 1.21736   3
   1   5   8 54.3132 5.65988  -2
   1   5   8 54.3132 5.65988   1
   1   5   8 34.4192 4.18132   3
   1   5   8 30.5909 3.39626   3
   1   5   8 24.6182 3.27598   2
   1   5   8 31.8681 4.08646   1
   2   5   8 -0.6419 1.69589   1
   2   5   8 0.86516 1.71785   2
   2   5   8 -1.0416 1.69488   3
  -3  -5  -8 1.62970 1.16266   1
  -3  -5  -8 1.08314 1.43098   2
  -3  -5  -8 -0.3623 1.47153   3
   3   5   8 -0.3190 2.16616   2
   3   5   8 1.96632 2.31955   3
   3   5   8 0.03572 2.19210   1
   5  -6  -8 0.75046 1.31461   2
   5  -6  -8 2.26156 1.54131   3
   5  -6  -8 2.40825 1.40257   1
  -5   6   8 1.11714 1.54705   2
  -5   6   8 3.55216 1.93718   1
  -5   6   8 6.72711 2.09057   3
   4  -6  -8 6.95792 1.35801   3
   4  -6  -8 3.88610 1.07402   2
   4  -6  -8 3.92169 1.15219   1
  -4   6   8 3.37417 1.52826   1
  -4   6   8 3.14278 1.24841   2
  -4   6   8 2.34474 0.70817   2
  -4   6   8 5.14195 1.68432   3
   3  -6  -8 2.38334 1.04824   2
   3  -6  -8 8.45312 1.53308   3
   3  -6  -8 6.88238 1.37436   1
  -3   6   8 8.34199 1.10733   1
  -3   6   8 7.93901 1.53203   1
  -3   6   8 11.8070 1.19980   3
  -3   6   8 5.49844 1.50474   3
  -3   6   8 4.85747 0.80568   2
  -3   6   8 3.69729 1.12494   2
   2  -6  -8 6.19058 1.44784   3
   2  -6  -8 6.68458 1.33843   1
   2  -6  -8 5.55907 1.08429   2
  -2   6   8 6.84693 0.93990   2
  -2   6   8 3.44726 1.47683   2
  -2   6   8 5.54058 1.30447   2
  -2   6   8 9.08233 1.60606   1
  -2   6   8 11.3464 1.82837   1
  -2   6   8 10.2793 1.26214   1
  -2   6   8 10.6271 1.28952   3
  -2   6   8 8.80623 1.73190   3
  -2   6   8 13.5763 1.84806   3
   1  -6  -8 1.64724 1.90395  -2
   1  -6  -8 1.64724 1.90395   1
   1  -6  -8 0.23901 1.10308   3
  -1   6   8 0.86132 2.11892  -2
  -1   6   8 0.86132 2.11892   1
  -1   6   8 2.85111 2.58317  -2
  -1   6   8 2.85111 2.58317   1
  -1   6   8 0.35836 1.50669  -2
  -1   6   8 0.35836 1.50669   1
  -1   6   8 0.14131 1.20920   3
  -1   6   8 0.24445 0.78964   3
  -1   6   8 -0.3500 1.25044   3
   0   6   8 57.1688 5.64604   3
   0   6   8 58.1137 6.78502   3
   0   6   8 98.3720 9.22647  -2
   0   6   8 98.3720 9.22647   1
   0   6   8 92.7939 11.0295  -2
   0   6   8 92.7939 11.0295   1
   1   6   8 6.21782 1.26633   3
   1   6   8 1.20574 1.57575   3
   1   6   8 6.51666 3.42284  -2
   1   6   8 6.51666 3.42284   1
   1   6   8 7.84654 2.47249  -2
   1   6   8 7.84654 2.47249   1
   2   6   8 49.4320 6.24242   3
   2   6   8 26.9250 3.76922   2
   2   6   8 50.5507 6.33605   1
   4  -7  -8 89.8951 8.58064   1
   4  -7  -8 48.2796 4.76993   2
  -4   7   8 73.5207 7.86193   3
  -4   7   8 44.6792 5.12335   2
  -4   7   8 86.4357 9.34578   1
   3  -7  -8 101.457 10.2026   2
   3  -7  -8 170.528 15.7895   3
   3  -7  -8 246.578 23.1498   1
  -3   7   8 240.829 23.0147   1
  -3   7   8 252.231 25.2644   1
  -3   7   8 112.572 11.1835   2
  -3   7   8 107.521 10.0937   2
  -3   7   8 160.351 15.6120   3
  -3   7   8 174.465 17.2144   3
   2  -7  -8 -0.2991 1.17788   3
   2  -7  -8 1.93539 2.26511  -2
   2  -7  -8 1.93539 2.26511   1
  -2   7   8 -0.5001 0.66095   2
  -2   7   8 0.19921 1.01576   2
  -2   7   8 0.09903 1.32835   2
  -2   7   8 -0.0426 1.33275   1
  -2   7   8 0.82727 1.54603   1
  -2   7   8 0.42491 0.73728   1
  -2   7   8 1.14170 1.29363   3
  -2   7   8 -0.3764 1.36264   3
  -2   7   8 0.30089 0.73044   3
   1  -7  -8 -1.6951 1.21381   3
   1  -7  -8 2.62530 1.92948  -2
   1  -7  -8 2.62530 1.92948   1
  -1   7   8 0.85148 1.43765   3
  -1   7   8 0.52376 0.83186   3
  -1   7   8 0.61740 1.42271   3
  -1   7   8 1.50784 2.56626  -2
  -1   7   8 1.50784 2.56626   1
  -1   7   8 -2.2307 2.11426  -2
  -1   7   8 -2.2307 2.11426   1
  -1   7   8 -0.8959 1.46897  -2
  -1   7   8 -0.8959 1.46897   1
   0   7   8 1.65304 1.01672   3
   0   7   8 2.55156 1.57448   3
   0   7   8 4.81707 1.92455  -2
   0   7   8 4.81707 1.92455   1
   0   7   8 6.03308 2.51822  -2
   0   7   8 6.03308 2.51822   1
   1   7   8 21.2860 2.37874   3
   1   7   8 16.1003 2.93836   3
   1   7   8 20.3473 3.17027  -2
   1   7   8 20.3473 3.17027   1
   1   7   8 16.5330 2.77404   1
   1   7   8 6.71278 1.91194   2
   2   7   8 0.49610 2.18843   2
   2   7   8 -1.6828 1.50286   2
   2   7   8 0.26499 1.74861   3
   2   7   8 -4.0762 2.21518   3
   2   7   8 1.04723 2.15979   1
   4  -8  -8 0.18650 1.51643   3
   4  -8  -8 0.30348 1.24845   2
   4  -8  -8 4.13351 1.46870   1
  -4   8   8 2.89224 1.99362   3
  -4   8   8 2.56380 1.97708   1
  -4   8   8 0.31445 1.68966   2
   3  -8  -8 7.11396 1.31024   2
   3  -8  -8 12.2995 1.89034   1
   3  -8  -8 8.29442 1.68215   3
  -3   8   8 4.99788 1.67078   2
  -3   8   8 8.03944 1.01097   2
  -3   8   8 15.0742 2.15344   3
  -3   8   8 17.6553 2.33557   1
   2  -8  -8 15.9522 2.13963   3
   2  -8  -8 29.9641 3.62793  -2
   2  -8  -8 29.9641 3.62793   1
  -2   8   8 15.3457 2.25911   2
  -2   8   8 13.4190 1.53089   2
  -2   8   8 11.1971 2.02440   2
  -2   8   8 20.4692 2.07657   1
  -2   8   8 15.4349 2.80716   1
  -2   8   8 20.5309 2.77724   1
  -2   8   8 15.7212 2.59625   3
  -2   8   8 17.9910 1.85975   3
  -2   8   8 15.6061 2.42701   3
   1  -8  -8 55.7265 5.66171   3
   1  -8  -8 55.9271 6.06387   3
   1  -8  -8 105.021 10.6016  -2
   1  -8  -8 105.021 10.6016   1
   1  -8  -8 93.6864 9.72589  -2
   1  -8  -8 93.6864 9.72589   1
  -1   8   8 105.839 10.6379  -2
  -1   8   8 105.839 10.6379   1
  -1   8   8 93.7146 11.5438  -2
  -1   8   8 93.7146 11.5438   1
  -1   8   8 100.833 9.57037  -2
  -1   8   8 100.833 9.57037   1
  -1   8   8 54.1899 5.35910   3
  -1   8   8 58.8629 6.13751   3
  -1   8   8 49.8356 6.55253   3
   0   8   8 58.5357 5.99114  -2
   0   8   8 58.5357 5.99114   1
   0   8   8 61.5199 7.30834  -2
   0   8   8 61.5199 7.30834   1
   0   8   8 37.2596 4.96779   3
   0   8   8 41.5655 4.14512   3
   1   8   8 71.4408 7.37199  -2
   1   8   8 71.4408 7.37199   1
   1   8   8 73.6060 9.18260  -2
   1   8   8 73.6060 9.18260   1
   1   8   8 44.2557 4.69448   3
   1   8   8 47.7233 5.92072   3
   3  -9  -8 16.1753 2.32788   1
   3  -9  -8 13.5995 1.73467   2
   3  -9  -8 21.7503 2.89552   3
  -3   9   8 6.49609 1.85882   2
  -3   9   8 28.7514 3.50168   3
  -3   9   8 24.0800 2.98831   1
   2  -9  -8 25.6621 2.83300   3
   2  -9  -8 40.3701 4.56139  -2
   2  -9  -8 40.3701 4.56139   1
  -2   9   8 24.6312 3.35086   1
  -2   9   8 26.6093 3.16522   1
  -2   9   8 20.4118 2.34932   1
  -2   9   8 19.1247 1.90277   2
  -2   9   8 16.2341 2.73777   2
  -2   9   8 14.0625 2.48946   2
  -2   9   8 33.0869 3.45224   3
  -2   9   8 22.2958 2.42474   3
  -2   9   8 22.1274 3.34948   3
   1  -9  -8 0.44899 1.53550   3
   1  -9  -8 1.44407 1.71799   3
   1  -9  -8 6.80621 2.47709  -2
   1  -9  -8 6.80621 2.47709   1
   1  -9  -8 4.64606 2.21176  -2
   1  -9  -8 4.64606 2.21176   1
  -1   9   8 -0.3895 3.03671  -2
  -1   9   8 -0.3895 3.03671   1
  -1   9   8 -1.1432 2.57787  -2
  -1   9   8 -1.1432 2.57787   1
  -1   9   8 1.14338 1.74661  -2
  -1   9   8 1.14338 1.74661   1
  -1   9   8 1.20081 1.85747   3
  -1   9   8 3.36059 1.90834   3
  -1   9   8 2.25006 1.07582   3
   0   9   8 17.8839 3.08206   3
   0   9   8 18.9978 2.28352   3
   0   9   8 29.1809 3.54336  -2
   0   9   8 29.1809 3.54336   1
   0   9   8 33.6048 4.72786  -2
   0   9   8 33.6048 4.72786   1
   1   9   8 1.19409 3.73091   3
   1   9   8 0.92577 1.43803   3
   1   9   8 -0.3548 2.70072  -2
   1   9   8 -0.3548 2.70072   1
   3 -10  -8 2.24825 1.65638   3
   3 -10  -8 2.30412 1.37724   1
   3 -10  -8 2.05755 1.30469   2
  -3  10   8 2.28192 2.31058   3
  -3  10   8 1.52789 1.99837   1
  -3  10   8 0.17109 1.64873   2
   2 -10  -8 5.30671 1.84881   2
   2 -10  -8 7.41785 2.64513  -2
   2 -10  -8 7.41785 2.64513   1
   2 -10  -8 1.34493 1.96006   1
   2 -10  -8 1.81061 1.64577   3
  -2  10   8 1.44819 2.13108   1
  -2  10   8 2.85386 1.91594   2
  -2  10   8 2.02999 0.79430   2
  -2  10   8 1.44244 2.98907   3
  -2  10   8 1.91448 2.00298   3
  -2  10   8 5.64578 4.54685  -2
  -2  10   8 5.64578 4.54685   1
   1 -10  -8 12.8822 2.48681   3
   1 -10  -8 12.5342 3.58392  -2
   1 -10  -8 12.5342 3.58392   1
  -1  10   8 10.6783 2.61958   3
  -1  10   8 12.6708 1.62645   3
  -1  10   8 9.76504 2.38924   3
  -1  10   8 22.8186 3.78604  -2
  -1  10   8 22.8186 3.78604   1
  -1  10   8 25.4030 2.78098  -2
  -1  10   8 25.4030 2.78098   1
  -1  10   8 28.1885 4.47272  -2
  -1  10   8 28.1885 4.47272   1
   0  10   8 42.3080 5.69199   3
   0  13  -9 0.08289 2.71619   1
   0  13  -9 -1.5817 2.03660   1
   0  13  -9 0.41065 2.59016   3
   0  13  -9 0.35884 1.98934   3
   0  13  -9 1.15232 2.68044   2
   0  13  -9 0.69571 2.13209   2
   0 -13   9 0.70378 1.25879   3
   0 -13   9 -0.2016 1.10338   2
   0 -13   9 -1.1557 2.47187   2
   0 -13   9 1.24852 1.20935   1
  -1  13  -9 2.33944 2.22378   2
  -1  13  -9 0.48725 2.57263   2
  -1  13  -9 6.56358 1.95608   3
  -1  13  -9 3.13130 2.00086   1
   1 -13   9 6.47619 1.57969   3
   1 -13   9 1.56196 4.55083   3
   1 -13   9 4.45199 1.46948   1
   1 -13   9 7.42836 4.25824   1
   1 -13   9 -0.1185 2.39388   2
   1 -13   9 2.53982 1.05511   2
   1  12  -9 7.48967 2.23702   2
   1  12  -9 10.5069 2.54131   2
   1  12  -9 18.5549 3.35016   3
   1  12  -9 21.5578 3.03283   3
   1  12  -9 14.2213 3.21480   1
   1  12  -9 15.9824 2.82542   1
  -1 -12   9 11.3153 2.38892   2
  -1 -12   9 9.28448 1.55980   2
  -1 -12   9 9.01068 1.87414   2
  -1 -12   9 16.1025 2.55808   1
  -1 -12   9 17.2971 2.19730   1
  -1 -12   9 29.3921 3.38718   1
  -1 -12   9 19.1247 3.40982   3
  -1 -12   9 20.9965 2.94629   3
  -1 -12   9 19.2234 2.45645   3
   0  12  -9 0.34341 2.06973   2
   0  12  -9 0.45095 1.86310   2
   0  12  -9 2.49433 1.81079   1
   0  12  -9 2.23674 2.23503   1
   0  12  -9 0.12351 1.44239   3
   0  12  -9 1.29848 2.20700   3
   0 -12   9 0.65384 2.29548   3
   0 -12   9 0.71482 1.06710   3
   0 -12   9 -0.6710 0.90872   2
   0 -12   9 -0.5112 1.87641   2
   0 -12   9 2.78035 1.08253   1
   0 -12   9 1.27972 2.11007   1
  -1  12  -9 2.53051 1.73153   2
  -1  12  -9 2.55613 1.86738   2
  -1  12  -9 2.78716 1.71599   1
  -1  12  -9 6.71790 1.88321   3
   1 -12   9 3.92495 2.31779   3
   1 -12   9 5.38397 1.19227   3
   1 -12   9 0.68236 1.99549   2
   1 -12   9 1.60375 0.94541   2
   1 -12   9 1.29962 2.19413   1
   1 -12   9 4.39880 1.05233   1
  -2  12  -9 22.0708 3.29876   3
  -2  12  -9 29.0447 3.59264   1
  -2  12  -9 5.98793 2.27641   2
   2 -12   9 26.8806 2.87115   1
   2 -12   9 26.1043 3.99710   1
   2 -12   9 10.8742 1.46402   2
   2 -12   9 11.3498 2.55216   2
   2 -12   9 26.0454 2.65260   3
   2 -12   9 25.2606 3.88492   3
   2  11  -9 53.2797 4.98081   1
   2  11  -9 52.1315 6.07112   1
   2  11  -9 45.8182 6.25562   1
   2  11  -9 51.5938 6.52514   3
   2  11  -9 46.2331 5.22361   3
   2  11  -9 56.8653 6.32119   3
   2  11  -9 23.1190 3.59761   2
   2  11  -9 26.4206 2.77864   2
   2  11  -9 23.5188 3.73479   2
  -2 -11   9 49.4170 5.27558   1
  -2 -11   9 56.6670 6.60468   1
  -2 -11   9 45.3780 5.50441   1
  -2 -11   9 27.2478 2.90670   2
  -2 -11   9 23.7584 3.18172   2
  -2 -11   9 28.2724 3.73882   2
  -2 -11   9 63.7958 6.70624   3
  -2 -11   9 51.9052 5.60689   3
  -2 -11   9 56.0780 5.89808   3
   1  11  -9 56.1704 6.60838   3
   1  11  -9 59.7494 7.09533   3
   1  11  -9 30.4394 4.05305   2
   1  11  -9 30.4482 4.27514   2
   1  11  -9 57.6056 6.75751   1
   1  11  -9 45.3475 6.17382   1
  -1 -11   9 62.2840 5.92655   1
  -1 -11   9 55.8928 6.70344   1
  -1 -11   9 51.0540 5.44284   1
  -1 -11   9 32.0998 3.78893   2
  -1 -11   9 33.3889 3.50480   2
  -1 -11   9 33.4640 4.28849   2
  -1 -11   9 63.3666 6.38141   3
  -1 -11   9 63.4360 7.12890   3
  -1 -11   9 48.7963 5.78624   3
   0  11  -9 3.10508 1.32685   3
   0  11  -9 2.09671 1.66622   2
   0  11  -9 0.20828 1.84617   2
   0  11  -9 7.40815 1.79478   1
   0 -11   9 2.53662 0.97898   3
   0 -11   9 1.50993 1.94098   3
   0 -11   9 0.96304 1.56169   2
   0 -11   9 0.43959 0.89977   2
   0 -11   9 5.80746 1.92801   1
   0 -11   9 4.76322 1.07840   1
  -1  11  -9 5.49514 1.83350   2
  -1  11  -9 14.9655 2.67841   3
  -1  11  -9 20.0324 2.61286   1
   1 -11   9 16.3073 1.94586   1
   1 -11   9 17.5767 2.91109   1
   1 -11   9 7.88745 2.09538   2
   1 -11   9 9.79940 1.24141   2
   1 -11   9 20.4708 2.15890   3
   1 -11   9 24.2254 3.22371   3
  -2  11  -9 4.11154 1.58945   3
  -2  11  -9 2.79483 1.76157   2
  -2  11  -9 3.72303 1.65211   1
   2 -11   9 1.13058 1.88432   2
   2 -11   9 2.51901 1.05716   2
   2 -11   9 4.48804 1.09409   3
   2 -11   9 5.09357 2.25709   3
   2 -11   9 5.75163 1.13888   1
   2 -11   9 4.60393 2.13133   1
  -3  11  -9 0.47757 1.75900   2
  -3  11  -9 4.39877 1.86669   3
  -3  11  -9 5.13313 1.88023   1
   3 -11   9 2.56258 2.60852   3
   3 -11   9 5.93465 1.28954   3
   3 -11   9 4.26061 1.95436   2
   3 -11   9 3.06947 1.17889   2
   3 -11   9 3.65386 2.41174   2
   3 -11   9 4.93513 1.15970   1
   3 -11   9 2.74470 2.44976   1
   3  10  -9 91.7119 8.53034   1
   3  10  -9 83.0149 9.74586   1
   3  10  -9 55.3575 6.87236   2
   3  10  -9 57.4442 5.73767   2
   3  10  -9 111.783 9.66067   3
   3  10  -9 89.7471 11.0706   3
  -3 -10   9 94.3491 10.6124   3
  -3 -10   9 56.5324 6.31029   2
  -3 -10   9 84.8556 9.27184   1
   2  10  -9 3.18161 2.05517   1
   2  10  -9 2.47390 1.77833   1
   2  10  -9 3.75861 1.03765   1
   2  10  -9 0.58318 1.85090   2
   2  10  -9 0.60431 0.86889   2
   2  10  -9 -1.2559 1.48151   2
   2  10  -9 0.34156 1.65454   3
   2  10  -9 1.28969 0.97949   3
   2  10  -9 1.90207 1.93420   3
  -2 -10   9 0.37996 1.29687   3
  -2 -10   9 1.41493 1.36262   3
  -2 -10   9 0.85579 1.82507   3
  -2 -10   9 4.98489 1.94648   1
  -2 -10   9 3.91185 1.33414   1
  -2 -10   9 1.80984 1.23866   1
  -2 -10   9 -0.6861 1.15085   2
  -2 -10   9 -0.1716 1.08698   2
  -2 -10   9 0.54861 1.82972   2
   1  10  -9 1.08759 1.35171   2
   1  10  -9 -0.0989 1.56187   2
   1  10  -9 0.89128 0.62959   1
   1  10  -9 1.62812 1.80161   1
   1  10  -9 2.12787 1.53759   1
   1  10  -9 2.46159 1.47482   3
   1  10  -9 1.93990 0.68671   3
   1  10  -9 3.03156 1.80140   3
  -1 -10   9 0.77158 0.87890   2
  -1 -10   9 1.39411 1.55389   2
  -1 -10   9 1.08473 1.17050   2
  -1 -10   9 2.98362 0.97391   1
  -1 -10   9 2.12808 1.23036   1
  -1 -10   9 0.54156 1.65674   1
  -1 -10   9 3.10271 1.43606   3
  -1 -10   9 1.60932 1.04585   3
  -1 -10   9 1.29758 1.84841   3
   0  10  -9 3.94358 1.47098   2
   0  10  -9 2.90233 1.63038   2
   0  10  -9 10.4430 1.72759   3
   0  10  -9 6.52278 1.54669   1
   0 -10   9 2.31400 1.59982   2
   0 -10   9 2.90323 0.84977   2
   0 -10   9 7.62244 2.00650   3
   0 -10   9 7.66086 1.29112   3
   0 -10   9 8.63166 1.22670   1
   0 -10   9 7.93616 1.93321   1
  -1  10  -9 2.41676 1.58038   2
  -1  10  -9 5.28173 1.37791   3
  -1  10  -9 9.83667 1.77561   1
   1 -10   9 5.63257 1.98849   3
   1 -10   9 5.98401 1.05735   3
   1 -10   9 2.08689 0.73938   2
   1 -10   9 2.67017 1.66236   2
   1 -10   9 11.3704 1.34678   1
   1 -10   9 7.61248 1.97649   1
  -2  10  -9 3.51782 1.49526   1
  -2  10  -9 1.17293 1.38859   2
  -2  10  -9 3.42121 1.32651   3
   2 -10   9 3.99256 2.04604   3
   2 -10   9 5.50019 1.05840   3
   2 -10   9 2.75701 0.94752   2
   2 -10   9 2.34675 1.74306   2
   2 -10   9 4.75818 1.94215   1
   2 -10   9 4.29153 1.04610   1
  -3  10  -9 11.9153 2.18066   3
  -3  10  -9 10.3961 2.09503   1
  -3  10  -9 3.75830 1.72249   2
   3 -10   9 8.21583 1.32724   1
   3 -10   9 11.9838 2.65220   1
   3 -10   9 10.9866 1.57848   3
   3 -10   9 12.6736 2.78069   3
   3 -10   9 4.91576 2.27108   2
   3 -10   9 1.42628 2.08690   2
   3 -10   9 4.98827 1.08834   2
   3   9  -9 11.9529 1.92664   1
   3   9  -9 15.3716 2.61801   1
   3   9  -9 5.55090 1.46929   2
   3   9  -9 11.0745 2.11247   2
   3   9  -9 16.4651 2.13259   3
   3   9  -9 18.5395 2.78339   3
  -3  -9   9 13.1217 2.04686   1
  -3  -9   9 16.4618 2.48551   3
  -3  -9   9 7.31008 1.63380   2
   2   9  -9 2.42785 1.85327   1
   2   9  -9 0.28921 1.58816   1
   2   9  -9 -0.2963 0.89075   1
   2   9  -9 -0.2646 1.63075   2
   2   9  -9 0.09989 0.83264   2
   2   9  -9 0.06235 1.36358   2
   2   9  -9 0.36992 1.72466   3
   2   9  -9 1.58332 0.92849   3
   2   9  -9 0.18693 1.52738   3
  -2  -9   9 0.94204 1.15597   1
  -2  -9   9 1.46374 1.11383   1
  -2  -9   9 1.79337 1.58636   1
  -2  -9   9 0.74621 1.74682   3
  -2  -9   9 0.83553 1.17288   3
  -2  -9   9 2.10330 1.18354   3
  -2  -9   9 -0.1520 1.47621   2
  -2  -9   9 -0.0641 1.00352   2
  -2  -9   9 1.00692 1.12060   2
   1   9  -9 3.19162 1.53778   2
   1   9  -9 1.03980 1.27277   2
   1   9  -9 2.15789 0.69866   2
   1   9  -9 4.51229 1.85905   1
   1   9  -9 6.69573 1.61308   1
   1   9  -9 5.33337 0.90246   1
   1   9  -9 6.73083 1.74997   3
   1   9  -9 6.12298 0.93199   3
   1   9  -9 8.77736 1.60651   3
  -1  -9   9 6.09951 1.12756   3
  -1  -9   9 4.46404 1.23413   3
  -1  -9   9 4.66776 1.69214   3
  -1  -9   9 5.75819 1.70627   1
  -1  -9   9 8.39767 1.13076   1
  -1  -9   9 7.87732 1.25450   1
  -1  -9   9 3.11040 1.15912   2
  -1  -9   9 2.24809 1.42385   2
  -1  -9   9 2.69422 0.88376   2
   0   9  -9 0.43903 1.16268   3
   0   9  -9 -1.4044 1.16355   1
   0   9  -9 -0.4919 1.25481   2
   0  -9   9 0.00911 0.69891   2
   0  -9   9 -1.0844 1.42332   2
   0  -9   9 0.05781 0.83137   3
   0  -9   9 -1.8038 1.52075   3
   0  -9   9 0.66507 0.77779   1
   0  -9   9 0.63378 1.52901   1
  -1   9  -9 2.67920 1.33977   2
  -1   9  -9 6.65973 1.41257   3
  -1   9  -9 6.13914 1.56967   1
   1  -9   9 3.21494 0.79794   2
   1  -9   9 3.34123 1.44118   2
   1  -9   9 3.92883 0.88204   3
   1  -9   9 4.87818 1.55899   3
   1  -9   9 7.12627 1.09020   1
   1  -9   9 8.85790 1.83175   1
  -2   9  -9 1.80399 1.28155   3
  -2   9  -9 2.41468 1.19141   1
  -2   9  -9 2.33668 1.45382   2
   2  -9   9 2.28079 1.73267   3
   2  -9   9 1.78902 0.92815   3
   2  -9   9 3.62291 1.50201   2
   2  -9   9 -0.2878 0.76450   2
   2  -9   9 2.41273 0.93062   1
   2  -9   9 3.50546 1.67529   1
  -3   9  -9 0.68360 1.50865   2
  -3   9  -9 0.99446 1.48376   3
  -3   9  -9 0.11123 1.57328   1
   3  -9   9 1.77421 1.59184   2
   3  -9   9 -0.7010 1.07294   2
   3  -9   9 -0.8177 1.66878   2
   3  -9   9 0.77530 0.94745   1
   3  -9   9 -0.1534 1.91081   1
   3  -9   9 0.18803 1.99837   3
   3  -9   9 0.63572 0.95988   3
   3   8  -9 3.56319 1.14876   3
   3   8  -9 2.87207 1.49526   3
   3   8  -9 2.49738 1.26984   1
   3   8  -9 3.14621 1.77855   1
   3   8  -9 1.95236 1.60781   2
   3   8  -9 2.08385 1.18651   2
  -3  -8   9 2.50611 1.39516   3
  -3  -8   9 2.18755 1.20732   2
  -3  -8   9 3.62296 1.44492   1
   2   8  -9 60.0413 5.88542   1
   2   8  -9 63.9040 7.23352   1
   2   8  -9 56.4359 6.79839   1
   2   8  -9 58.9880 5.76812   3
   2   8  -9 57.7099 6.63863   3
   2   8  -9 60.3068 7.06336   3
   2   8  -9 32.0307 3.43076   2
   2   8  -9 37.2554 4.26721   2
   2   8  -9 32.2063 4.10132   2
  -2  -8   9 60.1505 5.90841   3
  -2  -8   9 57.0873 7.03134   3
  -2  -8   9 61.3217 6.34286   3
  -2  -8   9 32.8020 3.80913   2
  -2  -8   9 34.7071 3.60559   2
  -2  -8   9 35.1642 4.36182   2
  -2  -8   9 60.2250 7.20288   1
  -2  -8   9 63.0788 5.97493   1
  -2  -8   9 60.7715 6.46524   1
   1   8  -9 3.91415 1.37121   2
   1   8  -9 1.48277 0.62804   2
   1   8  -9 5.15495 0.91139   3
   1   8  -9 8.03982 1.81446   3
   1   8  -9 5.66577 1.31539   3
   1   8  -9 8.97774 1.28006   1
   1   8  -9 10.0894 1.75327   1
  -1  -8   9 1.00958 0.82382   2
  -1  -8   9 5.03163 0.99952   2
  -1  -8   9 3.44726 1.41861   2
  -1  -8   9 10.6269 1.50232   1
  -1  -8   9 16.1195 2.06059   1
  -1  -8   9 15.4050 1.51217   1
  -1  -8   9 4.46568 1.17189   3
  -1  -8   9 5.38271 1.10538   3
  -1  -8   9 6.82879 1.69703   3
   0   8  -9 3.09264 1.11143   3
   0   8  -9 3.38610 0.62301   3
   0   8  -9 34.6825 4.26075   1
   0   8  -9 1.74430 1.21638   2
   0  -8   9 39.5895 4.51802   1
   0  -8   9 35.5339 3.63125   1
   0  -8   9 3.96600 0.89295   3
   0  -8   9 6.11024 1.57082   3
   0  -8   9 2.25267 1.34741   2
   0  -8   9 2.57404 0.76550   2
  -1   8  -9 83.9009 9.09854   3
  -1   8  -9 88.4150 10.0029   1
  -1   8  -9 45.0587 5.41028   2
   1  -8   9 53.5825 5.66835   2
   1  -8   9 45.1377 4.58953   2
   1  -8   9 85.9030 9.58087   3
   1  -8   9 81.5230 7.94025   3
   1  -8   9 91.2815 10.5114   1
   1  -8   9 95.5524 8.76635   1
  -2   8  -9 0.38447 1.35398   2
  -2   8  -9 2.37445 1.20476   3
  -2   8  -9 5.29384 1.22073   1
   2  -8   9 0.97908 0.79445   2
   2  -8   9 0.61775 1.41716   2
   2  -8   9 3.27415 1.58590   1
   2  -8   9 4.09711 0.88265   1
   2  -8   9 0.94141 1.46188   3
   2  -8   9 1.72134 0.89534   3
  -3   8  -9 61.1236 7.06137   1
  -3   8  -9 67.6610 7.20908   3
  -3   8  -9 43.1447 4.54650   2
   3  -8   9 68.1673 7.63712   1
   3  -8   9 61.9080 6.06271   1
   3  -8   9 30.6409 4.34972   2
   3  -8   9 34.6219 4.57126   2
   3  -8   9 37.2253 3.70684   2
   3  -8   9 65.3703 6.26887   3
   3  -8   9 57.8671 7.70297   3
   4   7  -9 21.1876 2.71728   3
   4   7  -9 14.6569 2.20639   3
   4   7  -9 15.7317 2.57271   1
   4   7  -9 23.5814 3.27909   1
   4   7  -9 13.7664 1.91153   2
   4   7  -9 8.80138 2.42419   2
  -4  -7   9 14.6348 2.44010   3
  -4  -7   9 9.69251 2.07121   2
  -4  -7   9 22.1922 2.84072   1
   3   7  -9 11.8800 1.67233   2
   3   7  -9 10.1025 2.12663   2
   3   7  -9 21.0404 2.77927   1
   3   7  -9 16.0920 2.22030   1
   3   7  -9 24.6517 2.52093   3
   3   7  -9 19.2877 2.96771   3
  -3  -7   9 20.1601 2.42156   1
  -3  -7   9 12.1553 1.79215   2
  -3  -7   9 23.4977 2.92131   3
   2   7  -9 28.7042 3.80868   3
   2   7  -9 30.3790 3.33445   3
   2   7  -9 52.6997 4.66417   1
   2   7  -9 43.6679 5.35657   1
   2   7  -9 22.3087 2.57536   2
   2   7  -9 21.2587 2.00763   2
  -2  -7   9 15.0528 2.48745   2
  -2  -7   9 15.7983 2.17013   2
  -2  -7   9 17.0035 2.04566   2
  -2  -7   9 37.3176 4.05321   3
  -2  -7   9 34.2143 3.62300   3
  -2  -7   9 30.4145 3.32073   3
  -2  -7   9 43.5973 5.73760   1
  -2  -7   9 45.8259 4.77547   1
  -2  -7   9 47.4745 5.04027   1
   1   7  -9 70.0253 7.42498   1
   1   7  -9 65.6598 6.40138   1
   1   7  -9 20.4531 2.11872   3
   1   7  -9 12.5952 2.50822   3
   1   7  -9 10.6257 1.69968   2
   1   7  -9 8.43348 1.19082   2
  -1  -7   9 62.6025 7.75346   1
  -1  -7   9 69.5903 7.02502   1
  -1  -7   9 66.9598 6.45663   1
  -1  -7   9 10.1732 1.27690   2
  -1  -7   9 11.1609 1.74646   2
  -1  -7   9 11.1960 1.40335   2
  -1  -7   9 26.7580 2.50939   3
  -1  -7   9 24.9407 2.86293   3
  -1  -7   9 21.0298 2.23562   3
   0   7  -9 -0.9769 0.97416   3
   0   7  -9 0.14929 0.58943   3
   0   7  -9 0.54661 1.22591   2
   0   7  -9 -0.1066 0.47030   2
   0   7  -9 18.5334 1.82406   1
   0   7  -9 16.0152 2.24678   1
   0  -7   9 19.3400 2.47494   1
   0  -7   9 16.2197 1.87714   1
   0  -7   9 0.04245 0.73742   3
   0  -7   9 0.08222 1.13122   3
   0  -7   9 -0.2114 1.12956   2
   0  -7   9 0.09234 0.60466   2
  -1   7  -9 106.873 11.7879   3
  -1   7  -9 115.514 12.5029   1
  -1   7  -9 66.4354 6.60757   2
   1  -7   9 115.351 12.3201   3
   1  -7   9 106.426 10.3393   3
   1  -7   9 117.621 10.9795   1
   1  -7   9 113.663 13.0824   1
   1  -7   9 54.5628 6.82969   2
   1  -7   9 58.5507 5.72275   2
  -2   7  -9 9.28847 1.60372   2
  -2   7  -9 13.9057 1.89520   1
  -2   7  -9 16.1807 2.01495   3
   2  -7   9 13.6401 1.58025   3
   2  -7   9 10.6854 2.15324   3
   2  -7   9 10.2608 2.23928   1
   2  -7   9 14.4882 1.57636   1
   2  -7   9 4.61964 1.57935   2
   2  -7   9 7.57976 1.07567   2
  -3   7  -9 -0.5095 1.37579   2
  -3   7  -9 0.31148 1.32694   3
  -3   7  -9 0.90137 1.15725   1
   3  -7   9 0.65530 0.99888   1
   3  -7   9 -0.9378 1.60883   1
   3  -7   9 -0.5881 1.74019   3
   3  -7   9 -0.0445 0.93762   3
   3  -7   9 0.06465 0.95559   2
   3  -7   9 -0.8647 1.38561   2
   3  -7   9 0.29492 1.70075   2
  -4   7  -9 26.9358 3.60551   2
  -4   7  -9 56.1607 6.57724   3
  -4   7  -9 49.5236 5.75964   1
   4  -7   9 52.3477 6.67172   3
   4  -7   9 58.3018 5.63537   3
   4  -7   9 49.7876 4.95785   1
   4  -7   9 49.1045 5.85514   1
   4  -7   9 23.8336 2.73747   2
   4  -7   9 25.9377 3.65215   2
   4   6  -9 4.28143 1.32553   2
   4   6  -9 2.44318 1.82860   2
   4   6  -9 3.69124 2.00824   1
   4   6  -9 2.07730 2.01097   1
   4   6  -9 1.02237 1.55759   3
  -4  -6   9 0.51751 1.34132   2
  -4  -6   9 1.91304 1.36469   1
  -4  -6   9 2.45109 1.59350   3
   3   6  -9 1.57777 1.54708   2
   3   6  -9 1.03160 1.07462   2
   3   6  -9 6.56127 1.51074   1
   3   6  -9 3.87608 1.09968   1
   3   6  -9 4.16253 1.11730   3
   3   6  -9 4.12142 1.51748   3
  -3  -6   9 5.35899 1.17364   1
  -3  -6   9 3.67593 1.20080   3
  -3  -6   9 1.85175 0.99091   2
   2   6  -9 0.82290 0.82297   3
   2   6  -9 1.58311 1.05740   3
   2   6  -9 0.98648 1.07650   2
   2   6  -9 0.48108 0.79703   2
   2   6  -9 3.81819 1.23360   1
   2   6  -9 3.41066 0.91888   1
  -2  -6   9 0.51212 0.96289   3
  -2  -6   9 0.58127 0.96086   3
  -2  -6   9 1.13505 1.28424   3
  -2  -6   9 4.21094 1.00526   1
  -2  -6   9 5.68731 1.02672   1
  -2  -6   9 3.90119 1.38035   1
  -2  -6   9 -0.9720 1.18904   2
  -2  -6   9 0.67672 0.82504   2
  -2  -6   9 0.48924 0.79707   2
   1   6  -9 44.7561 4.40199   1
   1   6  -9 49.0088 5.14475   1
   1   6  -9 4.02718 1.22204   2
   1   6  -9 4.05369 0.81498   2
   1   6  -9 8.82781 1.15670   3
   1   6  -9 10.9149 1.60917   3
  -1  -6   9 47.1967 5.35596   1
  -1  -6   9 38.5267 4.45310   1
  -1  -6   9 48.2317 4.80787   1
  -1  -6   9 4.22563 0.87308   2
  -1  -6   9 5.45836 0.95845   2
  -1  -6   9 6.34236 1.29180   2
  -1  -6   9 10.4584 1.64144   3
  -1  -6   9 9.45344 1.34449   3
  -1  -6   9 8.30136 1.25674   3
   0   6  -9 0.26609 0.53171   2
   0   6  -9 0.54140 1.02797   2
   0   6  -9 -0.0865 0.82389   3
   0   6  -9 0.05272 0.56519   3
   0   6  -9 77.9472 7.31963   1
   0  -6   9 0.53060 0.97879   2
   0  -6   9 -0.0770 0.63567   2
   0  -6   9 78.0399 8.82234   1
   0  -6   9 75.9095 7.38984   1
   0  -6   9 1.28039 1.20680   3
   0  -6   9 -0.1393 0.66557   3
  -1   6  -9 4.76474 1.14972   1
  -1   6  -9 7.30478 0.81088   3
  -1   6  -9 6.42016 1.26151   3
  -1   6  -9 2.47419 1.19348   2
   1  -6   9 6.98233 1.63502   3
   1  -6   9 5.38075 1.07669   3
   1  -6   9 4.31387 1.44183   1
   1  -6   9 4.79304 0.92953   1
   1  -6   9 4.11552 0.84909   2
   1  -6   9 2.46377 1.26893   2
  -2   6  -9 2.08335 0.99253   3
  -2   6  -9 5.43961 1.17424   1
  -2   6  -9 1.27136 1.16282   2
   2  -6   9 3.55394 1.49331   1
   2  -6   9 6.59243 0.98940   1
   2  -6   9 3.44511 1.50708   3
   2  -6   9 1.56957 0.85794   3
   2  -6   9 0.71076 1.15061   2
   2  -6   9 2.06262 0.87309   2
  -3   6  -9 7.30983 1.65456   2
  -3   6  -9 8.66739 1.65879   1
  -3   6  -9 7.89749 1.70476   3
   3  -6   9 7.86828 2.04288   3
   3  -6   9 10.1071 1.50058   3
   3  -6   9 12.4175 1.36715   1
   3  -6   9 8.11792 2.09938   1
   3  -6   9 7.19897 1.69535   1
   3  -6   9 6.83132 1.84404   2
   3  -6   9 7.83544 1.27618   2
   3  -6   9 4.52515 1.72800   2
  -4   6  -9 0.67157 1.69064   3
  -4   6  -9 1.88825 1.85104   1
  -4   6  -9 1.13425 2.11964   2
   4  -6   9 1.13967 1.15020   1
   4  -6   9 0.73158 1.94788   1
   4  -6   9 0.53028 1.73545   3
   4  -6   9 1.63986 1.29521   3
   4  -6   9 0.70011 2.05813   2
   4  -6   9 2.09887 1.22734   2
   4   5  -9 0.24766 1.61275   3
   4   5  -9 1.95003 1.59938   1
   4   5  -9 -0.6909 1.85080   2
   4   5  -9 0.46734 1.22399   2
  -4  -5   9 0.74113 1.26122   3
  -4  -5   9 1.35007 1.18872   2
  -4  -5   9 1.82492 1.24208   1
   3   5  -9 0.67439 1.04664   1
   3   5  -9 0.67986 1.41077   1
   3   5  -9 0.03421 1.02583   2
   3   5  -9 0.49046 1.45084   2
   3   5  -9 -0.1483 0.95350   3
   3   5  -9 0.02202 1.25546   3
  -3  -5   9 0.72235 0.93336   2
  -3  -5   9 0.80206 1.12852   3
  -3  -5   9 -0.2306 0.90340   1
   2   5  -9 157.619 15.2924   1
   2   5  -9 167.500 17.4398   1
   2   5  -9 89.7262 9.80554   2
   2   5  -9 87.1400 8.57615   2
   2   5  -9 164.614 15.1563   3
   2   5  -9 158.418 17.2614   3
  -2  -5   9 98.4012 9.34199   2
  -2  -5   9 86.7382 10.1593   2
  -2  -5   9 86.6606 8.59560   2
  -2  -5   9 169.399 16.6808   1
  -2  -5   9 156.702 18.1310   1
  -2  -5   9 159.640 15.3327   1
  -2  -5   9 159.384 15.1958   3
  -2  -5   9 159.088 16.5331   3
  -2  -5   9 161.110 17.9514   3
   1   5  -9 4.47651 0.74647   3
   1   5  -9 2.05509 0.96801   3
   1   5  -9 19.6125 1.91956   1
   1   5  -9 17.0493 2.20311   1
   1   5  -9 2.31485 1.11916   2
   1   5  -9 0.70225 0.64344   2
  -1  -5   9 1.12240 0.91501   2
  -1  -5   9 1.15429 0.59786   2
  -1  -5   9 2.50596 0.71939   2
  -1  -5   9 3.96968 0.79581   3
  -1  -5   9 0.47461 1.09365   3
  -1  -5   9 3.27433 0.91005   3
  -1  -5   9 22.1756 2.35963   1
  -1  -5   9 15.6103 1.99174   1
  -1  -5   9 14.8585 1.81977   1
   0   5  -9 53.5802 5.52971   1
   0   5  -9 50.7835 4.75191   1
   0   5  -9 36.8745 3.96772   3
   0   5  -9 36.5893 3.44991   3
   0   5  -9 17.6645 2.11012   2
   0   5  -9 22.7326 2.63886   2
   0  -5   9 44.9673 5.79809   1
   0  -5   9 47.7903 4.80505   1
   0  -5   9 19.6000 2.55000   2
   0  -5   9 22.1219 2.17183   2
   0  -5   9 33.6548 3.48591   3
   0  -5   9 30.9961 4.30876   3
  -1   5  -9 58.0753 5.25106   3
  -1   5  -9 56.8440 6.07702   3
  -1   5  -9 31.2284 3.63594   2
  -1   5  -9 29.9226 2.99937   2
  -1   5  -9 66.9373 6.40625   1
  -1   5  -9 69.3932 7.39973   1
   1  -5   9 48.8668 6.44321   3
   1  -5   9 52.3923 5.35235   3
   1  -5   9 67.4288 7.77820   1
   1  -5   9 68.4492 6.51391   1
   1  -5   9 32.1656 3.80567   2
   1  -5   9 32.1519 3.10352   2
  -2   5  -9 5.99523 1.14548   3
  -2   5  -9 4.28249 1.16466   1
  -2   5  -9 0.24060 1.22046   2
   2  -5   9 1.88288 0.94661   1
   2  -5   9 4.71511 1.35718   1
   2  -5   9 1.54940 0.83057   2
   2  -5   9 1.76064 1.15461   2
   2  -5   9 3.35214 1.52787   3
   2  -5   9 3.83111 0.93550   3
  -3   5  -9 7.36501 1.66807   2
  -3   5  -9 16.6632 2.01507   1
  -3   5  -9 18.7763 2.43451   3
   3  -5   9 11.1812 2.30719   1
   3  -5   9 10.6381 1.60684   1
   3  -5   9 13.8316 2.04333   1
   3  -5   9 10.9679 1.77882   2
   3  -5   9 6.55874 1.24171   2
   3  -5   9 6.36216 1.82821   2
   3  -5   9 17.8421 2.49723   3
   3  -5   9 15.4428 2.00018   3
   3  -5   9 15.8522 2.64934   3
  -4   5  -9 -1.2496 1.86010   3
  -4   5  -9 1.43350 1.81071   1
   4  -5   9 -1.3610 1.85753   1
   4  -5   9 -1.2112 1.18506   1
   4  -5   9 0.87028 1.34321   3
   4  -5   9 0.00610 1.90054   3
   4  -5   9 -0.1647 1.20690   2
   4  -5   9 1.72287 2.05922   2
   5   4  -9 12.3456 2.38002   1
   5   4  -9 7.52969 2.51292   2
   5   4  -9 10.7968 2.41339   3
  -5  -4   9 12.5730 2.00495   3
  -5  -4   9 11.8153 2.62641   3
  -5  -4   9 8.03930 2.19184   1
  -5  -4   9 7.09974 1.64262   1
  -5  -4   9 7.02435 2.25548   2
   4   4  -9 3.11102 1.43493   3
   4   4  -9 0.50854 1.76292   2
   4   4  -9 0.85303 1.47410   1
  -4  -4   9 0.06398 1.18997   3
  -4  -4   9 0.01101 1.14757   3
  -4  -4   9 0.89744 1.10166   1
  -4  -4   9 0.73211 1.26637   2
   3   4  -9 0.68784 0.93282   3
   3   4  -9 0.67373 1.08677   3
   3   4  -9 1.74891 1.39728   2
   3   4  -9 -0.1484 1.01719   2
   3   4  -9 5.31004 1.37426   1
   3   4  -9 4.73283 1.14657   1
  -3  -4   9 0.84688 0.93034   3
  -3  -4   9 1.12927 0.96956   2
  -3  -4   9 4.86594 1.09345   1
   2   4  -9 46.5708 4.36869   3
   2   4  -9 37.8283 5.00713   3
   2   4  -9 70.0634 6.52629   1
   2   4  -9 67.6448 7.43579   1
   2   4  -9 21.9115 2.78511   2
   2   4  -9 22.3905 2.37185   2
  -2  -4   9 46.0125 5.25702   3
  -2  -4   9 46.0472 4.76582   3
  -2  -4   9 66.5229 6.53431   1
  -2  -4   9 63.6013 7.77200   1
  -2  -4   9 69.9039 7.07048   1
  -2  -4   9 27.3598 2.60191   2
  -2  -4   9 17.0698 2.31106   2
  -2  -4   9 25.4381 2.84681   2
   1   4  -9 3.30949 1.10371   2
   1   4  -9 3.15416 0.80828   2
   1   4  -9 10.4016 1.10372   1
   1   4  -9 8.92222 1.34876   1
   1   4  -9 8.49577 1.39265   3
   1   4  -9 7.78129 1.07400   3
  -1  -4   9 7.69120 1.11100   3
  -1  -4   9 8.53669 1.46844   3
  -1  -4   9 7.57787 1.19591   3
  -1  -4   9 8.15079 1.48299   1
  -1  -4   9 7.20668 1.14345   1
  -1  -4   9 7.33770 1.13070   1
  -1  -4   9 7.12404 1.22806   2
  -1  -4   9 4.42768 0.83293   2
  -1  -4   9 5.87965 0.85903   2
   0   4  -9 1.13656 0.96478   2
   0   4  -9 -0.0547 0.56522   2
   0   4  -9 0.82732 0.60280   1
   0   4  -9 0.70501 0.84350   1
   0   4  -9 0.14055 0.87108   3
   0   4  -9 -0.3437 0.62701   3
   0  -4   9 -0.5611 0.66758   3
   0  -4   9 0.93650 0.95148   3
   0  -4   9 0.61666 1.00441   1
   0  -4   9 1.53796 0.72021   1
   0  -4   9 -0.0673 0.82821   2
   0  -4   9 0.39373 0.68711   2
  -1   4  -9 84.4174 9.37964   3
  -1   4  -9 87.6615 8.18885   3
  -1   4  -9 120.859 12.5544   1
  -1   4  -9 116.368 10.9751   1
  -1   4  -9 48.5653 4.91880   2
  -1   4  -9 54.9347 5.70579   2
   1  -4   9 51.2902 4.97341   2
   1  -4   9 52.9227 6.00498   2
   1  -4   9 86.8598 9.85870   3
   1  -4   9 87.2182 8.25294   3
   1  -4   9 115.085 13.1275   1
   1  -4   9 114.327 11.0392   1
  -2   4  -9 53.6780 5.10886   3
  -2   4  -9 54.6745 5.95247   3
  -2   4  -9 30.1256 3.45476   2
  -2   4  -9 26.6711 2.72741   2
  -2   4  -9 43.6685 4.69104   1
  -2   4  -9 56.8136 5.55216   1
   2  -4   9 30.7418 3.63346   2
   2  -4   9 26.4174 2.92712   2
   2  -4   9 55.2491 6.36913   3
   2  -4   9 51.3761 5.23235   3
   2  -4   9 49.5569 4.83113   1
   2  -4   9 66.3887 5.96078   1
  -3   4  -9 7.16571 1.56265   2
  -3   4  -9 13.3642 1.93979   3
  -3   4  -9 12.6073 1.83478   1
   3  -4   9 10.4541 1.47637   1
   3  -4   9 9.17158 1.87667   1
   3  -4   9 12.7798 2.24110   1
   3  -4   9 8.49046 2.16880   3
   3  -4   9 13.3488 1.69265   3
   3  -4   9 13.4764 2.09708   3
   3  -4   9 5.48724 1.62952   2
   3  -4   9 3.86828 1.49854   2
   3  -4   9 3.98172 1.07918   2
  -4   4  -9 -0.0815 1.85818   3
  -4   4  -9 -0.8295 1.59100   1
   4  -4   9 -0.7564 1.22970   2
   4  -4   9 -0.5038 1.69709   2
   4  -4   9 -0.8176 1.15691   1
   4  -4   9 0.55534 1.72855   1
   4  -4   9 0.34318 1.95600   3
   4  -4   9 0.36837 1.39380   3
   5   3  -9 0.74758 2.31187   2
   5   3  -9 2.96318 2.14748   3
   5   3  -9 4.60106 2.00156   1
  -5  -3   9 2.04902 1.36824   3
  -5  -3   9 5.67494 1.65117   3
  -5  -3   9 4.19981 1.79792   1
  -5  -3   9 3.68923 1.31748   1
  -5  -3   9 4.33330 1.83859   2
  -5  -3   9 3.94362 1.39883   2
   4   3  -9 39.3535 4.45118   1
   4   3  -9 22.0467 2.74207   2
   4   3  -9 35.7155 4.10023   3
  -4  -3   9 16.5755 2.24177   2
  -4  -3   9 18.5137 2.36739   2
  -4  -3   9 35.4950 3.72510   1
  -4  -3   9 33.8318 4.02611   1
  -4  -3   9 30.1697 3.73288   3
  -4  -3   9 32.4510 3.48257   3
   3   3  -9 203.787 21.7699   3
   3   3  -9 126.033 13.2532   2
   3   3  -9 124.255 11.6092   2
   3   3  -9 208.346 22.5561   1
   3   3  -9 208.241 19.8177   1
  -3  -3   9 117.145 12.6097   2
  -3  -3   9 206.659 21.5975   1
  -3  -3   9 216.391 19.7765   1
  -3  -3   9 209.296 19.1206   3
  -3  -3   9 195.662 20.8647   3
   2   3  -9 6.21844 1.04967   2
   2   3  -9 4.62097 1.36002   2
   2   3  -9 15.2607 1.90099   3
   2   3  -9 12.4079 1.53151   3
   2   3  -9 18.6740 2.44723   1
   2   3  -9 20.6723 2.07792   1
  -2  -3   9 13.8476 1.68339   3
  -2  -3   9 11.5961 1.88358   3
  -2  -3   9 7.31993 1.08468   2
  -2  -3   9 5.00646 1.02449   2
  -2  -3   9 7.98606 1.25524   2
  -2  -3   9 17.7113 2.20257   1
  -2  -3   9 19.8625 2.52349   1
   1   3  -9 3.34381 1.09475   2
   1   3  -9 5.09817 0.81420   2
   1   3  -9 6.19866 1.16647   3
   1   3  -9 6.41454 0.95100   3
   1   3  -9 21.1418 2.11838   1
   1   3  -9 17.1994 2.41201   1
  -1  -3   9 19.2638 2.21880   1
  -1  -3   9 22.4004 2.11106   1
  -1  -3   9 18.3033 2.52891   1
  -1  -3   9 2.20850 0.90359   2
  -1  -3   9 2.37171 0.67142   2
  -1  -3   9 2.26209 0.71289   2
  -1  -3   9 4.37354 0.97513   3
  -1  -3   9 7.27411 1.02223   3
  -1  -3   9 5.97445 1.26972   3
   0   3  -9 7.82875 1.35757   3
   0   3  -9 10.8053 1.15751   3
   0   3  -9 6.31801 1.16651   2
   0   3  -9 4.39457 0.83580   2
   0  -3   9 9.02088 1.24621   3
   0  -3   9 8.17364 1.58042   3
   0  -3   9 6.48988 1.20752   2
   0  -3   9 3.97729 0.83333   2
  -1   3  -9 23.1192 2.20308   2
  -1   3  -9 22.0302 2.62137   2
  -1   3  -9 36.7371 3.75140   3
  -1   3  -9 32.6844 3.24091   3
  -1   3  -9 36.2189 4.00822   1
  -1   3  -9 36.5112 3.44181   1
   1  -3   9 19.6880 2.22812   2
   1  -3   9 18.1344 2.68168   2
   1  -3   9 33.6917 3.50321   1
   1  -3   9 33.3873 4.32551   1
   1  -3   9 27.7492 3.34027   3
   1  -3   9 34.6736 4.10493   3
  -2   3  -9 84.5689 8.29551   1
  -2   3  -9 96.9731 9.55503   1
  -2   3  -9 54.7697 5.55230   2
  -2   3  -9 43.7127 4.74278   2
  -2   3  -9 92.8036 9.95402   3
  -2   3  -9 91.9925 8.66630   3
   2  -3   9 90.9820 10.0482   1
   2  -3   9 83.2865 8.40099   1
   2  -3   9 51.8125 4.85922   2
   2  -3   9 55.1068 5.85955   2
   2  -3   9 93.9388 10.4565   3
   2  -3   9 88.3956 8.75177   3
  -3   3  -9 10.7150 1.33655   3
  -3   3  -9 16.8996 1.97814   3
  -3   3  -9 8.90778 1.21888   1
  -3   3  -9 20.5010 2.04236   1
  -3   3  -9 7.06204 1.71320   2
  -3   3  -9 5.20460 0.86860   2
   3  -3   9 15.3521 2.05706   1
   3  -3   9 12.7829 2.22557   1
   3  -3   9 13.0144 1.54386   1
   3  -3   9 5.81172 1.80400   2
   3  -3   9 9.33771 1.29047   2
   3  -3   9 5.13486 1.65979   2
   3  -3   9 11.3506 2.25380   3
   3  -3   9 17.2164 2.08157   3
  -4   3  -9 -0.7221 1.62572   3
   4  -3   9 0.67623 1.98118   2
   4  -3   9 -0.0644 1.34304   2
   4  -3   9 0.56669 1.26506   1
   4  -3   9 1.62265 1.92274   1
   4  -3   9 1.94666 1.81456   3
   4  -3   9 0.63626 1.34611   3
   5   2  -9 -1.3627 1.97402   1
   5   2  -9 0.41344 1.88385   2
   5   2  -9 -0.3508 1.71243   3
  -5  -2   9 0.44523 1.53023   1
  -5  -2   9 1.10077 1.24810   1
  -5  -2   9 0.07391 1.63180   2
  -5  -2   9 0.70230 1.19256   2
  -5  -2   9 -0.0947 1.62393   3
  -5  -2   9 -0.0651 1.24947   3
   4   2  -9 5.50490 1.59512   1
   4   2  -9 1.31715 1.38244   2
   4   2  -9 3.67690 1.34036   3
  -4  -2   9 1.80706 0.95151   1
  -4  -2   9 2.43554 1.14630   1
  -4  -2   9 1.61498 1.15387   3
  -4  -2   9 4.37145 1.08500   3
  -4  -2   9 0.58896 0.91687   2
  -4  -2   9 1.21826 1.06837   2
   3   2  -9 23.8680 2.93243   2
   3   2  -9 18.7060 2.36879   2
   3   2  -9 40.8558 4.81167   1
   3   2  -9 35.4347 3.94524   3
  -3  -2   9 33.6833 3.76068   3
  -3  -2   9 30.5440 3.44667   3
  -3  -2   9 20.9453 2.31230   2
  -3  -2   9 24.2733 2.59186   2
  -3  -2   9 43.5714 4.21616   1
   2   2  -9 72.3985 7.25741   1
   2   2  -9 75.9310 8.23304   1
   2   2  -9 15.0359 1.31399   2
   2   2  -9 13.3331 1.53100   2
   2   2  -9 20.0636 1.81149   3
   2   2  -9 20.3535 2.10478   3
  -2  -2   9 10.9473 1.51393   2
  -2  -2   9 2.84476 1.18484   2
  -2  -2   9 22.2087 1.88664   3
  -2  -2   9 6.60389 1.88599   3
  -2  -2   9 101.153 11.5442  -3
  -2  -2   9 101.153 11.5442   1
  -2  -2   9 82.9184 7.88717   1
  -2  -2   9 70.8673 7.23623   1
   1   2  -9 21.8352 2.01125   1
   1   2  -9 21.6683 2.34494   1
   1   2  -9 8.30106 1.45468   2
   1   2  -9 11.4959 1.23926   2
   1   2  -9 17.3269 1.79745   3
   1   2  -9 15.6952 2.07982   3
  -1  -2   9 8.16360 1.19421   2
  -1  -2   9 9.38703 1.46764   2
  -1  -2   9 8.27552 1.19170   2
  -1  -2   9 17.9098 2.21528   3
  -1  -2   9 14.4128 1.92230   3
  -1  -2   9 18.1055 1.87285   3
  -1  -2   9 17.3331 2.01542   1
  -1  -2   9 16.5948 2.13002   1
  -1  -2   9 17.3349 2.43277   1
   0   2  -9 45.7049 4.20675   3
   0   2  -9 43.3240 4.80772   3
   0   2  -9 83.3456 8.36631   1
   0   2  -9 88.6128 7.33304   1
   0   2  -9 25.5100 2.89378   2
   0   2  -9 26.8045 2.55987   2
   0  -2   9 69.1933 7.34343   1
   0  -2   9 66.7748 8.70221   1
   0  -2   9 46.7837 5.10149   3
   0  -2   9 37.9069 4.22501   3
   0  -2   9 23.7689 3.09222   2
   0  -2   9 21.7537 2.52269   2
  -1   2  -9 5.82228 1.17536   3
  -1   2  -9 6.62688 0.90759   3
  -1   2  -9 3.66761 0.97777   2
  -1   2  -9 3.33549 0.76704   2
   1  -2   9 9.55440 1.51827   1
   1  -2   9 8.46759 1.22066   1
   1  -2   9 2.37506 0.86743   2
   1  -2   9 1.97414 0.99225   2
   1  -2   9 7.10049 1.46944   3
   1  -2   9 7.09833 1.11057   3
  -2   2  -9 57.3056 5.61935   1
  -2   2  -9 46.2883 4.80532   1
  -2   2  -9 65.6891 6.27813   3
  -2   2  -9 53.0120 5.40634   3
  -2   2  -9 26.9704 2.90575   2
  -2   2  -9 29.2516 3.47829   2
   2  -2   9 54.0140 6.62781   3
   2  -2   9 54.2145 5.54086   3
   2  -2   9 50.6922 5.94799   1
   2  -2   9 49.7960 4.94891   1
   2  -2   9 33.1165 3.11931   2
   2  -2   9 26.5357 3.47634   2
   2  -2   9 34.1289 3.81124   2
  -3   2  -9 37.9398 3.93998   1
  -3   2  -9 26.4856 3.12543   1
  -3   2  -9 38.1311 3.92109   3
  -3   2  -9 41.7654 4.65723   3
  -3   2  -9 20.1992 2.48706   2
  -3   2  -9 14.4808 1.85516   2
   3  -2   9 41.3741 4.14599   3
   3  -2   9 38.2082 4.71262   3
   3  -2   9 38.6801 4.93591   3
   3  -2   9 17.8585 2.54412   2
   3  -2   9 22.9003 2.76783   2
   3  -2   9 21.3062 2.16001   2
   3  -2   9 39.4161 4.01451   1
   3  -2   9 37.7214 4.18652   1
   3  -2   9 35.0010 3.43713   1
  -4   2  -9 8.45069 1.27052   2
  -4   2  -9 18.0534 2.07171   3
  -4   2  -9 23.6904 2.47936   1
   4  -2   9 20.0985 2.92779   3
   4  -2   9 28.4235 2.67766   3
   4  -2   9 14.1728 2.48723   2
   4  -2   9 19.9146 1.99584   2
   4  -2   9 21.9489 2.74167   1
   4  -2   9 28.6266 3.49298   1
   5   1  -9 0.67078 1.81138   2
   5   1  -9 -1.5461 1.65755   3
   5   1  -9 4.30100 1.97761   1
  -5  -1   9 3.61768 1.56505   1
  -5  -1   9 5.08139 1.29471   1
  -5  -1   9 1.18839 1.43731   3
  -5  -1   9 2.06822 1.24855   3
  -5  -1   9 2.70533 1.76284   2
  -5  -1   9 0.19987 1.16158   2
   4   1  -9 67.1888 6.50968   2
   4   1  -9 100.187 10.6716   3
   4   1  -9 99.4310 10.4681   1
  -4  -1   9 99.3453 9.11945   1
  -4  -1   9 88.0493 9.97165   1
  -4  -1   9 95.7418 10.2118   3
  -4  -1   9 96.5671 9.31821   3
  -4  -1   9 52.9766 5.53216   2
  -4  -1   9 53.1791 6.09035   2
   3   1  -9 -0.2429 1.10159   3
   3   1  -9 1.18942 1.01014   1
   3   1  -9 0.27062 1.16602   2
  -3  -1   9 0.53437 0.89419   3
  -3  -1   9 1.27961 0.83926   3
  -3  -1   9 0.42520 0.81646   2
  -3  -1   9 0.62472 0.72010   2
  -3  -1   9 0.78377 0.79289   1
  -3  -1   9 0.93557 0.89549   1
   2   1  -9 56.0964 5.68303   2
   2   1  -9 61.2123 6.46936   2
   2   1  -9 114.887 11.2580   1
   2   1  -9 91.9680 9.89389   1
   2   1  -9 94.1729 9.34233   3
   2   1  -9 105.163 10.6309   3
  -2  -1   9 102.147 11.7004   1
  -2  -1   9 113.034 10.7803   1
  -2  -1   9 99.2572 9.87451   1
  -2  -1   9 105.590 10.1771   3
  -2  -1   9 90.3595 9.34280   3
  -2  -1   9 95.9415 11.0328   3
  -2  -1   9 63.3048 6.11622   2
  -2  -1   9 51.8439 5.62473   2
  -2  -1   9 59.4487 6.67292   2
   1   1  -9 43.1158 4.42153   1
   1   1  -9 38.9163 5.01262   1
   1   1  -9 19.7485 2.13556   2
   1   1  -9 18.2822 2.42393   2
   1   1  -9 32.7335 3.22896   3
   1   1  -9 31.5923 3.62629   3
  -1  -1   9 32.8728 3.45387   3
  -1  -1   9 27.9238 3.27110   3
  -1  -1   9 28.3757 3.25372   3
  -1  -1   9 37.0556 3.84507   3
  -1  -1   9 21.6856 2.26091   2
  -1  -1   9 21.5492 2.60688   2
  -1  -1   9 19.2835 2.09116   2
  -1  -1   9 48.0838 4.43997   1
  -1  -1   9 46.0997 4.76068   1
  -1  -1   9 45.6644 4.42217   1
  -1  -1   9 50.4507 5.28042   1
   0   1  -9 45.9200 5.58601   2
   0   1  -9 57.1185 4.92067   2
   0   1  -9 164.539 13.9732   1
   0   1  -9 138.978 15.8890   1
   0   1  -9 88.2677 8.27739   3
   0   1  -9 84.0345 9.38595   3
   0  -1   9 128.942 13.9908   1
   0  -1   9 165.235 16.6031   1
   0  -1   9 46.0183 5.78022   2
   0  -1   9 53.3138 4.89540   2
   0  -1   9 83.5595 8.28839   3
   0  -1   9 93.2248 9.83519   3
  -1   1  -9 93.3230 8.70032   3
  -1   1  -9 94.9539 9.88356   3
  -1   1  -9 100.670 10.3650   1
  -1   1  -9 94.1123 9.08256   1
  -1   1  -9 62.0078 6.50365   2
  -1   1  -9 60.3421 5.71540   2
   1  -1   9 86.1388 8.76093   3
   1  -1   9 90.7155 10.3909   3
   1  -1   9 98.1156 10.8636   1
   1  -1   9 91.7289 9.13739   1
   1  -1   9 59.1418 5.73854   2
   1  -1   9 54.0239 6.81736   2
  -2   1  -9 0.58545 1.03441   2
  -2   1  -9 0.29265 0.65340   2
  -2   1  -9 -0.2151 1.06941   3
  -2   1  -9 -0.6910 0.68994   3
  -2   1  -9 0.68498 1.09444   1
  -2   1  -9 -0.2959 0.70442   1
   2  -1   9 0.12005 1.04226   1
   2  -1   9 -0.0683 1.33026   1
   2  -1   9 -0.7888 1.13234   1
   2  -1   9 0.49320 1.04652   3
   2  -1   9 1.03398 1.41389   3
   2  -1   9 -0.1124 1.11915   3
   2  -1   9 -0.7981 0.92256   2
   2  -1   9 -0.1032 1.19513   2
   2  -1   9 0.61216 1.31270   2
  -3   1  -9 0.93443 0.78011   1
  -3   1  -9 -0.0711 1.19189   1
  -3   1  -9 -0.4505 0.72181   3
  -3   1  -9 -1.4203 1.32397   3
  -3   1  -9 -0.4108 0.64074   2
   3  -1   9 1.11177 1.64711   3
   3  -1   9 0.72546 1.27581   3
   3  -1   9 0.78213 1.51606   3
   3  -1   9 -0.3199 1.45588   2
   3  -1   9 0.13077 1.10865   2
   3  -1   9 0.59305 1.63645   2
   3  -1   9 -1.8871 1.68326   1
   3  -1   9 -0.1828 1.34917   1
   3  -1   9 -1.0964 1.09027   1
  -4   1  -9 1.41712 0.73819   2
  -4   1  -9 1.15146 0.76221   1
  -4   1  -9 3.54209 0.96151   3
   4  -1   9 1.86590 1.59335   2
   4  -1   9 0.72949 2.15137   2
   4  -1   9 4.20435 1.77234   3
   4  -1   9 2.88148 1.97943   3
   4  -1   9 3.80622 2.06876   1
   4  -1   9 2.77735 1.49864   1
   5   0  -9 2.90384 1.99734   3
   5   0  -9 3.22204 2.09889   2
   5   0  -9 5.43644 1.95618   1
  -5   0   9 2.68877 1.61741   2
  -5   0   9 2.94107 1.13130   2
  -5   0   9 5.22297 1.24490   1
  -5   0   9 5.60417 1.61443   1
  -5   0   9 5.13721 1.26668   3
  -5   0   9 4.56356 1.75454   3
   4   0  -9 33.9688 3.77687   3
   4   0  -9 20.8622 2.74594   2
   4   0  -9 28.6783 3.48510   1
  -4   0   9 26.5336 3.24814   1
  -4   0   9 28.5608 2.97551   1
  -4   0   9 17.7592 2.09873   2
  -4   0   9 20.2100 2.41623   2
  -4   0   9 30.2905 3.17678   3
  -4   0   9 26.5507 3.42289   3
   3   0  -9 11.2804 1.90400   2
   3   0  -9 16.7528 2.24120   3
   3   0  -9 20.6573 2.53349   3
   3   0  -9 30.2746 3.27662   1
  -3   0   9 16.8012 2.38411   3
  -3   0   9 23.5082 2.16252   3
  -3   0   9 24.9795 2.79946   1
  -3   0   9 25.2171 3.08007   1
  -3   0   9 9.63328 1.48912   2
  -3   0   9 12.0536 1.37669   2
   2   0  -9 10.1463 1.40673   1
   2   0  -9 8.28148 1.56842   1
   2   0  -9 7.14361 1.52476   3
   2   0  -9 4.06820 1.07077   2
   2   0  -9 5.79084 1.20615   2
  -2   0   9 6.66253 1.07204   2
  -2   0   9 4.41710 0.89098   2
  -2   0   9 6.55346 1.18419   2
  -2   0   9 11.3540 1.32495   1
  -2   0   9 11.6122 1.68380   1
  -2   0   9 13.4046 1.55590   1
  -2   0   9 16.3794 1.39017   3
  -2   0   9 11.0447 1.64682   3
  -2   0   9 9.36517 1.52314   3
   1   0  -9 8.05912 1.16759   3
   1   0  -9 7.96360 1.34278   3
   1   0  -9 4.96722 0.96743   2
   1   0  -9 4.20368 1.03176   2
  -1   0   9 9.25060 1.28303   3
  -1   0   9 10.7161 1.48961   3
  -1   0   9 9.24588 1.28686   3
  -1   0   9 3.76419 0.77867   2
  -1   0   9 3.67535 0.83300   2
  -1   0   9 4.80404 1.01646   2
   0   0  -9 135.827 14.7906   1
   0   0  -9 148.362 13.0201   1
   0   0  -9 99.7640 11.7653   3
   0   0  -9 121.527 10.3984   3
   0   0  -9 65.9184 7.84780   2
   0   0  -9 71.3002 6.93600   2
   0   0   9 129.706 13.0415   1
   0   0   9 138.391 15.4597   1
   0   0   9 109.147 10.4112   3
   0   0   9 111.666 12.3297   3
   0   0   9 80.8707 8.23333   2
   0   0   9 72.7334 6.93942   2
  -1   0  -9 21.7360 2.40998   1
  -1   0  -9 19.8997 2.67625   1
  -1   0  -9 12.3553 1.56733   2
  -1   0  -9 14.1711 1.81693   2
  -1   0  -9 21.8267 2.82506   3
  -1   0  -9 22.3212 2.56388   3
   1   0   9 22.4402 2.93916   1
   1   0   9 26.8889 2.44721   1
   1   0   9 30.7108 2.67724   3
   1   0   9 24.4184 3.12014   3
   1   0   9 11.4160 1.56841   2
   1   0   9 14.3463 1.98256   2
  -2   0  -9 24.3709 2.52189   1
  -2   0  -9 19.7238 2.08183   1
  -2   0  -9 5.43497 1.15730   2
  -2   0  -9 12.2711 1.65567   2
  -2   0  -9 16.2936 2.33537   3
  -2   0  -9 20.2782 2.00085   3
   2   0   9 14.8960 2.15087   1
   2   0   9 17.1364 2.72574   1
   2   0   9 21.3184 2.54626   1
   2   0   9 21.5206 2.17230   3
   2   0   9 11.9300 2.57486   3
   2   0   9 20.1855 2.44833   3
   2   0   9 8.67667 1.32804   2
   2   0   9 7.27041 1.71372   2
   2   0   9 9.51114 1.60566   2
  -3   0  -9 13.4107 1.69580   3
  -3   0  -9 20.1782 2.29382   3
  -3   0  -9 17.2090 1.92342   1
  -3   0  -9 7.53850 1.28643   2
   3   0   9 16.9622 2.73500   1
   3   0   9 16.2559 2.13863   1
   3   0   9 18.8446 2.53299   1
   3   0   9 14.8534 2.32893   3
   3   0   9 9.37478 2.38434   3
   3   0   9 16.9139 2.00660   3
   3   0   9 5.61105 1.71931   2
   3   0   9 5.85612 1.79328   2
   3   0   9 9.09703 1.49120   2
   5  -1  -9 7.25638 2.15977   2
   5  -1  -9 13.5876 2.40003   3
  -5   1   9 11.1509 1.60344   3
  -5   1   9 10.8467 2.21785   3
  -5   1   9 6.99229 1.27646   2
  -5   1   9 4.67535 1.68274   2
  -5   1   9 16.4206 1.93431   1
  -5   1   9 15.3003 2.72150   1
   4  -1  -9 10.9201 1.61304   1
   4  -1  -9 4.42006 1.49427   3
   4  -1  -9 5.10873 1.26811   3
   4  -1  -9 2.58117 1.46026   2
  -4   1   9 0.52447 1.24156   2
  -4   1   9 1.02628 0.77783   2
  -4   1   9 3.18141 0.93289   3
  -4   1   9 2.36454 1.26235   3
   3  -1  -9 12.4645 1.85745   1
   3  -1  -9 8.38996 1.52727   1
   3  -1  -9 8.28212 1.51822   3
   3  -1  -9 8.32676 1.39979   3
   3  -1  -9 3.58844 1.38802   2
  -3   1   9 8.66383 1.18775   3
  -3   1   9 8.50188 1.62566   3
  -3   1   9 4.45929 0.92641   2
  -3   1   9 6.11824 1.17305   2
  -3   1   9 13.6872 1.49939   1
  -3   1   9 15.6203 1.81995   1
   2  -1  -9 9.78621 1.51447   3
   2  -1  -9 11.8191 1.50233   3
   2  -1  -9 17.5701 2.40617   1
   2  -1  -9 15.8670 2.15297   1
   2  -1  -9 6.05232 1.25430   2
  -2   1   9 4.69159 0.93160   2
  -2   1   9 6.77014 1.28248   2
  -2   1   9 8.38268 1.11530   2
  -2   1   9 23.4872 2.30516   1
  -2   1   9 23.0454 2.20274   1
  -2   1   9 18.9879 2.55656   1
  -2   1   9 9.92764 1.61792   3
  -2   1   9 10.2433 1.46108   3
   1  -1  -9 2.29100 0.93246   3
   1  -1  -9 2.22632 0.83105   3
   1  -1  -9 2.77650 0.98218   2
   1  -1  -9 1.77379 0.95602   2
   1  -1  -9 1.66345 0.89566   1
   1  -1  -9 2.49826 0.96832   1
  -1   1   9 2.48683 0.79566   1
  -1   1   9 3.62558 1.10582   1
  -1   1   9 2.35341 0.75546   1
  -1   1   9 0.91048 0.75875   2
  -1   1   9 1.04186 1.00994   2
  -1   1   9 1.00492 0.62286   2
  -1   1   9 2.92857 0.87314   3
  -1   1   9 2.77383 0.78943   3
  -1   1   9 2.42850 1.07709   3
   0  -1  -9 115.604 10.4982   2
   0  -1  -9 111.425 11.9333   2
   0  -1  -9 167.937 16.0179   3
   0  -1  -9 212.405 18.9234   1
   0   1   9 170.250 18.9963   3
   0   1   9 171.903 16.0405   3
   0   1   9 104.540 12.4138   2
   0   1   9 202.119 18.9391   1
   0   1   9 188.077 22.4241   1
  -1  -1  -9 105.697 10.1279   3
  -1  -1  -9 75.6967 7.04088   2
  -1  -1  -9 120.939 11.0427   1
   1   1   9 80.6735 8.36416   2
   1   1   9 69.7509 7.92004   2
   1   1   9 67.1103 7.03425   2
   1   1   9 111.940 12.5855   1
   1   1   9 124.043 13.1676   1
   1   1   9 106.783 11.2033   1
   1   1   9 108.121 12.0758   3
  -2  -1  -9 91.6401 9.40191   1
  -2  -1  -9 92.0681 8.79288   3
  -2  -1  -9 54.5553 5.72613   2
   2   1   9 64.4714 6.89159   2
   2   1   9 92.2743 10.5155   3
   2   1   9 111.076 11.2930   1
  -3  -1  -9 7.71697 1.18298   1
  -3  -1  -9 15.6243 1.83205   3
  -3  -1  -9 6.36425 1.33770   2
   3   1   9 4.03440 1.75779   2
   3   1   9 12.8978 2.65175   3
   3   1   9 8.70345 2.16554   1
   5  -2  -9 13.3441 1.98107   1
   5  -2  -9 12.3495 1.96622   3
  -5   2   9 13.5139 1.69138   1
  -5   2   9 12.8532 2.36707   1
  -5   2   9 10.8068 2.13516   3
  -5   2   9 4.31311 1.61394   2
   4  -2  -9 -0.1507 1.03601   1
   4  -2  -9 -0.1454 1.04873   2
   4  -2  -9 -0.9977 1.11789   3
  -4   2   9 0.39430 1.31707   3
  -4   2   9 0.27790 1.07312   2
  -4   2   9 0.03364 1.07603   1
   3  -2  -9 6.76630 1.02390   2
   3  -2  -9 7.50824 1.25606   3
   3  -2  -9 7.73453 1.28855   1
  -3   2   9 7.56061 1.39029   1
  -3   2   9 10.1870 1.19063   1
  -3   2   9 3.19092 0.80826   2
  -3   2   9 3.73943 1.12970   2
  -3   2   9 7.69258 1.14331   3
  -3   2   9 6.21702 1.42588   3
   2  -2  -9 117.077 10.8725   3
   2  -2  -9 71.3074 6.82906   2
   2  -2  -9 131.089 12.8891   1
  -2   2   9 108.000 11.7752   3
  -2   2   9 118.861 12.7896   3
  -2   2   9 112.732 10.7860   3
  -2   2   9 77.3804 8.07338   2
  -2   2   9 66.7507 6.74957   2
  -2   2   9 70.0520 7.38869   2
  -2   2   9 135.590 14.0152   1
  -2   2   9 141.177 15.2406   1
  -2   2   9 135.654 12.8214   1
   1  -2  -9 1.76469 1.02118   2
  -1   2   9 1.88924 1.01220   3
  -1   2   9 0.64158 0.76645   3
  -1   2   9 0.99118 0.97165   3
  -1   2   9 5.16266 1.07653   1
  -1   2   9 3.72168 1.29569   1
  -1   2   9 2.62042 0.79465   1
  -1   2   9 0.40134 0.65259   2
  -1   2   9 0.91069 0.79141   2
  -1   2   9 0.19744 1.05440   2
   0  -2  -9 75.9598 7.29355   2
   0  -2  -9 182.276 14.9629   1
   0  -2  -9 117.131 11.7628   3
   0   2   9 130.863 11.7860   3
   0   2   9 125.097 13.9381   3
   0   2   9 66.6996 7.23308   2
   0   2   9 85.2830 8.60427   2
   0   2   9 143.087 17.7154   1
   0   2   9 149.941 14.9650   1
  -1  -2  -9 215.343 19.9093   2
  -1  -2  -9 310.335 29.5597   3
  -1  -2  -9 343.294 32.4025   1
   1   2   9 207.011 23.5817   2
   1   2   9 347.832 38.4369   1
   1   2   9 320.067 35.0507   3
  -2  -2  -9 0.88479 1.00729   3
  -2  -2  -9 0.77689 1.00518   1
  -2  -2  -9 1.12296 1.08304   2
   2   2   9 0.81390 1.52444   1
   2   2   9 0.34853 1.28999   2
   2   2   9 0.56862 1.48674   3
  -3  -2  -9 6.27058 1.33882   2
  -3  -2  -9 18.9962 2.10920   3
  -3  -2  -9 13.4804 1.59814   1
   3   2   9 10.7803 2.49684   1
   3   2   9 14.5664 2.86709   3
   3   2   9 9.90491 2.11585   2
   5  -3  -9 1.20887 1.48476   3
   5  -3  -9 2.50916 1.46206   1
  -5   3   9 0.54020 1.42409   2
  -5   3   9 -1.0056 0.87184   2
  -5   3   9 1.34245 0.90331   3
  -5   3   9 -0.3647 1.55755   3
  -5   3   9 4.46255 1.90564   1
  -5   3   9 5.78845 1.05502   1
   4  -3  -9 3.51059 1.22625   3
   4  -3  -9 0.82303 1.01523   2
   4  -3  -9 3.95466 1.18207   1
  -4   3   9 2.46350 1.26919   2
  -4   3   9 1.67545 0.74029   2
  -4   3   9 3.72255 1.32317   1
  -4   3   9 2.89216 0.84392   1
  -4   3   9 1.68070 1.30449   3
  -4   3   9 2.83563 0.85085   3
   3  -3  -9 2.42229 1.01054   3
   3  -3  -9 1.59153 0.98192   1
   3  -3  -9 0.54870 0.96945   2
  -3   3   9 -0.2270 1.00369   3
  -3   3   9 1.12800 0.79119   3
  -3   3   9 -0.1599 0.62181   2
  -3   3   9 -0.1903 0.96601   2
  -3   3   9 1.26342 1.02493   1
  -3   3   9 -0.0029 0.80197   1
   2  -3  -9 6.83843 1.25640   3
   2  -3  -9 4.68049 0.98693   2
   2  -3  -9 37.5185 3.87058   1
  -2   3   9 6.83185 1.34409   3
  -2   3   9 4.80043 1.30312   3
  -2   3   9 5.83392 1.01522   3
  -2   3   9 3.41991 1.09813   2
  -2   3   9 2.19607 1.05771   2
  -2   3   9 3.73630 0.77504   2
   1  -3  -9 56.7247 5.62591   3
  -1   3   9 61.7445 5.55403   3
  -1   3   9 54.8128 5.97949   3
  -1   3   9 54.5276 6.54142   3
  -1   3   9 31.3770 3.84657   2
  -1   3   9 37.6887 4.27881   2
  -1   3   9 37.8911 3.55416   2
  -1   3   9 66.3247 7.09086   1
  -1   3   9 69.7733 6.50464   1
  -1   3   9 66.1888 7.74850   1
   0  -3  -9 20.6632 2.18603   2
   0   3   9 31.6065 3.47306   1
   0   3   9 33.9469 4.12801   1
   0   3   9 34.4789 3.43679   3
   0   3   9 31.8291 4.11537   3
   0   3   9 16.3305 2.05809   2
   0   3   9 21.3409 2.58418   2
  -1  -3  -9 98.2531 9.18710   3
  -1  -3  -9 107.437 10.0899   1
  -1  -3  -9 64.6998 5.57383   2
   1   3   9 103.615 12.0226   1
   1   3   9 49.8276 6.43881   2
   1   3   9 93.2908 10.9069   3
  -2  -3  -9 20.1950 2.26155   3
  -2  -3  -9 9.69124 1.51961   2
  -2  -3  -9 18.0686 2.23965   1
   2   3   9 18.7870 2.84139   3
   2   3   9 20.8063 2.90578   1
   2   3   9 8.56395 1.93331   2
  -3  -3  -9 0.57090 1.22562   2
  -3  -3  -9 1.07872 1.01952   1
  -3  -3  -9 1.08790 1.29772   3
   3   3   9 -0.3718 2.04859   2
   3   3   9 1.13087 2.15073   3
   3   3   9 -0.9219 2.12106   1
   5  -4  -9 22.3982 3.15930   3
   5  -4  -9 13.3079 2.02387   2
   5  -4  -9 22.8284 3.23911   1
  -5   4   9 31.4618 3.78922   1
  -5   4   9 35.2407 3.21191   1
  -5   4   9 14.7458 1.70867   2
  -5   4   9 14.2429 2.36521   2
  -5   4   9 27.4169 3.50279   3
  -5   4   9 30.1553 2.86321   3
   4  -4  -9 0.30454 1.01988   2
   4  -4  -9 12.6626 2.01985   1
   4  -4  -9 0.19893 1.19311   3
  -4   4   9 -0.5321 1.06965   2
  -4   4   9 -0.2581 0.72457   2
  -4   4   9 19.3110 1.89218   1
  -4   4   9 18.2341 2.32805   1
  -4   4   9 -0.1171 0.81396   3
  -4   4   9 -0.5351 1.22666   3
   3  -4  -9 21.3727 2.46420   1
   3  -4  -9 26.8564 2.78333   3
   3  -4  -9 13.6395 1.72570   2
  -3   4   9 25.2933 2.99396   3
  -3   4   9 23.5111 2.58342   3
  -3   4   9 12.2085 1.81821   2
  -3   4   9 14.0776 1.51424   2
  -3   4   9 21.8873 2.71800   1
  -3   4   9 22.7811 2.40931   1
   2  -4  -9 5.10334 1.10977   2
   2  -4  -9 10.7323 1.60323   3
  -2   4   9 7.24142 1.16244   2
  -2   4   9 7.42948 1.41613   2
  -2   4   9 5.69761 0.95595   2
  -2   4   9 8.08645 1.65041   3
  -2   4   9 13.1480 1.40065   3
  -2   4   9 10.9314 1.82393   3
   1  -4  -9 23.2368 2.15285   3
   1  -4  -9 8.31538 1.66802   1
  -1   4   9 17.5431 2.21556   3
  -1   4   9 16.9048 1.98584   3
  -1   4   9 12.9900 2.33126   3
  -1   4   9 9.56350 1.39313   2
  -1   4   9 6.59161 1.53410   2
  -1   4   9 8.54757 1.22208   2
  -1   4   9 14.5987 2.17683   1
  -1   4   9 19.1555 1.75606   1
  -1   4   9 17.1227 1.98243   1
   0   4   9 6.61943 2.33280  -2
   0   4   9 6.61943 2.33280   1
   0   4   9 4.98560 1.15998   3
   0   4   9 2.49134 1.36453   3
   0   4   9 3.29827 1.36467   1
   0   4   9 1.49257 1.21933   2
   1   4   9 25.8496 2.84289   3
   1   4   9 25.2599 3.41095   3
   1   4   9 10.1604 1.77924   2
   1   4   9 23.6922 3.19789   1
  -2  -4  -9 4.86738 1.39916   2
  -2  -4  -9 8.17207 1.55469   1
  -2  -4  -9 8.99308 1.73352   3
   2   4   9 12.6033 2.31950   3
   2   4   9 8.07856 2.12133   1
   2   4   9 4.58139 1.80359   2
  -3  -4  -9 -0.3045 1.13760   1
  -3  -4  -9 1.59680 1.48173   3
  -3  -4  -9 1.39576 1.49940   2
   3   4   9 -0.3555 2.29573   2
   3   4   9 1.35831 2.51202   3
   3   4   9 -0.6668 2.36574   1
   5  -5  -9 -0.1270 1.42517   2
   5  -5  -9 8.65623 1.77747   1
   5  -5  -9 7.88741 1.89799   3
  -5   5   9 2.92175 0.92414   2
   4  -5  -9 2.19438 1.16599   2
   4  -5  -9 6.24235 1.49250   3
   4  -5  -9 8.63936 1.55271   1
  -4   5   9 6.67270 1.92461   3
  -4   5   9 7.42093 1.14976   3
  -4   5   9 0.82382 1.25117   2
  -4   5   9 5.42841 0.91817   2
  -4   5   9 9.46446 1.99143   1
  -4   5   9 9.01074 1.26734   1
   3  -5  -9 23.9885 2.85017   3
   3  -5  -9 28.1349 3.04503   1
   3  -5  -9 19.6790 2.00297   2
  -3   5   9 14.2638 1.74389   2
  -3   5   9 15.8449 2.11586   2
  -3   5   9 25.7800 2.72716   3
  -3   5   9 26.5194 3.11314   3
  -3   5   9 26.6588 2.94367   1
  -3   5   9 31.0852 3.37321   1
   2  -5  -9 1.94327 1.02884   2
   2  -5  -9 4.09744 1.19404   1
   2  -5  -9 0.35579 1.09363   3
  -2   5   9 2.81139 1.41172   1
  -2   5   9 6.19226 1.41312   1
  -2   5   9 3.97441 0.96318   1
  -2   5   9 1.01586 0.81048   2
  -2   5   9 0.65985 1.29641   2
  -2   5   9 1.46903 1.05150   2
  -2   5   9 1.30303 1.13803   3
  -2   5   9 1.27711 1.27713   3
  -2   5   9 1.19029 0.90106   3
   1  -5  -9 5.17294 1.07689   1
   1  -5  -9 5.63043 1.43654   3
  -1   5   9 3.86737 1.11471   3
  -1   5   9 6.80821 1.56049   3
  -1   5   9 7.03084 1.47479   3
  -1   5   9 5.48315 1.41726   1
  -1   5   9 3.44477 1.42219   1
  -1   5   9 11.5459 2.16457  -2
  -1   5   9 11.5459 2.16457   1
  -1   5   9 3.35791 1.17709   2
  -1   5   9 4.25556 1.40128   2
   0   5   9 63.5014 7.06226   3
   0   5   9 57.0116 5.88542   3
   0   5   9 65.4576 7.66003   1
   0   5   9 38.4647 4.76697   2
   0   5   9 101.693 9.85034  -2
   0   5   9 101.693 9.85034   1
   1   5   9 10.5342 2.08223   1
   1   5   9 9.21021 1.57390   1
   1   5   9 6.61570 1.32587   2
   1   5   9 5.45228 1.74491   2
   1   5   9 7.88202 1.61012   3
   1   5   9 10.3371 1.98012   3
   2   5   9 20.1054 3.19750   2
   2   5   9 32.2802 4.38227   1
   2   5   9 33.8704 4.49092   3
   4  -6  -9 124.401 11.5389   2
   4  -6  -9 220.083 21.2544   1
   4  -6  -9 217.157 20.9376   3
  -4   6   9 220.198 22.8496   3
  -4   6   9 223.134 20.7331   3
  -4   6   9 113.043 12.5026   2
  -4   6   9 122.698 11.3625   2
  -4   6   9 222.980 21.0934   1
  -4   6   9 232.988 23.2085   1
   3  -6  -9 -1.4512 1.03153   2
   3  -6  -9 -0.2674 1.27068   3
   3  -6  -9 1.06868 1.22056   1
  -3   6   9 0.75368 1.47376   1
  -3   6   9 0.52586 0.84583   1
  -3   6   9 -0.4121 1.31134   2
  -3   6   9 1.40563 0.74302   2
  -3   6   9 0.02489 0.82405   3
  -3   6   9 0.76256 1.26408   3
   2  -6  -9 16.6619 2.12277   3
   2  -6  -9 6.17218 1.40464   2
   2  -6  -9 14.5791 2.02118   1
  -2   6   9 9.52413 1.48860   2
  -2   6   9 11.4545 1.81002   2
  -2   6   9 5.53877 1.08819   2
  -2   6   9 9.95409 2.25640   3
  -2   6   9 24.1610 1.99534   3
  -2   6   9 15.3452 2.52613   3
  -2   6   9 19.2035 2.34531   1
  -2   6   9 16.3013 1.87446   1
  -2   6   9 15.7853 2.50669   1
   1  -6  -9 49.5462 5.16879   3
  -1   6   9 86.9291 9.83647  -2
  -1   6   9 86.9291 9.83647   1
  -1   6   9 81.0341 8.06688  -2
  -1   6   9 81.0341 8.06688   1
  -1   6   9 49.3400 4.97148   3
  -1   6   9 51.1845 6.04925   3
  -1   6   9 51.7978 5.50532   3
   0   6   9 4.97579 1.23809   3
   0   6   9 3.51351 1.56692   3
   0   6   9 2.28299 2.65473  -2
   0   6   9 2.28299 2.65473   1
   0   6   9 -0.2705 2.10201  -2
   0   6   9 -0.2705 2.10201   1
   1   6   9 0.71312 1.58761   3
   1   6   9 -0.1994 1.31266   3
   1   6   9 -2.6129 1.67084   2
   1   6   9 0.04721 1.20498   2
   1   6   9 -0.5393 1.80514   1
   1   6   9 0.25845 1.23600   1
   2   6   9 44.2172 5.71884   3
   2   6   9 21.5730 3.47741   2
   2   6   9 32.9096 4.57912   1
   4  -7  -9 14.1119 2.23586   1
   4  -7  -9 13.2009 2.18168   3
   4  -7  -9 11.3197 1.80834   2
  -4   7   9 18.9289 2.64983   1
  -4   7   9 10.5918 1.32154   2
  -4   7   9 10.5571 2.00614   2
  -4   7   9 14.1282 2.37005   3
   3  -7  -9 7.13540 1.52065   1
   3  -7  -9 1.87715 1.11861   2
   3  -7  -9 5.09648 1.41682   3
  -3   7   9 9.78755 1.24405   1
  -3   7   9 10.0405 1.87002   1
  -3   7   9 3.74009 0.93105   3
  -3   7   9 5.94932 1.64099   3
  -3   7   9 2.97798 0.83363   2
  -3   7   9 3.32535 1.49223   2
   2  -7  -9 16.3515 2.90319  -2
   2  -7  -9 16.3515 2.90319   1
   2  -7  -9 3.08032 1.41221   3
  -2   7   9 1.20421 0.79373   2
  -2   7   9 2.50066 1.52359   2
  -2   7   9 0.12579 1.15610   2
  -2   7   9 6.18261 1.73576   3
  -2   7   9 1.73764 1.59985   3
  -2   7   9 1.10720 0.96380   3
  -2   7   9 3.26126 1.48132   1
  -2   7   9 3.47469 0.92267   1
  -2   7   9 2.55913 1.68492   1
   1  -7  -9 78.6865 8.52568   3
  -1   7   9 150.287 16.5456  -2
  -1   7   9 150.287 16.5456   1
  -1   7   9 142.233 13.7590  -2
  -1   7   9 142.233 13.7590   1
  -1   7   9 87.9866 8.36340   3
  -1   7   9 88.4165 9.28647   3
  -1   7   9 92.1946 10.0437   3
   0   7   9 25.1469 3.89984  -2
   0   7   9 25.1469 3.89984   1
   0   7   9 18.7278 3.02938  -2
   0   7   9 18.7278 3.02938   1
   0   7   9 19.6034 2.21527   3
   0   7   9 15.9793 2.84532   3
   1   7   9 25.6998 3.07496   3
   1   7   9 27.2678 3.88648   3
   1   7   9 21.7285 3.35553   1
   1   7   9 12.2699 2.56388   2
   1   7   9 37.7686 4.82641  -2
   1   7   9 37.7686 4.82641   1
   3  -8  -9 3.75274 1.50221   3
   3  -8  -9 3.30247 1.39986   1
   3  -8  -9 0.90651 1.38613   2
  -3   8   9 5.65008 1.00341   1
  -3   8   9 2.19250 1.94003   1
  -3   8   9 0.61274 0.83844   2
  -3   8   9 1.12539 1.48990   2
  -3   8   9 -1.3195 2.01345   3
   2  -8  -9 16.4201 2.45823   3
   2  -8  -9 26.1208 3.57801  -2
   2  -8  -9 26.1208 3.57801   1
  -2   8   9 19.4356 2.70592   1
  -2   8   9 12.8683 2.45356   1
  -2   8   9 13.0413 1.71195   1
  -2   8   9 9.51142 1.38802   2
  -2   8   9 11.7250 2.24045   2
  -2   8   9 13.0516 2.04516   2
  -2   8   9 18.5523 2.67937   3
  -2   8   9 18.1356 2.03326   3
   1  -8  -9 0.19347 1.66426   3
   1  -8  -9 1.69005 1.69326   3
  -1   8   9 -1.4960 3.31044  -2
  -1   8   9 -1.4960 3.31044   1
  -1   8   9 -0.1737 1.99316  -2
  -1   8   9 -0.1737 1.99316   1
  -1   8   9 0.95639 1.09108   3
  -1   8   9 -1.0977 1.89454   3
  -1   8   9 0.07716 1.86341   3
   0   8   9 9.45343 2.60788  -2
   0   8   9 9.45343 2.60788   1
   0   8   9 6.46953 3.58109  -2
   0   8   9 6.46953 3.58109   1
   0   8   9 2.33190 2.06272   3
   0   8   9 5.66653 1.48078   3
   1   8   9 0.46176 1.75245   3
   1   8   9 0.69988 2.50643   3
   1   8   9 -1.8832 2.37292   1
   1   8   9 -2.8496 3.28492  -2
   1   8   9 -2.8496 3.28492   1
   1   8   9 -0.8217 2.34443   2
   3  -9  -9 15.9323 2.09456   1
   3  -9  -9 12.8876 2.27949   3
   3  -9  -9 9.65559 1.74527   2
  -3   9   9 8.94899 2.59895   1
  -3   9   9 11.7059 2.54890   3
  -3   9   9 7.82576 2.26033   2
   2  -9  -9 8.60807 3.01727  -2
   2  -9  -9 8.60807 3.01727   1
   2  -9  -9 5.69702 1.87148   3
  -2   9   9 4.68643 1.05894   2
  -2   9   9 2.95818 1.93025   2
  -2   9   9 5.00938 2.16848   2
  -2   9   9 6.84487 1.22444   3
  -2   9   9 4.43632 2.08038   3
  -2   9   9 3.72495 1.21910   1
  -2   9   9 8.13663 2.19471   1
  -2   9   9 4.40525 2.23403   1
   1  -9  -9 3.04004 1.81535   3
   1  -9  -9 1.54856 1.70642   3
  -1   9   9 2.49912 2.11746   3
  -1   9   9 2.55563 1.24660   3
  -1   9   9 2.26638 1.96348   3
  -1   9   9 3.61023 3.75632  -2
  -1   9   9 3.61023 3.75632   1
  -1   9   9 3.66058 2.12908  -2
  -1   9   9 3.66058 2.12908   1
   0   9   9 113.967 11.1861   3
   0   9   9 119.341 13.4305   3
   1  12 -10 3.46312 2.73808   1
   1  12 -10 1.04320 2.11921   1
   1  12 -10 -0.9680 1.67226   3
   1  12 -10 0.94716 2.48936   3
   1  12 -10 0.69381 2.06462   2
   1  12 -10 0.40332 2.29923   2
  -1 -12  10 3.31740 2.30138   1
  -1 -12  10 2.96022 1.34159   1
  -1 -12  10 0.43794 2.42119   3
  -1 -12  10 1.95116 1.73529   3
  -1 -12  10 0.84067 1.35299   3
  -1 -12  10 0.54175 1.26784   2
  -1 -12  10 0.26841 2.20312   2
   0  12 -10 13.7473 2.52175   2
   0  12 -10 28.9355 4.02410   3
   0  12 -10 32.0171 4.42330   3
   0  12 -10 26.1644 3.43571   1
   0  12 -10 28.5022 3.94525   1
   0 -12  10 37.3354 4.45381   3
   0 -12  10 28.8462 3.31672   3
   0 -12  10 14.8525 2.82138   2
   0 -12  10 13.0886 1.75879   2
   0 -12  10 21.0395 2.67282   1
   0 -12  10 23.9594 3.76673   1
  -1  12 -10 9.27640 1.94667   1
  -1  12 -10 4.08024 2.13546   2
  -1  12 -10 4.68043 1.84479   3
   1 -12  10 9.29585 2.69348   1
   1 -12  10 6.30373 1.33606   1
   1 -12  10 3.04222 1.10659   2
   1 -12  10 0.91905 2.13818   2
   1 -12  10 4.27399 2.49915   3
   1 -12  10 5.00314 1.30073   3
   2  11 -10 1.75220 2.15383   2
   2  11 -10 4.45749 2.35186   2
   2  11 -10 1.64037 0.94967   2
   2  11 -10 6.19755 1.29684   3
   2  11 -10 7.09882 2.10462   3
   2  11 -10 6.47923 3.05608   3
   2  11 -10 10.1739 2.84050   1
   2  11 -10 6.20128 2.34103   1
   2  11 -10 8.53267 1.36701   1
  -2 -11  10 5.12892 2.30935   2
  -2 -11  10 1.02473 1.56125   2
  -2 -11  10 2.19342 1.33374   2
  -2 -11  10 7.53558 1.92417   3
  -2 -11  10 9.91881 1.78031   3
  -2 -11  10 7.41951 2.61100   3
  -2 -11  10 5.28062 1.88260   1
  -2 -11  10 6.79927 1.69635   1
  -2 -11  10 8.19000 2.55851   1
   1  11 -10 17.9588 2.91039   2
   1  11 -10 12.2323 2.49038   2
   1  11 -10 31.8140 4.06814   1
   1  11 -10 24.0097 3.49516   1
   1  11 -10 37.7735 4.29519   3
   1  11 -10 28.1113 3.80965   3
  -1 -11  10 33.4363 3.93412   1
  -1 -11  10 23.6994 2.96492   1
  -1 -11  10 30.4020 3.21130   3
  -1 -11  10 22.5484 3.51844   3
  -1 -11  10 32.9051 4.23067   3
  -1 -11  10 15.4386 2.74078   2
  -1 -11  10 14.1623 1.89026   2
   0  11 -10 10.4977 2.16179   1
   0  11 -10 7.76348 1.84174   3
   0  11 -10 4.49651 2.01817   2
   0 -11  10 7.87657 2.37699   1
   0 -11  10 11.7201 1.53118   1
   0 -11  10 4.52638 1.14676   2
   0 -11  10 6.23857 2.04457   2
   0 -11  10 11.2175 1.49775   3
   0 -11  10 6.58988 2.28096   3
  -1  11 -10 0.27004 1.65284   3
  -1  11 -10 3.17270 1.72515   1
  -1  11 -10 -0.0625 1.67181   2
   1 -11  10 1.56670 1.09215   1
   1 -11  10 1.45111 2.05337   1
   1 -11  10 -0.2725 0.97417   2
   1 -11  10 0.38499 1.95547   2
   1 -11  10 0.39596 2.13423   3
   1 -11  10 1.15184 0.95916   3
  -2  11 -10 -0.1472 1.89634   2
  -2  11 -10 -0.6559 1.69259   1
  -2  11 -10 -0.0134 1.64077   3
   2 -11  10 -0.0295 1.09279   2
   2 -11  10 -1.1560 2.06552   2
   2 -11  10 0.52409 2.28822   1
   2 -11  10 1.54130 1.15447   1
   2 -11  10 -0.9703 1.21219   3
   2 -11  10 -0.4517 2.42770   3
   2  10 -10 0.49459 0.95781   3
   2  10 -10 0.46560 2.32132   3
   2  10 -10 0.16695 1.57313   3
   2  10 -10 -0.3911 0.95717   1
   2  10 -10 -1.1058 1.58161   1
   2  10 -10 -0.1126 2.26432   1
   2  10 -10 1.04653 0.89485   2
   2  10 -10 0.08559 1.90794   2
  -2 -10  10 2.04747 2.05351   1
  -2 -10  10 -0.7415 1.27848   1
  -2 -10  10 -0.7089 1.31286   1
  -2 -10  10 -0.3447 1.45162   3
  -2 -10  10 -0.0270 2.01674   3
  -2 -10  10 -0.2861 1.32466   3
  -2 -10  10 -0.6725 1.29962   2
  -2 -10  10 1.93715 1.37638   2
  -2 -10  10 0.52890 1.87991   2
   1  10 -10 1.42131 1.38105   3
   1  10 -10 0.30721 0.66820   3
   1  10 -10 -0.7558 1.53054   2
   1  10 -10 3.03272 0.90113   1
   1  10 -10 3.68023 1.54778   1
  -1 -10  10 -0.0182 1.01431   2
  -1 -10  10 -0.7509 1.64138   2
  -1 -10  10 6.68340 1.30459   1
  -1 -10  10 4.14715 1.92290   1
  -1 -10  10 0.41483 1.16667   3
  -1 -10  10 -0.4305 1.38665   3
  -1 -10  10 -1.5873 1.81570   3
   0  10 -10 26.0440 3.35864   1
   0  10 -10 20.6431 2.68281   3
   0  10 -10 10.6816 2.17925   2
   0 -10  10 26.3554 2.78987   1
   0 -10  10 26.6552 3.66568   1
   0 -10  10 12.7220 2.19671   2
   0 -10  10 9.14929 1.42415   2
   0 -10  10 20.8945 2.26062   3
   0 -10  10 17.4131 2.96898   3
  -1  10 -10 14.5750 2.16882   1
  -1  10 -10 7.40519 1.80806   2
  -1  10 -10 12.9139 2.23619   3
   1 -10  10 12.7012 2.38965   1
   1 -10  10 11.2937 1.58687   1
   1 -10  10 13.4816 2.55543   3
   1 -10  10 14.8785 1.71910   3
   1 -10  10 6.20527 1.91040   2
   1 -10  10 6.76075 1.18726   2
  -2  10 -10 0.93766 1.54013   1
  -2  10 -10 -0.1239 1.45908   3
  -2  10 -10 1.21742 1.54465   2
   2 -10  10 0.76835 2.03791   3
   2 -10  10 -0.0426 1.17014   3
   2 -10  10 -0.4876 1.77965   2
   2 -10  10 0.84129 0.90309   2
   2 -10  10 -0.7726 2.01622   1
   2 -10  10 0.80102 1.12696   1
   3   9 -10 0.09171 2.10642   1
   3   9 -10 2.88214 1.38395   1
   3   9 -10 1.61611 1.43753   3
   3   9 -10 2.48053 2.01375   3
   3   9 -10 1.69241 1.81303   2
   3   9 -10 -0.5627 1.25655   2
  -3  -9  10 0.79412 1.68925   3
  -3  -9  10 0.80916 1.52720   1
  -3  -9  10 1.24880 1.47264   2
   2   9 -10 2.03839 0.95419   1
   2   9 -10 0.92232 1.68199   1
   2   9 -10 -1.2227 1.46951   2
   2   9 -10 0.88274 0.90886   2
   2   9 -10 0.94503 0.95919   3
   2   9 -10 2.16807 1.72150   3
  -2  -9  10 0.07752 1.49326   3
  -2  -9  10 1.08218 1.82060   3
  -2  -9  10 2.05254 1.32410   3
  -2  -9  10 2.91673 1.89880   1
  -2  -9  10 3.37588 1.37414   1
  -2  -9  10 3.01381 1.33427   1
  -2  -9  10 0.12297 1.74981   2
  -2  -9  10 1.36828 1.12326   2
  -2  -9  10 1.34731 1.17542   2
   1   9 -10 17.1212 2.12271   1
   1   9 -10 10.3336 1.43715   1
   1   9 -10 13.9892 2.12708   3
   1   9 -10 12.2495 1.45522   3
   1   9 -10 6.15458 0.85352   2
   1   9 -10 3.99055 1.53384   2
  -1  -9  10 10.6214 1.72200   3
  -1  -9  10 16.5756 2.39449   3
  -1  -9  10 13.1208 1.96461   3
  -1  -9  10 4.86422 1.08387   2
  -1  -9  10 5.41108 1.76716   2
  -1  -9  10 15.4504 2.29000   1
  -1  -9  10 12.7929 1.65182   1
   0   9 -10 4.51235 1.57491   1
   0   9 -10 2.32934 1.41917   2
   0   9 -10 0.47249 1.25309   3
   0  -9  10 -0.0543 1.48715   2
   0  -9  10 0.62241 0.75138   2
   0  -9  10 1.06485 0.90622   3
   0  -9  10 0.67855 1.58583   3
   0  -9  10 4.66445 1.72175   1
   0  -9  10 4.68718 1.06964   1
  -1   9 -10 1.83509 1.19888   3
  -1   9 -10 -1.6028 1.55515   2
  -1   9 -10 1.67011 1.39605   1
   1  -9  10 0.56579 1.54693   1
   1  -9  10 0.90208 0.88376   1
   1  -9  10 0.85793 1.76712   3
   1  -9  10 0.20920 0.87716   3
   1  -9  10 0.94996 0.86987   2
   1  -9  10 0.90776 1.57777   2
  -2   9 -10 12.2570 2.29730   2
  -2   9 -10 12.7653 2.57220   1
  -2   9 -10 20.8867 3.02839   3
   2  -9  10 23.7640 2.21781   1
   2  -9  10 25.7112 3.18633   1
   2  -9  10 13.8574 1.68780   2
   2  -9  10 13.2047 2.49160   2
   2  -9  10 25.2324 2.56057   3
   2  -9  10 23.9457 3.43435   3
  -3   9 -10 4.34662 1.63750   1
  -3   9 -10 0.68310 1.95233   2
  -3   9 -10 -1.7270 1.84601   3
   3  -9  10 -0.3725 1.20411   3
   3  -9  10 -1.8203 2.07131   3
   3  -9  10 3.04232 1.13413   1
   3  -9  10 2.03167 2.30028   1
   3  -9  10 2.13507 2.23849   2
   3  -9  10 -0.6946 2.02691   2
   3  -9  10 1.01152 1.25980   2
   3   8 -10 1.84819 1.70665   1
   3   8 -10 2.43792 1.30042   1
   3   8 -10 1.90935 1.98826   2
   3   8 -10 0.68127 1.17273   2
   3   8 -10 0.44757 1.31422   3
   3   8 -10 -0.2806 1.87184   3
  -3  -8  10 0.13481 1.60749   3
  -3  -8  10 -0.6061 1.51671   2
  -3  -8  10 1.23416 1.43978   1
   2   8 -10 2.35363 0.90946   1
   2   8 -10 1.13267 1.51552   1
   2   8 -10 0.59446 1.46875   3
   2   8 -10 1.06220 0.88492   3
   2   8 -10 1.01867 1.32247   2
   2   8 -10 0.13008 0.88481   2
  -2  -8  10 0.93578 1.51436   2
  -2  -8  10 -0.2111 0.99047   2
  -2  -8  10 1.13185 1.16553   2
  -2  -8  10 1.10166 1.60788   1
  -2  -8  10 1.09051 1.13928   1
  -2  -8  10 3.65828 1.21426   1
  -2  -8  10 2.03675 1.22327   3
  -2  -8  10 1.52629 1.20098   3
  -2  -8  10 0.86500 1.66737   3
   1   8 -10 -0.0181 1.25506   3
   1   8 -10 0.31302 0.68287   3
   1   8 -10 4.30910 1.32363   1
   1   8 -10 1.62827 0.72058   1
   1   8 -10 -0.2986 0.71243   2
   1   8 -10 -0.4989 1.31788   2
  -1  -8  10 5.05190 1.55840   1
  -1  -8  10 4.08163 1.01272   1
  -1  -8  10 -0.1205 0.88212   2
  -1  -8  10 -0.7722 1.34548   2
  -1  -8  10 0.16911 0.96135   3
  -1  -8  10 -1.7826 1.48224   3
  -1  -8  10 1.56552 1.23333   3
   0   8 -10 7.42800 1.79307   2
   0   8 -10 94.1700 10.4081   1
   0   8 -10 95.7462 8.99052   1
   0   8 -10 13.7028 2.06996   3
   0   8 -10 14.6633 1.47746   3
   0  -8  10 11.6176 1.60938   3
   0  -8  10 15.7362 2.30322   3
   0  -8  10 6.40330 1.68401   2
   0  -8  10 7.73459 1.12119   2
   0  -8  10 99.0078 9.11297   1
   0  -8  10 91.6745 10.8488   1
  -1   8 -10 11.7484 1.78728   3
  -1   8 -10 6.05585 1.53130   2
   1  -8  10 30.2932 2.90934   1
   1  -8  10 23.6739 3.54202   1
   1  -8  10 3.93925 1.05758   2
   1  -8  10 5.70480 1.39103   2
   1  -8  10 11.3073 2.01685   3
   1  -8  10 11.2834 1.49557   3
  -2   8 -10 1.12358 1.17804   3
  -2   8 -10 2.77160 1.42139   1
  -2   8 -10 0.56514 1.33770   2
   2  -8  10 2.42108 0.90535   3
   2  -8  10 3.26899 1.88105   3
   2  -8  10 3.36073 1.67717   1
   2  -8  10 3.48190 0.96989   1
   2  -8  10 1.39003 0.90334   2
   2  -8  10 -1.0123 1.54625   2
  -3   8 -10 0.30389 1.44682   1
  -3   8 -10 -0.5153 1.65269   2
  -3   8 -10 0.11157 1.79056   3
   3  -8  10 0.72109 2.10239   1
   3  -8  10 0.98816 1.06989   1
   3  -8  10 1.63063 1.86942   2
   3  -8  10 -0.9874 1.97060   2
   3  -8  10 -0.8832 1.12408   2
   3  -8  10 0.45820 2.20393   3
   3  -8  10 -0.0226 1.20207   3
   4   7 -10 4.26021 2.08861   3
   4   7 -10 4.81391 1.60804   3
   4   7 -10 2.58193 1.61287   1
   4   7 -10 2.70536 2.43041   1
   4   7 -10 1.62808 2.49731   2
   4   7 -10 0.14233 1.66954   2
  -4  -7  10 1.23830 1.68847   3
  -4  -7  10 1.26092 1.75570   1
  -4  -7  10 2.22284 1.77186   2
   3   7 -10 12.8428 1.77206   1
   3   7 -10 12.0399 2.25578   1
   3   7 -10 10.8098 2.02081   3
   3   7 -10 12.7471 1.74351   3
   3   7 -10 7.94653 1.34842   2
   3   7 -10 5.28916 1.83202   2
  -3  -7  10 5.12930 1.50634   2
  -3  -7  10 11.8318 1.85812   1
  -3  -7  10 9.60267 1.83224   3
   2   7 -10 9.82129 1.87494   1
   2   7 -10 7.77271 1.39841   1
   2   7 -10 7.28882 1.63308   3
   2   7 -10 4.47066 1.04753   3
   2   7 -10 2.00364 0.89867   2
   2   7 -10 2.97526 1.46912   2
  -2  -7  10 3.33199 1.42975   2
  -2  -7  10 2.33265 1.17402   2
  -2  -7  10 2.81193 1.08524   2
  -2  -7  10 5.57921 1.47330   3
  -2  -7  10 8.32699 1.47576   3
  -2  -7  10 4.32124 1.59569   3
  -2  -7  10 12.1344 1.60821   1
  -2  -7  10 13.5633 1.73971   1
  -2  -7  10 16.4723 2.06289   1
   1   7 -10 0.61177 1.05502   3
   1   7 -10 -0.2375 0.65440   3
   1   7 -10 2.63898 0.72157   1
   1   7 -10 4.54199 1.35447   1
   1   7 -10 -0.3452 1.11205   2
   1   7 -10 0.30720 0.69130   2
  -1  -7  10 0.57955 0.90338   3
  -1  -7  10 -0.2076 1.08654   3
  -1  -7  10 0.49284 1.33267   3
  -1  -7  10 2.89211 1.36617   1
  -1  -7  10 2.32533 0.98900   1
  -1  -7  10 -0.2834 0.76983   2
  -1  -7  10 -0.6691 1.20192   2
   0   7 -10 52.5696 5.43222   1
   0   7 -10 45.5066 4.61230   1
   0   7 -10 27.0518 2.74448   2
   0   7 -10 26.7571 3.41127   2
   0   7 -10 54.4550 5.19968   3
   0   7 -10 54.1228 6.06563   3
   0  -7  10 48.3848 4.75530   1
   0  -7  10 49.4032 5.75863   1
   0  -7  10 50.4799 6.43967   3
   0  -7  10 55.9784 5.30985   3
   0  -7  10 28.6975 3.52017   2
   0  -7  10 29.0220 2.93728   2
  -1   7 -10 8.42433 1.88343   2
  -1   7 -10 33.8781 3.68481   1
  -1   7 -10 15.6038 2.35574   3
   1  -7  10 24.3749 3.85936   1
   1  -7  10 35.6125 3.27430   1
   1  -7  10 17.5967 1.98279   3
   1  -7  10 18.4418 2.64905   3
   1  -7  10 10.2218 1.94273   2
   1  -7  10 10.9324 1.37882   2
  -2   7 -10 2.93049 1.30991   1
  -2   7 -10 1.80230 1.11932   3
  -2   7 -10 1.06497 1.25589   2
   2  -7  10 3.08832 1.01240   3
   2  -7  10 -0.7678 1.54324   3
   2  -7  10 1.19482 0.87584   2
   2  -7  10 0.58649 1.41252   2
   2  -7  10 2.22351 1.65493   1
   2  -7  10 2.55413 0.94524   1
  -3   7 -10 -1.4867 1.78149   2
  -3   7 -10 0.50047 1.51510   1
  -3   7 -10 0.11572 1.69129   3
   3  -7  10 -1.2737 1.77336   2
   3  -7  10 1.66240 1.05656   2
   3  -7  10 0.91058 1.93539   2
   3  -7  10 0.80960 1.19868   3
   3  -7  10 1.99925 1.84679   3
   3  -7  10 2.35092 2.01100   1
   3  -7  10 1.30092 1.16143   1
   3  -7  10 -0.8493 1.62309   1
   4   6 -10 10.4325 1.89543   2
   4   6 -10 5.28486 2.50154   2
   4   6 -10 19.3070 3.25755   3
   4   6 -10 15.3292 2.69840   1
   4   6 -10 20.4782 2.96282   1
  -4  -6  10 8.96008 1.77579   2
  -4  -6  10 25.7192 3.11286   3
  -4  -6  10 18.4915 2.55233   1
   3   6 -10 14.2554 2.11914   3
   3   6 -10 12.9535 1.80980   3
   3   6 -10 11.8082 2.09866   2
   3   6 -10 10.2728 1.49416   2
   3   6 -10 13.9335 1.96954   1
   3   6 -10 15.6203 2.38332   1
  -3  -6  10 6.28159 1.48809   2
  -3  -6  10 16.4874 2.15531   1
  -3  -6  10 12.7921 1.95258   3
   2   6 -10 5.43677 1.49410   2
   2   6 -10 5.52677 0.99687   2
   2   6 -10 11.1655 1.31286   1
   2   6 -10 12.4972 1.81570   1
   2   6 -10 8.06131 1.26685   3
   2   6 -10 9.91958 1.76641   3
  -2  -6  10 9.54135 1.73190   1
  -2  -6  10 4.99586 1.38145   1
  -2  -6  10 8.70728 1.47918   1
  -2  -6  10 4.35955 1.36300   2
  -2  -6  10 5.50768 1.17397   2
  -2  -6  10 4.32800 1.05424   2
  -2  -6  10 8.98685 1.79535   3
  -2  -6  10 9.34288 1.47230   3
   1   6 -10 1.74579 0.73395   2
   1   6 -10 0.62984 1.23439   2
   1   6 -10 2.11190 0.74113   1
   1   6 -10 3.38735 1.16981   1
   1   6 -10 2.37964 0.75228   3
   1   6 -10 2.71803 1.10599   3
  -1  -6  10 2.75565 0.82235   3
  -1  -6  10 4.99339 1.08171   3
  -1  -6  10 3.36142 1.35030   3
  -1  -6  10 0.01100 1.07583   2
  -1  -6  10 1.64598 0.80229   2
  -1  -6  10 3.81251 1.31134   1
  -1  -6  10 4.46537 0.88445   1
   0   6 -10 86.4011 8.37201   1
   0   6 -10 88.5001 9.63862   1
   0   6 -10 49.4939 4.58139   2
   0   6 -10 40.6495 5.37838   2
   0   6 -10 82.6881 7.67989   3
   0   6 -10 84.8510 8.81204   3
   0  -6  10 48.4076 4.67110   2
   0  -6  10 49.6368 5.64251   2
   0  -6  10 87.0828 8.46048   1
   0  -6  10 95.8605 10.1152   1
   0  -6  10 75.7427 9.21725   3
   0  -6  10 78.5725 7.74847   3
  -1   6 -10 94.0731 9.34905   2
  -1   6 -10 164.483 18.2141   1
  -1   6 -10 165.381 15.9133   1
  -1   6 -10 147.994 15.8807   3
  -1   6 -10 145.436 13.8690   3
   1  -6  10 174.197 16.0294   1
   1  -6  10 181.158 19.0337   1
   1  -6  10 151.241 13.9794   3
   1  -6  10 147.782 16.6090   3
   1  -6  10 83.7028 8.10030   2
   1  -6  10 79.3850 9.65255   2
  -2   6 -10 0.89984 1.19974   1
  -2   6 -10 0.14888 1.42319   2
  -2   6 -10 2.13808 1.19062   3
   2  -6  10 1.09375 0.84408   1
   2  -6  10 0.70217 1.42476   1
   2  -6  10 1.26594 0.98416   2
   2  -6  10 -0.1634 1.51718   2
   2  -6  10 2.70614 1.61549   3
   2  -6  10 1.24028 0.90994   3
  -3   6 -10 0.21802 1.50356   1
  -3   6 -10 2.61764 1.39863   3
  -3   6 -10 -0.5892 1.52474   2
   3  -6  10 1.15081 1.73319   2
   3  -6  10 0.05465 1.19713   2
   3  -6  10 1.32327 1.61149   2
   3  -6  10 0.92284 1.56653   1
   3  -6  10 -0.9783 1.93355   1
   3  -6  10 1.49943 1.11735   1
   3  -6  10 0.28422 1.17946   3
   3  -6  10 1.00473 1.98182   3
   4   5 -10 -1.0810 1.59571   3
   4   5 -10 -0.3757 1.50677   2
   4   5 -10 2.08620 2.09852   2
   4   5 -10 6.13835 2.03831   1
  -4  -5  10 0.83095 1.47293   2
  -4  -5  10 1.50580 1.33891   1
  -4  -5  10 -0.9796 1.53505   3
   3   5 -10 0.32171 1.28058   1
   3   5 -10 2.54660 1.10726   1
   3   5 -10 0.66671 1.34993   3
   3   5 -10 1.46172 1.15203   3
   3   5 -10 0.08213 1.36126   2
   3   5 -10 0.38267 1.05889   2
  -3  -5  10 1.30235 0.98771   2
  -3  -5  10 3.44854 1.06825   1
  -3  -5  10 0.88755 1.05847   3
   2   5 -10 51.9071 5.85618   1
   2   5 -10 66.2539 6.79566   1
   2   5 -10 27.5532 3.10510   2
   2   5 -10 24.1765 2.49846   2
   2   5 -10 44.3701 4.63895   3
   2   5 -10 36.7889 4.03303   3
  -2  -5  10 21.2125 3.04657   2
  -2  -5  10 20.1359 2.49596   2
  -2  -5  10 27.1169 2.79291   2
  -2  -5  10 45.0602 4.44482   3
  -2  -5  10 34.2483 4.87107   3
  -2  -5  10 64.8033 6.39333   1
  -2  -5  10 60.9426 7.08638   1
   1   5 -10 5.46334 1.31714   3
   1   5 -10 6.53048 1.03009   3
   1   5 -10 7.36382 1.46283   2
   1   5 -10 4.62893 0.87332   2
   1   5 -10 47.3225 4.38884   1
   1   5 -10 43.4891 5.11567   1
  -1  -5  10 44.9887 4.45572   1
  -1  -5  10 42.2123 5.36754   1
  -1  -5  10 3.54530 0.94632   2
  -1  -5  10 4.10184 1.39075   2
  -1  -5  10 6.05768 1.56735   3
  -1  -5  10 9.56471 1.29243   3
  -1  -5  10 8.95334 1.19547   3
   0   5 -10 2.85834 0.77617   3
   0   5 -10 3.67526 1.12176   3
   0   5 -10 3.08809 1.05057   1
   0   5 -10 1.94266 0.64856   1
   0   5 -10 2.34234 1.15235   2
   0   5 -10 1.01278 0.68046   2
   0  -5  10 2.42565 0.87319   3
   0  -5  10 2.41490 1.37678   3
   0  -5  10 1.27530 0.84809   2
   0  -5  10 1.72528 1.22184   2
   0  -5  10 4.32024 1.21602   1
   0  -5  10 3.23591 0.89926   1
  -1   5 -10 24.3339 2.61370   3
  -1   5 -10 25.0328 3.11933   3
  -1   5 -10 12.8872 1.89658   2
  -1   5 -10 11.7915 1.34399   2
  -1   5 -10 25.7809 3.04052   1
  -1   5 -10 23.8361 2.49908   1
   1  -5  10 29.6171 3.34047   1
   1  -5  10 23.8932 2.68511   1
   1  -5  10 12.7213 1.49997   2
   1  -5  10 12.0289 1.93055   2
   1  -5  10 28.9329 2.70409   3
   1  -5  10 25.6128 3.33989   3
  -2   5 -10 20.7863 2.54177   3
  -2   5 -10 18.0947 2.25225   1
  -2   5 -10 8.99432 1.71929   2
   2  -5  10 18.0064 1.93764   1
   2  -5  10 12.6071 2.41224   1
   2  -5  10 19.2921 2.23825   3
   2  -5  10 17.9342 2.77311   3
   2  -5  10 5.88769 1.18857   2
   2  -5  10 8.40896 1.63545   2
  -3   5 -10 2.10164 1.76690   2
  -3   5 -10 0.38874 1.51847   1
  -3   5 -10 3.91434 1.42848   3
   3  -5  10 1.12165 1.61838   1
   3  -5  10 0.50991 1.09315   1
   3  -5  10 2.19269 1.82078   1
   3  -5  10 1.15043 1.44338   3
   3  -5  10 1.25455 1.82718   3
   3  -5  10 0.89670 1.25469   3
   3  -5  10 0.15579 1.55618   2
   3  -5  10 1.42787 1.11882   2
   3  -5  10 0.36598 1.69115   2
   4   4 -10 11.4137 2.39599   2
   4   4 -10 20.2308 3.52940   1
   4   4 -10 19.3171 2.78406   3
  -4  -4  10 16.6800 2.54059   3
  -4  -4  10 34.5109 3.39174   1
  -4  -4  10 12.3974 2.03261   2
   3   4 -10 59.7219 6.40020   1
   3   4 -10 59.4813 5.68595   1
   3   4 -10 33.4972 4.22979   2
   3   4 -10 33.2930 3.55970   2
   3   4 -10 57.6612 5.80401   3
   3   4 -10 62.0759 6.58327   3
  -3  -4  10 55.5191 6.20154   3
  -3  -4  10 36.2830 3.89979   2
  -3  -4  10 53.1082 6.05043   1
   2   4 -10 10.7233 1.50626   3
   2   4 -10 10.7606 1.87925   3
   2   4 -10 3.92625 1.32946   2
   2   4 -10 6.42614 1.06929   2
   2   4 -10 11.3766 1.76367   1
   2   4 -10 17.6914 2.20764   1
  -2  -4  10 6.57798 1.09821   2
  -2  -4  10 5.27955 1.33382   2
  -2  -4  10 6.34386 1.06103   2
  -2  -4  10 14.2031 1.94474   3
  -2  -4  10 12.0110 1.67665   3
  -2  -4  10 17.1339 2.30280   1
  -2  -4  10 18.0004 1.98597   1
   1   4 -10 0.90056 1.12228   2
   1   4 -10 0.12653 0.71854   2
   1   4 -10 0.38316 0.69160   1
   1   4 -10 0.60095 1.07146   1
   1   4 -10 0.66515 0.70300   3
   1   4 -10 0.81000 0.90613   3
  -1  -4  10 1.67579 1.19688   1
  -1  -4  10 1.23031 0.83078   1
  -1  -4  10 0.92672 0.98207   2
  -1  -4  10 0.59386 0.78644   2
  -1  -4  10 0.33777 1.11921   3
  -1  -4  10 0.57385 0.83508   3
  -1  -4  10 0.79076 0.84377   3
   0   4 -10 -0.3092 0.70463   3
   0   4 -10 1.48304 0.94089   3
   0   4 -10 0.57385 0.60990   1
   0   4 -10 1.28651 1.06656   1
   0   4 -10 -0.4256 0.68963   2
   0   4 -10 -0.9323 1.16450   2
   0  -4  10 -0.7041 0.74894   2
   0  -4  10 -0.7284 0.93512   2
   0  -4  10 0.65101 1.12767   3
   0  -4  10 -0.3874 0.85626   3
   0  -4  10 1.44640 0.84840   1
   0  -4  10 0.55802 1.19025   1
  -1   4 -10 82.8016 7.91871   2
  -1   4 -10 94.9277 9.16924   2
  -1   4 -10 188.237 18.3860   1
  -1   4 -10 170.547 16.0815   1
  -1   4 -10 132.483 12.6396   3
  -1   4 -10 135.704 14.4437   3
   1  -4  10 130.849 12.7260   3
   1  -4  10 139.970 15.1121   3
   1  -4  10 78.7664 9.50801   2
   1  -4  10 79.9853 7.97828   2
   1  -4  10 172.971 19.1722   1
   1  -4  10 156.547 16.1563   1
  -2   4 -10 6.85077 0.94479   2
  -2   4 -10 7.74221 1.63133   2
  -2   4 -10 26.4492 2.78799   1
  -2   4 -10 22.2226 2.22775   1
  -2   4 -10 21.5238 2.22433   3
  -2   4 -10 23.0151 2.65797   3
   2  -4  10 18.0150 2.37673   1
   2  -4  10 19.0498 2.92153   3
   2  -4  10 20.9463 2.37763   3
   2  -4  10 10.8386 1.38200   2
   2  -4  10 9.60965 1.69968   2
  -3   4 -10 0.68875 1.74105   2
  -3   4 -10 2.25557 1.57857   3
  -3   4 -10 3.65595 1.56102   1
   3  -4  10 -0.1951 1.78097   1
   3  -4  10 -0.8335 1.64407   1
   3  -4  10 0.50132 1.09201   1
   3  -4  10 1.34713 1.55236   3
   3  -4  10 1.99779 1.32388   3
   3  -4  10 1.35496 1.89093   3
   3  -4  10 0.97189 1.68333   2
   3  -4  10 -0.1225 1.73628   2
   3  -4  10 0.31301 1.11286   2
   4   3 -10 10.0171 1.92229   3
   4   3 -10 2.34493 1.88430   2
   4   3 -10 3.79447 1.64980   1
  -4  -3  10 9.70739 1.44179   3
  -4  -3  10 1.04279 1.58573   3
  -4  -3  10 4.87354 1.48869   2
  -4  -3  10 3.54967 1.20921   1
  -4  -3  10 7.53221 1.44843   1
   3   3 -10 14.7424 2.04823   3
   3   3 -10 4.69394 1.24508   2
   3   3 -10 7.29954 1.75639   2
   3   3 -10 7.92458 1.44161   1
   3   3 -10 6.95295 1.60339   1
  -3  -3  10 12.6111 1.73495   3
  -3  -3  10 10.2168 1.82764   3
  -3  -3  10 12.2023 1.49678   1
  -3  -3  10 5.01522 1.25244   2
   2   3 -10 52.9847 6.12620   2
   2   3 -10 53.6817 5.36176   2
   2   3 -10 101.153 9.91377   1
   2   3 -10 107.280 11.3217   1
   2   3 -10 94.4764 9.78565   3
   2   3 -10 86.2455 8.57536   3
  -2  -3  10 55.8936 5.75362   2
  -2  -3  10 54.5202 6.38168   2
  -2  -3  10 89.1094 10.1465   3
  -2  -3  10 89.5823 9.35149   3
  -2  -3  10 105.190 11.7540   1
  -2  -3  10 103.857 10.7897   1
   1   3 -10 2.87332 1.00366   1
   1   3 -10 1.30720 0.74376   1
   1   3 -10 2.09003 0.76804   3
   1   3 -10 1.73597 0.90796   3
   1   3 -10 1.43528 1.00455   2
   1   3 -10 1.09645 0.80010   2
  -1  -3  10 2.69513 1.14785   3
  -1  -3  10 1.16507 0.98004   3
  -1  -3  10 1.79603 0.82736   3
  -1  -3  10 0.02841 0.84586   2
  -1  -3  10 2.35696 1.13648   2
  -1  -3  10 1.64355 0.93930   1
  -1  -3  10 5.33198 1.22333   1
   0   3 -10 0.37748 0.90503   3
   0   3 -10 1.79125 0.77007   3
   0   3 -10 0.33041 1.13777   2
   0   3 -10 0.17007 0.72702   2
   0  -3  10 -0.3038 0.99964   2
   0  -3  10 1.56582 0.78418   2
   0  -3  10 1.50755 0.82069   3
   0  -3  10 1.24188 1.14684   3
  -1   3 -10 45.7340 4.62478   2
  -1   3 -10 38.6938 3.91392   2
  -1   3 -10 64.3965 7.10263   1
  -1   3 -10 65.9784 6.17137   1
  -1   3 -10 71.2213 6.44646   3
  -1   3 -10 70.2214 7.41344   3
   1  -3  10 60.6352 6.23501   1
   1  -3  10 68.0058 7.50995   1
   1  -3  10 35.0244 3.94983   2
   1  -3  10 41.8057 4.79677   2
   1  -3  10 55.9540 6.49426   3
   1  -3  10 73.7791 7.77445   3
  -2   3 -10 11.8466 1.45136   1
  -2   3 -10 18.0472 2.06279   1
  -2   3 -10 17.7632 2.46220   3
  -2   3 -10 19.2479 1.91200   3
  -2   3 -10 11.5293 1.67275   2
  -2   3 -10 5.57980 1.01451   2
   2  -3  10 13.2834 1.72140   1
   2  -3  10 13.7220 2.23111   1
   2  -3  10 9.39378 1.64414   2
   2  -3  10 8.50232 1.65889   2
   2  -3  10 6.02887 1.23281   2
   2  -3  10 13.7969 2.58103   3
   2  -3  10 18.0540 2.17995   3
  -3   3 -10 0.85122 0.64760   3
  -3   3 -10 2.06028 1.56143   3
  -3   3 -10 2.20602 1.52349   2
  -3   3 -10 0.70877 0.65740   2
  -3   3 -10 1.02493 1.54553   1
  -3   3 -10 0.91365 0.57634   1
   3  -3  10 1.37444 1.12117   1
   3  -3  10 2.66077 1.67259   1
   3  -3  10 4.50557 1.94093   1
   3  -3  10 1.96190 1.29010   3
   3  -3  10 2.17808 1.91629   3
   3  -3  10 3.11586 1.73826   3
   3  -3  10 1.42328 1.51260   2
   3  -3  10 0.52309 1.20965   2
   3  -3  10 1.60245 1.88574   2
   5   2 -10 -0.6353 2.23936   1
   5   2 -10 0.22916 1.86826   3
   5   2 -10 0.82879 2.08690   2
  -5  -2  10 -0.2437 1.45428   3
  -5  -2  10 -0.1932 1.86495   3
  -5  -2  10 -0.6759 1.36279   1
  -5  -2  10 -0.8037 1.89445   1
  -5  -2  10 1.37767 1.90405   2
  -5  -2  10 2.01674 1.41383   2
   4   2 -10 42.2328 4.80405   3
   4   2 -10 26.7647 3.54686   2
   4   2 -10 36.1343 4.98624   1
  -4  -2  10 39.9321 4.16195   3
  -4  -2  10 36.3467 4.41542   3
  -4  -2  10 25.5424 3.20662   2
  -4  -2  10 28.5110 2.93536   2
  -4  -2  10 49.8012 4.80692   1
  -4  -2  10 40.3766 4.30140   1
   3   2 -10 15.7997 2.03386   2
   3   2 -10 18.0910 2.42848   2
   3   2 -10 29.5486 3.58839   1
   3   2 -10 29.0965 3.56884   3
  -3  -2  10 31.4532 3.11327   1
  -3  -2  10 28.3010 3.45351   1
  -3  -2  10 29.0005 3.43633   3
  -3  -2  10 29.5740 3.06004   3
  -3  -2  10 16.0067 2.07026   2
   2   2 -10 8.08444 1.38827   2
   2   2 -10 5.87916 1.07964   2
   2   2 -10 14.8212 1.85257   1
   2   2 -10 17.1881 2.22225   1
   2   2 -10 7.12953 1.48326   3
   2   2 -10 6.10934 1.19989   3
  -2  -2  10 7.27615 1.27889   3
  -2  -2  10 10.8315 1.55457   3
  -2  -2  10 11.5306 1.33367   3
  -2  -2  10 14.5846 2.00283   1
  -2  -2  10 19.9991 2.32782   1
  -2  -2  10 5.86058 1.31629   2
  -2  -2  10 2.79493 0.91085   2
   1   2 -10 278.786 25.7177   2
   1   2 -10 289.971 29.2755   2
   1   2 -10 473.013 47.8776   3
   1   2 -10 462.294 42.0909   3
   1   2 -10 505.693 47.0753   1
   1   2 -10 518.950 53.5527   1
  -1  -2  10 459.743 45.9196   3
  -1  -2  10 398.362 42.2378   3
  -1  -2  10 441.214 49.8471   3
  -1  -2  10 255.991 25.7358   2
  -1  -2  10 273.998 30.4511   2
  -1  -2  10 488.647 55.7527   1
  -1  -2  10 496.403 47.1543   1
   0   2 -10 81.7389 8.12376   3
   0   2 -10 88.3772 9.24296   3
   0   2 -10 48.4512 4.40714   2
   0   2 -10 40.8791 4.97505   2
   0   2 -10 103.075 11.4043   1
   0   2 -10 103.387 9.99127   1
   0  -2  10 43.5086 5.23200   2
   0  -2  10 45.0346 4.37573   2
   0  -2  10 83.5634 8.15803   3
   0  -2  10 87.4522 9.69679   3
   0  -2  10 103.755 10.0386   1
   0  -2  10 114.917 11.9405   1
  -1   2 -10 8.50096 1.49166   2
  -1   2 -10 12.5750 1.29318   2
  -1   2 -10 19.2179 2.45924   1
  -1   2 -10 19.7668 2.04252   1
  -1   2 -10 18.9236 2.40340   3
  -1   2 -10 20.3867 2.03110   3
   1  -2  10 19.9603 2.71415   1
   1  -2  10 18.6146 2.15342   1
   1  -2  10 8.41576 1.31729   2
   1  -2  10 6.99550 1.66142   2
   1  -2  10 16.3289 2.61372   3
   1  -2  10 19.9615 2.16143   3
  -2   2 -10 -0.0423 0.69942   1
  -2   2 -10 1.10296 1.22835   1
  -2   2 -10 -0.1710 0.67906   2
  -2   2 -10 -0.3907 1.33561   2
  -2   2 -10 1.00292 1.31546   3
  -2   2 -10 0.70012 0.76486   3
   2  -2  10 -0.0182 1.19163   1
   2  -2  10 0.31068 0.97842   1
   2  -2  10 -0.8850 1.42732   1
   2  -2  10 0.98544 1.44126   3
   2  -2  10 0.23776 1.15515   3
   2  -2  10 0.05031 1.14984   2
   2  -2  10 0.22178 1.38195   2
   2  -2  10 0.01364 1.32770   2
  -3   2 -10 1.94363 1.00980   3
  -3   2 -10 2.03140 1.42360   3
  -3   2 -10 0.13655 0.84919   2
  -3   2 -10 0.34506 1.66266   2
  -3   2 -10 3.01593 1.39723   1
  -3   2 -10 0.71800 0.59226   1
   3  -2  10 6.13544 1.70039   1
   3  -2  10 2.22008 1.23918   1
   3  -2  10 1.94895 1.86839   1
   3  -2  10 -0.2525 1.83199   2
   3  -2  10 2.40963 1.31747   2
   3  -2  10 2.93956 1.69798   2
   3  -2  10 2.51288 1.40478   3
   3  -2  10 2.47041 2.00953   3
   3  -2  10 1.11772 1.63343   3
   5   1 -10 1.67268 2.06771   3
   5   1 -10 0.95031 2.33835   2
   5   1 -10 3.81740 2.21398   1
  -5  -1  10 0.66458 1.74056   3
  -5  -1  10 -1.4184 1.33863   3
  -5  -1  10 3.32917 1.62497   1
  -5  -1  10 3.06997 1.39515   1
  -5  -1  10 1.13844 1.60492   2
  -5  -1  10 0.58226 1.30623   2
   4   1 -10 6.39872 1.74746   3
   4   1 -10 3.80029 1.75547   2
   4   1 -10 7.40800 1.66014   1
  -4  -1  10 5.64488 1.28060   1
  -4  -1  10 8.39291 1.63895   1
  -4  -1  10 7.40246 1.32832   3
  -4  -1  10 3.69871 1.52627   3
  -4  -1  10 2.20748 1.25859   2
  -4  -1  10 3.60593 1.09167   2
   3   1 -10 54.6869 5.52238   3
   3   1 -10 56.2556 5.93615   1
   3   1 -10 35.0894 3.87084   2
  -3  -1  10 28.9409 3.13940   2
  -3  -1  10 28.5679 3.38562   2
  -3  -1  10 51.1400 5.15863   1
  -3  -1  10 50.6415 5.63977   1
  -3  -1  10 45.3499 5.21616   3
  -3  -1  10 46.4474 4.84700   3
   2   1 -10 22.6557 2.81215   2
   2   1 -10 25.8671 2.53146   2
   2   1 -10 36.4575 3.79642   1
   2   1 -10 36.4442 4.24268   1
   2   1 -10 41.5900 4.34162   3
   2   1 -10 36.8119 3.85104   3
  -2  -1  10 37.3783 4.49029   1
  -2  -1  10 36.8665 3.73164   1
  -2  -1  10 37.0517 3.96576   1
  -2  -1  10 34.9551 4.08118   3
  -2  -1  10 39.2859 3.87426   3
  -2  -1  10 37.5604 4.53014   3
  -2  -1  10 22.0538 2.42700   2
  -2  -1  10 22.6306 2.87285   2
  -2  -1  10 21.6557 2.62779   2
   1   1 -10 106.919 10.0624   3
   1   1 -10 111.110 11.4373   3
   1   1 -10 181.841 18.9126   1
   1   1 -10 185.447 16.6329   1
   1   1 -10 61.7005 5.98431   2
   1   1 -10 66.1899 6.78866   2
  -1  -1  10 161.537 19.6996   1
  -1  -1  10 102.590 11.9325   3
  -1  -1  10 103.053 10.9768   3
  -1  -1  10 56.7761 7.04091   2
   0   1 -10 133.189 14.2355   1
   0   1 -10 126.767 12.5037   1
   0   1 -10 76.8409 8.52081   2
   0   1 -10 75.6224 7.49940   2
   0   1 -10 138.837 12.7495   3
   0   1 -10 138.183 14.4772   3
   0  -1  10 126.132 15.1280   3
   0  -1  10 134.766 12.7772   3
   0  -1  10 82.1457 8.89858   2
   0  -1  10 78.3150 7.50935   2
   0  -1  10 130.780 14.8711   1
   0  -1  10 139.641 12.5490   1
  -1   1 -10 10.3396 1.50309   2
  -1   1 -10 12.7522 1.82949   2
  -1   1 -10 21.7939 2.25737   3
  -1   1 -10 18.7331 2.56237   3
  -1   1 -10 23.8470 2.48555   1
  -1   1 -10 19.7105 2.85846   1
   1  -1  10 23.6303 3.13395   1
   1  -1  10 30.9309 2.63449   1
   1  -1  10 13.5393 1.89598   2
   1  -1  10 12.3191 1.58854   2
   1  -1  10 21.3949 2.88742   3
   1  -1  10 25.5453 2.47127   3
  -2   1 -10 1.51241 0.83106   1
  -2   1 -10 0.72558 1.25517   1
  -2   1 -10 0.87448 1.26217   3
  -2   1 -10 0.63732 0.83539   3
  -2   1 -10 -1.3420 0.70044   2
  -2   1 -10 -0.1017 1.31982   2
   2  -1  10 0.94342 1.30351   3
   2  -1  10 -0.1248 1.29075   3
   2  -1  10 -0.3812 1.59955   3
   2  -1  10 0.59853 1.36399   2
   2  -1  10 -0.4026 1.38214   2
   2  -1  10 -0.7940 1.03776   2
   2  -1  10 -0.8884 1.54640   1
   2  -1  10 0.22937 1.25865   1
   2  -1  10 0.35449 1.18096   1
  -3   1 -10 4.24813 0.99777   1
  -3   1 -10 4.46720 1.74846   1
  -3   1 -10 4.05596 1.69259   3
  -3   1 -10 1.93836 0.91733   3
  -3   1 -10 2.42283 0.88709   2
   3  -1  10 4.08854 1.84565   1
   3  -1  10 3.09408 2.11246   1
   3  -1  10 3.78070 1.39575   1
   3  -1  10 1.89800 1.51830   2
   3  -1  10 1.72709 1.37027   2
   3  -1  10 1.16763 1.72209   2
   3  -1  10 4.50594 1.78924   3
   3  -1  10 4.05264 2.07012   3
   3  -1  10 6.52826 1.59501   3
   5   0 -10 6.14361 2.27130   1
   5   0 -10 1.61976 2.08613   3
   5   0 -10 3.04665 2.23048   2
  -5   0  10 0.16590 1.51350   2
  -5   0  10 2.20195 1.29959   2
  -5   0  10 4.15877 1.80332   1
  -5   0  10 2.28397 1.29227   1
  -5   0  10 3.16731 2.09224   3
  -5   0  10 4.19422 1.36787   3
   4   0 -10 0.46672 1.71348   2
   4   0 -10 0.74195 1.54267   3
   4   0 -10 0.76479 1.42008   1
  -4   0  10 -0.0694 1.03445   3
  -4   0  10 0.28558 1.21572   3
  -4   0  10 1.65968 0.98122   2
  -4   0  10 -0.3053 1.11549   2
  -4   0  10 1.28088 1.17371   1
  -4   0  10 0.91142 0.96569   1
   3   0 -10 -1.6592 1.20300   2
   3   0 -10 1.14351 1.17683   3
   3   0 -10 8.81909 1.57945   1
  -3   0  10 -0.4564 0.86228   3
  -3   0  10 1.77647 1.19039   3
  -3   0  10 -0.5412 0.78882   2
  -3   0  10 -0.7777 1.01195   2
  -3   0  10 9.35203 1.23352   1
  -3   0  10 7.40156 1.45777   1
   2   0 -10 -0.0127 1.10376   2
   2   0 -10 0.76459 0.96951   2
   2   0 -10 1.01193 1.05058   3
  -2   0  10 0.24327 1.04149   2
  -2   0  10 -0.7872 0.86110   2
  -2   0  10 15.8904 1.79471   1
  -2   0  10 0.40773 1.16617   3
  -2   0  10 -0.0044 1.11376   3
  -2   0  10 -0.1792 0.80476   3
   1   0 -10 7.43675 1.50312   2
   1   0 -10 7.98504 1.29422   2
   1   0 -10 15.8948 1.97310   3
   1   0 -10 14.8357 1.72659   3
  -1   0  10 8.30860 1.53383   2
  -1   0  10 15.2340 2.04696   3
  -1   0  10 15.6235 1.80164   3
  -1   0  10 12.7780 2.13859   3
   0   0 -10 34.3644 3.58898   2
   0   0 -10 37.3462 3.96781   2
   0   0 -10 55.4356 5.43247   1
   0   0 -10 57.1552 6.17882   1
   0   0 -10 54.4457 5.18397   3
   0   0 -10 48.3452 5.81549   3
   0   0  10 58.3068 6.23966   3
   0   0  10 31.7892 4.22429   2
   0   0  10 30.2481 3.84923   2
   0   0  10 54.8823 6.55206   1
  -1   0 -10 12.5770 1.70667   2
  -1   0 -10 13.1442 2.01660   2
  -1   0 -10 23.8369 3.05643   1
  -1   0 -10 25.6067 2.73152   1
  -1   0 -10 24.8341 2.65252   3
   1   0  10 16.3783 2.19992   2
   1   0  10 14.7480 1.74762   2
   1   0  10 27.1244 3.39138   3
   1   0  10 23.3108 2.70092   1
   1   0  10 30.0260 3.33580   1
  -2   0 -10 -0.1671 0.88918   1
  -2   0 -10 0.27258 0.89738   2
  -2   0 -10 0.73143 1.99646   2
  -2   0 -10 0.53452 0.91522   3
   2   0  10 1.08473 1.57398   3
   2   0  10 0.80937 1.33511   2
   2   0  10 1.06814 1.14781   2
   2   0  10 -0.1747 1.52172   2
   2   0  10 -0.9555 1.54824   1
   2   0  10 0.40079 1.30644   1
   2   0  10 1.04202 1.11719   1
  -3   0 -10 4.49740 0.94150   1
  -3   0 -10 6.69403 1.26023   3
  -3   0 -10 1.67259 1.22305   2
   3   0  10 3.09819 1.95482   2
   3   0  10 4.86535 2.16462   3
   3   0  10 3.14743 2.10814   1
  -5   1  10 0.39008 1.12992   3
  -5   1  10 0.29909 1.75891   3
  -5   1  10 0.80149 1.10448   1
  -5   1  10 -0.2307 1.95958   1
  -5   1  10 0.68452 2.02197   2
  -5   1  10 0.55234 1.23629   2
  -4   1  10 25.4613 3.13387   3
  -4   1  10 24.8111 2.70641   3
  -4   1  10 14.6239 2.28343   2
  -4   1  10 14.9161 1.83713   2
  -4   1  10 20.0503 2.37522   1
  -4   1  10 26.6208 2.88789   1
  -3   1  10 55.6519 5.97480   1
  -3   1  10 28.5859 3.29521   2
  -3   1  10 42.1663 4.62522   3
  -2   1  10 80.6650 9.07134   1
  -2   1  10 89.2799 8.31847   1
  -2   1  10 92.9879 9.92213   1
  -2   1  10 38.0958 3.95434   2
  -2   1  10 35.0775 3.62723   2
  -2   1  10 35.2257 4.40797   2
  -2   1  10 58.7828 6.50169   3
  -2   1  10 62.1866 7.11561   3
  -2   1  10 64.9672 6.01291   3
   1  -1 -10 26.9813 3.16810   3
   1  -1 -10 52.2660 4.90614   1
   1  -1 -10 14.9382 2.09605   2
  -1   1  10 39.4874 5.75820   1
  -1   1  10 56.1753 4.88320   1
  -1   1  10 19.4507 2.47597   2
  -1   1  10 19.7270 2.04466   2
  -1   1  10 33.4478 3.82031   3
  -1   1  10 32.5015 3.18302   3
   0  -1 -10 75.5991 7.43586   1
   0  -1 -10 65.7679 6.39337   3
   0  -1 -10 45.1963 4.60908   2
   0   1  10 46.0756 5.37297   2
   0   1  10 66.1551 7.57961   3
   0   1  10 79.5643 8.86147   1
  -1  -1 -10 7.56396 1.41699   2
  -1  -1 -10 17.0966 1.94248   3
  -1  -1 -10 23.5364 2.36345   1
   1   1  10 11.4110 1.73815   2
   1   1  10 16.7719 2.55025   3
   1   1  10 19.1821 3.00074   1
  -2  -1 -10 4.39121 1.13773   3
  -2  -1 -10 1.88749 1.07400   2
  -2  -1 -10 3.90248 1.09957   1
   2   1  10 3.25301 1.69830   3
   2   1  10 3.31740 1.71597   1
   2   1  10 1.00557 1.38098   2
  -3  -1 -10 0.45678 0.90019   1
  -3  -1 -10 -0.0818 1.36019   2
  -3  -1 -10 0.17482 1.10849   3
   3   1  10 0.24158 2.00255   1
   3   1  10 0.56863 1.86843   2
   3   1  10 0.93536 1.98539   3
  -5   2  10 1.57823 1.80787   2
  -5   2  10 2.11580 1.06833   2
  -5   2  10 3.04199 1.15114   1
  -5   2  10 1.66409 1.68909   1
  -5   2  10 4.63495 1.99862   3
  -5   2  10 2.13536 1.12907   3
   4  -2 -10 0.86740 1.37246   3
  -4   2  10 0.34641 0.94022   3
  -4   2  10 -0.3368 1.41491   3
  -4   2  10 0.93466 1.26278   1
  -4   2  10 1.62451 0.92670   1
  -4   2  10 0.15346 1.17972   2
  -4   2  10 0.54628 0.81522   2
   3  -2 -10 4.44605 1.29271   3
  -3   2  10 4.98207 0.98935   3
  -3   2  10 1.76316 1.32550   3
  -3   2  10 15.2330 2.06055   1
  -3   2  10 15.8742 1.79708   1
  -3   2  10 1.49084 0.98621   2
  -3   2  10 2.18448 0.77918   2
  -2   2  10 7.20474 1.21175   2
  -2   2  10 7.48484 1.49738   2
  -2   2  10 9.56468 1.34689   2
  -2   2  10 15.8326 2.00421   3
  -2   2  10 10.6608 1.54821   3
  -2   2  10 12.4247 1.82576   3
  -2   2  10 45.8071 5.89954   1
  -2   2  10 53.5892 4.94558   1
  -1   2  10 10.8141 1.47812   1
  -1   2  10 12.0838 1.92542   1
  -1   2  10 5.82168 0.98711   2
  -1   2  10 5.52906 1.51629   2
  -1   2  10 14.4401 2.12944   3
  -1   2  10 13.8977 1.73286   3
   0  -2 -10 70.1996 6.63283   2
   0  -2 -10 106.737 10.1158   3
   0  -2 -10 108.565 10.6086   1
   0   2  10 110.109 10.1342   3
   0   2  10 100.944 11.9657   3
   0   2  10 65.9908 7.75860   2
   0   2  10 114.951 12.6208   1
  -1  -2 -10 0.89999 1.00729   3
  -1  -2 -10 0.68585 1.01345   1
  -1  -2 -10 -0.3042 1.14471   2
   1   2  10 0.75918 1.49267   1
   1   2  10 0.80188 1.26008   3
   1   2  10 -0.1225 1.21986   2
  -2  -2 -10 -0.8747 1.10143   3
  -2  -2 -10 0.39845 1.21685   2
  -2  -2 -10 -0.6318 1.13022   1
   2   2  10 -0.2790 1.55049   2
   2   2  10 -0.6219 1.61487   1
   2   2  10 0.28246 1.44025   3
  -3  -2 -10 23.2178 2.65332   3
  -3  -2 -10 9.42054 1.66323   2
  -3  -2 -10 15.7567 1.93556   1
   3   2  10 20.8552 3.60623   3
   3   2  10 16.7406 3.07093   1
   3   2  10 11.8467 2.53329   2
   5  -3 -10 46.8595 4.93468   3
   4  -3 -10 10.9757 1.59918   3
   4  -3 -10 15.5345 2.33948   1
  -4   3  10 4.70009 1.38963   2
  -4   3  10 5.87807 1.00943   2
  -4   3  10 4.49800 1.82551   3
  -4   3  10 7.93521 1.29822   3
  -4   3  10 21.3458 2.67111   1
  -4   3  10 22.9006 2.28078   1
   3  -3 -10 30.3715 3.43024   3
   3  -3 -10 31.7288 3.41854   1
  -3   3  10 34.7992 3.40130   1
  -3   3  10 30.7163 3.76277   1
  -3   3  10 18.1429 1.96632   2
  -3   3  10 16.5278 2.21543   2
  -3   3  10 35.9698 3.30898   3
  -3   3  10 28.4375 3.68620   3
   2  -3 -10 1.12718 1.24827   3
  -2   3  10 2.71049 1.31429   1
  -2   3  10 1.75157 0.86385   1
  -2   3  10 3.79199 1.12399   1
  -2   3  10 0.24563 1.07047   3
  -2   3  10 1.30796 1.21537   3
  -2   3  10 0.91059 0.87934   3
  -2   3  10 0.36082 0.71663   2
  -2   3  10 1.14519 1.15723   2
  -2   3  10 0.03802 0.89764   2
  -1   3  10 1.66355 1.01335   3
  -1   3  10 1.61326 1.15533   3
  -1   3  10 2.69255 1.39490   1
  -1   3  10 1.94331 0.92068   1
  -1   3  10 2.09620 1.09839   2
  -1   3  10 2.46224 0.88246   2
   0   3  10 2.25586 1.02317   2
   0   3  10 2.07630 1.31230   2
   0   3  10 2.37855 1.42451   3
   0   3  10 5.16380 1.31833   3
   0   3  10 4.02259 1.50920   1
   0   3  10 3.29799 1.14110   1
  -1  -3 -10 -0.2527 1.20020   2
  -1  -3 -10 -0.1211 1.16963   3
  -1  -3 -10 -1.3003 1.03977   1
   1   3  10 -0.8862 1.43949   1
   1   3  10 0.51115 1.29670   2
   1   3  10 -0.3233 1.50827   3
  -2  -3 -10 1.94967 1.30783   1
  -2  -3 -10 2.06982 1.24219   3
  -2  -3 -10 0.89107 1.39422   2
   2   3  10 -0.4644 1.65959   3
   2   3  10 1.60669 1.82755   1
   2   3  10 -0.1186 1.71256   2
   4  -4 -10 2.54322 1.33468   1
   4  -4 -10 0.88260 1.61849   2
   4  -4 -10 1.63347 1.40190   3
  -4   4  10 2.25704 1.67083   3
  -4   4  10 1.14741 1.03978   3
  -4   4  10 1.96640 1.47144   1
  -4   4  10 3.76588 1.02611   1
  -4   4  10 1.13278 0.85592   2
  -4   4  10 1.60951 1.26429   2
   3  -4 -10 2.14873 1.31015   1
   3  -4 -10 1.12562 1.24802   2
   3  -4 -10 1.08382 1.46537   3
  -3   4  10 2.15258 1.11132   2
  -3   4  10 1.47705 0.79928   2
  -3   4  10 3.09306 1.01898   3
  -3   4  10 2.86921 1.44902   3
  -3   4  10 2.97237 1.36654   1
  -3   4  10 1.50398 0.92367   1
   2  -4 -10 5.46099 1.54162   3
  -2   4  10 9.61313 1.85451   3
  -2   4  10 13.1644 1.68308   3
  -2   4  10 9.92424 1.38894   3
  -2   4  10 5.57982 1.20451   2
  -2   4  10 4.10924 0.96752   2
  -2   4  10 6.45690 1.52952   2
  -2   4  10 9.61543 1.95572   1
  -2   4  10 11.9734 1.47012   1
  -2   4  10 10.5759 1.82774   1
  -1   4  10 25.9784 2.90775   1
  -1   4  10 28.7767 3.56358   1
  -1   4  10 22.5725 3.37359   3
  -1   4  10 30.0379 2.87365   3
  -1   4  10 10.3260 1.96058   2
  -1   4  10 13.4145 1.61407   2
   0   4  10 17.8905 2.46968   1
   0   4  10 12.9950 1.93787   1
   0   4  10 14.4320 2.45308   3
   0   4  10 18.4651 2.14132   3
   0   4  10 8.27934 1.39249   2
   0   4  10 8.41866 1.75604   2
   1   4  10 10.9033 2.16102   3
   1   4  10 17.5154 2.80337   1
   1   4  10 10.2630 2.00634   2
  -2  -4 -10 -0.2198 1.55346   3
  -2  -4 -10 -0.0846 1.48113   2
  -2  -4 -10 -0.3498 1.42529   1
   2   4  10 1.98809 2.10515   3
   2   4  10 -0.3166 1.94210   2
   2   4  10 1.07782 2.09608   1
   4  -5 -10 22.2053 2.49075   2
   4  -5 -10 40.2671 4.02314   1
   4  -5 -10 39.8436 4.08164   3
  -4   5  10 19.2844 2.20485   2
  -4   5  10 20.2296 2.69746   2
  -4   5  10 46.8741 4.60491   3
  -4   5  10 31.5470 3.86699   3
  -4   5  10 34.9727 3.85628   1
  -4   5  10 38.5182 4.46794   1
   3  -5 -10 0.62043 1.10474   2
   3  -5 -10 0.45089 1.39107   3
   3  -5 -10 5.23650 1.53815   1
  -3   5  10 -1.1620 0.81123   2
  -3   5  10 0.41756 1.17164   2
  -3   5  10 0.02530 0.96628   3
  -3   5  10 -1.2671 1.50906   3
  -3   5  10 8.57720 1.26469   1
  -3   5  10 9.17203 1.76011   1
   2  -5 -10 11.2806 1.65999   3
   2  -5 -10 7.05813 1.61604   1
  -2   5  10 5.94525 2.37119   3
  -2   5  10 7.76421 1.82758   3
  -2   5  10 8.44161 1.32767   3
  -2   5  10 8.13189 1.80374   1
  -2   5  10 6.04649 1.58161   1
  -2   5  10 5.08746 1.13066   1
  -2   5  10 1.22359 0.99943   2
  -2   5  10 4.01064 1.34298   2
  -2   5  10 5.73131 1.50383   2
  -1   5  10 14.2691 2.94467   3
  -1   5  10 28.8040 2.49332   3
  -1   5  10 19.5170 2.28530   1
  -1   5  10 21.2846 2.94635   1
  -1   5  10 9.43199 1.37763   2
  -1   5  10 10.2446 1.90992   2
   0   5  10 -1.0763 1.44912   1
   0   5  10 -1.3255 1.06257   1
   0   5  10 -0.0001 1.43745   2
   0   5  10 0.23954 1.00127   2
   0   5  10 -0.6648 1.11503   3
   0   5  10 -0.9023 1.57721   3
   1   5  10 26.7588 3.95035   3
   1   5  10 31.5984 3.41178   3
   1   5  10 16.8594 2.74720   2
   1   5  10 29.4071 4.01876   1
   2   5  10 2.81582 2.21929   2
   2   5  10 3.84236 2.33259   3
   2   5  10 4.64568 2.44902   1
   4  -6 -10 52.1204 5.03153   3
   4  -6 -10 26.2753 2.92129   2
   4  -6 -10 46.4088 4.92204   1
  -4   6  10 44.5181 4.56808   1
  -4   6  10 46.6964 5.31880   1
  -4   6  10 48.1189 5.47051   3
  -4   6  10 45.1717 4.70250   3
  -4   6  10 22.8079 3.18859   2
  -4   6  10 24.5751 2.57421   2
   3  -6 -10 -0.6265 1.16339   2
   3  -6 -10 1.31732 1.28622   1
   3  -6 -10 -1.4019 1.42015   3
  -3   6  10 0.60150 0.86996   2
  -3   6  10 -0.6290 1.33547   2
  -3   6  10 -0.2788 1.61793   3
  -3   6  10 1.14075 0.95242   3
  -3   6  10 2.42514 1.01954   1
  -3   6  10 1.95469 1.57454   1
   2  -6 -10 16.4775 2.08078   3
   2  -6 -10 11.5929 1.83037   1
  -2   6  10 14.4547 1.72785   3
  -2   6  10 8.03698 2.04638   3
  -2   6  10 5.70332 1.64865   2
  -2   6  10 9.21620 1.25968   2
  -2   6  10 7.54080 1.90356   2
  -2   6  10 11.3040 2.19733   1
  -2   6  10 13.9567 1.69556   1
  -2   6  10 15.1138 2.35810   1
  -1   6  10 4.79824 1.66826   2
  -1   6  10 4.24728 1.05870   2
  -1   6  10 6.70371 1.87780   1
  -1   6  10 8.26482 1.33441   1
  -1   6  10 7.09555 1.99804   3
  -1   6  10 10.3130 1.46893   3
   0   6  10 59.7137 6.23371  -2
   0   6  10 59.7137 6.23371   1
   0   6  10 22.0703 3.16220   2
   0   6  10 27.8589 3.72725   1
   0   6  10 41.3286 5.34347   3
   0   6  10 43.9338 4.42646   3
   1   6  10 1.48628 2.06122   3
   1   6  10 2.69678 1.68989   3
   1   6  10 3.03322 2.06455   1
   1   6  10 1.40492 1.49330   1
   1   6  10 -0.5205 1.97827   2
   1   6  10 1.21068 1.44627   2
   3  -7 -10 -0.6705 1.53703   3
   3  -7 -10 0.20764 1.24964   2
   3  -7 -10 -0.6453 1.44613   1
  -3   7  10 0.02803 0.88651   2
  -3   7  10 0.23292 1.42361   2
  -3   7  10 1.47590 1.98328   3
  -3   7  10 0.09963 1.01369   3
  -3   7  10 0.76158 0.94729   1
  -3   7  10 2.70383 1.84650   1
   2  -7 -10 3.75556 1.36467   1
   2  -7 -10 1.21908 1.50010   3
  -2   7  10 1.50806 0.95193   2
  -2   7  10 1.66252 1.79680   2
  -2   7  10 1.68547 1.57042   2
  -2   7  10 -0.4651 1.09147   3
  -2   7  10 0.48437 1.63133   3
  -2   7  10 2.63961 1.83334   1
  -2   7  10 3.66879 1.08548   1
  -2   7  10 3.95199 1.98487   1
  -1   7  10 1.83069 1.85306   3
  -1   7  10 2.54676 1.19463   3
  -1   7  10 2.47084 2.14877  -2
  -1   7  10 2.47084 2.14877   1
  -1   7  10 3.00103 3.65360  -2
  -1   7  10 3.00103 3.65360   1
   0   7  10 -0.0443 3.62767  -2
   0   7  10 -0.0443 3.62767   1
   0   7  10 -1.0021 2.69394  -2
   0   7  10 -1.0021 2.69394   1
   0   7  10 0.34303 1.90681   3
   0   7  10 0.73562 1.42002   3
   3  -8 -10 11.3753 2.44034   1
   3  -8 -10 20.1528 2.77643   3
   3  -8 -10 10.8671 1.91837   2
  -3   8  10 9.21994 2.20333   2
  -3   8  10 8.50023 1.35727   2
  -3   8  10 21.3421 3.05226   1
  -3   8  10 18.4627 1.98193   1
  -3   8  10 11.3550 2.95570   3
  -3   8  10 21.8537 2.15846   3
   2  -8 -10 4.51145 1.81605   3
  -2   8  10 3.04412 1.79151   2
  -2   8  10 2.43674 1.07691   2
  -2   8  10 4.39848 2.06995   1
  -2   8  10 3.22978 1.14897   1
  -2   8  10 4.98616 2.30588   3
  -2   8  10 6.59811 1.31370   3
  -1   8  10 32.4863 3.92009  -2
  -1   8  10 32.4863 3.92009   1
  -1   8  10 29.5901 5.34838  -2
  -1   8  10 29.5901 5.34838   1
  -1   8  10 16.9095 3.13958   3
  -1   8  10 19.4346 2.30361   3
   0   8  10 34.9661 5.03621   3
   0   8  10 40.1536 4.08632   3
   1  11 -11 12.7587 2.67154   1
   1  11 -11 14.2997 2.62268   3
   1  11 -11 4.73269 1.99782   2
  -1 -11  11 16.0658 3.06666   3
  -1 -11  11 13.5125 2.08987   3
  -1 -11  11 7.36170 1.52299   2
  -1 -11  11 6.58366 2.27541   2
  -1 -11  11 15.2453 2.09148   1
  -1 -11  11 18.4756 3.15134   1
   0  11 -11 -0.2393 1.79411   2
   0  11 -11 2.21344 1.84564   3
   0  11 -11 1.91653 1.92184   1
   0 -11  11 1.06137 2.04838   2
   0 -11  11 0.07779 1.06449   2
   0 -11  11 1.18037 1.29145   1
   0 -11  11 -0.2774 2.13600   1
   0 -11  11 0.50594 1.26327   3
   0 -11  11 1.43002 2.33680   3
  -1  11 -11 -0.7419 2.09186   2
  -1  11 -11 -0.4526 1.63608   3
  -1  11 -11 3.76208 1.76629   1
   1 -11  11 0.33693 1.17667   3
   1 -11  11 1.40354 2.33578   3
   1 -11  11 8.50238 1.37704   1
   1 -11  11 3.47552 2.36245   1
   1 -11  11 -1.2036 2.17893   2
   1 -11  11 -1.1415 1.15955   2
   2  10 -11 4.92206 1.85432   3
   2  10 -11 4.18805 1.17313   3
   2  10 -11 2.01393 2.09693   1
   2  10 -11 3.56578 1.14967   1
   2  10 -11 2.19325 1.02429   2
   2  10 -11 2.89320 1.86490   2
  -2 -10  11 6.33489 1.60228   1
  -2 -10  11 3.46327 1.69376   1
  -2 -10  11 2.60340 2.34831   1
  -2 -10  11 0.84803 1.38950   2
  -2 -10  11 2.45715 2.09048   2
  -2 -10  11 3.56643 1.93860   3
   1  10 -11 5.37500 1.94594   2
   1  10 -11 6.37744 1.73205   3
   1  10 -11 6.23808 1.11222   3
   1  10 -11 4.54914 0.92328   1
   1  10 -11 4.67163 1.70180   1
  -1 -10  11 1.09333 1.91004   2
  -1 -10  11 2.92552 1.22245   2
  -1 -10  11 4.07476 2.12467   1
  -1 -10  11 5.75582 1.36104   1
  -1 -10  11 5.88823 2.26572   3
  -1 -10  11 5.69956 1.49040   3
   0  10 -11 0.97190 1.66468   3
   0  10 -11 6.71294 1.73888   1
   0  10 -11 2.17507 1.83205   2
   0 -10  11 4.19007 1.22041   1
   0 -10  11 7.92682 2.13644   1
   0 -10  11 2.40959 1.08121   3
   0 -10  11 -0.1682 1.91361   3
   0 -10  11 0.79846 1.88648   2
   0 -10  11 0.55730 1.05009   2
  -1  10 -11 -0.7929 1.60522   2
  -1  10 -11 9.65980 1.98426   1
  -1  10 -11 -0.0377 1.51540   3
   1 -10  11 7.70728 1.44350   1
   1 -10  11 9.09780 2.29511   1
   1 -10  11 -0.4588 1.09256   2
   1 -10  11 -0.2971 1.79364   2
   1 -10  11 0.97412 2.04462   3
   1 -10  11 0.15956 1.12417   3
  -2  10 -11 10.2961 1.96232   1
  -2  10 -11 3.71922 1.63271   3
  -2  10 -11 1.52971 1.74446   2
   2 -10  11 3.85258 2.32342   2
   2 -10  11 3.65838 1.24422   2
   2 -10  11 7.05540 1.39563   3
   2 -10  11 8.62042 2.69325   3
   2 -10  11 6.89540 2.60311   1
   2 -10  11 3.65028 1.29069   1
   2   9 -11 0.12515 1.56737   3
   2   9 -11 -0.2366 0.98820   3
   2   9 -11 1.79314 1.82072   1
   2   9 -11 1.35197 1.11082   1
   2   9 -11 -0.6168 0.96368   2
   2   9 -11 -0.3357 1.64376   2
  -2  -9  11 2.72929 1.95727   1
  -2  -9  11 0.90311 1.39622   1
  -2  -9  11 1.33334 1.30535   1
  -2  -9  11 0.48089 1.89687   2
  -2  -9  11 1.30546 1.34202   2
  -2  -9  11 -1.7298 1.63215   3
  -2  -9  11 0.63605 2.13163   3
   1   9 -11 2.14816 0.80900   2
   1   9 -11 2.89117 1.68067   2
   1   9 -11 10.8371 1.29745   1
   1   9 -11 7.48413 1.83179   1
   1   9 -11 2.51201 1.60603   3
   1   9 -11 2.56833 0.86534   3
  -1  -9  11 2.45199 1.25131   3
  -1  -9  11 5.22052 1.85417   3
  -1  -9  11 3.71028 1.74367   2
  -1  -9  11 0.32080 1.13463   2
  -1  -9  11 6.81892 2.08034   1
  -1  -9  11 9.53385 1.55539   1
   0   9 -11 10.4688 1.95845   3
   0   9 -11 10.2052 1.85556   1
   0   9 -11 6.32462 1.78059   2
   0  -9  11 7.55956 1.95729   2
   0  -9  11 6.06588 1.20631   2
   0  -9  11 7.67173 1.41417   3
   0  -9  11 9.33809 2.12515   3
   0  -9  11 12.2400 2.25342   1
   0  -9  11 8.88082 1.45852   1
  -1   9 -11 7.57382 1.69493   3
  -1   9 -11 3.87968 1.76218   2
   1  -9  11 3.33701 2.06748   3
   1  -9  11 7.63759 1.30009   3
   1  -9  11 16.9695 2.01405   1
   1  -9  11 1.26031 1.09804   2
   1  -9  11 1.22858 1.61426   2
  -2   9 -11 11.6551 2.25029   2
  -2   9 -11 15.8077 2.51251   3
   2  -9  11 6.31900 2.24274   2
   2  -9  11 9.06684 1.46580   2
   2  -9  11 16.4203 1.99553   3
   2  -9  11 17.0294 2.99588   3
   2  -9  11 18.6901 2.09743   1
   2  -9  11 16.7346 3.05954   1
   3   8 -11 12.9538 1.81784   2
   3   8 -11 8.04029 2.30300   2
   3   8 -11 27.4032 3.95916   1
   3   8 -11 22.9971 3.13051   1
   3   8 -11 15.0746 3.06657   3
   3   8 -11 24.2025 2.60575   3
  -3  -8  11 37.5961 3.59741   1
  -3  -8  11 13.6187 2.14434   2
  -3  -8  11 25.1801 3.05439   3
   2   8 -11 16.3904 3.00467   3
   2   8 -11 22.9588 2.39881   3
   2   8 -11 18.1813 2.77630   1
   2   8 -11 19.1671 2.25417   1
   2   8 -11 8.22499 1.30831   2
   2   8 -11 9.70728 2.13197   2
  -2  -8  11 7.41814 2.06738   2
  -2  -8  11 10.4501 1.60373   2
  -2  -8  11 18.9510 2.48919   1
  -2  -8  11 27.2490 3.10734   1
  -2  -8  11 24.1135 2.78787   3
  -2  -8  11 21.9280 3.17844   3
   1   8 -11 58.8582 5.46532   1
   1   8 -11 54.3933 6.43201   1
   1   8 -11 52.3649 6.23709   3
   1   8 -11 56.2170 5.36619   3
   1   8 -11 18.7938 3.34854   2
   1   8 -11 30.3999 2.85241   2
  -1  -8  11 27.3084 2.97308   2
  -1  -8  11 34.7186 3.69752   2
  -1  -8  11 53.7512 6.74006   1
  -1  -8  11 55.7308 5.57709   1
  -1  -8  11 61.8949 5.57608   3
  -1  -8  11 49.7085 6.67910   3
   0   8 -11 9.50786 1.03745   1
   0   8 -11 5.51385 1.77233   1
   0   8 -11 -1.1539 1.39502   2
   0   8 -11 -0.0872 1.21548   3
   0   8 -11 -0.1461 0.64786   3
   0  -8  11 0.00453 0.93628   2
   0  -8  11 0.07228 1.44956   2
   0  -8  11 8.50584 1.35404   1
   0  -8  11 9.22587 1.94716   1
   0  -8  11 0.68713 0.96271   3
   0  -8  11 -0.1769 1.52261   3
  -1   8 -11 2.13535 1.70269   2
  -1   8 -11 7.24041 1.69834   3
   1  -8  11 3.04254 1.53233   2
   1  -8  11 2.50106 1.06925   2
   1  -8  11 16.9336 2.45594   1
   1  -8  11 10.1122 1.59532   1
   1  -8  11 7.78534 1.33443   3
   1  -8  11 2.50886 1.89239   3
  -2   8 -11 8.86913 1.82679   1
  -2   8 -11 0.24055 1.48001   2
  -2   8 -11 7.46664 1.60488   3
   2  -8  11 5.82717 2.12101   1
   2  -8  11 7.43979 1.34045   1
   2  -8  11 2.01072 1.07439   2
   2  -8  11 1.91544 1.87545   2
   2  -8  11 2.96748 2.22206   3
   2  -8  11 8.58154 1.40284   3
   3   7 -11 11.0490 2.27550   2
   3   7 -11 7.36993 1.55994   2
   3   7 -11 20.6818 2.58451   1
   3   7 -11 22.3790 3.16638   1
   3   7 -11 18.2516 2.81418   3
   3   7 -11 19.9295 2.30328   3
  -3  -7  11 23.9933 2.90940   1
  -3  -7  11 10.0060 1.84576   2
  -3  -7  11 14.7824 2.56920   3
   2   7 -11 19.4229 2.32274   3
   2   7 -11 20.7692 2.93857   3
   2   7 -11 17.8436 2.08641   1
   2   7 -11 15.6429 2.61775   1
   2   7 -11 9.36831 1.34144   2
   2   7 -11 11.5924 2.02684   2
  -2  -7  11 7.25057 1.38049   2
  -2  -7  11 8.20481 1.82071   2
  -2  -7  11 23.3535 2.71406   3
  -2  -7  11 22.3495 3.02449   3
  -2  -7  11 17.9550 2.27055   1
  -2  -7  11 21.4487 2.75562   1
   1   7 -11 19.8471 2.22437   3
   1   7 -11 21.4371 2.77297   3
   1   7 -11 9.13071 1.31820   2
   1   7 -11 10.0318 1.76381   2
   1   7 -11 26.9787 2.74381   1
   1   7 -11 25.4116 3.22802   1
  -1  -7  11 24.5589 2.46040   3
  -1  -7  11 20.4841 2.99890   3
  -1  -7  11 11.3713 1.85108   2
  -1  -7  11 10.3573 1.45385   2
  -1  -7  11 26.3397 3.42216   1
  -1  -7  11 24.5759 2.77841   1
   0   7 -11 161.590 15.4529   2
   0   7 -11 175.578 17.7523   2
   0   7 -11 288.907 26.9911   3
   0   7 -11 297.460 30.8010   3
   0   7 -11 290.728 30.5249   1
   0   7 -11 275.348 26.7333   1
   0  -7  11 286.055 26.8496   1
   0  -7  11 295.496 31.8081   1
   0  -7  11 287.972 32.0968   3
   0  -7  11 278.058 27.0899   3
   0  -7  11 160.882 15.5564   2
   0  -7  11 164.668 18.4701   2
  -1   7 -11 -1.6803 1.54757   2
  -1   7 -11 0.60088 1.39071   3
  -1   7 -11 0.96467 1.42606   1
   1  -7  11 2.43366 1.03566   1
   1  -7  11 4.37353 1.69613   1
   1  -7  11 1.45704 1.11169   3
   1  -7  11 0.31572 1.64123   3
   1  -7  11 1.23144 1.36018   2
   1  -7  11 0.31421 0.87892   2
  -2   7 -11 7.89070 1.86577   2
  -2   7 -11 15.0100 2.28546   3
   2  -7  11 8.48483 1.95553   2
   2  -7  11 7.64988 1.42680   2
   2  -7  11 18.3644 2.00598   3
   2  -7  11 14.4188 2.76731   3
  -3   7 -11 47.4096 6.18409   3
  -3   7 -11 50.4948 6.06138   1
  -3   7 -11 30.6220 3.84457   2
   3  -7  11 26.3323 2.96559   2
   3  -7  11 26.5401 3.70816   2
   3  -7  11 25.3682 3.89059   2
   3  -7  11 51.3424 5.22232   1
   3  -7  11 47.3760 6.11124   1
   3  -7  11 56.4516 6.47318   1
   3  -7  11 55.6142 5.44771   3
   3  -7  11 58.9323 6.70033   3
   4   6 -11 7.55777 2.53292   1
   4   6 -11 10.7485 2.68323   1
   4   6 -11 2.42552 1.77965   2
   4   6 -11 1.70039 2.34457   2
   4   6 -11 6.73206 2.64611   3
  -4  -6  11 5.98106 1.88823   2
  -4  -6  11 6.36399 2.07175   3
  -4  -6  11 6.00578 1.80281   1
   3   6 -11 9.25272 2.06621   2
   3   6 -11 10.5688 1.62663   2
   3   6 -11 13.3117 2.00375   3
   3   6 -11 17.0920 2.54386   3
   3   6 -11 15.9852 2.11404   1
   3   6 -11 17.0151 2.58070   1
  -3  -6  11 9.07113 1.63212   2
  -3  -6  11 16.4264 2.32259   1
  -3  -6  11 17.8076 2.26939   3
   2   6 -11 -0.6349 0.88147   2
   2   6 -11 -0.4816 1.44137   2
   2   6 -11 3.66761 1.02622   1
   2   6 -11 2.65511 1.31966   1
   2   6 -11 0.28650 1.24592   3
   2   6 -11 -0.7107 0.86912   3
  -2  -6  11 4.39712 1.20156   1
  -2  -6  11 4.80120 1.78576   1
  -2  -6  11 1.36578 1.67849   3
  -2  -6  11 1.08098 1.20253   3
  -2  -6  11 -0.3779 1.47486   2
  -2  -6  11 -0.9867 1.02696   2
   1   6 -11 27.2001 3.45355   1
   1   6 -11 27.8414 2.94519   1
   1   6 -11 14.7872 2.30973   3
   1   6 -11 15.7666 1.88525   3
   1   6 -11 10.2149 1.24604   2
   1   6 -11 6.76219 1.57482   2
  -1  -6  11 20.8720 2.68422   3
  -1  -6  11 20.4359 2.05292   3
  -1  -6  11 8.41196 1.32684   2
  -1  -6  11 7.28749 1.73168   2
  -1  -6  11 29.0493 3.70063   1
  -1  -6  11 29.6596 3.11233   1
   0   6 -11 17.2519 2.59261   3
   0   6 -11 20.9719 2.13389   3
   0   6 -11 10.5250 1.90179   2
   0   6 -11 10.6318 1.18774   2
   0   6 -11 18.2147 1.88390   1
   0   6 -11 22.9032 2.45538   1
   0  -6  11 8.53016 1.86509   2
   0  -6  11 7.25109 1.36099   2
   0  -6  11 16.6883 2.06292   1
   0  -6  11 13.5243 2.58840   1
   0  -6  11 22.7368 2.31291   3
   0  -6  11 19.9593 2.90583   3
  -1   6 -11 20.3997 1.98968   3
  -1   6 -11 20.1196 2.65470   3
  -1   6 -11 16.5743 2.37463   1
  -1   6 -11 19.6149 1.71747   1
  -1   6 -11 6.74885 1.54656   2
   1  -6  11 20.0694 2.17504   3
   1  -6  11 14.2172 2.77332   3
   1  -6  11 8.50365 1.24609   2
   1  -6  11 7.13351 1.67561   2
   1  -6  11 14.6617 2.56653   1
   1  -6  11 11.6859 1.85316   1
  -2   6 -11 14.6776 1.97983   1
  -2   6 -11 6.11389 1.80600   2
  -2   6 -11 12.0786 2.06784   3
   2  -6  11 6.12810 2.14945   1
   2  -6  11 12.3616 1.68594   1
   2  -6  11 16.6217 2.46662   3
   2  -6  11 12.0074 1.71787   3
   2  -6  11 5.93762 1.24144   2
   2  -6  11 4.54160 1.66422   2
  -3   6 -11 7.65770 1.83486   3
  -3   6 -11 5.86888 1.69107   1
  -3   6 -11 4.41360 1.94993   2
   3  -6  11 2.78256 1.36577   2
   3  -6  11 3.54244 1.94032   2
   3  -6  11 0.88862 2.07658   2
   3  -6  11 4.15444 2.32591   1
   3  -6  11 4.69784 1.77419   1
   3  -6  11 3.24606 1.32253   1
   3  -6  11 2.93090 1.61589   3
   3  -6  11 5.37611 2.37822   3
   3  -6  11 4.56900 2.04773   3
   4   5 -11 0.89214 1.66457   2
   4   5 -11 0.35239 2.39483   2
   4   5 -11 0.21451 1.79864   3
   4   5 -11 2.17271 2.14680   1
  -4  -5  11 1.53593 1.63184   3
  -4  -5  11 -0.5922 1.47396   2
  -4  -5  11 4.46330 1.80344   1
   3   5 -11 9.70585 1.93407   3
   3   5 -11 8.91557 1.63407   3
   3   5 -11 3.42751 1.87931   2
   3   5 -11 6.97440 1.37099   2
   3   5 -11 43.6599 4.56579   1
  -3  -5  11 4.76218 1.28536   2
  -3  -5  11 10.4486 1.82928   3
   2   5 -11 18.3626 2.14342   1
   2   5 -11 9.73307 1.57810   1
   2   5 -11 11.7056 1.60326   3
   2   5 -11 14.1395 2.03670   3
   2   5 -11 6.41366 1.24402   2
   2   5 -11 6.62862 1.73169   2
  -2  -5  11 14.3640 2.17899   3
  -2  -5  11 12.9593 1.87171   3
  -2  -5  11 9.60105 1.76416   2
  -2  -5  11 10.8926 2.08250   1
  -2  -5  11 13.3339 1.78661   1
   1   5 -11 2.44255 0.87884   2
   1   5 -11 1.22825 1.26741   2
   1   5 -11 9.88590 1.87289   1
   1   5 -11 12.0122 1.44052   1
   1   5 -11 2.42994 0.81214   3
   1   5 -11 4.68062 1.29419   3
  -1  -5  11 2.03759 1.29594   3
  -1  -5  11 1.77345 1.01710   3
  -1  -5  11 11.1407 1.98868   1
  -1  -5  11 12.1535 1.57756   1
  -1  -5  11 1.53561 0.90995   2
  -1  -5  11 1.00470 1.13658   2
   0   5 -11 19.9176 2.44047   3
   0   5 -11 20.0843 2.02424   3
   0   5 -11 14.0953 2.26995   1
   0   5 -11 17.3146 1.77117   1
   0   5 -11 8.21477 1.74361   2
   0   5 -11 8.57739 1.13050   2
   0  -5  11 13.5701 2.43674   1
   0  -5  11 18.8325 1.95772   1
   0  -5  11 8.95231 1.32025   2
   0  -5  11 8.11144 1.67366   2
   0  -5  11 11.5993 2.60048   3
   0  -5  11 21.2270 2.17032   3
  -1   5 -11 8.01089 1.11308   3
  -1   5 -11 12.9219 1.80350   3
  -1   5 -11 2.62556 0.79704   2
  -1   5 -11 3.18490 1.31782   2
   1  -5  11 6.83325 1.68897   3
   1  -5  11 7.92912 1.35133   3
   1  -5  11 4.91247 1.05272   2
   1  -5  11 5.52068 1.33307   2
  -2   5 -11 30.3341 3.45831   3
  -2   5 -11 24.1765 2.73104   3
  -2   5 -11 15.3936 2.43881   2
  -2   5 -11 25.6164 3.56671   1
   2  -5  11 31.5174 3.01637   3
   2  -5  11 28.5026 3.70804   3
   2  -5  11 30.6617 3.02816   1
   2  -5  11 29.6109 3.89250   1
   2  -5  11 12.3203 2.40003   2
   2  -5  11 16.5323 1.92240   2
  -3   5 -11 -0.8579 1.55254   1
  -3   5 -11 -2.2372 1.71283   2
  -3   5 -11 -0.0252 1.56448   3
   3  -5  11 -0.4690 1.61445   1
   3  -5  11 1.20575 1.42132   1
   3  -5  11 0.11645 2.24970   1
   3  -5  11 -0.1853 1.36570   3
   3  -5  11 1.68384 2.18244   3
   3  -5  11 -0.7845 1.85755   3
   3  -5  11 1.37983 1.78252   2
   3  -5  11 -1.3999 1.91297   2
   3  -5  11 -0.1943 1.28276   2
   4   4 -11 34.1180 4.19855   3
   4   4 -11 16.9353 3.27464   2
   4   4 -11 40.5504 5.00066   1
  -4  -4  11 32.1421 4.01939   3
  -4  -4  11 39.4567 4.72197   1
  -4  -4  11 23.0269 2.77762   2
   3   4 -11 108.972 10.9890   2
   3   4 -11 112.752 12.5751   2
   3   4 -11 210.920 19.6742   3
   3   4 -11 208.626 22.3866   3
   3   4 -11 199.184 21.4788   1
   3   4 -11 189.031 18.8456   1
  -3  -4  11 209.848 20.5594   1
  -3  -4  11 204.821 21.4579   3
  -3  -4  11 121.677 11.9595   2
   2   4 -11 21.8269 2.27052   2
   2   4 -11 18.5501 2.74001   2
   2   4 -11 36.5312 4.10353   1
   2   4 -11 34.7499 4.67567   1
   2   4 -11 33.7136 4.19084   3
   2   4 -11 38.0286 3.73648   3
  -2  -4  11 41.0477 4.94164   1
  -2  -4  11 46.3793 4.40396   1
  -2  -4  11 36.4654 4.05051   3
  -2  -4  11 35.7080 4.57324   3
  -2  -4  11 19.7649 2.78797   2
   1   4 -11 0.84757 1.16935   1
   1   4 -11 -0.2997 0.77511   1
   1   4 -11 0.41253 0.75078   3
   1   4 -11 -0.6471 1.15031   3
   1   4 -11 -0.2333 1.20377   2
   1   4 -11 0.12203 0.85394   2
  -1  -4  11 0.35515 0.97570   3
  -1  -4  11 1.37389 1.35139   3
  -1  -4  11 0.19998 1.13137   2
  -1  -4  11 0.40643 0.96333   2
  -1  -4  11 1.41814 1.31963   1
  -1  -4  11 0.84586 0.99163   1
   0   4 -11 8.63529 1.12320   3
   0   4 -11 3.48260 1.39484   3
   0   4 -11 7.72443 1.10162   1
   0   4 -11 11.0051 1.64224   1
   0   4 -11 2.92644 0.84456   2
   0   4 -11 7.76286 1.50732   2
   0  -4  11 2.39185 1.20484   2
   0  -4  11 4.12564 0.98122   2
   0  -4  11 8.77630 1.72100   1
   0  -4  11 6.83562 1.28088   1
   0  -4  11 7.85615 1.27249   3
   0  -4  11 5.61822 1.55935   3
  -1   4 -11 6.37532 0.99734   1
  -1   4 -11 6.11716 1.35317   1
  -1   4 -11 3.80695 0.90536   2
  -1   4 -11 4.78636 1.35925   2
  -1   4 -11 9.64266 1.11400   3
  -1   4 -11 8.67216 1.66297   3
   1  -4  11 7.24136 1.19753   1
   1  -4  11 12.4623 1.84835   1
   1  -4  11 6.38130 1.75677   3
   1  -4  11 5.61540 1.32701   3
   1  -4  11 5.15600 1.52717   2
   1  -4  11 1.57799 1.10710   2
  -2   4 -11 5.99905 1.56754   1
  -2   4 -11 5.95923 0.88530   1
  -2   4 -11 4.75484 1.51047   2
  -2   4 -11 2.47604 0.70693   2
  -2   4 -11 6.92660 0.99368   3
  -2   4 -11 8.21546 1.53024   3
   2  -4  11 6.77940 1.27716   1
   2  -4  11 4.09920 1.74903   1
   2  -4  11 2.73756 1.55047   2
   2  -4  11 4.87355 1.23788   2
   2  -4  11 7.07928 1.38801   3
   2  -4  11 3.29711 1.85154   3
  -3   4 -11 -0.9628 1.73302   1
  -3   4 -11 -0.1951 2.06021   2
  -3   4 -11 -0.5686 1.56497   3
   3  -4  11 1.89343 1.91536   1
   3  -4  11 -1.0043 1.25429   1
   3  -4  11 0.63134 2.11732   1
   3  -4  11 1.59813 2.19801   3
   3  -4  11 0.11401 1.64621   3
   3  -4  11 -1.4705 1.55566   3
   3  -4  11 0.48371 2.15612   2
   3  -4  11 -1.6632 1.97352   2
   3  -4  11 1.19522 1.34926   2
   4   3 -11 11.3603 2.35023   1
   4   3 -11 10.7183 2.21782   3
   4   3 -11 6.96113 2.26525   2
  -4  -3  11 8.06238 1.78151   3
  -4  -3  11 8.09347 1.68293   3
  -4  -3  11 3.95027 1.49973   2
  -4  -3  11 8.21132 1.79315   1
   3   3 -11 23.5152 2.86968   2
   3   3 -11 26.1480 3.35472   2
   3   3 -11 42.2435 4.44979   1
   3   3 -11 45.5298 4.96466   3
  -3  -3  11 28.2108 3.10682   2
  -3  -3  11 33.8775 4.15094   1
  -3  -3  11 39.7919 4.78930   3
   2   3 -11 133.414 13.1691   1
   2   3 -11 119.683 11.5556   1
   2   3 -11 114.688 12.4537   3
   2   3 -11 111.698 10.9178   3
   2   3 -11 57.5982 6.75462   2
   2   3 -11 58.5343 5.89792   2
  -2  -3  11 114.527 12.5452   1
  -2  -3  11 121.516 13.7172   1
  -2  -3  11 120.997 11.9235   3
  -2  -3  11 111.552 12.9604   3
  -2  -3  11 63.7721 6.99895   2
   1   3 -11 14.8313 1.66938   3
   1   3 -11 12.0786 1.92547   3
   1   3 -11 42.7939 4.13299   1
   1   3 -11 4.70836 1.42121   2
   1   3 -11 5.14991 1.11551   2
  -1  -3  11 6.22284 1.46469   2
  -1  -3  11 6.03910 1.16212   2
  -1  -3  11 34.1113 4.25501   1
  -1  -3  11 45.3006 5.02159   1
  -1  -3  11 15.1346 2.18427   3
   0   3 -11 8.12914 1.16727   3
   0   3 -11 6.72882 1.40844   3
   0   3 -11 4.98136 1.50486   2
   0   3 -11 4.18476 0.93068   2
   0   3 -11 9.19269 1.67565   1
   0  -3  11 2.26988 1.01793   2
   0  -3  11 4.80701 1.39733   2
   0  -3  11 11.2803 1.42235   1
   0  -3  11 10.5470 1.82736   1
   0  -3  11 5.14020 1.61904   3
   0  -3  11 6.00878 1.21493   3
  -1   3 -11 4.95008 1.40559   1
  -1   3 -11 5.26094 0.94965   1
  -1   3 -11 4.93441 1.24879   3
  -1   3 -11 6.34218 0.99686   3
  -1   3 -11 3.20618 0.91249   2
  -1   3 -11 3.09100 1.26186   2
   1  -3  11 4.60010 1.16780   2
   1  -3  11 0.58034 1.33795   2
   1  -3  11 5.48274 1.67724   3
   1  -3  11 7.90489 1.40162   3
   1  -3  11 8.27297 1.37728   1
   1  -3  11 8.45383 1.70957   1
  -2   3 -11 0.15114 1.48203   2
  -2   3 -11 1.15128 0.80503   2
  -2   3 -11 -0.2557 1.40883   3
  -2   3 -11 1.82693 0.89801   3
  -2   3 -11 2.18620 1.26310   1
  -2   3 -11 0.96680 0.71640   1
   2  -3  11 0.90003 1.68479   1
   2  -3  11 2.52777 1.22932   1
   2  -3  11 2.00422 1.11082   2
   2  -3  11 2.07236 1.49956   2
   2  -3  11 1.33364 1.62242   2
   2  -3  11 1.56668 1.71858   3
   2  -3  11 1.34547 1.35230   3
  -3   3 -11 2.02909 0.67414   1
  -3   3 -11 1.60959 1.84721   1
  -3   3 -11 6.68047 1.92402   3
  -3   3 -11 2.56909 0.93654   3
  -3   3 -11 0.08227 0.72992   2
  -3   3 -11 1.63763 1.96764   2
   3  -3  11 0.73206 2.02987   2
   3  -3  11 2.55363 1.42347   2
   3  -3  11 1.94100 1.98659   2
   3  -3  11 3.08691 2.20068   1
   3  -3  11 3.88563 1.93319   1
   3  -3  11 3.48786 1.36813   1
   3  -3  11 2.64635 1.55244   3
   3  -3  11 5.46292 2.01555   3
   3  -3  11 2.38740 2.34361   3
   4   2 -11 86.9743 9.21385   3
   4   2 -11 54.5397 6.66964   2
   4   2 -11 86.8831 10.3074   1
  -4  -2  11 92.5145 8.95574   1
  -4  -2  11 97.4905 9.82770   1
  -4  -2  11 56.7171 6.20236   2
  -4  -2  11 76.1899 8.79725   3
  -4  -2  11 84.0382 8.05495   3
   3   2 -11 0.76841 1.22676   3
   3   2 -11 8.78906 1.75299   1
   3   2 -11 -0.6861 1.51699   2
  -3  -2  11 -1.0927 1.19625   3
  -3  -2  11 -0.3762 1.08884   3
  -3  -2  11 7.19507 1.44079   1
  -3  -2  11 -0.3112 1.15563   2
   2   2 -11 15.2539 2.03424   2
   2   2 -11 18.5734 2.48665   2
   2   2 -11 28.3998 3.60569   3
   2   2 -11 33.2300 3.29029   3
   2   2 -11 29.6410 3.85250   1
   2   2 -11 30.8227 3.33213   1
  -2  -2  11 27.8624 3.42407   3
  -2  -2  11 32.0402 3.74773   3
  -2  -2  11 19.2498 2.44063   2
  -2  -2  11 33.7099 3.98920   1
  -2  -2  11 34.1561 3.61579   1
   1   2 -11 32.4800 3.75278   1
   1   2 -11 31.4724 3.38832   1
   1   2 -11 33.8805 3.85531   3
   1   2 -11 33.5380 3.40073   3
   1   2 -11 22.1541 2.50430   2
   1   2 -11 19.4793 2.13627   2
  -1  -2  11 14.5964 2.43833   2
  -1  -2  11 32.8313 4.10329   1
  -1  -2  11 30.4224 4.12705   3
   0   2 -11 16.7778 1.75286   2
   0   2 -11 15.3691 2.15830   2
   0   2 -11 21.9756 2.70296   3
   0   2 -11 24.0813 3.12999   3
   0  -2  11 36.2694 2.87046   3
   0  -2  11 26.1364 3.31452   3
   0  -2  11 38.0218 3.91640   1
   0  -2  11 11.1729 2.11812   2
   0  -2  11 15.1900 1.75125   2
  -1   2 -11 71.0909 7.39323   1
  -1   2 -11 81.4904 8.45790   1
  -1   2 -11 44.5802 4.74690   2
  -1   2 -11 53.4399 5.48836   2
  -1   2 -11 78.6061 7.51287   3
  -1   2 -11 85.1010 8.59012   3
   1  -2  11 51.9474 4.86144   2
   1  -2  11 43.8216 5.65840   2
   1  -2  11 78.5505 7.48677   1
   1  -2  11 81.7383 8.94726   1
   1  -2  11 74.1547 9.07893   3
   1  -2  11 73.5722 7.64107   3
  -2   2 -11 -0.2075 1.48735   2
  -2   2 -11 -0.3428 0.79244   2
  -2   2 -11 -0.0504 0.82319   1
  -2   2 -11 -0.4652 1.32119   1
  -2   2 -11 0.09220 1.44213   3
  -2   2 -11 0.46251 0.88898   3
   2  -2  11 -0.2015 1.36779   1
   2  -2  11 0.28748 1.18966   1
   2  -2  11 -0.1714 1.71430   1
   2  -2  11 -0.9886 1.34727   3
   2  -2  11 1.55637 1.79931   3
   2  -2  11 0.05651 1.31501   2
   2  -2  11 0.21764 1.64836   2
   2  -2  11 -0.1379 1.56952   2
  -3   2 -11 2.54074 2.07172   2
  -3   2 -11 0.76663 0.95914   2
  -3   2 -11 -0.4780 0.89893   3
  -3   2 -11 -0.2002 1.82559   3
  -3   2 -11 0.75227 0.75075   1
  -3   2 -11 0.19561 1.73740   1
   3  -2  11 -0.1617 1.63060   3
   3  -2  11 2.00639 2.30639   3
   3  -2  11 0.57956 1.91961   3
   3  -2  11 -0.4814 1.62020   1
   3  -2  11 0.92562 1.43974   1
   3  -2  11 -0.9060 2.22252   1
   3  -2  11 1.10204 1.50602   2
   3  -2  11 -1.8035 2.16627   2
   3  -2  11 1.80828 1.98032   2
   4   1 -11 2.66787 2.07555   2
   4   1 -11 6.42672 1.89339   3
   4   1 -11 6.49817 2.05853   1
  -4  -1  11 7.49540 1.39253   1
  -4  -1  11 6.73883 1.56005   1
  -4  -1  11 8.13873 1.33572   2
  -4  -1  11 3.93724 1.41979   2
  -4  -1  11 8.00555 1.67929   3
  -4  -1  11 7.78705 1.49188   3
   3   1 -11 -0.9475 1.29767   3
   3   1 -11 3.21693 1.45308   1
   3   1 -11 -0.2856 1.51343   2
  -3  -1  11 0.54475 1.10569   3
  -3  -1  11 -0.6974 1.05834   3
  -3  -1  11 1.34782 1.18808   1
  -3  -1  11 2.61202 1.02715   1
  -3  -1  11 -0.6441 1.10766   2
  -3  -1  11 -0.6493 1.01869   2
   2   1 -11 8.89098 1.67599   1
   2   1 -11 8.70824 1.47379   1
   2   1 -11 -1.0755 1.07517   3
   2   1 -11 -0.1159 1.26250   2
   2   1 -11 0.90724 1.06568   2
  -2  -1  11 2.09545 1.02219   3
  -2  -1  11 0.25027 1.24926   3
  -2  -1  11 0.49089 1.15488   3
  -2  -1  11 13.4486 1.65184   1
  -2  -1  11 10.7967 1.78659   1
  -2  -1  11 -0.2135 1.17334   2
   1   1 -11 1.79133 1.03156   1
   1   1 -11 1.79206 1.11135   1
   1   1 -11 2.10441 1.10280   3
   1   1 -11 2.61195 0.98058   3
   1   1 -11 2.43344 1.26345   2
   1   1 -11 1.36897 1.02313   2
  -1  -1  11 1.58227 1.27631   3
  -1  -1  11 0.26818 1.08767   2
  -1  -1  11 3.13577 1.32446   1
   0   1 -11 14.7922 1.72068   2
   0   1 -11 13.9086 2.05838   2
   0   1 -11 22.4757 2.95555   1
   0   1 -11 25.5012 2.65872   1
   0   1 -11 26.5627 2.89060   3
   0   1 -11 29.8824 3.34638   3
   0  -1  11 13.5877 2.17463   2
   0  -1  11 13.8260 2.12396   2
   0  -1  11 25.1835 3.19190   1
   0  -1  11 27.0404 3.53929   3
  -1   1 -11 37.0663 4.02348   3
  -1   1 -11 33.5928 3.54553   3
  -1   1 -11 39.5475 4.45335   1
  -1   1 -11 37.0810 3.85817   1
  -1   1 -11 15.9153 2.42899   2
  -1   1 -11 14.1554 1.97850   2
   1  -1  11 39.0284 4.82922   1
   1  -1  11 37.4328 4.04830   1
   1  -1  11 20.6079 2.09680   2
   1  -1  11 19.0313 2.57246   2
   1  -1  11 32.1447 4.34255   3
  -2   1 -11 4.13884 1.62186   1
  -2   1 -11 6.97306 1.13759   1
  -2   1 -11 4.29531 1.57713   2
  -2   1 -11 2.72903 0.94859   2
  -2   1 -11 7.28985 1.21670   3
   2  -1  11 2.48945 1.57271   2
   2  -1  11 1.20838 1.69761   2
   2  -1  11 2.09880 1.27064   2
   2  -1  11 4.82266 2.01137   3
   2  -1  11 10.3728 2.53609   3
   2  -1  11 6.93052 1.94335   1
   2  -1  11 5.70099 1.70702   1
   2  -1  11 4.18154 1.37798   1
  -3   1 -11 0.91374 0.98570   2
  -3   1 -11 0.58776 0.97925   1
  -3   1 -11 -0.2901 0.96384   3
   3  -1  11 -0.4488 2.04485   2
   3  -1  11 0.09060 2.38068   1
   3  -1  11 -0.6669 2.30921   3
  -4   0  11 2.38682 1.10046   2
  -4   0  11 1.10216 1.59125   2
  -4   0  11 4.91642 1.31021   3
  -4   0  11 7.36010 1.68693   3
  -4   0  11 4.58280 1.25340   1
  -4   0  11 8.37476 1.99632   1
  -3   0  11 33.9508 3.39648   2
  -3   0  11 31.2163 3.77272   2
  -3   0  11 52.6707 5.38735   3
  -3   0  11 44.4571 4.93302   3
  -3   0  11 45.4425 5.01872   1
  -3   0  11 57.2138 5.55527   1
  -2   0  11 -0.6565 0.88174   2
  -2   0  11 0.43099 1.34108   2
  -2   0  11 0.24107 0.97980   3
  -2   0  11 0.06038 2.23634   3
  -2   0  11 35.1266 3.67744   1
   1   0 -11 2.14599 1.04247   3
   1   0 -11 0.79533 1.01509   2
   1   0 -11 4.59331 1.24932   1
  -1   0  11 1.96065 1.41203   3
  -1   0  11 8.48740 1.59157   1
  -1   0  11 1.87734 1.26462   2
   0   0 -11 60.7331 6.20461   1
   0   0 -11 34.2246 3.58076   2
   0   0 -11 60.1340 5.85131   3
   0   0  11 68.3618 7.47293   1
   0   0  11 33.1084 4.15925   2
   0   0  11 59.0224 7.04286   3
  -1   0 -11 13.3315 1.82568   2
  -1   0 -11 25.8199 2.63031   3
  -1   0 -11 28.8622 3.08076   1
   1   0  11 15.4877 2.28865   2
   1   0  11 31.9721 3.88893   1
   1   0  11 22.3629 3.27682   3
  -2   0 -11 10.2387 1.64251   1
  -2   0 -11 6.55012 1.24224   2
  -2   0 -11 15.0420 1.85957   3
   2   0  11 16.4371 2.55086   1
   2   0  11 7.75095 2.07049   2
   2   0  11 13.4009 2.62986   3
  -3   0 -11 0.36151 1.19954   1
  -3   0 -11 -0.4112 1.31672   3
  -3   0 -11 -0.6518 1.82358   2
   3   0  11 -1.0793 2.46682   1
   3   0  11 0.42554 1.96690   2
   3   0  11 0.72129 2.40066   3
  -4   1  11 2.87727 1.47442   1
  -4   1  11 0.39846 1.28792   2
  -4   1  11 1.64105 1.66427   3
  -3   1  11 2.97221 0.92782   2
  -3   1  11 2.18924 1.07144   2
  -3   1  11 8.41971 1.31836   3
  -3   1  11 5.12766 1.57090   3
  -3   1  11 7.70179 1.61574   1
  -3   1  11 8.18029 1.29140   1
  -2   1  11 1.77894 0.95642   1
  -2   1  11 2.26134 1.44473   1
  -2   1  11 3.11977 1.15610   1
  -2   1  11 1.14427 0.99630   3
  -2   1  11 2.15834 1.23605   3
  -2   1  11 0.53495 1.38150   2
  -2   1  11 3.39048 0.88792   2
   1  -1 -11 2.57036 1.22360   1
   1  -1 -11 -0.5075 1.00935   2
  -1   1  11 0.28723 1.26773   2
  -1   1  11 1.54345 1.35835   3
  -1   1  11 1.10064 1.21904   3
  -1   1  11 1.03339 1.38272   1
  -1   1  11 2.16574 1.48386   1
   0  -1 -11 71.6818 6.76180   3
   0  -1 -11 45.3249 4.67346   2
   0  -1 -11 80.4703 7.40474   1
   0   1  11 71.8260 8.83223   1
   0   1  11 66.2208 8.02772   3
   0   1  11 45.8047 5.53373   2
  -1  -1 -11 2.80037 1.09286   1
  -1  -1 -11 0.93499 1.12012   2
  -1  -1 -11 3.21746 1.10679   3
   1   1  11 2.10155 1.66728   3
   1   1  11 1.50190 1.56790   2
   1   1  11 4.23902 1.68406   1
  -2  -1 -11 12.6886 1.76678   1
  -2  -1 -11 4.20599 1.26784   2
  -2  -1 -11 9.30942 1.61717   3
   2   1  11 11.7147 2.53279   1
   2   1  11 11.1750 2.31718   3
   2   1  11 3.15822 1.83398   2
  -4   2  11 34.2603 3.76222   3
  -4   2  11 35.9164 4.15154   3
  -4   2  11 33.2460 3.64083   1
  -4   2  11 34.8927 4.08489   1
  -4   2  11 20.4794 2.14125   2
  -4   2  11 9.73229 1.65306   2
  -3   2  11 8.90151 1.25996   3
  -3   2  11 4.24435 1.64884   3
  -3   2  11 2.58267 1.22498   2
  -3   2  11 2.06740 0.85805   2
  -3   2  11 6.95792 1.17883   1
  -3   2  11 6.44436 1.56137   1
  -2   2  11 10.3534 1.39502   1
  -2   2  11 6.20004 1.82964   1
  -2   2  11 6.56843 1.49323   1
  -2   2  11 0.55640 1.11697   3
  -2   2  11 1.32631 1.26224   3
  -2   2  11 1.34436 1.34558   2
  -2   2  11 0.67073 1.01708   2
  -1   2  11 21.6805 2.44086   2
  -1   2  11 23.7230 3.01068   2
  -1   2  11 40.2187 4.75874   1
  -1   2  11 35.6318 3.97128   1
  -1   2  11 39.8299 3.95120   3
  -1   2  11 34.8122 4.54187   3
   0  -2 -11 1.75218 1.18543   2
   0  -2 -11 0.78725 1.04477   1
   0   2  11 -0.0919 1.43830   3
   0   2  11 0.03023 1.24942   2
   0   2  11 0.14770 1.41482   1
  -1  -2 -11 1.28932 1.26947   2
  -1  -2 -11 1.81711 1.21726   3
  -1  -2 -11 1.25128 1.04512   1
   1   2  11 1.57332 1.82382   1
   1   2  11 1.34661 1.47130   2
   1   2  11 5.71507 1.72696   3
  -2  -2 -11 31.8885 3.44953   1
  -2  -2 -11 33.6922 3.29500   3
  -2  -2 -11 11.1425 1.86964   2
   2   2  11 15.1138 2.45508   2
   2   2  11 32.4662 4.31493   1
   2   2  11 25.0620 4.10981   3
  -4   3  11 1.36502 1.19603   3
  -4   3  11 2.46874 1.64199   3
  -4   3  11 1.24806 1.13022   2
  -4   3  11 3.45613 1.42171   2
  -4   3  11 12.3253 1.69364   1
  -4   3  11 8.97795 2.13416   1
  -3   3  11 56.2636 5.32550   1
  -3   3  11 50.8271 5.89812   1
  -3   3  11 40.3483 4.03061   3
  -3   3  11 36.7195 4.51774   3
  -3   3  11 20.4796 2.46218   2
  -3   3  11 27.2139 2.89200   2
  -2   3  11 3.60806 1.54170   3
  -2   3  11 2.19337 1.12800   3
  -2   3  11 3.35919 1.03016   1
  -2   3  11 1.89566 1.53714   1
  -2   3  11 3.46278 1.47509   1
  -2   3  11 1.93913 0.92080   2
  -2   3  11 1.62912 1.35514   2
  -1   3  11 49.9081 5.16776   2
  -1   3  11 54.3312 6.17205   2
  -1   3  11 101.729 9.41218   1
  -1   3  11 93.7758 11.1896   1
  -1   3  11 90.0406 10.5014   3
  -1   3  11 94.1013 8.88895   3
   0   3  11 50.0077 6.20499   3
   0   3  11 53.9467 5.38551   3
   0   3  11 24.6455 3.22950   2
   0   3  11 58.0194 6.91353   1
  -1  -3 -11 7.82513 1.44193   1
  -1  -3 -11 2.29273 1.51438   2
   1   3  11 5.18216 1.68991   2
   1   3  11 7.43288 1.99079   3
   1   3  11 7.77211 2.04146   1
  -2  -3 -11 3.17425 1.54093   1
  -2  -3 -11 -0.9885 1.51269   2
  -2  -3 -11 2.98109 1.61436   3
   2   3  11 1.77064 2.09054   2
   2   3  11 2.83180 2.30001   1
   2   3  11 2.72047 2.27417   3
  -4   4  11 2.65447 1.23861   3
  -4   4  11 0.30234 1.93792   3
  -4   4  11 1.24483 1.11835   1
  -4   4  11 0.31952 1.53004   1
  -4   4  11 0.39043 1.70391   2
  -4   4  11 -0.4769 0.94855   2
  -3   4  11 10.0110 1.41478   1
  -3   4  11 6.97126 1.90128   1
  -3   4  11 -0.0973 1.13861   2
  -3   4  11 -0.1506 0.89272   2
  -3   4  11 1.10626 1.11668   3
  -3   4  11 1.09439 1.51024   3
  -2   4  11 7.04529 1.20851   2
  -2   4  11 7.09238 1.80829   2
  -2   4  11 15.7835 1.95617   3
  -2   4  11 15.6556 2.27691   3
  -2   4  11 11.7840 2.17584   1
  -2   4  11 11.6248 1.59114   1
  -1   4  11 -1.2937 1.44499   1
  -1   4  11 1.99158 1.17758   1
  -1   4  11 -1.4187 0.98858   2
  -1   4  11 -0.4521 1.42661   2
  -1   4  11 -1.5657 1.20561   3
  -1   4  11 -0.9496 1.52090   3
   0   4  11 9.98526 2.15026   2
   0   4  11 12.6368 1.73477   2
   0   4  11 17.5523 3.19980   1
   0   4  11 27.5607 2.73799   1
   0   4  11 23.6075 2.90414   3
   0   4  11 27.3508 3.52135   3
   1   4  11 4.12696 1.96281   3
   1   4  11 2.10031 1.74874   2
   1   4  11 2.55608 1.98038   1
   4  -5 -11 -1.2327 1.97699   3
  -4   5  11 18.5799 2.83556   1
  -4   5  11 14.5718 2.27128   1
  -4   5  11 0.45351 1.50161   2
  -4   5  11 -0.5632 1.34508   2
  -4   5  11 1.82927 1.93537   3
  -4   5  11 -0.7640 1.28301   3
   3  -5 -11 -0.0247 1.84581   3
  -3   5  11 1.90756 1.16311   1
  -3   5  11 2.53709 1.68888   1
  -3   5  11 -0.4169 1.49070   2
  -3   5  11 2.59045 1.04641   2
  -3   5  11 1.45892 1.74492   3
  -3   5  11 1.95652 1.22991   3
  -2   5  11 7.24525 1.91931   1
  -2   5  11 3.83875 1.21208   1
  -2   5  11 2.29102 1.07090   2
  -2   5  11 5.91200 1.73660   2
  -2   5  11 5.16344 1.84544   3
  -2   5  11 7.14911 1.35213   3
  -1   5  11 3.23706 1.31706   3
  -1   5  11 5.10919 1.87204   3
  -1   5  11 3.61680 1.71866   2
  -1   5  11 1.74333 1.11509   2
  -1   5  11 3.64880 1.30629   1
  -1   5  11 2.62123 1.85191   1
   0   5  11 -0.3996 1.80738   3
   0   5  11 0.81930 1.35894   3
   0   5  11 0.94372 1.17941   2
   0   5  11 0.08675 1.72620   2
   0   5  11 0.29848 1.86458   1
   0   5  11 -0.5824 1.25782   1
   1   5  11 38.8448 5.08374   2
   1   5  11 70.5385 8.52309   1
   1   5  11 77.6459 9.30536   3
   3  -6 -11 16.0526 2.48117   3
  -3   6  11 17.7340 2.11857   3
  -3   6  11 17.0306 2.86942   3
  -3   6  11 15.8860 2.00484   1
  -3   6  11 16.2894 2.74685   1
  -3   6  11 7.98174 2.01471   2
  -3   6  11 6.78766 1.29870   2
  -2   6  11 1.43893 1.25102   1
  -2   6  11 0.70123 2.00651   3
  -2   6  11 3.36627 1.32329   3
  -2   6  11 2.76007 1.09862   2
  -2   6  11 1.06461 1.83197   2
  -1   6  11 -0.6011 1.10488   2
  -1   6  11 -0.0204 1.76920   2
  -1   6  11 0.88744 1.87671   1
  -1   6  11 -0.4007 1.22007   1
  -1   6  11 -0.7697 1.89928   3
  -1   6  11 0.36914 1.22072   3
   0   6  11 -0.3280 1.86413   2
   0   6  11 -0.3885 1.27003   2
   0   6  11 -0.4254 1.52673   3
   0   6  11 1.75529 2.05119   3
   0   6  11 0.03727 1.38729   1
   0   6  11 -1.6422 1.88535   1
  -2   7  11 4.26425 2.88897   3
  -2   7  11 5.34025 1.42126   3
  -2   7  11 6.92915 1.41441   1
  -2   7  11 7.01820 2.49164   2
  -2   7  11 4.23826 1.23248   2
  -1   7  11 1.22710 1.30578   1
  -1   7  11 0.59467 1.38328   3
  -1   7  11 -0.8215 2.18982   3
  -1   7  11 4.97834 4.49722  -2
  -1   7  11 4.97834 4.49722   1
  -1   7  11 1.10620 1.20300   2
   1  10 -12 11.3544 1.57041   3
   1  10 -12 14.0871 2.46431   3
   1  10 -12 11.0146 1.33299   1
   1  10 -12 6.90367 2.04629   1
   1  10 -12 3.89457 2.13973   2
  -1 -10  12 5.12322 1.34116   2
  -1 -10  12 5.37839 2.27030   2
  -1 -10  12 11.2315 2.77487   3
  -1 -10  12 14.4283 2.07319   3
  -1 -10  12 11.9463 2.63410   1
  -1 -10  12 9.37932 1.71812   1
   0  10 -12 0.95325 2.08912   2
   0  10 -12 10.8694 2.20692   1
   0  10 -12 1.55456 1.92252   3
   0 -10  12 13.5854 2.62200   1
   0 -10  12 9.80355 1.76429   1
   0 -10  12 -0.8571 1.25451   2
   0 -10  12 -1.3598 1.95883   2
   0 -10  12 -0.1426 2.10913   3
   0 -10  12 0.99351 1.34592   3
  -1  10 -12 4.79083 1.89573   3
  -1  10 -12 0.09595 1.66539   2
  -1  10 -12 7.30741 2.13006   1
   1 -10  12 0.79915 2.19474   2
   1 -10  12 1.95587 1.38256   2
   1 -10  12 6.43307 2.44942   3
   1 -10  12 8.66776 1.66243   3
   1 -10  12 3.05396 1.47245   1
   1 -10  12 5.93471 2.52395   1
   2   9 -12 33.0423 3.84039   1
   2   9 -12 22.9704 2.83890   1
   2   9 -12 9.13672 1.50428   2
   2   9 -12 9.10062 2.23046   2
   2   9 -12 22.3328 2.43739   3
   2   9 -12 19.2254 3.07748   3
  -2  -9  12 10.8401 2.37027   2
  -2  -9  12 11.1803 1.75780   2
  -2  -9  12 30.8538 3.88124   1
   1   9 -12 0.83005 1.51011   3
   1   9 -12 1.24795 1.00019   3
   1   9 -12 2.04063 0.90567   1
   1   9 -12 3.33673 1.81800   1
   1   9 -12 0.64012 0.85284   2
   1   9 -12 2.48797 1.66869   2
  -1  -9  12 0.00413 1.74162   2
  -1  -9  12 -0.3637 1.24447   2
  -1  -9  12 1.21152 1.23463   3
  -1  -9  12 0.60578 1.98933   3
  -1  -9  12 1.20240 1.97142   1
  -1  -9  12 2.34791 1.35859   1
   0   9 -12 6.92811 2.02224   3
   0   9 -12 3.99605 1.99848   2
   0   9 -12 8.04359 2.01267   1
   0  -9  12 7.36261 2.27796   3
   0  -9  12 9.09800 1.52405   3
   0  -9  12 4.17540 1.29835   2
   0  -9  12 4.74927 1.83529   2
   0  -9  12 7.05359 2.13943   1
   0  -9  12 8.50708 1.51430   1
  -1   9 -12 10.0895 2.23232   3
  -1   9 -12 17.2648 2.71924   1
  -1   9 -12 4.95952 1.83818   2
   1  -9  12 17.5302 2.96795   1
   1  -9  12 15.6342 2.14455   1
   1  -9  12 4.73163 2.19540   2
   1  -9  12 8.08675 1.41356   2
   1  -9  12 11.8244 2.76598   3
   1  -9  12 14.4746 1.89975   3
   2   8 -12 30.1695 4.19148   1
   2   8 -12 33.5578 3.53326   1
   2   8 -12 29.1132 4.09114   3
   2   8 -12 36.2715 3.62106   3
   2   8 -12 12.2307 2.49784   2
   2   8 -12 15.6889 1.84578   2
  -2  -8  12 12.3725 2.56299   2
  -2  -8  12 17.0646 2.12594   2
  -2  -8  12 33.6505 4.32972   1
   1   8 -12 2.70949 1.55269   2
   1   8 -12 0.78038 0.93084   2
   1   8 -12 5.80586 1.14189   1
   1   8 -12 6.81500 1.82493   1
   1   8 -12 1.38733 0.95608   3
   1   8 -12 2.16494 1.59651   3
  -1  -8  12 -0.8720 1.52598   2
  -1  -8  12 2.90543 1.23245   2
  -1  -8  12 5.46139 1.43897   1
  -1  -8  12 4.40655 2.15662   1
  -1  -8  12 1.39532 1.77602   3
  -1  -8  12 2.17524 1.24158   3
   0   8 -12 22.0131 2.70247   3
   0   8 -12 16.0418 1.82337   3
   0   8 -12 16.0686 2.25547   1
   0   8 -12 12.0879 1.36241   1
   0   8 -12 9.54213 2.21272   2
   0  -8  12 8.32660 2.41135   1
   0  -8  12 12.2393 1.74009   1
   0  -8  12 13.6397 2.90002   3
   0  -8  12 18.6269 2.20136   3
   0  -8  12 12.0710 2.33545   2
   0  -8  12 8.22260 1.57789   2
  -1   8 -12 4.20886 1.80360   1
  -1   8 -12 2.91840 1.57102   2
  -1   8 -12 3.20945 1.57009   3
   1  -8  12 2.82094 1.43609   3
   1  -8  12 3.38092 1.98609   3
   1  -8  12 5.70754 1.36544   1
   1  -8  12 3.78226 1.84207   1
   1  -8  12 0.87373 1.82158   2
   1  -8  12 1.98499 1.05568   2
  -2   8 -12 1.01939 1.50768   1
  -2   8 -12 -0.1828 1.62864   3
  -2   8 -12 1.05670 2.06355   2
   2  -8  12 -1.4305 1.30569   3
   2  -8  12 0.19222 2.27901   3
   2  -8  12 0.69646 1.20006   1
   2  -8  12 1.09378 2.26305   1
   2  -8  12 -2.6995 2.13264   2
   2  -8  12 1.46971 1.37742   2
   3   7 -12 1.82526 1.41579   3
   3   7 -12 1.13282 2.08777   3
   3   7 -12 0.82180 1.35728   2
   3   7 -12 -1.4800 2.05723   2
   3   7 -12 1.90642 2.15224   1
   3   7 -12 3.39904 1.42987   1
  -3  -7  12 0.16075 1.65340   1
  -3  -7  12 0.58506 1.55691   3
  -3  -7  12 -1.0643 1.61044   2
   2   7 -12 0.89642 1.11278   3
   2   7 -12 0.88711 1.66227   3
   2   7 -12 0.47531 1.80260   2
   2   7 -12 -0.0951 1.03662   2
   2   7 -12 0.97062 1.03925   1
   2   7 -12 1.36049 1.70111   1
  -2  -7  12 2.22626 1.86711   1
  -2  -7  12 1.18960 1.88925   2
   1   7 -12 8.42082 1.31792   3
   1   7 -12 8.11057 1.73971   3
   1   7 -12 7.99611 1.72482   1
   1   7 -12 9.28283 1.33774   1
   1   7 -12 3.70786 1.69046   2
   1   7 -12 2.91845 1.08198   2
  -1  -7  12 4.36647 1.24590   2
  -1  -7  12 4.86198 1.82538   2
  -1  -7  12 7.36137 1.47310   1
  -1  -7  12 10.1756 2.10987   1
  -1  -7  12 12.0919 1.57038   3
  -1  -7  12 7.49044 2.13893   3
   0   7 -12 31.0702 3.43889   1
   0   7 -12 35.4755 4.16952   1
   0   7 -12 17.3928 1.95626   2
   0   7 -12 19.3172 2.69463   2
   0   7 -12 30.2123 3.63189   3
   0   7 -12 33.4950 4.28842   3
   0  -7  12 19.7463 2.23377   2
   0  -7  12 19.6133 2.75880   2
   0  -7  12 41.5993 4.66239   3
   0  -7  12 43.0504 3.78299   3
   0  -7  12 38.3345 3.62677   1
   0  -7  12 37.0799 4.46600   1
  -1   7 -12 1.98020 1.42612   1
  -1   7 -12 -0.2708 1.63186   2
  -1   7 -12 1.57740 1.60076   3
   1  -7  12 0.32547 1.68776   2
   1  -7  12 0.37975 1.11348   2
   1  -7  12 0.31194 1.89311   3
   1  -7  12 0.71610 1.13052   3
   1  -7  12 2.53621 1.66904   1
   1  -7  12 1.34559 1.08892   1
  -2   7 -12 0.48201 2.01004   2
  -2   7 -12 1.56828 1.62373   1
  -2   7 -12 0.42046 1.63205   3
   2  -7  12 0.46221 1.37111   1
   2  -7  12 -0.6594 2.03533   1
   2  -7  12 1.86711 1.31807   2
   2  -7  12 1.48046 2.00967   2
   2  -7  12 3.04662 1.95615   3
   2  -7  12 1.54682 1.24769   3
   3   6 -12 -0.6004 1.69985   2
   3   6 -12 0.84133 1.27264   2
   3   6 -12 -0.6876 1.29871   3
   3   6 -12 0.65495 1.96153   3
   3   6 -12 2.56753 1.35931   1
   3   6 -12 5.38336 2.14772   1
  -3  -6  12 -1.2317 1.59513   3
  -3  -6  12 -1.4155 1.48474   2
  -3  -6  12 1.52795 1.59135   1
   2   6 -12 0.64999 1.01260   2
   2   6 -12 1.23690 1.71328   2
   2   6 -12 3.68142 1.14528   3
   2   6 -12 3.03843 1.65303   3
   2   6 -12 11.6119 1.65104   1
   2   6 -12 11.7701 2.22352   1
  -2  -6  12 0.47620 1.45191   2
  -2  -6  12 14.4617 2.36518   1
   1   6 -12 7.46723 1.15807   2
   1   6 -12 4.80439 1.75092   2
   1   6 -12 15.6555 1.93513   1
   1   6 -12 18.8157 2.47721   1
   1   6 -12 12.0405 1.76762   3
   1   6 -12 17.5011 2.32766   3
  -1  -6  12 19.9585 2.09531   3
  -1  -6  12 14.4366 2.42792   3
  -1  -6  12 7.29981 1.35471   2
  -1  -6  12 7.60252 1.72065   2
  -1  -6  12 13.7373 2.60174   1
  -1  -6  12 18.4399 2.12182   1
   0   6 -12 6.73461 1.04754   2
   0   6 -12 9.09874 1.89241   2
   0   6 -12 14.8901 1.65490   3
   0   6 -12 16.3124 2.22812   3
   0   6 -12 15.5065 1.64146   1
   0   6 -12 17.1546 2.31279   1
   0  -6  12 8.85270 2.29007   3
   0  -6  12 14.3430 1.90995   3
   0  -6  12 5.49668 1.62165   2
   0  -6  12 6.36431 1.27505   2
   0  -6  12 14.0970 1.89468   1
   0  -6  12 10.9526 2.44520   1
  -1   6 -12 13.3920 2.15031   1
  -1   6 -12 8.76841 1.14023   3
  -1   6 -12 8.95983 1.95279   3
  -1   6 -12 4.51585 1.74604   2
   1  -6  12 5.51529 1.90993   3
   1  -6  12 9.80589 1.51916   3
   1  -6  12 11.4602 1.69687   1
   1  -6  12 13.3192 2.36549   1
   1  -6  12 3.60182 1.60324   2
   1  -6  12 4.10224 1.17692   2
  -2   6 -12 0.32123 1.93397   2
  -2   6 -12 0.90738 1.56319   3
  -2   6 -12 1.70984 1.75436   1
   2  -6  12 3.05484 1.32103   1
   2  -6  12 2.05286 2.09491   1
   2  -6  12 0.69921 1.32657   2
   2  -6  12 1.67385 1.92255   2
   2  -6  12 5.25672 2.19371   3
   2  -6  12 1.32984 1.37685   3
   3   5 -12 22.6948 3.18014   2
   3   5 -12 20.9029 2.50551   2
   3   5 -12 34.4066 3.62149   3
   3   5 -12 37.4249 4.32569   3
   3   5 -12 38.9609 3.70793   1
   3   5 -12 37.6411 4.29054   1
  -3  -5  12 31.4888 3.97122   3
  -3  -5  12 26.8519 3.73925   1
  -3  -5  12 20.4565 2.76112   2
   2   5 -12 11.4597 1.65044   3
   2   5 -12 12.5141 2.03742   3
   2   5 -12 18.4103 2.44913   1
   2   5 -12 12.4498 1.85728   1
   2   5 -12 4.57554 1.16993   2
   2   5 -12 5.68698 1.80832   2
  -2  -5  12 16.9235 2.56940   1
  -2  -5  12 5.73411 1.75931   2
   1   5 -12 6.15527 1.13218   2
   1   5 -12 9.61651 1.77436   2
   1   5 -12 14.0790 2.10054   1
   1   5 -12 13.2633 1.66019   1
   1   5 -12 9.22801 1.82589   3
   1   5 -12 12.3232 1.54559   3
  -1  -5  12 14.1538 1.82554   1
  -1  -5  12 9.72263 2.22382   1
  -1  -5  12 14.4522 2.13448   3
  -1  -5  12 6.25703 1.72962   2
  -1  -5  12 5.23270 1.34632   2
   0   5 -12 31.1327 3.15880   3
   0   5 -12 31.0742 3.74587   3
   0   5 -12 10.3009 2.11489   2
   0   5 -12 11.1532 1.51164   2
   0   5 -12 39.7558 3.52623   1
   0   5 -12 32.8415 4.10055   1
   0  -5  12 24.4617 3.87120   3
   0  -5  12 33.8668 3.27290   3
   0  -5  12 13.2140 2.20520   2
   0  -5  12 15.9337 1.66712   2
   0  -5  12 27.9284 4.26930   1
   0  -5  12 37.6994 3.68979   1
  -1   5 -12 0.61724 0.76083   2
  -1   5 -12 1.25711 1.56102   2
  -1   5 -12 0.15301 0.79724   3
  -1   5 -12 0.89358 1.52921   3
  -1   5 -12 1.81662 0.73914   1
  -1   5 -12 1.45688 1.17165   1
   1  -5  12 0.25192 1.63406   3
   1  -5  12 0.86673 1.16351   3
   1  -5  12 0.29932 1.07922   1
   1  -5  12 1.83072 1.73296   1
   1  -5  12 -0.9539 1.00324   2
   1  -5  12 1.28660 1.54656   2
  -2   5 -12 15.5562 2.14304   3
  -2   5 -12 13.4780 1.49863   3
  -2   5 -12 9.19695 1.99038   2
  -2   5 -12 11.6132 2.20353   1
   2  -5  12 12.3938 1.94658   3
   2  -5  12 9.92685 2.59664   3
   2  -5  12 2.91015 1.92245   2
   2  -5  12 9.11701 1.61948   2
   2  -5  12 15.2834 2.68834   1
   2  -5  12 15.6447 1.96020   1
   4   4 -12 48.3157 5.96543   3
   4   4 -12 27.0006 3.86515   2
   4   4 -12 43.7624 5.29216   1
  -4  -4  12 49.8896 5.61949   3
  -4  -4  12 40.3856 4.89552   1
  -4  -4  12 24.0819 3.23909   2
   3   4 -12 3.02853 1.65399   2
   3   4 -12 5.23061 1.33472   2
   3   4 -12 4.16746 1.55551   3
   3   4 -12 8.57023 2.02044   3
   3   4 -12 21.5958 2.57672   1
   3   4 -12 18.5962 3.04157   1
  -3  -4  12 26.7784 2.89555   1
  -3  -4  12 4.00655 1.44819   2
  -3  -4  12 10.7233 1.83438   3
   2   4 -12 1.42270 1.01306   1
   2   4 -12 1.56595 1.26725   1
   2   4 -12 1.50499 1.40366   2
   2   4 -12 -0.1717 1.01505   2
   2   4 -12 1.81589 1.44461   3
   2   4 -12 0.57915 1.09427   3
  -2  -4  12 2.25650 1.56329   1
  -2  -4  12 0.47339 1.48439   2
   1   4 -12 14.9112 1.74074   3
   1   4 -12 12.9562 2.04986   3
   1   4 -12 8.38919 1.28122   2
   1   4 -12 7.72122 1.76690   2
   1   4 -12 16.4728 2.00560   1
   1   4 -12 16.7671 2.43530   1
  -1  -4  12 14.9259 2.34490   3
  -1  -4  12 6.78193 1.67051   2
  -1  -4  12 10.0652 1.42698   2
  -1  -4  12 20.0920 2.66655   1
   0   4 -12 1.13961 1.34771   2
   0   4 -12 -0.5485 0.80927   2
   0   4 -12 2.14586 0.82362   1
   0   4 -12 3.24270 1.23282   1
   0   4 -12 0.35560 0.83716   3
   0   4 -12 0.13568 1.29266   3
   0  -4  12 -0.3460 1.12501   3
   0  -4  12 0.08870 1.48848   3
   0  -4  12 0.95803 1.05051   2
   0  -4  12 -1.2279 1.40079   2
   0  -4  12 4.34845 1.45408   1
   0  -4  12 1.40357 1.06131   1
  -1   4 -12 0.22732 0.83802   3
  -1   4 -12 -0.3186 1.24317   3
  -1   4 -12 0.63048 0.74955   1
  -1   4 -12 -0.3669 1.15755   1
  -1   4 -12 0.16760 0.92103   2
  -1   4 -12 0.69667 1.29145   2
   1  -4  12 -0.6367 1.41704   2
   1  -4  12 0.32438 1.22732   2
   1  -4  12 -1.1571 1.56139   3
   1  -4  12 0.08912 1.11035   3
   1  -4  12 0.42853 1.63883   1
   1  -4  12 1.77850 1.17400   1
  -2   4 -12 0.89627 0.73994   1
  -2   4 -12 0.08842 1.40126   1
  -2   4 -12 -0.1645 0.70124   2
  -2   4 -12 0.93871 1.80850   2
  -2   4 -12 -0.6369 0.78292   3
  -2   4 -12 0.56792 1.63599   3
   2  -4  12 0.78635 1.93456   3
   2  -4  12 0.49893 1.49278   3
   2  -4  12 0.36515 1.93776   1
   2  -4  12 0.58119 1.42807   1
   2  -4  12 -0.6074 1.31372   2
   2  -4  12 -1.2648 1.77385   2
   4   3 -12 94.8583 10.2413   1
   4   3 -12 78.9594 9.71584   3
   4   3 -12 53.9484 6.55875   2
  -4  -3  12 87.1096 9.71269   1
  -4  -3  12 54.3586 6.15846   2
  -4  -3  12 93.5060 9.31717   3
   3   3 -12 1.86358 1.73041   2
   3   3 -12 3.26780 1.35652   2
   3   3 -12 3.42770 1.78814   1
   3   3 -12 6.21545 1.77456   3
  -3  -3  12 1.65823 1.37525   2
  -3  -3  12 4.84937 1.49608   1
  -3  -3  12 2.89984 1.52598   3
   2   3 -12 16.6734 2.44080   1
   2   3 -12 17.7601 2.02072   1
   2   3 -12 8.53159 1.43687   2
   2   3 -12 11.1303 1.95332   2
   2   3 -12 16.4828 2.23318   3
   2   3 -12 23.2205 2.72397   3
  -2  -3  12 15.2785 2.52367   1
  -2  -3  12 6.95015 1.82118   2
   1   3 -12 1.12595 1.29072   1
   1   3 -12 1.79035 1.00865   1
   1   3 -12 -0.5725 0.90920   3
   1   3 -12 -0.6508 1.20495   3
   1   3 -12 0.36694 1.50576   2
   1   3 -12 0.39166 0.93736   2
  -1  -3  12 0.30122 1.35103   3
  -1  -3  12 -0.3655 1.22664   2
  -1  -3  12 1.81088 1.37204   1
   0   3 -12 38.1802 4.67829   2
   0   3 -12 41.2135 3.99238   2
   0   3 -12 61.9193 6.84043   3
   0   3 -12 63.2080 5.98943   3
   0   3 -12 63.2075 6.28040   1
   0   3 -12 66.2577 7.22516   1
   0  -3  12 39.7313 4.88441   2
   0  -3  12 37.2132 4.08751   2
   0  -3  12 53.0771 6.35473   3
   0  -3  12 63.7533 7.28276   3
   0  -3  12 66.4210 6.37047   1
   0  -3  12 64.1181 7.62979   1
  -1   3 -12 1.16452 0.98644   2
  -1   3 -12 0.68674 1.38926   2
  -1   3 -12 3.52301 1.44293   1
  -1   3 -12 4.73951 0.96471   1
  -1   3 -12 3.48363 0.96219   3
  -1   3 -12 2.63095 1.20003   3
   1  -3  12 5.37262 1.62695   1
   1  -3  12 5.79069 1.33806   1
   1  -3  12 1.86851 1.15731   2
   1  -3  12 2.80638 1.56585   2
   1  -3  12 4.61821 1.40503   3
   1  -3  12 3.78927 1.77400   3
  -2   3 -12 1.61986 1.06390   3
  -2   3 -12 1.67247 1.77353   3
  -2   3 -12 1.65611 1.56247   1
  -2   3 -12 1.84389 0.84693   1
  -2   3 -12 0.47827 0.90951   2
  -2   3 -12 -0.2631 1.74405   2
   2  -3  12 0.46580 1.83080   2
   2  -3  12 2.56839 1.91566   2
   2  -3  12 -1.5131 1.36072   2
   2  -3  12 2.04261 1.93643   1
   2  -3  12 0.72242 1.45823   1
   2  -3  12 3.64627 1.89493   3
   2  -3  12 3.92769 1.65072   3
   4   2 -12 7.86689 2.32777   1
   4   2 -12 8.62076 2.16538   3
   4   2 -12 5.30778 2.34181   2
  -4  -2  12 4.34650 1.90032   1
  -4  -2  12 8.89826 1.61752   1
  -4  -2  12 4.41222 1.64908   2
  -4  -2  12 7.26913 1.98647   3
  -4  -2  12 9.11168 1.74998   3
   3   2 -12 10.0989 2.04562   1
   3   2 -12 4.04179 1.78016   2
   3   2 -12 6.12738 1.67900   3
  -3  -2  12 5.92101 1.44237   2
  -3  -2  12 9.00301 1.71780   1
  -3  -2  12 7.91654 1.64775   3
   2   2 -12 34.6363 3.92161   1
   2   2 -12 27.9384 3.31142   1
   2   2 -12 19.3909 2.15091   2
   2   2 -12 16.7095 2.47198   2
   2   2 -12 21.7083 3.29907   3
   2   2 -12 32.0197 2.93821   3
  -2  -2  12 34.5612 4.07363   1
  -2  -2  12 15.0759 2.49149   2
   1   2 -12 93.8903 10.4319   1
   1   2 -12 96.0211 9.17017   1
   1   2 -12 78.1533 7.81009   3
   1   2 -12 87.4010 8.84685   3
   1   2 -12 43.9100 4.70144   2
   1   2 -12 52.3537 5.47552   2
  -1  -2  12 75.0881 9.26350   3
  -1  -2  12 97.0524 10.9234   1
  -1  -2  12 45.0366 5.63373   2
   0   2 -12 12.7941 1.96731   2
   0   2 -12 9.29551 1.38220   2
   0   2 -12 19.9630 1.99853   3
   0   2 -12 15.9395 2.37998   3
   0   2 -12 19.5650 2.19139   1
   0   2 -12 22.3075 2.67504   1
   0  -2  12 18.0787 2.78134   1
   0  -2  12 14.2789 2.44236   3
   0  -2  12 7.20264 1.80260   2
  -1   2 -12 5.64198 1.12437   1
  -1   2 -12 6.59933 1.38496   1
  -1   2 -12 8.82089 1.26546   3
  -1   2 -12 8.05147 1.61618   3
  -1   2 -12 4.96645 1.68458   2
  -1   2 -12 6.03223 1.20364   2
   1  -2  12 6.57372 1.44536   1
   1  -2  12 8.16352 1.92147   1
   1  -2  12 5.69225 1.91293   3
   1  -2  12 4.25549 1.67744   2
   1  -2  12 1.64482 1.46202   2
  -2   2 -12 2.13862 1.13755   3
  -2   2 -12 -0.5663 1.80731   2
  -2   2 -12 0.89787 0.86513   2
  -2   2 -12 5.22292 1.71183   1
  -2   2 -12 0.99100 0.99096   1
   2  -2  12 0.97513 1.69532   1
   2  -2  12 3.42189 1.97710   1
   2  -2  12 1.82648 1.54975   1
   2  -2  12 0.04429 1.92378   2
   2  -2  12 -0.8145 1.70763   2
   2  -2  12 1.75722 1.38648   2
   2  -2  12 2.26273 1.72013   3
   2  -2  12 3.11763 2.15799   3
  -4  -1  12 19.3864 2.18945   1
  -4  -1  12 14.6614 2.56765   1
  -4  -1  12 11.4076 2.06842   2
  -4  -1  12 7.97442 1.59344   2
  -4  -1  12 14.1801 2.46985   3
  -4  -1  12 17.2031 2.20040   3
  -3  -1  12 13.0677 2.18621   1
  -3  -1  12 16.0416 1.92259   1
  -3  -1  12 4.38572 1.50246   2
  -3  -1  12 8.62837 1.58470   3
  -3  -1  12 12.3487 1.97784   3
   2   1 -12 20.1390 2.48752   2
  -2  -1  12 22.1362 2.96696   2
  -2  -1  12 35.1461 4.40275   1
   1   1 -12 1.01374 1.12991   1
   1   1 -12 0.40152 1.13757   3
   1   1 -12 -1.6550 1.17399   2
  -1  -1  12 2.03737 1.48067   1
  -1  -1  12 1.26531 1.49663   3
  -1  -1  12 -0.7647 1.41459   2
   0   1 -12 3.01925 1.09994   3
   0   1 -12 2.91630 1.00933   1
   0   1 -12 1.84443 1.00497   2
   0  -1  12 0.54855 1.48794   2
   0  -1  12 4.06434 1.66935   3
   0  -1  12 4.52931 1.64764   1
  -1   1 -12 0.65054 0.99585   3
  -1   1 -12 0.15409 0.94497   1
  -1   1 -12 0.32848 1.16252   2
   1  -1  12 0.41617 1.70799   1
   1  -1  12 0.97638 1.45420   2
   1  -1  12 0.57327 1.76803   3
  -2   1 -12 -1.4283 1.01615   2
  -2   1 -12 0.17483 1.10361   3
  -2   1 -12 0.38198 1.12253   1
   2  -1  12 0.68322 2.00426   2
   2  -1  12 -0.2358 2.01149   1
   2  -1  12 1.52772 2.14731   3
  -4   0  12 6.30020 1.81653   1
  -4   0  12 -0.7741 1.26604   2
  -4   0  12 -0.6800 1.69376   2
  -4   0  12 -0.1935 1.89041   3
  -4   0  12 0.33245 1.34816   3
  -3   0  12 2.97852 1.20921   2
  -3   0  12 5.36014 1.49603   3
  -3   0  12 10.0393 1.83307   1
  -2   0  12 5.31898 1.74599   1
  -2   0  12 5.69627 1.39015   3
  -2   0  12 1.09879 1.50200   2
   1   0 -12 8.34962 1.43119   1
   1   0 -12 6.55483 1.44382   3
   1   0 -12 5.36499 1.43662   2
  -1   0  12 8.01407 1.80158   1
  -1   0  12 4.88644 1.64589   2
  -1   0  12 5.54250 1.75875   3
   0   0 -12 29.5993 3.16596   2
   0   0 -12 54.8799 5.66126   3
   0   0 -12 55.4935 5.26925   1
   0   0  12 58.1049 6.76591   3
   0   0  12 30.6250 3.83714   2
   0   0  12 49.5686 6.35283   1
  -1   0 -12 0.27419 1.08703   3
  -1   0 -12 -0.0236 1.01905   1
  -1   0 -12 0.85279 1.26868   2
   1   0  12 1.23185 1.58675   3
   1   0  12 -0.5246 1.69009   2
   1   0  12 0.01765 1.75676   1
  -2   0 -12 3.74593 1.23118   2
  -2   0 -12 5.97298 1.39635   1
  -2   0 -12 9.42005 1.55181   3
   2   0  12 3.30640 2.04246   2
   2   0  12 7.07390 2.44431   3
   2   0  12 4.49722 2.53264   1
  -4   1  12 -0.6769 1.29214   3
  -4   1  12 0.67005 1.68833   3
  -4   1  12 19.3296 2.31740   1
  -4   1  12 5.65974 1.59194   1
  -4   1  12 0.48186 1.14959   2
  -4   1  12 0.75587 1.44813   2
  -3   1  12 25.8792 2.73485   1
  -3   1  12 16.8462 2.30693   1
  -3   1  12 22.1790 2.42384   3
  -3   1  12 18.4800 2.78767   3
  -3   1  12 9.34235 1.65637   2
  -3   1  12 8.32573 1.35256   2
  -2   1  12 0.63403 1.57648   1
  -2   1  12 0.82372 1.04175   1
  -2   1  12 -0.9710 1.63893   2
  -2   1  12 -0.1189 1.17590   2
  -2   1  12 0.64073 1.05037   3
   1  -1 -12 28.1514 3.06361   2
  -1   1  12 39.1237 4.94719   3
  -1   1  12 24.7031 3.49975   2
  -1   1  12 42.9792 5.37535   1
   0  -1 -12 3.60182 1.25352   3
   0  -1 -12 2.83955 1.25484   2
   0  -1 -12 3.55909 1.16466   1
   0   1  12 6.09365 1.90039   1
   0   1  12 0.18272 1.64073   2
   0   1  12 2.21752 1.72007   3
  -1  -1 -12 2.05767 1.13667   1
  -1  -1 -12 -0.5915 1.36720   2
  -1  -1 -12 0.84152 1.19476   3
   1   1  12 0.12356 1.64683   3
   1   1  12 1.49950 1.65950   2
   1   1  12 0.35738 1.74710   1
  -2  -1 -12 4.57522 1.40260   2
  -2  -1 -12 14.3955 1.91942   3
  -2  -1 -12 9.51433 1.80332   1
   2   1  12 2.48220 2.15657   2
   2   1  12 9.21790 2.63128   3
   2   1  12 12.0052 2.66556   1
  -4   2  12 1.90184 1.12733   2
  -4   2  12 1.50969 1.70582   2
  -4   2  12 3.05943 1.26449   3
  -4   2  12 0.76074 1.78138   3
  -4   2  12 4.16221 1.99936   1
  -4   2  12 6.68374 1.38697   1
  -3   2  12 67.4851 7.32229   1
  -3   2  12 68.3402 6.70503   1
  -3   2  12 9.03968 1.63780   3
  -3   2  12 9.06407 1.76893   3
  -3   2  12 6.40270 1.36721   2
  -3   2  12 6.04066 1.56292   2
  -2   2  12 -1.2189 1.48423   2
  -2   2  12 0.41804 0.95224   2
  -2   2  12 8.16199 2.07193   1
  -2   2  12 2.17629 1.07627   1
  -2   2  12 -0.4900 1.12232   3
  -1   2  12 17.6564 2.65602   2
  -1   2  12 33.3994 4.30596   3
  -1   2  12 33.7321 3.61849   3
  -1   2  12 26.6776 4.19902   1
  -1   2  12 41.9290 3.76206   1
   0  -2 -12 70.6204 7.44856   2
   0  -2 -12 136.821 13.4638   1
   0   2  12 138.116 15.6259   1
   0   2  12 134.040 15.2066   3
   0   2  12 79.7243 8.78553   2
  -1  -2 -12 2.18053 1.35976   3
  -1  -2 -12 -0.1769 1.18342   1
  -1  -2 -12 1.21920 1.56153   2
   1   2  12 0.41453 1.96059   1
   1   2  12 -2.2322 1.94820   3
   1   2  12 0.20221 1.74154   2
  -3   3  12 -0.1577 1.43178   1
  -3   3  12 0.19304 1.11578   1
  -3   3  12 2.19064 1.25022   3
  -3   3  12 1.38662 1.74464   3
  -3   3  12 -0.0096 1.01037   2
  -2   3  12 1.34595 1.30329   3
  -2   3  12 1.89099 1.16280   1
  -2   3  12 0.37118 1.67120   2
  -2   3  12 0.31871 1.01242   2
  -1   3  12 0.52255 1.22095   1
  -1   3  12 2.51494 1.83604   1
  -1   3  12 1.18184 1.55680   2
  -1   3  12 1.59180 1.13835   2
  -1   3  12 0.18258 1.26018   3
  -1   3  12 1.19987 1.47979   3
   0   3  12 13.4378 2.45449   1
   0   3  12 5.89238 1.79467   2
   0   3  12 9.80800 2.24546   3
  -1  -3 -12 29.0852 3.43529   1
  -1  -3 -12 17.6016 2.47901   2
   1   3  12 33.3969 4.30137   1
   1   3  12 26.6362 3.84160   3
   1   3  12 16.0958 2.78127   2
  -3   4  12 1.50120 1.24877   1
  -3   4  12 1.13143 1.80715   1
  -3   4  12 -1.2887 1.20201   3
  -3   4  12 -0.9148 1.90282   3
  -3   4  12 2.52485 1.17978   2
  -2   4  12 5.74405 1.41642   1
  -2   4  12 4.02335 1.38790   3
  -2   4  12 0.51687 1.66065   2
  -2   4  12 1.76428 1.14103   2
  -1   4  12 4.48431 1.82310   2
  -1   4  12 3.36717 1.27139   2
  -1   4  12 8.15901 1.61187   1
  -1   4  12 8.17517 2.15311   1
  -1   4  12 3.06955 1.94906   3
  -1   4  12 8.52380 1.58884   3
   0   4  12 57.7403 5.73653   3
   0   4  12 50.3114 6.70310   3
   0   4  12 60.3910 7.37640   1
   0   4  12 32.1689 4.20594   2
   1   4  12 58.3632 8.07101   3
  -3   5  12 6.48193 1.46360   2
  -3   5  12 15.9821 2.20416   3
  -3   5  12 15.7678 2.76074   3
  -3   5  12 13.3987 1.92937   1
  -3   5  12 11.2708 2.57066   1
  -2   5  12 0.81591 1.14360   2
  -2   5  12 1.11428 1.93056   2
  -2   5  12 5.87183 1.49882   1
  -2   5  12 1.93637 1.34451   3
  -1   5  12 3.76912 2.05973   1
  -1   5  12 6.54266 1.66922   1
  -1   5  12 3.60056 1.60812   3
  -1   5  12 6.50773 2.21457   3
  -1   5  12 3.21663 2.00002   2
  -1   5  12 2.52660 1.36145   2
   0   5  12 5.02328 1.78337   3
   0   5  12 7.11103 2.27399   3
   0   5  12 4.91662 1.69381   1
   0   5  12 5.76347 2.30033   1
   0   5  12 2.66977 2.07089   2
   0   5  12 0.95978 1.47515   2
  -2   6  12 77.6394 7.57733   2
  -2   6  12 166.433 15.8819   3
  -2   6  12 151.288 14.4201   1
  -1   6  12 2.41867 1.49250   1
  -1   6  12 1.71679 2.22835   1
  -1   6  12 3.10251 2.27820   3
  -1   6  12 -0.8339 1.51907   3
  -1   6  12 3.43081 2.17324   2
  -1   6  12 -0.1785 1.33884   2
   1   9 -13 0.28938 1.04738   3
   1   9 -13 0.88620 2.04303   3
   1   9 -13 3.09367 2.04414   1
   1   9 -13 0.44799 1.00204   1
   1   9 -13 1.00895 0.91757   2
   1   9 -13 2.23589 2.49225   2
  -1  -9  13 2.35187 2.47769   1
  -1  -9  13 3.04956 1.56197   1
  -1  -9  13 0.62397 1.57372   3
  -1  -9  13 1.87787 2.54296   3
  -1  -9  13 0.66916 2.25860   2
  -1  -9  13 0.79104 1.54458   2
   0   9 -13 1.27150 1.73323   3
   0   9 -13 1.66045 1.97080   2
   0   9 -13 0.67093 1.70534   1
   0  -9  13 1.68685 2.39006   3
   0  -9  13 2.38271 1.50764   3
   0  -9  13 -0.1191 1.39298   1
   0  -9  13 1.21536 2.30476   1
   0  -9  13 0.82723 2.18053   2
   0  -9  13 0.83959 1.55639   2
   2   8 -13 12.5598 2.46571   1
   2   8 -13 11.4705 2.30872   1
   2   8 -13 1.51380 1.32223   3
   2   8 -13 2.25795 2.16619   3
   2   8 -13 1.40838 1.94955   2
   2   8 -13 1.30128 2.30886   2
  -2  -8  13 -0.7617 2.25554   2
   1   8 -13 63.8590 6.37851   1
   1   8 -13 65.7178 7.55250   1
   1   8 -13 70.9764 7.01667   3
   1   8 -13 77.8833 8.20763   3
   1   8 -13 37.7353 3.69649   2
   1   8 -13 36.5563 4.62254   2
  -1  -8  13 64.5353 7.97595   1
  -1  -8  13 68.2237 6.63943   1
  -1  -8  13 66.9888 8.70563   3
  -1  -8  13 72.1755 7.24570   3
  -1  -8  13 32.9995 4.64893   2
  -1  -8  13 32.6909 3.76904   2
   0   8 -13 27.9749 3.47148   3
   0   8 -13 25.0890 2.69921   3
   0   8 -13 24.1887 2.55065   1
   0   8 -13 22.0513 3.22891   1
   0   8 -13 13.9472 2.64338   2
   0  -8  13 26.2086 3.66176   1
   0  -8  13 24.4332 2.83229   1
   0  -8  13 17.0284 3.53218   3
   0  -8  13 30.1484 3.02558   3
   0  -8  13 10.8227 2.38023   2
   0  -8  13 11.4891 1.91857   2
  -1   8 -13 4.27966 2.13885   3
  -1   8 -13 1.61121 2.08672   2
  -1   8 -13 6.74645 2.03057   1
   1  -8  13 0.25082 2.17459   2
   1  -8  13 1.98787 1.37124   2
   1  -8  13 3.42771 1.40528   1
   1  -8  13 1.45201 2.10549   1
   1  -8  13 5.23016 1.49487   3
   1  -8  13 3.33352 2.39130   3
   2   7 -13 16.5548 2.08812   1
   2   7 -13 17.0945 2.70436   1
   2   7 -13 5.01641 1.32265   2
   2   7 -13 4.44235 2.14187   2
   2   7 -13 8.30888 1.48963   3
   2   7 -13 7.24346 1.99064   3
  -2  -7  13 2.85631 2.00947   2
   1   7 -13 2.02850 1.17057   3
   1   7 -13 1.15383 1.63452   3
   1   7 -13 0.87975 1.05930   2
   1   7 -13 2.61114 2.02123   2
   1   7 -13 7.65202 2.00657   1
   1   7 -13 7.18499 1.25477   1
  -1  -7  13 4.45930 2.23429   1
  -1  -7  13 8.34926 1.61875   1
  -1  -7  13 0.11965 1.96623   3
  -1  -7  13 1.03782 1.47212   2
  -1  -7  13 -0.4855 1.83462   2
   0   7 -13 24.1234 2.66727   3
   0   7 -13 27.8762 3.40776   3
   0   7 -13 11.6317 1.52663   2
   0   7 -13 11.6876 2.54599   2
   0   7 -13 24.3385 3.16176   1
   0   7 -13 21.7515 2.42171   1
   0  -7  13 23.0346 3.45952   1
   0  -7  13 28.6913 2.83876   1
   0  -7  13 11.0539 1.83473   2
   0  -7  13 19.6111 2.61304   2
   0  -7  13 34.2091 3.07784   3
   0  -7  13 19.2686 3.69368   3
  -1   7 -13 3.04457 1.58308   1
  -1   7 -13 4.28585 1.76131   3
  -1   7 -13 4.90927 2.07547   2
   1  -7  13 2.95057 1.95716   2
   1  -7  13 0.84719 1.32176   2
   1  -7  13 3.31889 2.07140   3
   1  -7  13 1.85299 1.42794   3
   1  -7  13 6.00052 1.48568   1
   1  -7  13 7.18520 2.27356   1
   2   6 -13 3.28560 1.28018   3
   2   6 -13 7.97435 1.97993   3
   2   6 -13 6.06380 1.79219   1
   2   6 -13 4.16842 1.26904   1
   2   6 -13 1.83819 1.70448   2
   2   6 -13 2.39383 1.22674   2
  -2  -6  13 0.88509 1.77759   2
   1   6 -13 28.9464 4.17939   2
   1   6 -13 39.4335 3.63917   2
   1   6 -13 56.2922 5.67302   1
   1   6 -13 59.1398 6.54971   1
   1   6 -13 65.9293 7.15055   3
   1   6 -13 61.7052 6.17207   3
  -1  -6  13 33.4894 3.58951   2
  -1  -6  13 31.5759 4.36455   2
  -1  -6  13 60.6713 7.58906   3
  -1  -6  13 57.5211 7.04256   1
   0   6 -13 0.17555 1.61202   3
   0   6 -13 1.78828 1.00064   3
   0   6 -13 0.15116 0.91681   2
   0   6 -13 1.86414 1.70106   2
   0   6 -13 1.98337 1.49048   1
   0   6 -13 1.39818 0.83352   1
   0  -6  13 0.99554 1.36222   3
   0  -6  13 1.76974 1.79797   3
   0  -6  13 0.57460 1.25365   1
   0  -6  13 2.45856 1.85036   1
   0  -6  13 0.43618 1.19072   2
   0  -6  13 0.21413 1.62314   2
  -1   6 -13 22.8841 3.57157   1
  -1   6 -13 26.9059 2.90683   1
  -1   6 -13 15.6005 2.75176   2
  -1   6 -13 38.2577 4.08587   3
  -1   6 -13 26.5122 3.25963   3
   1  -6  13 28.6913 4.27224   3
   1  -6  13 37.1726 3.48502   3
   1  -6  13 30.6454 3.13908   1
   1  -6  13 36.7889 3.92932   1
   1  -6  13 16.2504 2.08192   2
   1  -6  13 14.7796 2.77414   2
   3   5 -13 36.0488 4.90978   1
   3   5 -13 41.7537 4.18042   1
   3   5 -13 33.8083 3.79573   3
   3   5 -13 39.2541 4.57044   3
   3   5 -13 15.4864 2.81864   2
   3   5 -13 18.1614 2.34051   2
  -3  -5  13 33.9941 4.18383   3
   2   5 -13 1.32663 1.86422   2
   2   5 -13 6.01892 1.35347   2
   2   5 -13 6.72470 1.41255   3
   2   5 -13 8.28263 1.97873   3
   2   5 -13 11.3594 2.05956   1
   2   5 -13 5.62141 1.36714   1
  -2  -5  13 4.09068 1.89475   2
   1   5 -13 9.00707 1.43797   3
   1   5 -13 8.26450 1.67741   3
   1   5 -13 8.88872 1.48190   1
   1   5 -13 10.6713 2.00916   1
   1   5 -13 3.33418 1.27439   2
   1   5 -13 4.73831 1.92918   2
  -1  -5  13 12.1222 2.23124   1
  -1  -5  13 4.17205 1.89839   2
  -1  -5  13 5.22658 1.86340   2
  -1  -5  13 6.84576 2.03608   3
   0   5 -13 1.64659 0.98530   2
   0   5 -13 2.23906 1.81947   2
   0   5 -13 0.95504 0.89463   1
   0   5 -13 2.10680 1.60498   1
   0   5 -13 2.31968 1.02698   3
   0   5 -13 2.44666 1.38035   3
   0  -5  13 1.12945 1.21581   3
   0  -5  13 0.85063 1.78637   3
   0  -5  13 -0.0513 1.55769   2
   0  -5  13 2.14681 1.21482   2
   0  -5  13 0.51596 1.21917   1
   0  -5  13 4.83996 1.89609   1
  -1   5 -13 3.39644 1.00555   2
  -1   5 -13 4.71740 1.73198   2
  -1   5 -13 5.91491 1.79101   1
  -1   5 -13 10.5025 1.27314   1
  -1   5 -13 7.64918 1.34189   3
  -1   5 -13 9.51939 1.92390   3
   1  -5  13 11.5081 1.78339   3
   1  -5  13 11.4959 2.38416   3
   1  -5  13 2.44967 1.49791   2
   1  -5  13 5.93413 1.93151   2
   1  -5  13 8.38849 1.56992   1
   1  -5  13 11.0401 2.33154   1
  -2   5 -13 1.62324 1.94492   1
  -2   5 -13 0.72858 1.83346   2
  -2   5 -13 0.96273 1.94059   3
  -2   5 -13 2.17878 0.90820   3
   2  -5  13 0.61003 2.30244   3
   2  -5  13 1.06902 1.75908   3
   2  -5  13 0.52098 1.56880   2
   2  -5  13 0.99921 2.09805   2
   2  -5  13 2.14095 1.72804   1
   2  -5  13 1.85391 2.38556   1
   3   4 -13 9.61905 1.77768   2
   3   4 -13 6.71800 2.08645   2
   3   4 -13 15.5834 2.75551   1
   3   4 -13 17.2650 2.30170   1
   3   4 -13 14.0317 2.40884   3
  -3  -4  13 12.5037 2.30373   3
   2   4 -13 -0.9523 1.69224   2
   2   4 -13 -2.1495 1.16622   2
   2   4 -13 3.62612 1.74710   1
   2   4 -13 2.86655 1.19771   1
   2   4 -13 0.80362 1.14260   3
   2   4 -13 -0.8040 1.53963   3
  -2  -4  13 0.41306 1.71900   2
   1   4 -13 1.11209 1.05096   1
   1   4 -13 0.89587 1.26927   1
   1   4 -13 1.86757 1.73721   2
   1   4 -13 0.54886 1.22768   2
   1   4 -13 1.99410 1.13625   3
   1   4 -13 1.16678 1.38866   3
  -1  -4  13 0.01734 1.61929   2
  -1  -4  13 -0.0142 1.74864   1
  -1  -4  13 0.60830 1.72465   3
   0   4 -13 5.61121 2.02292   2
   0   4 -13 8.32176 1.24139   2
   0   4 -13 18.5873 1.92711   1
   0   4 -13 16.9962 2.42919   1
   0   4 -13 16.2477 2.10813   3
   0   4 -13 25.1662 2.69814   3
   0  -4  13 6.62886 1.88680   2
   0  -4  13 5.58675 1.41405   2
   0  -4  13 17.2295 2.69981   1
   0  -4  13 13.0259 2.12314   1
   0  -4  13 15.6244 2.76854   3
  -1   4 -13 6.94066 1.32775   2
  -1   4 -13 8.75687 2.06150   2
  -1   4 -13 16.7538 2.85286   3
  -1   4 -13 22.5289 2.43341   3
  -1   4 -13 20.7811 2.94726   1
  -1   4 -13 23.2264 2.29669   1
   1  -4  13 24.0277 3.33788   3
   1  -4  13 29.0232 2.84024   3
   1  -4  13 16.3336 3.15159   1
   1  -4  13 21.7046 2.59974   1
   1  -4  13 10.3021 1.67223   2
   1  -4  13 11.8505 2.21768   2
  -2   4 -13 3.18840 0.93282   1
  -2   4 -13 0.59149 1.74503   1
  -2   4 -13 0.98891 2.12893   2
  -2   4 -13 0.10144 0.83693   2
  -2   4 -13 3.59157 1.02546   3
  -2   4 -13 1.40261 1.98375   3
   2  -4  13 0.71740 1.92858   3
   2  -4  13 2.68934 2.28225   3
   2  -4  13 -1.0347 1.51038   2
   2  -4  13 1.67564 2.22597   2
   2  -4  13 0.96047 1.96685   2
   2  -4  13 3.51440 1.71341   1
   2  -4  13 2.06528 2.28494   1
   3   3 -13 -0.7720 1.94577   2
   3   3 -13 0.35463 1.48776   2
   3   3 -13 0.54546 1.87028   3
   3   3 -13 0.48512 1.82666   1
  -3  -3  13 0.07018 1.43720   3
   2   3 -13 76.1898 7.92128   1
   2   3 -13 65.2417 6.91542   1
   2   3 -13 65.0924 7.60584   3
   2   3 -13 70.6467 6.71201   3
   2   3 -13 37.9024 3.99023   2
   2   3 -13 39.3041 4.64615   2
  -2  -3  13 36.9417 4.69170   2
   1   3 -13 -0.8327 1.57234   2
   1   3 -13 1.59442 1.26273   2
   1   3 -13 2.64101 1.09443   1
   1   3 -13 0.13992 1.49131   1
   1   3 -13 -0.5349 1.15238   3
   1   3 -13 2.10218 1.39003   3
  -1  -3  13 0.03337 1.55294   3
  -1  -3  13 -0.4045 1.37364   2
  -1  -3  13 0.62200 1.54382   1
   0   3 -13 17.3278 2.10296   2
   0   3 -13 18.5068 2.70223   2
   0   3 -13 32.9006 3.40235   3
   0   3 -13 29.6945 3.99383   3
   0   3 -13 30.3673 3.27296   1
   0   3 -13 28.1580 3.75437   1
   0  -3  13 36.6503 4.29027   3
   0  -3  13 18.9580 2.79279   2
   0  -3  13 34.4369 4.11325   1
  -1   3 -13 12.2527 1.55783   1
  -1   3 -13 10.9845 2.12782   1
  -1   3 -13 6.66847 1.38446   2
  -1   3 -13 7.12779 2.08977   2
  -1   3 -13 12.7228 2.14292   3
  -1   3 -13 14.1787 1.70088   3
   1  -3  13 12.1690 2.47131   1
   1  -3  13 13.4232 2.13083   1
   1  -3  13 7.49449 2.08278   2
   1  -3  13 8.55516 1.67126   2
   1  -3  13 9.56666 2.50027   3
  -2   3 -13 -1.0656 1.29923   3
  -2   3 -13 0.08014 3.07392   3
  -2   3 -13 -1.0115 0.95136   1
  -2   3 -13 0.17004 1.87107   1
  -2   3 -13 -1.0265 2.14541   2
  -2   3 -13 -0.3452 1.04496   2
   2  -3  13 2.39961 2.26658   1
   2  -3  13 0.97785 1.60574   1
   2  -3  13 1.19104 1.87223   1
   2  -3  13 1.69985 2.42694   3
   2  -3  13 0.03522 1.81917   2
   2  -3  13 2.10214 2.23570   2
   2  -3  13 -0.8937 2.13115   2
  -3  -2  13 1.18444 1.71162   3
   2   2 -13 1.38484 1.28138   2
   2   2 -13 5.48529 1.35325   1
   2   2 -13 -0.4394 1.16732   3
  -2  -2  13 1.24821 1.59928   2
   1   2 -13 1.06366 1.19612   3
   1   2 -13 2.85555 1.10249   1
   1   2 -13 0.69342 1.33377   2
  -1  -2  13 1.13902 1.55861   2
  -1  -2  13 0.63437 1.59916   3
  -1  -2  13 3.08786 1.58733   1
   0   2 -13 0.27306 1.06945   3
   0   2 -13 -0.0866 1.10940   2
   0   2 -13 0.73600 0.99902   1
   0  -2  13 0.21438 1.65365   3
   0  -2  13 1.03731 1.56373   2
   0  -2  13 1.85657 1.67282   1
  -1   2 -13 3.31093 1.18756   3
  -1   2 -13 0.71232 1.23717   2
  -1   2 -13 3.14635 1.11133   1
   1  -2  13 4.07798 1.96548   2
   1  -2  13 3.27379 2.17736   3
   1  -2  13 4.42223 2.02192   1
  -3  -1  13 5.43023 1.84268   3
  -3  -1  13 11.2916 1.81737   3
   2   1 -13 1.68791 1.40488   2
  -2  -1  13 3.42817 1.87820   2
   1   1 -13 6.85455 1.55465   2
   1   1 -13 16.9164 2.02957   3
   1   1 -13 20.4284 2.34235   1
  -1  -1  13 12.2910 2.54925   3
  -1  -1  13 7.66672 2.01659   2
  -1  -1  13 17.2910 2.91869   1
   0   1 -13 9.86855 1.63642   2
   0   1 -13 17.6432 2.14173   3
   0   1 -13 16.3700 2.02166   1
   0  -1  13 17.8627 2.83680   1
   0  -1  13 10.6635 2.21465   2
   0  -1  13 16.5114 2.87859   3
  -1   1 -13 -0.9961 1.33384   2
  -1   1 -13 0.15772 1.11278   1
  -1   1 -13 1.10257 1.24358   3
   1  -1  13 -0.8806 1.91842   2
   1  -1  13 0.04167 1.85409   1
   1  -1  13 -0.4499 1.98279   3
  -3   0  13 10.1333 1.76222   3
  -3   0  13 7.55693 1.97414   3
  -3   0  13 6.74974 1.48017   1
  -2   0  13 16.5558 2.73510   2
   1   0 -13 -0.0869 1.30753   2
   1   0 -13 0.80169 1.28419   1
  -1   0  13 0.84160 1.68317   2
  -1   0  13 1.83022 1.77305   1
  -1   0  13 0.68862 1.76811   3
   0   0 -13 23.5592 2.41270   1
   0   0 -13 13.2162 1.85016   2
   0   0 -13 21.6589 2.46347   3
   0   0  13 17.1641 3.14942   1
   0   0  13 10.9784 2.40549   2
   0   0  13 20.0396 3.22749   3
  -1   0 -13 1.15293 1.19355   1
  -1   0 -13 2.36865 1.38707   3
  -1   0 -13 0.47971 1.48088   2
   1   0  13 0.34288 2.06486   2
   1   0  13 3.93716 2.22446   1
   1   0  13 2.26061 2.07913   3
  -3   1  13 2.26565 1.25391   1
  -3   1  13 2.79260 1.63550   3
  -3   1  13 1.11944 1.31997   3
  -3   1  13 0.54074 1.12965   2
  -2   1  13 11.3040 1.90017   3
  -2   1  13 17.1655 2.64137   1
  -2   1  13 6.97755 2.04877   2
  -1   1  13 360.041 40.1710   1
  -1   1  13 317.774 35.4735   3
  -1   1  13 205.669 23.0850   2
   0  -1 -13 -0.1581 1.18646   1
   0  -1 -13 1.27011 1.39663   2
   0  -1 -13 -0.3584 1.30186   3
   0   1  13 0.31457 1.77389   1
   0   1  13 1.84215 1.80978   3
   0   1  13 0.42948 1.64512   2
  -1  -1 -13 7.53731 1.71892   3
  -1  -1 -13 10.4179 1.70870   1
  -1  -1 -13 3.28792 1.69188   2
   1   1  13 6.39620 2.34571   3
   1   1  13 8.81201 2.52341   1
   1   1  13 4.54744 1.95695   2
  -3   2  13 -0.1538 1.68448   3
  -3   2  13 2.34168 1.64429   3
  -3   2  13 0.66750 1.31587   1
  -3   2  13 0.71977 1.24150   2
  -2   2  13 2.49445 1.24007   2
  -2   2  13 8.03296 1.97248   2
  -2   2  13 8.31526 1.55090   1
  -2   2  13 9.67722 1.76706   3
  -1   2  13 4.35759 2.02932   3
  -1   2  13 0.77508 2.00266   1
  -1   2  13 4.15749 1.89686   2
   0  -2 -13 3.63786 1.81606   2
   0   2  13 9.17236 2.38737   3
   0   2  13 4.37535 1.94020   2
   0   2  13 6.11755 2.30642   1
  -3   3  13 0.29046 1.52805   3
  -3   3  13 1.16877 2.03845   3
  -3   3  13 2.55161 1.31935   2
  -3   3  13 2.70899 1.43448   1
  -2   3  13 2.37984 1.24601   2
  -2   3  13 0.70891 1.87836   2
  -2   3  13 4.78556 1.45683   1
  -2   3  13 9.80576 1.89853   3
  -1   3  13 6.75200 1.78029   3
  -1   3  13 4.16536 2.08202   3
  -1   3  13 2.70445 1.90408   1
  -1   3  13 4.74437 2.02995   1
  -1   3  13 1.41586 1.99340   2
   0   3  13 31.0380 4.25957   3
   0   3  13 12.0066 2.51903   2
   0   3  13 31.7308 4.37125   1
  -2   4  13 13.1258 2.01577   2
  -2   4  13 30.5272 3.44176   1
  -2   4  13 29.9479 3.47164   3
  -1   4  13 3.11476 2.24576   1
  -1   4  13 0.77902 1.61064   1
  -1   4  13 0.85932 2.11812   2
  -1   4  13 0.08057 1.39609   2
  -1   4  13 0.02030 2.12610   3
  -1   4  13 -0.2700 1.68082   3
   1   7 -14 23.1318 2.76754   3
   1   7 -14 27.3817 3.38293   3
   1   7 -14 22.7983 3.04894   1
   1   7 -14 24.5733 3.60489   1
   1   7 -14 14.3656 1.95454   2
   1   7 -14 12.2516 2.93731   2
  -1  -7  14 18.5809 3.59669   3
  -1  -7  14 13.2086 2.29989   2
  -1  -7  14 17.9744 3.01741   2
  -1  -7  14 28.5520 3.91279   1
   0   7 -14 3.34380 0.96699   1
   0   7 -14 2.54390 2.00767   1
   0   7 -14 2.96054 1.94602   3
   0   7 -14 3.00057 1.12664   3
   0   7 -14 -0.0837 2.21913   2
   0   7 -14 1.23417 1.01100   2
   0  -7  14 2.53010 2.32093   2
   0  -7  14 1.44344 1.49799   2
   0  -7  14 3.72500 2.08454   3
   0  -7  14 5.92673 1.77776   3
   0  -7  14 2.43858 2.15952   1
   0  -7  14 3.65797 1.57132   1
  -2  -6  14 0.30451 2.19177   2
   1   6 -14 22.7154 3.00324   2
   1   6 -14 11.8008 1.91282   2
   1   6 -14 24.8884 3.62150   1
   1   6 -14 27.8755 2.86901   1
   1   6 -14 26.9402 3.42236   3
   1   6 -14 23.4369 2.74355   3
  -1  -6  14 23.0847 3.79381   1
  -1  -6  14 23.9222 3.64470   3
  -1  -6  14 13.6624 2.63533   2
   0   6 -14 1.63998 0.92949   1
   0   6 -14 0.19570 1.99938   1
   0   6 -14 -0.7414 1.62667   3
   0   6 -14 1.11904 1.07761   3
   0   6 -14 -2.3515 2.27826   2
   0   6 -14 1.36281 1.08012   2
   0  -6  14 0.91532 2.13662   1
   0  -6  14 0.01186 1.40636   1
   0  -6  14 -2.9290 2.06100   2
   0  -6  14 -0.2352 1.50717   2
   0  -6  14 -2.1513 1.99745   3
   2   5 -14 0.57627 1.32257   3
   2   5 -14 4.10662 2.06364   3
   2   5 -14 2.23956 1.85113   2
   2   5 -14 3.09024 1.54402   2
   2   5 -14 5.73514 1.51818   1
   2   5 -14 5.09910 1.91896   1
  -2  -5  14 3.84554 2.13545   2
   1   5 -14 -1.0762 1.25655   3
   1   5 -14 3.19578 1.71713   3
   1   5 -14 2.56161 1.89668   1
   1   5 -14 1.88688 1.27967   1
   1   5 -14 -0.7288 1.26610   2
   1   5 -14 0.02421 2.15111   2
  -1  -5  14 -0.9416 2.10242   3
  -1  -5  14 0.92654 2.13913   1
  -1  -5  14 -1.7282 2.00360   2
   0   5 -14 0.74986 1.91811   2
   0   5 -14 0.99127 1.17166   2
   0   5 -14 3.02363 1.86134   1
   0   5 -14 1.20620 1.03131   1
   0   5 -14 1.58683 1.78784   3
   0   5 -14 -0.1522 1.10475   3
   0  -5  14 -1.2300 2.02103   3
   0  -5  14 1.83620 1.46898   2
   0  -5  14 -0.9064 1.91368   2
   0  -5  14 2.63136 1.93635   1
  -1   5 -14 2.23689 1.09508   2
  -1   5 -14 -0.0469 2.12393   2
  -1   5 -14 -0.3817 1.90751   1
  -1   5 -14 -1.3211 1.13403   1
  -1   5 -14 -2.2136 1.77755   3
   1  -5  14 0.08143 1.67307   2
   1  -5  14 1.08392 1.62401   1
   1  -5  14 -1.0737 1.80321   3
   2   4 -14 0.68956 1.89730   1
   2   4 -14 1.11517 1.42465   1
   2   4 -14 1.68009 2.00573   2
   2   4 -14 0.93677 1.51345   2
   2   4 -14 1.38732 1.93419   3
   2   4 -14 1.37910 1.32281   3
  -2  -4  14 0.56160 1.95580   2
   1   4 -14 0.31904 1.27071   2
   1   4 -14 1.25194 1.79715   2
   1   4 -14 6.96386 1.46652   1
   1   4 -14 5.77906 1.96887   1
   1   4 -14 2.31176 1.82198   3
   1   4 -14 3.06972 1.34510   3
  -1  -4  14 3.42560 1.90949   2
  -1  -4  14 5.92740 2.20759   1
  -1  -4  14 -0.8948 1.99427   3
   0   4 -14 5.44073 1.34427   3
   0   4 -14 6.81154 2.02999   3
   0   4 -14 7.53483 1.27769   1
   0   4 -14 4.54855 1.88247   1
   0   4 -14 2.53922 2.15370   2
   0   4 -14 2.69845 1.23314   2
   0  -4  14 1.99339 1.91081   2
   0  -4  14 5.62279 2.11861   1
   0  -4  14 6.08886 2.02909   3
  -1   4 -14 10.7250 2.40957   2
  -1   4 -14 9.29788 1.51619   2
  -1   4 -14 23.7648 3.09792   3
  -1   4 -14 20.9894 2.65053   3
  -1   4 -14 19.8381 2.31477   1
  -1   4 -14 18.7424 2.93755   1
   1  -4  14 17.9322 3.56351   3
   1  -4  14 9.96388 2.09358   2
   1  -4  14 7.70770 2.63614   2
   1  -4  14 22.0022 4.14892   1
   2   3 -14 2.00257 1.54305   2
   2   3 -14 -0.2765 1.94679   2
   2   3 -14 3.26039 1.44258   3
   2   3 -14 7.01134 1.64934   1
  -2  -3  14 0.50238 1.99114   2
   1   3 -14 1.95178 1.36089   1
   1   3 -14 -0.2907 2.27286   2
   1   3 -14 -0.1821 1.32132   2
   1   3 -14 -0.8209 1.25691   3
  -1  -3  14 2.61232 1.90530   2
  -1  -3  14 3.02792 2.00970   1
  -1  -3  14 1.40292 1.88570   3
   0   3 -14 4.33323 1.37896   3
   0   3 -14 4.20720 1.18744   1
   0   3 -14 0.61328 1.26134   2
   0  -3  14 2.06186 2.07150   1
   0  -3  14 4.51771 1.98517   2
   0  -3  14 9.73583 2.28560   3
  -1   3 -14 6.47416 1.52434   3
  -1   3 -14 4.75704 1.60111   1
  -1   3 -14 3.92734 1.51534   2
   1  -3  14 6.01874 2.72673   3
   1  -3  14 9.78943 3.40947   1
   1  -3  14 3.93843 2.92275   2
   2   2 -14 7.43554 1.89081   2
   2   2 -14 14.4541 2.18441   1
  -2  -2  14 9.07526 2.35044   2
   1   2 -14 10.8952 1.90585   1
   1   2 -14 4.92316 1.52143   2
   1   2 -14 3.46380 1.37041   3
  -1  -2  14 4.56225 2.06972   2
  -1  -2  14 7.27642 2.18969   3
  -1  -2  14 14.4256 2.46987   1
   0   2 -14 8.78154 1.65347   2
   0   2 -14 18.5113 2.27395   3
   0   2 -14 14.2847 1.91774   1
   0  -2  14 16.1992 2.89714   1
   0  -2  14 17.6190 3.17553   3
   0  -2  14 9.61934 2.44288   2
   2   1 -14 0.76620 1.63908   2
  -2  -1  14 0.00314 2.07292   2
   1   1 -14 -0.2179 1.50294   2
   1   1 -14 -0.2696 1.54535   3
   1   1 -14 1.68794 1.35387   1
  -1  -1  14 -0.2828 1.96349   2
  -1  -1  14 1.66448 2.07721   3
  -1  -1  14 0.70796 2.05237   1
   0   1 -14 9.23092 1.62409   1
   0   1 -14 5.05590 1.55714   2
   0   1 -14 13.1960 1.88095   3
   0  -1  14 10.6738 2.49691   1
   0  -1  14 3.28774 2.11674   2
   0  -1  14 10.9276 2.65510   3
  -2   0  14 19.0642 3.23877   2
   1   0 -14 54.3351 5.76558   1
   1   0 -14 30.6783 3.58529   2
  -1   0  14 57.0950 6.96264   1
  -1   0  14 33.1425 4.35238   2
  -1   0  14 52.9288 6.54573   3
   0   0 -14 3.76533 1.56214   3
   0   0 -14 5.11103 1.46307   1
   0   0 -14 1.36932 1.62177   2
   0   0  14 7.79125 2.47502   3
   0   0  14 4.53482 2.23662   2
   0   0  14 6.12461 2.38793   1
  -2   1  14 6.74384 3.34499   2
  -1   1  14 46.6308 5.89960   1
  -1   1  14 22.3205 3.38642   2
  -1   1  14 41.2957 5.34106   3
   0  -1 -14 0.92339 1.41339   1
   0  -1 -14 0.70644 1.76693   2
   0  -1 -14 -0.6972 1.68606   3
   0   1  14 0.94363 2.18624   3
   0   1  14 -0.1008 2.38823   2
   0   1  14 1.94862 2.39571   1
  -1   2  14 20.9494 3.45713   3
  -1   2  14 21.4136 3.55413   1
  -1   2  14 14.8215 2.90510   2
   0   0   0    0.00    0.00   0
;
_shelx_hkl_checksum              12146
_shelx_res_file
;
    jtm814_5.res created by SHELXL-2014/7
TITL jtm814_4_a.res in P-1
REM Old TITL jtm814_4 in P-1
REM SHELXT solution in P-1
REM R1 0.192,  Rweak 0.042,  Alpha 0.120,  Orientation as input
REM Formula found by SHELXT:  C12 N2 O2
CELL  0.71073   4.5801  10.8696  10.9711  101.043   98.854   99.868
ZERR    2.000   0.0009   0.0022   0.0022    0.003    0.003    0.003
LATT  1
SFAC C H N O
UNIT 24 24 4 4
TEMP -173
SIZE 0.11 0.261 0.44
L.S. 5
BOND $H
LIST 4
FMAP 2
PLAN 5
HTAB N1 O2
EQIV $1 -x+1, -y+1, -z
HTAB N1 O2_$1
EQIV $2 -x+2, -y+2, -z+1
HTAB N2 O1_$2
EQIV $3 x-1, y, z
HTAB C8 O1_$3
EQIV $4 -x+2, -y+1, -z+1
HTAB C12 O1_$4
CONF
ACTA 57.4
OMIT 2 0 -4
OMIT -1 2 1
OMIT -1 3 -1
OMIT -2 0 4
WGHT    0.047700    1.031200
BASF   0.21967   0.37173
FVAR       1.34467
O1    4    0.998532    0.846723    0.538729    11.00000    0.02769    0.02222 =
         0.02110    0.00066    0.00203    0.00535
O2    4    0.586016    0.423834    0.093282    11.00000    0.03163    0.02331 =
         0.02180    0.00096    0.00242    0.00965
N1    3    0.418630    0.633334    0.212717    11.00000    0.02507    0.01885 =
         0.01829    0.00062    0.00463    0.00534
H1A   2    0.412484    0.585782    0.141074    11.00000    0.04238
N2    3    0.686058    0.890223    0.379745    11.00000    0.02237    0.01818 =
         0.02069    0.00154    0.00469    0.00354
H2A   2    0.815674    0.964792    0.395363    11.00000    0.05286
C1    1    0.427604    0.865480    0.283031    11.00000    0.02120    0.02030 =
         0.01791    0.00253    0.00739    0.00492
C2    1    0.314070    0.971629    0.258416    11.00000    0.02658    0.02082 =
         0.02151    0.00152    0.00952    0.00580
H2    2    0.411640    1.056405    0.311515    11.00000    0.02410
C3    1    0.071033    0.957858    0.161884    11.00000    0.02964    0.02322 =
         0.02492    0.00659    0.01053    0.01269
H3    2    0.002220    1.031204    0.144982    11.00000    0.03542
C4    1   -0.066826    0.835805    0.088675    11.00000    0.02407    0.02732 =
         0.02139    0.00422    0.00558    0.00807
H4    2   -0.250674    0.824431    0.020506    11.00000    0.03077
C5    1    0.046057    0.730403    0.111288    11.00000    0.02178    0.02348 =
         0.02048    0.00202    0.00582    0.00405
H5    2   -0.044394    0.646106    0.060491    11.00000    0.03413
C6    1    0.296452    0.743251    0.206522    11.00000    0.02008    0.01982 =
         0.01967    0.00217    0.00774    0.00620
C7    1    0.551692    0.602214    0.317134    11.00000    0.02019    0.01781 =
         0.01995    0.00185    0.00525    0.00023
C8    1    0.547585    0.688402    0.441303    11.00000    0.02566    0.02137 =
         0.01836    0.00277    0.00801    0.00509
H8A   2    0.608826    0.648197    0.513016    11.00000    0.02202
H8B   2    0.342637    0.708429    0.439076    11.00000    0.02915
C9    1    0.763061    0.814997    0.458035    11.00000    0.02515    0.01969 =
         0.01655   -0.00087    0.00893    0.00668
C10   1    0.688011    0.498005    0.314482    11.00000    0.02347    0.01971 =
         0.02092    0.00397    0.00434    0.00493
H10   2    0.784130    0.483399    0.393724    11.00000    0.02153
C11   1    0.700870    0.411514    0.199234    11.00000    0.02215    0.01913 =
         0.02334    0.00393    0.00396    0.00287
C12   1    0.858545    0.301919    0.210272    11.00000    0.03568    0.02327 =
         0.02557    0.00493    0.00593    0.01234
H12A  2    0.870732    0.279974    0.292286    11.00000    0.05471
H12B  2    0.759085    0.228369    0.140324    11.00000    0.05894
H12C  2    1.061282    0.326493    0.199619    11.00000    0.06100
HKLF 5
REM  jtm814_4_a.res in P-1
REM R1 =  0.0902 for   19750 Fo > 4sig(Fo)  and  0.1079 for all   26238 data
REM    195 parameters refined using      0 restraints
END
WGHT      0.0475      1.0319
REM Highest difference peak  0.338,  deepest hole -0.363,  1-sigma level  0.076
Q1    1   0.6565  0.8614  0.4372  11.00000  0.05    0.34
Q2    1   0.7668  0.8393  0.4067  11.00000  0.05    0.33
Q3    1   0.4003  0.5961  0.2718  11.00000  0.05    0.33
Q4    1   0.5768  0.7569  0.4186  11.00000  0.05    0.33
Q5    1   0.7576  0.3588  0.2086  11.00000  0.05    0.32
;
_shelx_res_checksum              73654
loop_
_space_group_symop_operation_xyz
'x, y, z'
'-x, -y, -z'
loop_
_atom_site_type_symbol
_atom_site_label
_atom_site_fract_x
_atom_site_fract_y
_atom_site_fract_z
_atom_site_U_iso_or_equiv
_atom_site_adp_type
_atom_site_calc_flag
_atom_site_occupancy
O O1 0.9985(6) 0.8467(3) 0.5387(3) 0.0245(7) Uani d 1
O O2 0.5860(6) 0.4238(3) 0.0933(3) 0.0260(7) Uani d 1
N N1 0.4186(7) 0.6333(3) 0.2127(3) 0.0211(7) Uani d 1
H H1A 0.412(12) 0.586(5) 0.141(5) 0.042(15) Uiso d 1
N N2 0.6861(7) 0.8902(3) 0.3797(3) 0.0208(7) Uani d 1
H H2A 0.816(13) 0.965(6) 0.395(5) 0.053(17) Uiso d 1
C C1 0.4276(8) 0.8655(4) 0.2830(4) 0.0196(8) Uani d 1
C C2 0.3141(9) 0.9716(4) 0.2584(4) 0.0228(8) Uani d 1
H H2 0.412(10) 1.056(5) 0.312(4) 0.024(11) Uiso d 1
C C3 0.0710(9) 0.9579(4) 0.1619(4) 0.0243(9) Uani d 1
H H3 0.002(11) 1.031(5) 0.145(5) 0.035(13) Uiso d 1
C C4 -0.0668(9) 0.8358(4) 0.0887(4) 0.0240(9) Uani d 1
H H4 -0.251(10) 0.824(5) 0.021(4) 0.031(12) Uiso d 1
C C5 0.0461(9) 0.7304(4) 0.1113(4) 0.0222(8) Uani d 1
H H5 -0.044(11) 0.646(5) 0.060(5) 0.034(13) Uiso d 1
C C6 0.2965(8) 0.7433(4) 0.2065(4) 0.0195(8) Uani d 1
C C7 0.5517(8) 0.6022(4) 0.3171(4) 0.0200(8) Uani d 1
C C8 0.5476(9) 0.6884(4) 0.4413(4) 0.0216(8) Uani d 1
H H8A 0.609(9) 0.648(4) 0.513(4) 0.022(11) Uiso d 1
H H8B 0.343(11) 0.708(5) 0.439(4) 0.029(12) Uiso d 1
C C9 0.7631(9) 0.8150(4) 0.4580(4) 0.0204(8) Uani d 1
C C10 0.6880(9) 0.4980(4) 0.3145(4) 0.0214(8) Uani d 1
H H10 0.784(9) 0.483(4) 0.394(4) 0.022(11) Uiso d 1
C C11 0.7009(9) 0.4115(4) 0.1992(4) 0.0219(8) Uani d 1
C C12 0.8585(11) 0.3019(4) 0.2103(4) 0.0275(9) Uani d 1
H H12A 0.871(13) 0.280(6) 0.292(6) 0.055(17) Uiso d 1
H H12B 0.759(13) 0.228(6) 0.140(6) 0.059(18) Uiso d 1
H H12C 1.061(14) 0.326(6) 0.200(6) 0.061(18) Uiso d 1
loop_
_atom_site_aniso_label
_atom_site_aniso_U_11
_atom_site_aniso_U_22
_atom_site_aniso_U_33
_atom_site_aniso_U_12
_atom_site_aniso_U_13
_atom_site_aniso_U_23
O1 0.0277(15) 0.0222(14) 0.0211(15) 0.0053(12) 0.0020(11) 0.0007(11)
O2 0.0316(16) 0.0233(15) 0.0218(15) 0.0096(12) 0.0024(12) 0.0010(12)
N1 0.0251(17) 0.0188(16) 0.0183(17) 0.0053(13) 0.0046(13) 0.0006(13)
N2 0.0224(17) 0.0182(16) 0.0207(17) 0.0035(13) 0.0047(13) 0.0015(13)
C1 0.0212(18) 0.0203(18) 0.0179(18) 0.0049(15) 0.0074(14) 0.0025(14)
C2 0.027(2) 0.0208(19) 0.022(2) 0.0058(16) 0.0095(16) 0.0015(16)
C3 0.030(2) 0.023(2) 0.025(2) 0.0127(17) 0.0105(16) 0.0066(16)
C4 0.024(2) 0.027(2) 0.021(2) 0.0081(16) 0.0056(16) 0.0042(16)
C5 0.0218(19) 0.023(2) 0.020(2) 0.0041(16) 0.0058(15) 0.0020(16)
C6 0.0201(18) 0.0198(18) 0.0197(19) 0.0062(14) 0.0077(14) 0.0022(15)
C7 0.0202(18) 0.0178(18) 0.0200(19) 0.0002(14) 0.0052(15) 0.0018(15)
C8 0.026(2) 0.0214(19) 0.0184(19) 0.0051(16) 0.0080(15) 0.0028(15)
C9 0.0251(19) 0.0197(18) 0.0166(18) 0.0067(15) 0.0089(15) -0.0009(14)
C10 0.0235(19) 0.0197(18) 0.021(2) 0.0049(15) 0.0043(15) 0.0040(15)
C11 0.0222(19) 0.0191(18) 0.023(2) 0.0029(15) 0.0040(15) 0.0039(15)
C12 0.036(2) 0.023(2) 0.026(2) 0.0123(18) 0.0059(18) 0.0049(17)
loop_
_atom_type_symbol
_atom_type_description
_atom_type_scat_dispersion_real
_atom_type_scat_dispersion_imag
_atom_type_scat_source
C C 0.0033 0.0016 'International Tables Vol C Tables 4.2.6.8 and 6.1.1.4'
H H 0.0000 0.0000 'International Tables Vol C Tables 4.2.6.8 and 6.1.1.4'
N N 0.0061 0.0033 'International Tables Vol C Tables 4.2.6.8 and 6.1.1.4'
O O 0.0106 0.0060 'International Tables Vol C Tables 4.2.6.8 and 6.1.1.4'
loop_
_geom_angle_atom_site_label_1
_geom_angle_atom_site_label_2
_geom_angle_atom_site_label_3
_geom_angle
C7 N1 C6 127.0(3)
C7 N1 H1A 119(4)
C6 N1 H1A 114(4)
C9 N2 C1 127.9(3)
C9 N2 H2A 113(4)
C1 N2 H2A 119(4)
C2 C1 C6 119.5(4)
C2 C1 N2 116.7(3)
C6 C1 N2 123.6(3)
C3 C2 C1 121.0(4)
C3 C2 H2 121(3)
C1 C2 H2 118(3)
C2 C3 C4 119.5(4)
C2 C3 H3 120(3)
C4 C3 H3 121(3)
C5 C4 C3 119.9(4)
C5 C4 H4 120(3)
C3 C4 H4 120(3)
C4 C5 C6 121.2(4)
C4 C5 H5 121(3)
C6 C5 H5 118(3)
C5 C6 C1 118.7(4)
C5 C6 N1 117.3(3)
C1 C6 N1 123.8(3)
N1 C7 C10 123.5(4)
N1 C7 C8 116.2(4)
C10 C7 C8 120.3(4)
C7 C8 C9 109.8(3)
C7 C8 H8A 111(3)
C9 C8 H8A 109(2)
C7 C8 H8B 109(3)
C9 C8 H8B 106(3)
H8A C8 H8B 112(4)
O1 C9 N2 122.0(4)
O1 C9 C8 121.6(4)
N2 C9 C8 116.4(3)
C7 C10 C11 123.3(4)
C7 C10 H10 119(3)
C11 C10 H10 118(3)
O2 C11 C10 122.4(4)
O2 C11 C12 119.9(4)
C10 C11 C12 117.7(4)
C11 C12 H12A 114(4)
C11 C12 H12B 109(4)
H12A C12 H12B 112(5)
C11 C12 H12C 109(4)
H12A C12 H12C 106(5)
H12B C12 H12C 107(5)
loop_
_geom_bond_atom_site_label_1
_geom_bond_atom_site_label_2
_geom_bond_distance
O1 C9 1.236(5)
O2 C11 1.242(4)
N1 C7 1.343(5)
N1 C6 1.412(5)
N1 H1A 0.85(6)
N2 C9 1.344(5)
N2 C1 1.412(5)
N2 H2A 0.89(6)
C1 C2 1.399(5)
C1 C6 1.405(5)
C2 C3 1.379(6)
C2 H2 0.98(5)
C3 C4 1.397(6)
C3 H3 0.95(5)
C4 C5 1.383(6)
C4 H4 1.01(5)
C5 C6 1.395(5)
C5 H5 0.96(5)
C7 C10 1.382(6)
C7 C8 1.503(5)
C8 C9 1.511(5)
C8 H8A 1.00(4)
C8 H8B 1.00(5)
C10 C11 1.440(6)
C10 H10 0.97(4)
C11 C12 1.509(6)
C12 H12A 0.97(6)
C12 H12B 0.98(6)
C12 H12C 0.95(6)
loop_
_geom_hbond_atom_site_label_D
_geom_hbond_atom_site_label_H
_geom_hbond_atom_site_label_A
_geom_hbond_site_symmetry_A
_geom_hbond_distance_DH
_geom_hbond_distance_HA
_geom_hbond_distance_DA
_geom_hbond_angle_DHA
N1 H1A O2 . 0.85(6) 2.06(6) 2.693(5) 131(5)
N1 H1A O2 2_665 0.85(6) 2.55(5) 3.291(5) 146(5)
N2 H2A O1 2_776 0.89(6) 2.02(6) 2.876(4) 161(6)
C8 H8B O1 1_455 1.00(5) 2.58(5) 3.469(5) 149(4)
C12 H12A O1 2_766 0.97(6) 2.57(6) 3.483(5) 157(5)
loop_
_geom_torsion_atom_site_label_1
_geom_torsion_atom_site_label_2
_geom_torsion_atom_site_label_3
_geom_torsion_atom_site_label_4
_geom_torsion
C9 N2 C1 C2 148.6(4)
C9 N2 C1 C6 -36.0(6)
C6 C1 C2 C3 1.4(6)
N2 C1 C2 C3 177.0(3)
C1 C2 C3 C4 0.9(6)
C2 C3 C4 C5 -1.7(6)
C3 C4 C5 C6 0.1(6)
C4 C5 C6 C1 2.2(6)
C4 C5 C6 N1 -172.4(3)
C2 C1 C6 C5 -3.0(5)
N2 C1 C6 C5 -178.2(3)
C2 C1 C6 N1 171.3(3)
N2 C1 C6 N1 -4.0(6)
C7 N1 C6 C5 -147.5(4)
C7 N1 C6 C1 38.2(6)
C6 N1 C7 C10 -174.5(4)
C6 N1 C7 C8 5.3(5)
N1 C7 C8 C9 -72.2(4)
C10 C7 C8 C9 107.6(4)
C1 N2 C9 O1 179.2(4)
C1 N2 C9 C8 -0.1(6)
C7 C8 C9 O1 -111.1(4)
C7 C8 C9 N2 68.3(5)
N1 C7 C10 C11 -0.2(6)
C8 C7 C10 C11 -179.9(3)
C7 C10 C11 O2 -0.9(6)
C7 C10 C11 C12 179.7(4)

_cod_database_fobs_code 1546588
