#------------------------------------------------------------------------------
#$Date: 2017-07-25 05:23:45 +0300 (Tue, 25 Jul 2017) $
#$Revision: 199001 $
#$URL: file:///home/coder/svn-repositories/cod/cif/1/54/66/1546614.cif $
#------------------------------------------------------------------------------
#
# This file is available in the Crystallography Open Database (COD),
# http://www.crystallography.net/
#
# All data on this site have been placed in the public domain by the
# contributors.
#
data_1546614
loop_
_publ_author_name
'Chang, Jian'
'Xu, Cong'
'Gao, Jie'
'Gao, Fengyun'
'Zhu, Dongsheng'
'Wang, Mang'
_publ_section_title
;
 Me3SiCF2Br-Self-Assisted Domino Reaction: Catalytic Synthesis of
 \a,\a-Difluorocyclopentanones from Methylvinylketones.
;
_journal_name_full               'Organic letters'
_journal_paper_doi               10.1021/acs.orglett.7b00611
_journal_year                    2017
_chemical_formula_sum            'C18 H14 F2 O2'
_chemical_formula_weight         300.29
_space_group_crystal_system      triclinic
_space_group_IT_number           2
_space_group_name_Hall           '-P 1'
_space_group_name_H-M_alt        'P -1'
_symmetry_space_group_name_Hall  '-P 1'
_symmetry_space_group_name_H-M   'P -1'
_atom_sites_solution_hydrogens   mixed
_audit_creation_method           SHELXL-2014/7
_cell_angle_alpha                77.172(5)
_cell_angle_beta                 75.946(5)
_cell_angle_gamma                79.191(5)
_cell_formula_units_Z            2
_cell_length_a                   6.572(5)
_cell_length_b                   9.090(5)
_cell_length_c                   12.884(5)
_cell_measurement_reflns_used    1785
_cell_measurement_temperature    293(2)
_cell_measurement_theta_max      27.1305
_cell_measurement_theta_min      2.314
_cell_volume                     720.7(7)
_computing_cell_refinement       'Bruker SAINT v8.34a'
_computing_data_collection       'Bruker APEX 2'
_computing_data_reduction        'Bruker SAINT v8.34a'
_computing_molecular_graphics    'Bruker SHELXTL'
_computing_publication_material  'Bruker SHELXTL & local programs'
_computing_structure_refinement  'SHELXL-2014/7 (Sheldrick, 2014)'
_computing_structure_solution    'Bruker SHELXTL 2014/4'
_diffrn_ambient_temperature      293(2)
_diffrn_detector_area_resol_mean 0.01
_diffrn_measured_fraction_theta_full 0.998
_diffrn_measured_fraction_theta_max 0.988
_diffrn_measurement_device_type  'Bruker Smart Apex II CCD'
_diffrn_measurement_method       \w-2\q
_diffrn_radiation_type           MoK\a
_diffrn_radiation_wavelength     0.71069
_diffrn_reflns_av_R_equivalents  0.0210
_diffrn_reflns_av_unetI/netI     0.0398
_diffrn_reflns_Laue_measured_fraction_full 0.998
_diffrn_reflns_Laue_measured_fraction_max 0.988
_diffrn_reflns_limit_h_max       8
_diffrn_reflns_limit_h_min       -7
_diffrn_reflns_limit_k_max       11
_diffrn_reflns_limit_k_min       -12
_diffrn_reflns_limit_l_max       16
_diffrn_reflns_limit_l_min       -17
_diffrn_reflns_number            5378
_diffrn_reflns_point_group_measured_fraction_full 0.998
_diffrn_reflns_point_group_measured_fraction_max 0.988
_diffrn_reflns_theta_full        25.240
_diffrn_reflns_theta_max         28.341
_diffrn_reflns_theta_min         2.321
_diffrn_source                   'fine-focus sealed tube'
_exptl_absorpt_coefficient_mu    0.106
_exptl_absorpt_correction_T_max  0.9749
_exptl_absorpt_correction_T_min  0.9728
_exptl_absorpt_correction_type   multi-scan
_exptl_absorpt_process_details   'SADABS 2014/4 Bruker AXS Madison WI USA'
_exptl_crystal_colour            colorless
_exptl_crystal_density_diffrn    1.384
_exptl_crystal_description       block
_exptl_crystal_F_000             312
_exptl_crystal_size_max          0.260
_exptl_crystal_size_mid          0.240
_exptl_crystal_size_min          0.240
_refine_diff_density_max         0.318
_refine_diff_density_min         -0.493
_refine_diff_density_rms         0.107
_refine_ls_extinction_method     none
_refine_ls_goodness_of_fit_ref   1.046
_refine_ls_hydrogen_treatment    constr
_refine_ls_matrix_type           full
_refine_ls_number_parameters     199
_refine_ls_number_reflns         3558
_refine_ls_number_restraints     0
_refine_ls_restrained_S_all      1.046
_refine_ls_R_factor_all          0.0846
_refine_ls_R_factor_gt           0.0592
_refine_ls_shift/su_max          0.000
_refine_ls_shift/su_mean         0.000
_refine_ls_structure_factor_coef Fsqd
_refine_ls_weighting_details
'w=1/[\s^2^(Fo^2^)+(0.1132P)^2^] where P=(Fo^2^+2Fc^2^)/3'
_refine_ls_weighting_scheme      calc
_refine_ls_wR_factor_gt          0.1626
_refine_ls_wR_factor_ref         0.1839
_reflns_Friedel_coverage         0.000
_reflns_number_gt                2386
_reflns_number_total             3558
_reflns_threshold_expression     'I > 2\s(I)'
_cod_data_source_file            ol7b00611_si_002.cif
_cod_data_source_block           2
_cod_database_code               1546614
_shelx_shelxl_version_number     2014/7
_shelx_space_group_comment
;
The symmetry employed for this shelxl refinement is uniquely defined
by the following loop, which should always be used as a source of
symmetry information in preference to the above space-group names.
They are only intended as comments.
;
_shelx_estimated_absorpt_t_min   0.973
_shelx_estimated_absorpt_t_max   0.975
_shelx_res_file
;

    2.res created by SHELXL-2014/7


TITL 2 in P-1
CELL  0.71069   6.5720   9.0900  12.8840   77.172   75.946   79.191
ZERR     2.00   0.0050   0.0050   0.0050    0.005    0.005    0.005
LATT   1
SFAC  C    O    F    H
UNIT  36   4    4   28
MERG   2
FMAP   2
PLAN   5
ACTA
SIZE 0.26 0.24 0.24
LIST   1
L.S.   10
WGHT    0.113200
FVAR       0.41399
C1    1   -0.220004    0.214029    0.847246    11.00000    0.04820    0.04750 =
         0.05483   -0.01577   -0.01215   -0.00281
AFIX  43
H1A   4   -0.086795    0.162996    0.855677    11.00000   -1.20000
AFIX   0
O1    2    0.314642   -0.009061    0.616186    11.00000    0.03647    0.07554 =
         0.07858   -0.01711   -0.00404    0.00241
F1    3   -0.088212   -0.150653    0.973258    11.00000    0.11750    0.10301 =
         0.05771   -0.01046   -0.03219   -0.03015
C2    1   -0.295187    0.348015    0.885916    11.00000    0.07407    0.04963 =
         0.05882   -0.01999   -0.00950   -0.00922
AFIX  43
H2A   4   -0.213806    0.385655    0.921161    11.00000   -1.20000
AFIX   0
O2    2    0.255686   -0.206660    0.784105    11.00000    0.05247    0.06865 =
         0.09340   -0.00827   -0.03032    0.01058
AFIX   3
H1WA  4    0.315742   -0.205037    0.717935    11.00000   -1.20000
AFIX   0
F2    3   -0.080888   -0.356939    0.913821    11.00000    0.09961    0.04422 =
         0.11392    0.01082   -0.02341   -0.00941
C3    1   -0.489384    0.425727    0.872522    11.00000    0.08797    0.04732 =
         0.04929   -0.01424   -0.00330    0.01225
AFIX  43
H3A   4   -0.539192    0.516976    0.897561    11.00000   -1.20000
AFIX   0
C4    1   -0.609735    0.368811    0.822267    11.00000    0.06273    0.07262 =
         0.06447   -0.01951   -0.01375    0.02727
AFIX  43
H4A   4   -0.742244    0.421021    0.813576    11.00000   -1.20000
AFIX   0
C5    1   -0.534896    0.233210    0.784095    11.00000    0.04669    0.07269 =
         0.06156   -0.02336   -0.01720    0.00904
AFIX  43
H5A   4   -0.618094    0.195373    0.749976    11.00000   -1.20000
AFIX   0
C6    1   -0.339369    0.154019    0.796034    11.00000    0.03724    0.04420 =
         0.03782   -0.00902   -0.00369   -0.00154
C7    1   -0.107405   -0.202651    0.884401    11.00000    0.07324    0.03993 =
         0.06052   -0.00276   -0.02452   -0.00852
C8    1   -0.312158   -0.136682    0.851309    11.00000    0.05361    0.04944 =
         0.06591   -0.00658   -0.00810   -0.01483
AFIX  23
H8A   4   -0.416667   -0.103934    0.912186    11.00000   -1.20000
H8B   4   -0.366110   -0.211306    0.825716    11.00000   -1.20000
AFIX   0
C9    1   -0.263086    0.002412    0.757735    11.00000    0.03587    0.04429 =
         0.04686   -0.01221   -0.01119   -0.00458
AFIX  13
H9A   4   -0.333420    0.000267    0.699272    11.00000   -1.20000
AFIX   0
C10   1   -0.025682   -0.030202    0.717325    11.00000    0.03512    0.04183 =
         0.04755   -0.01636   -0.01247    0.00004
C11   1    0.061777   -0.149442    0.789387    11.00000    0.04675    0.04438 =
         0.06349   -0.01525   -0.02133   -0.00038
C12   1    0.114415    0.042183    0.626875    11.00000    0.03777    0.04800 =
         0.05102   -0.02097   -0.00781   -0.00038
C13   1    0.060782    0.172415    0.542381    11.00000    0.04929    0.04980 =
         0.04054   -0.01703   -0.00444   -0.00745
C14   1   -0.144146    0.229491    0.528176    11.00000    0.05632    0.06419 =
         0.04626   -0.01034   -0.00976   -0.00411
AFIX  43
H14A  4   -0.258049    0.184989    0.573933    11.00000   -1.20000
AFIX   0
C15   1   -0.179060    0.352032    0.446349    11.00000    0.08103    0.07148 =
         0.05650   -0.00725   -0.02373   -0.00326
AFIX  43
H15A  4   -0.316557    0.388755    0.436921    11.00000   -1.20000
AFIX   0
C16   1   -0.012958    0.420495    0.378579    11.00000    0.11753    0.06808 =
         0.05295    0.00095   -0.02408   -0.02474
AFIX  43
H16A  4   -0.038080    0.504469    0.324700    11.00000   -1.20000
AFIX   0
C17   1    0.191483    0.363463    0.391226    11.00000    0.09692    0.09105 =
         0.05895    0.00219   -0.00774   -0.04175
AFIX  43
H17A  4    0.304598    0.408409    0.345024    11.00000   -1.20000
AFIX   0
C18   1    0.228495    0.240800    0.471639    11.00000    0.06141    0.07592 =
         0.05810   -0.01080   -0.00428   -0.01858
AFIX  43
H18A  4    0.366826    0.202804    0.479093    11.00000   -1.20000

AFIX   0
HKLF    4

REM  2 in P-1
REM R1 =  0.0592 for    2386 Fo > 4sig(Fo)  and  0.0846 for all    3558 data
REM    199 parameters refined using      0 restraints

END

WGHT      0.1194      0.0000

REM Highest difference peak  0.318,  deepest hole -0.493,  1-sigma level  0.107
Q1    1  -0.3170  0.0221  0.6009  11.00000  0.05    0.32
Q2    1  -0.5192  0.6692  0.9280  11.00000  0.05    0.28
Q3    1  -0.6043 -0.2406  0.8825  11.00000  0.05    0.28
Q4    1   0.2788 -0.1422  0.8752  11.00000  0.05    0.27
Q5    1  -0.4336  0.1181  0.5924  11.00000  0.05    0.26
;
_shelx_res_checksum              92496
_shelx_hkl_file
;
   1   0   0  192.14    5.50
   2   0   0   47.43    1.38
   2   0   0   46.90    1.32
  -3   0   0   27.27    0.77
   3   0   0   27.72    0.87
   4   0   0    4.95    0.28
   5   0   0   24.72    0.87
   6   0   0    0.32    0.17
   7   0   0    0.15    0.17
   8   0   0   -0.05    0.15
   8  -1   0    0.40    0.20
   7  -1   0    0.33    0.19
   6  -1   0   -0.03    0.14
   5  -1   0    5.84    0.35
   4  -1   0    0.85    0.18
   4  -1   0    0.69    0.06
   3  -1   0  373.31   10.71
   3  -1   0  389.25   10.89
   2  -1   0    3.50    0.19
   2  -1   0    3.77    0.13
   1  -1   0   28.08    0.82
   1  -1   0   28.12    0.81
   0  -1   0  206.89    5.77
   0  -1   0  200.88    5.70
   0   1   0  202.40    5.78
  -1  -1   0   60.59    1.72
   1   1   0   61.26    1.73
   1   1   0   62.50    1.73
  -2  -1   0  116.42    3.30
   2   1   0  117.24    3.30
  -3  -1   0   18.76    0.52
   3   1   0   17.03    0.59
   4   1   0    2.76    0.20
   5   1   0   26.81    0.92
   6   1   0   -0.01    0.15
   7   1   0    0.36    0.13
   7   1   0    0.25    0.15
   8   1   0    0.19    0.13
   8   1   0    0.00    0.17
   8  -2   0    0.27    0.22
   7  -2   0    3.57    0.36
   6  -2   0   -0.14    0.14
   5  -2   0    1.66    0.23
   4  -2   0    0.97    0.19
   4  -2   0    1.05    0.09
   3  -2   0   60.82    1.76
   3  -2   0   63.07    1.84
   2  -2   0   61.97    1.76
   2  -2   0   61.77    1.80
   1  -2   0   18.06    0.52
   1  -2   0   16.24    0.52
   0  -2   0  170.43    4.70
   0  -2   0  165.85    4.65
   0   2   0  162.29    4.76
  -1  -2   0    6.25    0.24
   1   2   0    6.73    0.20
   1   2   0    7.31    0.24
  -2  -2   0    9.60    0.30
   2   2   0    9.18    0.30
   2   2   0    8.80    0.31
  -3  -2   0   36.34    1.00
   3   2   0   33.52    1.04
   3   2   0   33.79    1.04
  -4  -2   0    0.43    0.05
   4   2   0    0.59    0.12
   4   2   0    0.34    0.09
   5   2   0    1.36    0.19
   5   2   0    1.19    0.15
   6   2   0   12.39    0.50
   6   2   0   11.65    0.51
   7   2   0    1.24    0.21
   7   2   0    1.18    0.17
   8   2   0    0.26    0.14
   8   2   0   -0.07    0.16
   7  -3   0    0.45    0.21
   6  -3   0    1.66    0.25
   5  -3   0   -0.06    0.17
   4  -3   0   -0.02    0.15
   4  -3   0    0.10    0.07
   3  -3   0    0.33    0.13
   3  -3   0    0.65    0.09
   2  -3   0    0.13    0.10
   2  -3   0    0.07    0.06
   1  -3   0   12.19    0.41
   1  -3   0   12.97    0.42
   0  -3   0    2.79    0.17
   0  -3   0    2.93    0.12
   0   3   0    2.91    0.16
  -1  -3   0   57.31    1.69
   1   3   0   57.94    1.69
   1   3   0   60.76    1.66
  -2  -3   0   93.86    2.79
   2   3   0  103.32    2.81
   2   3   0   99.07    2.77
  -3  -3   0    0.23    0.07
   3   3   0    0.14    0.07
   3   3   0    0.08    0.06
  -4  -3   0    0.19    0.06
   4   3   0    0.00    0.08
   4   3   0    0.16    0.09
   5   3   0    2.67    0.23
   5   3   0    2.89    0.25
   6   3   0    0.83    0.16
   6   3   0    0.50    0.14
   7   3   0    5.40    0.34
   7   3   0    6.04    0.37
   8   3   0   -0.02    0.13
   8   3   0   -0.09    0.12
   7  -4   0    0.71    0.23
   6  -4   0    0.22    0.18
   5  -4   0   -0.01    0.16
   4  -4   0   11.14    0.51
   4  -4   0   10.81    0.40
   3  -4   0    9.27    0.42
   3  -4   0    9.42    0.36
   2  -4   0    9.36    0.35
   2  -4   0    9.47    0.38
   1  -4   0    0.55    0.11
   1  -4   0    0.63    0.10
   0  -4   0   23.11    0.76
   0  -4   0   24.51    0.70
   0   4   0   24.16    0.76
  -1  -4   0   54.80    1.63
   1   4   0   56.43    1.63
  -2  -4   0   40.21    1.20
   2   4   0   40.04    1.14
   2   4   0   40.31    1.20
  -3  -4   0    1.88    0.14
   3   4   0    1.79    0.17
   3   4   0    1.88    0.11
  -4  -4   0   26.07    0.75
   4   4   0   23.79    0.81
   4   4   0   23.53    0.77
   5   4   0    0.00    0.10
   5   4   0   -0.01    0.12
   6   4   0    1.47    0.20
   6   4   0    1.74    0.20
   7   4   0    1.68    0.21
   7   4   0    1.92    0.23
   8   4   0    1.73    0.23
   8   4   0    1.57    0.23
   7  -5   0    0.53    0.22
   6  -5   0    0.91    0.22
   5  -5   0    0.41    0.19
   4  -5   0    3.55    0.22
   4  -5   0    4.20    0.31
   3  -5   0    0.43    0.17
   3  -5   0    0.62    0.13
   2  -5   0    8.08    0.35
   1  -5   0    1.60    0.16
   1  -5   0    1.72    0.15
   0  -5   0  337.07    9.49
   0  -5   0  338.51    9.49
   0   5   0  339.29    9.49
  -1  -5   0   18.58    0.51
  -1  -5   0   16.57    0.60
   1   5   0   17.36    0.60
  -2  -5   0    0.41    0.11
   2   5   0    0.70    0.12
   3   5   0    7.81    0.34
   3   5   0    7.70    0.26
  -4  -5   0    8.42    0.32
   4   5   0    7.38    0.36
   4   5   0    7.50    0.29
   5   5   0    0.55    0.14
   5   5   0    0.63    0.12
   6   5   0    0.76    0.14
   6   5   0    0.56    0.16
   7   5   0   -0.16    0.14
   8   5   0    0.22    0.19
   6  -6   0    0.46    0.20
   5  -6   0    0.99    0.23
   4  -6   0    0.04    0.11
   4  -6   0   -0.10    0.17
   3  -6   0  101.11    2.92
   3  -6   0   99.77    2.96
   2  -6   0    0.22    0.14
   2  -6   0    0.11    0.13
   1  -6   0    5.71    0.27
   1  -6   0    5.85    0.31
   0  -6   0   62.96    1.75
   0  -6   0   58.63    1.81
  -1  -6   0   26.76    0.91
  -1  -6   0   28.54    0.80
   1   6   0   28.24    0.91
  -2  -6   0   23.67    0.81
   2   6   0   24.97    0.82
  -3  -6   0    2.81    0.23
   3   6   0    3.21    0.24
  -4  -6   0    4.74    0.25
   4   6   0    4.64    0.30
   5   6   0    7.70    0.42
   6   6   0    1.35    0.22
   7   6   0   -0.04    0.15
   6  -7   0    1.58    0.28
   5  -7   0    2.20    0.29
   4  -7   0    1.89    0.26
   4  -7   0    1.73    0.20
   3  -7   0   22.51    0.83
   3  -7   0   23.08    0.80
   2  -7   0   25.52    0.87
   2  -7   0   25.16    0.86
   1  -7   0    5.37    0.28
   1  -7   0    5.74    0.33
   0  -7   0    2.36    0.24
  -1  -7   0    0.09    0.15
   1   7   0    0.34    0.15
  -2  -7   0    1.64    0.20
   2   7   0    1.91    0.20
  -3  -7   0    1.78    0.19
   3   7   0    1.57    0.19
   4   7   0   -0.02    0.14
   5   7   0    1.42    0.20
   6   7   0    0.63    0.20
   7   7   0   -0.05    0.16
   5  -8   0    0.49    0.21
   4  -8   0    0.39    0.15
   3  -8   0    0.18    0.15
   2  -8   0    0.06    0.14
   1  -8   0    0.41    0.17
   0  -8   0    6.77    0.41
  -1  -8   0    3.07    0.29
   1   8   0    2.94    0.27
  -2  -8   0   10.42    0.50
   2   8   0   10.96    0.49
  -3  -8   0    3.70    0.28
   3   8   0    4.53    0.34
  -4  -8   0    0.31    0.14
   4   8   0    0.16    0.15
   5   8   0    0.32    0.18
   6   8   0   -0.17    0.18
   7   8   0   -0.25    0.18
   4  -9   0    0.74    0.18
   3  -9   0    0.42    0.18
   2  -9   0    1.90    0.24
   1  -9   0   -0.03    0.16
   0  -9   0    4.12    0.36
  -1  -9   0    3.03    0.30
   1   9   0    3.08    0.29
  -2  -9   0    7.29    0.43
   2   9   0    7.72    0.45
  -3  -9   0    0.84    0.21
   3   9   0    0.54    0.18
  -4  -9   0    2.57    0.25
   4   9   0    1.91    0.25
   5   9   0    0.78    0.23
   6   9   0    0.30    0.20
   3 -10   0    0.16    0.16
   2 -10   0    1.48    0.24
   1 -10   0    1.88    0.26
   0 -10   0    3.70    0.35
  -1 -10   0    0.02    0.18
  -2 -10   0   -0.08    0.19
   2  10   0   -0.05    0.19
  -3 -10   0   -0.02    0.19
   3  10   0   -0.08    0.20
  -4 -10   0    0.10    0.15
   4  10   0   -0.03    0.18
   5  10   0    0.38    0.22
   2 -11   0    0.25    0.21
   1 -11   0    0.22    0.22
   0 -11   0    0.23    0.23
  -1 -11   0   -0.04    0.20
  -2 -11   0    0.04    0.22
   2  11   0    0.29    0.19
  -3 -11   0    0.67    0.24
   3  11   0    0.61    0.22
  -4 -11   0    0.33    0.18
   4  11   0    0.17    0.21
   3  11  -1    0.11    0.25
  -3 -11   1   -0.07    0.18
   2  11  -1    1.27    0.25
  -2 -11   1    0.91    0.26
  -1 -11   1    0.12    0.20
   0 -11   1    0.39    0.22
   1 -11   1    0.04    0.22
   5  10  -1    1.53    0.31
   4  10  -1    0.19    0.23
  -4 -10   1    0.44    0.18
   3  10  -1   -0.01    0.18
  -3 -10   1    0.03    0.18
   2  10  -1    0.50    0.20
  -2 -10   1    0.40    0.20
  -1 -10   1    0.14    0.18
   0 -10   1    0.00    0.19
   1 -10   1    0.65    0.21
   2 -10   1    1.39    0.24
   3 -10   1   -0.06    0.17
   6   9  -1    0.10    0.19
   5   9  -1    0.24    0.19
   4   9  -1    0.12    0.17
  -4  -9   1    0.22    0.15
   3   9  -1    0.25    0.20
  -3  -9   1    0.22    0.17
   2   9  -1    3.06    0.28
  -2  -9   1    3.55    0.32
   1   9  -1    2.81    0.28
  -1  -9   1    2.35    0.28
   0  -9   1    1.65    0.25
   1  -9   1    1.09    0.23
   2  -9   1    0.25    0.19
   3  -9   1    0.15    0.17
   4  -9   1    0.69    0.18
   6   8  -1    0.06    0.17
   5   8  -1   -0.13    0.15
   4   8  -1    3.45    0.32
  -4  -8   1    3.94    0.26
   3   8  -1   12.14    0.56
  -3  -8   1   13.61    0.54
   2   8  -1   20.62    0.76
  -2  -8   1   19.68    0.75
   1   8  -1    8.97    0.45
  -1  -8   1    8.50    0.43
   0  -8   1    0.27    0.16
   1  -8   1    0.16    0.16
   2  -8   1    0.16    0.16
   3  -8   1    0.85    0.17
   4  -8   1    0.13    0.14
   7   7  -1    0.01    0.16
   6   7  -1   -0.23    0.13
   5   7  -1    0.52    0.17
   4   7  -1    1.32    0.19
  -4  -7   1    1.60    0.17
   3   7  -1    3.46    0.28
  -3  -7   1    3.51    0.24
   2   7  -1    4.14    0.29
  -2  -7   1    4.16    0.30
   1   7  -1    0.09    0.14
  -1  -7   1    0.09    0.15
   0   7  -1    0.11    0.14
   0  -7   1    0.11    0.15
   1  -7   1    3.59    0.28
   2  -7   1   11.71    0.49
   2  -7   1   11.95    0.47
   3  -7   1    2.43    0.24
   3  -7   1    2.63    0.25
   4  -7   1    0.86    0.20
   4  -7   1    1.14    0.18
   5  -7   1    0.04    0.18
   6  -7   1    1.83    0.29
   7   6  -1   -0.01    0.16
   6   6  -1    0.04    0.13
   5   6  -1    0.60    0.16
   4   6  -1    0.29    0.13
  -4  -6   1    0.68    0.12
   3   6  -1    2.86    0.24
  -3  -6   1    2.97    0.23
   2   6  -1    1.94    0.19
  -2  -6   1    2.07    0.19
   1   6  -1   59.36    1.75
  -1  -6   1   57.07    1.75
   0   6  -1   10.01    0.44
   0  -6   1    9.75    0.44
   0  -6   1   10.37    0.32
   1  -6   1    3.99    0.21
   1  -6   1    4.73    0.28
   2  -6   1    0.53    0.14
   2  -6   1    0.68    0.17
   3  -6   1    6.60    0.33
   4  -6   1    0.13    0.12
   4  -6   1    0.28    0.17
   5  -6   1    0.94    0.21
   6  -6   1    0.61    0.23
   7   5  -1    1.12    0.21
   6   5  -1    0.11    0.15
   5   5  -1    6.24    0.35
   5   5  -1    6.35    0.28
   4   5  -1    0.03    0.07
   4   5  -1    0.18    0.12
  -4  -5   1    0.23    0.09
   3   5  -1   15.14    0.47
   3   5  -1   15.82    0.57
  -3  -5   1   15.77    0.53
   2   5  -1   29.29    0.92
  -2  -5   1   28.87    0.91
   1   5  -1    0.17    0.10
  -1  -5   1   -0.04    0.11
   0   5  -1   22.74    0.74
   0  -5   1   22.90    0.67
   0  -5   1   22.43    0.75
   1  -5   1   29.31    0.92
   1  -5   1   28.38    0.87
   2  -5   1   41.66    1.29
   2  -5   1   42.93    1.29
   3  -5   1    0.56    0.15
   3  -5   1    0.39    0.13
   4  -5   1    0.53    0.12
   4  -5   1    1.06    0.21
   5  -5   1    1.75    0.25
   6  -5   1    0.97    0.24
   7  -5   1    0.24    0.20
   8   4  -1    0.51    0.16
   7   4  -1    5.64    0.39
   7   4  -1    5.67    0.34
   6   4  -1    2.26    0.23
   6   4  -1    2.69    0.23
   5   4  -1   21.32    0.72
   5   4  -1   21.36    0.77
   4   4  -1    1.49    0.14
   4   4  -1    1.22    0.15
  -4  -4   1    1.41    0.13
   3   4  -1    4.84    0.20
   3   4  -1    4.96    0.27
  -3  -4   1    5.43    0.22
   2   4  -1   45.71    1.31
   2   4  -1   47.85    1.39
  -2  -4   1   46.03    1.36
   1   4  -1   75.42    2.13
  -1  -4   1   71.78    2.12
   0   4  -1  125.75    3.67
   0  -4   1  125.68    3.67
   0  -4   1  136.07    3.62
   1  -4   1    3.19    0.17
   1  -4   1    3.30    0.19
   2  -4   1    0.39    0.06
   2  -4   1    0.92    0.12
   3  -4   1   21.92    0.70
   3  -4   1   21.80    0.76
   4  -4   1   10.76    0.48
   4  -4   1   10.25    0.39
   5  -4   1    8.30    0.46
   6  -4   1    0.30    0.18
   7  -4   1    0.53    0.21
   8   3  -1    0.52    0.19
   8   3  -1    0.75    0.18
   7   3  -1    0.27    0.15
   7   3  -1    0.29    0.13
   6   3  -1    0.50    0.15
   6   3  -1    0.73    0.16
   5   3  -1   23.94    0.82
   5   3  -1   24.04    0.81
   4   3  -1    4.36    0.25
   4   3  -1    4.32    0.23
  -4  -3   1    4.39    0.17
   3   3  -1   14.83    0.52
   3   3  -1   14.97    0.49
  -3  -3   1   15.39    0.47
   2   3  -1  198.48    5.65
   2   3  -1  199.47    5.60
  -2  -3   1  199.15    5.67
   1   3  -1    1.83    0.12
   1   3  -1    1.86    0.06
  -1  -3   1    1.63    0.12
   0   3  -1   30.36    0.92
   0  -3   1   31.27    0.87
   0  -3   1   30.31    0.92
   1  -3   1   50.25    1.46
   1  -3   1   51.42    1.48
   2  -3   1    0.68    0.11
   2  -3   1    0.97    0.11
   3  -3   1    1.15    0.17
   3  -3   1    1.74    0.13
   4  -3   1    1.74    0.14
   4  -3   1    1.70    0.21
   5  -3   1    2.93    0.30
   6  -3   1    0.39    0.18
   7  -3   1    0.11    0.17
   8   2  -1    0.90    0.18
   8   2  -1    0.83    0.20
   7   2  -1    0.15    0.15
   7   2  -1    0.07    0.12
   6   2  -1    1.06    0.18
   6   2  -1    0.63    0.15
   5   2  -1   33.99    1.09
   5   2  -1   33.48    1.10
   4   2  -1    3.07    0.22
   4   2  -1    3.58    0.21
  -4  -2   1    3.16    0.11
   3   2  -1    0.56    0.10
   3   2  -1    0.43    0.09
  -3  -2   1    0.58    0.06
   2   2  -1    0.64    0.08
   2   2  -1    0.48    0.07
  -2  -2   1    0.76    0.07
   1   2  -1  132.92    3.82
   1   2  -1  137.44    3.82
   0   2  -1    6.45    0.23
   0  -2   1    6.12    0.23
   0  -2   1    6.37    0.19
   1  -2   1   26.55    0.85
   1  -2   1   31.56    0.86
   2  -2   1    0.70    0.08
   2  -2   1    0.63    0.10
   3  -2   1   12.84    0.41
   3  -2   1   12.80    0.48
   4  -2   1   10.30    0.34
   4  -2   1    9.94    0.44
   5  -2   1   12.31    0.54
   6  -2   1    5.86    0.38
   7  -2   1    0.38    0.17
   8  -2   1    0.09    0.19
   8   1  -1    0.36    0.19
   8   1  -1    0.01    0.13
   7   1  -1    0.17    0.15
   6   1  -1    2.82    0.28
   5   1  -1   17.28    0.66
   4   1  -1   -0.11    0.12
   3   1  -1   81.88    2.36
   2   1  -1  197.21    5.63
  -2  -1   1  196.48    5.53
   1   1  -1  408.52   11.55
   1   1  -1  409.21   11.51
  -1  -1   1  408.28   11.46
   0   1  -1   -0.01    0.03
   0  -1   1   -0.05    0.02
   0  -1   1    0.04    0.03
   1  -1   1  411.59   11.56
   1  -1   1  406.58   11.53
   2  -1   1   45.93    1.34
   2  -1   1   45.89    1.31
   3  -1   1   90.04    2.56
   3  -1   1   86.33    2.48
   4  -1   1   10.11    0.43
   4  -1   1   10.75    0.33
   5  -1   1    1.68    0.23
   6  -1   1   16.82    0.69
   7  -1   1    0.16    0.16
   8  -1   1    0.08    0.20
   8   0  -1    0.31    0.18
   7   0  -1    0.22    0.17
   6   0  -1    0.23    0.16
   5   0  -1    7.81    0.40
   4   0  -1    2.34    0.22
   3   0  -1    6.57    0.29
   2   0  -1   98.53    2.80
   1   0  -1    0.10    0.04
   1   0  -1    0.06    0.02
   1   0   1  231.10    6.29
   1   0   1  211.22    6.21
   2   0   1   18.51    0.55
   2   0   1   18.96    0.59
   3   0   1   22.28    0.72
   3   0   1   21.92    0.64
  -4   0  -1    4.72    0.16
   4   0   1    4.71    0.26
   5   0   1    1.47    0.20
   6   0   1    5.78    0.35
   7   0   1    1.23    0.22
   8   0   1   -0.11    0.15
   8  -1  -1    1.05    0.25
   7  -1  -1    0.33    0.19
   6  -1  -1    0.60    0.18
   5  -1  -1    0.93    0.21
   4  -1  -1    0.84    0.16
   3  -1  -1    7.35    0.22
   3  -1  -1    7.15    0.32
   2  -1  -1    6.46    0.26
   2  -1  -1    6.04    0.20
   1  -1  -1   66.59    1.91
   1  -1  -1   68.12    1.89
   0  -1  -1   73.92    2.11
   1   1   1  152.53    4.35
  -2  -1  -1    0.84    0.06
   2   1   1    0.74    0.06
   2   1   1    0.84    0.08
  -3  -1  -1  140.14    3.94
   3   1   1  138.74    3.95
  -4  -1  -1    1.43    0.08
   4   1   1    1.82    0.17
   5   1   1   25.24    0.86
   6   1   1    3.55    0.28
   7   1   1    0.62    0.14
   7   1   1    0.50    0.17
   8   1   1    1.13    0.17
   8   1   1    0.86    0.21
   7  -2  -1    0.27    0.20
   6  -2  -1    0.37    0.18
   5  -2  -1   28.26    0.99
   4  -2  -1    5.58    0.32
   4  -2  -1    5.30    0.19
   3  -2  -1  128.95    3.62
   3  -2  -1  123.12    3.53
   2  -2  -1   28.52    0.85
   2  -2  -1   26.42    0.80
   1  -2  -1    1.47    0.11
   1  -2  -1    1.44    0.12
   0  -2  -1  144.91    4.11
  -1  -2  -1   17.09    0.51
   1   2   1   16.44    0.49
   1   2   1   16.98    0.51
  -2  -2  -1   31.23    0.90
   2   2   1   30.27    0.90
   2   2   1   31.42    0.91
  -3  -2  -1   14.03    0.44
   3   2   1   14.41    0.47
   3   2   1   14.26    0.47
  -4  -2  -1    0.44    0.06
   4   2   1    0.50    0.09
   4   2   1    0.40    0.10
   5   2   1   -0.04    0.12
   5   2   1    0.22    0.11
   6   2   1    4.25    0.28
   6   2   1    4.27    0.29
   7   2   1    1.05    0.17
   7   2   1    0.88    0.19
   8   2   1    0.77    0.17
   8   2   1    0.92    0.20
   7  -3  -1    0.38    0.19
   6  -3  -1   -0.17    0.15
   5  -3  -1   30.00    1.05
   4  -3  -1   -0.16    0.15
   4  -3  -1    0.17    0.07
   3  -3  -1   12.15    0.48
   3  -3  -1   12.35    0.41
   2  -3  -1    7.47    0.28
   2  -3  -1    7.76    0.31
   1  -3  -1    2.35    0.14
   1  -3  -1    2.45    0.15
   0  -3  -1  170.29    4.79
  -1  -3  -1   67.70    1.94
   1   3   1   67.60    1.94
   2   3   1    8.02    0.29
   2   3   1    8.07    0.26
  -3  -3  -1   18.63    0.58
   3   3   1   18.07    0.58
   3   3   1   19.21    0.61
  -4  -3  -1    4.53    0.19
   4   3   1    4.14    0.22
   4   3   1    4.13    0.22
   5   3   1   52.60    1.58
   5   3   1   50.88    1.57
   6   3   1   19.74    0.74
   6   3   1   21.21    0.75
   7   3   1    0.25    0.13
   7   3   1    0.27    0.14
   8   3   1    0.03    0.15
   8   3   1    0.18    0.14
   7  -4  -1    0.28    0.20
   6  -4  -1    1.62    0.26
   5  -4  -1    9.01    0.49
   4  -4  -1    0.34    0.20
   4  -4  -1    0.41    0.10
   3  -4  -1    4.13    0.21
   3  -4  -1    4.13    0.27
   2  -4  -1    0.85    0.13
   2  -4  -1    0.87    0.12
   1  -4  -1    1.87    0.16
   1  -4  -1    1.34    0.12
   0  -4  -1  141.81    4.12
   0  -4  -1  151.75    4.16
  -1  -4  -1   22.70    0.73
   1   4   1   23.11    0.72
  -2  -4  -1    7.58    0.31
   2   4   1    7.72    0.30
   2   4   1    7.80    0.25
  -3  -4  -1    1.09    0.12
   3   4   1    1.17    0.12
   3   4   1    1.08    0.09
  -4  -4  -1   10.76    0.37
   4   4   1   10.08    0.37
   4   4   1   10.11    0.41
   5   4   1    3.48    0.23
   5   4   1    3.19    0.24
   6   4   1   25.87    0.90
   6   4   1   25.45    0.87
   7   4   1    1.11    0.18
   7   4   1    0.64    0.15
   8   4   1    0.05    0.13
   8   4   1    0.01    0.13
   7  -5  -1    0.10    0.18
   6  -5  -1    1.04    0.23
   5  -5  -1    0.86    0.22
   4  -5  -1    0.66    0.12
   4  -5  -1    0.83    0.21
   3  -5  -1   44.19    1.38
   3  -5  -1   47.87    1.44
   2  -5  -1    6.84    0.32
   2  -5  -1    7.27    0.34
   1  -5  -1    4.69    0.27
   1  -5  -1    4.77    0.23
   0  -5  -1    0.38    0.12
   0  -5  -1    0.25    0.07
  -1  -5  -1   14.61    0.52
   1   5   1   14.14    0.51
  -2  -5  -1    6.02    0.30
   2   5   1    5.96    0.28
  -3  -5  -1   29.66    1.01
   3   5   1   34.91    1.04
   3   5   1   34.22    0.96
  -4  -5  -1    0.09    0.10
   4   5   1    0.15    0.10
   4   5   1    0.06    0.07
  -5  -5  -1    1.82    0.17
   5   5   1    1.77    0.16
   5   5   1    1.41    0.18
   6   5   1    6.39    0.32
   6   5   1    6.95    0.39
   7   5   1    0.97    0.17
   7   5   1    0.88    0.18
   8   5   1   -0.02    0.14
   6  -6  -1    1.60    0.27
   5  -6  -1    0.03    0.19
   4  -6  -1    3.18    0.22
   4  -6  -1    3.15    0.31
   3  -6  -1    0.66    0.20
   3  -6  -1    0.79    0.16
   2  -6  -1    0.36    0.15
   2  -6  -1    0.34    0.14
   1  -6  -1    4.27    0.27
   1  -6  -1    4.33    0.23
   0  -6  -1    4.69    0.21
   0  -6  -1    4.69    0.29
  -1  -6  -1   -0.02    0.14
   1   6   1    0.11    0.13
  -2  -6  -1    0.02    0.13
   2   6   1   -0.07    0.12
  -3  -6  -1    2.34    0.22
   3   6   1    1.82    0.18
   3   6   1    2.62    0.12
  -4  -6  -1    5.17    0.27
   4   6   1    4.95    0.30
   4   6   1    4.77    0.20
  -5  -6  -1    0.22    0.10
   5   6   1    0.32    0.14
   6   6   1    0.07    0.14
   7   6   1   -0.02    0.16
   8   6   1   -0.06    0.17
   6  -7  -1    0.23    0.19
   5  -7  -1    0.29    0.18
   4  -7  -1    3.83    0.27
   4  -7  -1    4.13    0.35
   3  -7  -1   13.98    0.58
   3  -7  -1   13.91    0.54
   2  -7  -1   22.46    0.78
   2  -7  -1   21.89    0.77
   1  -7  -1   -0.04    0.16
   1  -7  -1    0.10    0.12
   0  -7  -1    2.39    0.17
   0  -7  -1    2.47    0.25
  -1  -7  -1    1.87    0.24
   1   7   1    1.58    0.19
  -2  -7  -1    2.10    0.23
   2   7   1    2.84    0.25
  -3  -7  -1    0.92    0.17
   3   7   1    0.96    0.18
  -4  -7  -1    0.08    0.11
   4   7   1   -0.10    0.12
  -5  -7  -1   -0.14    0.09
   5   7   1   -0.30    0.13
   6   7   1    1.34    0.23
   7   7   1   -0.02    0.18
   5  -8  -1    0.41    0.20
   4  -8  -1    0.97    0.22
   4  -8  -1    0.70    0.16
   3  -8  -1    8.66    0.42
   3  -8  -1    9.89    0.47
   2  -8  -1    1.48    0.21
   2  -8  -1    1.46    0.20
   1  -8  -1    1.53    0.21
   0  -8  -1    0.22    0.16
  -1  -8  -1    0.55    0.18
   1   8   1    0.35    0.17
  -2  -8  -1    5.33    0.35
   2   8   1    5.41    0.34
  -3  -8  -1   16.35    0.64
   3   8   1   15.83    0.63
  -4  -8  -1    5.80    0.34
   4   8   1    5.48    0.36
  -5  -8  -1    3.92    0.26
   5   8   1    4.20    0.34
   6   8   1    0.03    0.18
   7   8   1   -0.27    0.18
   3  -9  -1   -0.10    0.15
   2  -9  -1    0.39    0.19
   1  -9  -1    0.33    0.18
   0  -9  -1   -0.01    0.16
  -1  -9  -1    3.84    0.35
  -2  -9  -1    2.41    0.27
   2   9   1    2.46    0.26
  -3  -9  -1    0.74    0.19
   3   9   1    0.50    0.17
  -4  -9  -1    0.84    0.19
   4   9   1    0.76    0.21
  -5  -9  -1    0.68    0.11
   5   9   1    1.54    0.25
   6   9   1   -0.01    0.19
   3 -10  -1    2.74    0.30
   2 -10  -1    0.89    0.20
   1 -10  -1    0.20    0.20
   0 -10  -1    0.44    0.22
  -1 -10  -1    0.11    0.21
  -2 -10  -1    3.64    0.36
   2  10   1    3.16    0.30
  -3 -10  -1   11.41    0.58
   3  10   1   11.24    0.56
  -4 -10  -1   -0.05    0.17
   4  10   1    0.01    0.17
  -5 -10  -1    0.16    0.16
   5  10   1   -0.21    0.21
   2 -11  -1    0.17    0.18
   1 -11  -1    1.29    0.26
   0 -11  -1    0.24    0.23
  -1 -11  -1    0.28    0.23
  -2 -11  -1   -0.08    0.22
  -3 -11  -1    0.84    0.26
   3  11   1    0.67    0.22
  -4 -11  -1    0.39    0.21
   4  11   1    0.59    0.25
   3  11  -2    1.25    0.31
  -3 -11   2    1.23    0.24
   2  11  -2    1.06    0.26
  -2 -11   2    0.99    0.23
  -1 -11   2   -0.01    0.22
   0 -11   2    0.61    0.23
   1 -11   2    0.15    0.22
   4  10  -2    1.66    0.32
  -4 -10   2    2.52    0.27
   3  10  -2    0.69    0.26
  -3 -10   2    1.07    0.21
   2  10  -2    0.42    0.22
  -2 -10   2    0.23    0.18
   1  10  -2    0.89    0.21
  -1 -10   2    0.91    0.24
   0 -10   2    1.29    0.24
   1 -10   2   -0.41    0.18
   2 -10   2    0.05    0.19
   3 -10   2    0.12    0.19
   5   9  -2   -0.05    0.19
   4   9  -2    0.89    0.25
  -4  -9   2    1.53    0.20
   3   9  -2    0.14    0.18
  -3  -9   2    0.36    0.17
   2   9  -2    1.06    0.23
  -2  -9   2    0.66    0.19
   1   9  -2    2.45    0.26
  -1  -9   2    1.98    0.25
   0  -9   2    0.22    0.17
   1  -9   2    0.06    0.18
   2  -9   2    2.56    0.27
   3  -9   2   -0.04    0.16
   4  -9   2    0.19    0.17
   6   8  -2   -0.14    0.19
   5   8  -2    0.32    0.20
   4   8  -2    0.56    0.18
  -4  -8   2    0.62    0.13
   3   8  -2   11.55    0.56
  -3  -8   2   11.79    0.49
   2   8  -2   13.04    0.56
  -2  -8   2   13.27    0.55
   1   8  -2   -0.17    0.16
  -1  -8   2   -0.09    0.14
   0   8  -2    0.27    0.14
   0  -8   2   -0.11    0.14
   1  -8   2    0.18    0.16
   2  -8   2    1.02    0.21
   3  -8   2    1.46    0.22
   4  -8   2    0.72    0.18
   7   7  -2   -0.09    0.18
   6   7  -2    0.33    0.18
   5   7  -2    0.12    0.14
   4   7  -2    0.69    0.17
  -4  -7   2    0.99    0.14
   3   7  -2   16.88    0.67
   2   7  -2    1.91    0.22
  -2  -7   2    1.86    0.22
   1   7  -2    0.29    0.17
  -1  -7   2    0.25    0.15
   0   7  -2    0.19    0.14
   0  -7   2    0.33    0.16
   1  -7   2    0.20    0.15
   2  -7   2   19.66    0.72
   3  -7   2    0.07    0.12
   3  -7   2    0.01    0.12
   4  -7   2   -0.17    0.12
   4  -7   2    0.24    0.13
   5  -7   2    0.66    0.19
   6  -7   2    0.82    0.24
   7   6  -2    0.28    0.19
   6   6  -2    1.73    0.23
   5   6  -2    6.81    0.39
   4   6  -2    0.07    0.11
  -4  -6   2    0.01    0.09
   3   6  -2    0.19    0.12
  -3  -6   2    0.22    0.12
   2   6  -2   31.32    1.02
  -2  -6   2   31.39    1.00
   1   6  -2   47.78    1.47
  -1  -6   2   48.49    1.48
   0   6  -2    1.98    0.19
   0  -6   2    2.46    0.22
   1  -6   2    0.22    0.06
   1  -6   2    0.07    0.15
   2  -6   2   15.46    0.57
   2  -6   2   14.77    0.53
   3  -6   2   26.05    0.87
   3  -6   2   25.87    0.88
   4  -6   2    8.29    0.43
   4  -6   2    8.07    0.37
   5  -6   2    0.47    0.20
   6  -6   2    0.27    0.20
   7   5  -2    0.39    0.17
   6   5  -2    0.63    0.18
   5   5  -2    0.76    0.17
   4   5  -2    0.09    0.12
  -4  -5   2    0.02    0.09
   3   5  -2   16.53    0.54
   3   5  -2   16.63    0.61
  -3  -5   2   17.62    0.57
   2   5  -2    6.59    0.30
  -2  -5   2    6.40    0.30
   1   5  -2    7.99    0.34
  -1  -5   2    8.44    0.35
   0   5  -2   35.55    1.07
   0  -5   2   34.65    0.97
   0  -5   2   32.80    1.07
   1  -5   2   13.65    0.43
   1  -5   2   13.05    0.49
   2  -5   2   43.60    1.34
   2  -5   2   44.42    1.32
   3  -5   2   45.54    1.39
   4  -5   2   64.70    2.00
   4  -5   2   65.28    1.93
   5  -5   2    0.09    0.16
   6  -5   2    0.77    0.23
   7  -5   2    1.71    0.28
   7   4  -2    0.84    0.18
   6   4  -2    5.71    0.37
   6   4  -2    5.48    0.31
   5   4  -2    2.07    0.19
   5   4  -2    2.09    0.21
   4   4  -2    1.49    0.14
   4   4  -2    1.30    0.17
  -4  -4   2    1.45    0.13
   3   4  -2    1.43    0.15
   3   4  -2    1.55    0.12
  -3  -4   2    1.61    0.14
   2   4  -2    6.74    0.29
   2   4  -2    6.46    0.21
   1   4  -2    1.64    0.14
  -1  -4   2    1.46    0.14
   0   4  -2   24.47    0.77
   0  -4   2   24.10    0.77
   0  -4   2   24.62    0.69
   1  -4   2   59.90    1.67
   1  -4   2   56.98    1.72
   2  -4   2    2.81    0.19
   2  -4   2    2.55    0.16
   3  -4   2   -0.02    0.11
   3  -4   2   -0.22    0.09
   4  -4   2   12.72    0.46
   4  -4   2   12.38    0.53
   5  -4   2    0.18    0.15
   6  -4   2    0.25    0.17
   7  -4   2    0.17    0.18
   8   3  -2    0.18    0.15
   8   3  -2   -0.03    0.13
   7   3  -2    3.03    0.29
   7   3  -2    2.88    0.28
   6   3  -2    0.06    0.11
   6   3  -2    0.05    0.11
   5   3  -2    0.48    0.13
   5   3  -2    0.61    0.15
   4   3  -2    0.39    0.11
   4   3  -2    0.32    0.12
  -4  -3   2    0.48    0.07
   3   3  -2   46.13    1.39
   3   3  -2   45.41    1.35
  -3  -3   2   46.04    1.32
   2   3  -2   44.17    1.26
   2   3  -2   43.95    1.31
  -2  -3   2   43.63    1.27
   1   3  -2    3.07    0.17
  -1  -3   2    3.21    0.17
   0   3  -2   25.74    0.77
   0  -3   2   25.34    0.71
   0  -3   2   24.72    0.77
   1  -3   2   66.84    1.92
   1  -3   2   68.53    1.95
   2  -3   2   23.52    0.73
   3  -3   2   19.34    0.62
   3  -3   2   19.25    0.66
   4  -3   2    6.81    0.28
   4  -3   2    6.20    0.34
   5  -3   2    5.86    0.36
   6  -3   2    0.11    0.16
   7  -3   2    0.19    0.17
   8   2  -2    0.40    0.15
   8   2  -2    0.20    0.17
   7   2  -2    0.02    0.12
   7   2  -2    0.01    0.14
   6   2  -2    3.79    0.30
   6   2  -2    4.20    0.30
   5   2  -2    5.68    0.34
   5   2  -2    5.77    0.32
   4   2  -2    1.53    0.18
   3   2  -2   15.12    0.52
   3   2  -2   14.56    0.50
  -3  -2   2   14.59    0.44
   2   2  -2   35.72    1.06
   2   2  -2   35.14    1.03
  -2  -2   2   34.65    1.01
   1   2  -2  303.25    8.70
   1   2  -2  303.75    8.54
   0   2  -2  155.31    4.44
   0  -2   2  153.24    4.34
   0  -2   2  154.54    4.33
   1  -2   2    8.95    0.31
   1  -2   2    9.36    0.29
   2  -2   2    8.36    0.30
   2  -2   2    7.80    0.28
   3  -2   2    6.82    0.31
   3  -2   2    6.93    0.26
   4  -2   2    5.09    0.29
   4  -2   2    5.64    0.22
   5  -2   2   -0.04    0.15
   6  -2   2    6.22    0.38
   7  -2   2    0.16    0.18
   8  -2   2    0.36    0.22
   8   1  -2    0.27    0.16
   8   1  -2    0.17    0.13
   7   1  -2    0.87    0.20
   6   1  -2   17.43    0.70
   5   1  -2   59.18    1.82
   4   1  -2   71.27    2.11
   3   1  -2    1.41    0.15
   2   1  -2    0.12    0.07
  -2  -1   2    0.24    0.04
   1   1  -2  109.78    3.10
  -1  -1   2  105.93    3.02
   0   1  -2  192.91    5.42
   0  -1   2  186.35    6.06
   0  -1   2  191.25    5.36
   1  -1   2   87.07    2.45
   2  -1   2  378.86   10.67
   2  -1   2  366.69   10.59
   3  -1   2    4.07    0.22
   3  -1   2    4.16    0.17
   4  -1   2    6.92    0.25
   4  -1   2    7.22    0.33
   5  -1   2    4.48    0.31
   6  -1   2    1.72    0.24
   7  -1   2    0.72    0.21
   8  -1   2    0.07    0.17
   8   0  -2    1.46    0.25
   7   0  -2    0.02    0.14
   6   0  -2    4.25    0.32
   5   0  -2    1.98    0.24
   4   0  -2    7.91    0.38
   3   0  -2   18.54    0.62
   2   0  -2   32.29    0.93
   2   0  -2   30.05    0.87
   1   0  -2  495.84   15.87
  -1   0   2  565.77   15.38
   0   0   2   17.43    0.51
   1   0   2   10.34    0.31
   1   0   2    9.81    0.31
   2   0   2   10.27    0.32
   2   0   2   10.42    0.34
   3   0   2  157.94    4.51
   3   0   2  165.11    4.57
   4   0   2  217.17    6.14
   4   0   2  222.92    6.23
   5   0   2    1.32    0.19
   6   0   2    5.98    0.35
   7   0   2    0.66    0.19
   8   0   2    0.13    0.16
   8  -1  -2    1.63    0.29
   7  -1  -2    1.82    0.27
   6  -1  -2    1.78    0.26
   5  -1  -2    9.20    0.45
   4  -1  -2   38.11    1.21
   3  -1  -2   21.57    0.69
   3  -1  -2   20.06    0.59
   2  -1  -2    0.23    0.08
   2  -1  -2    0.28    0.05
   1  -1  -2   20.30    0.59
   1  -1  -2   20.27    0.61
   0  -1  -2   70.39    1.98
  -1  -1  -2  570.86   17.24
   1   1   2  572.44   17.00
   1   1   2  620.76   17.04
  -2  -1  -2   23.25    0.68
   2   1   2   23.45    0.68
   2   1   2   23.30    0.70
  -3  -1  -2   15.85    0.48
   3   1   2   15.89    0.50
   3   1   2   16.31    0.53
  -4  -1  -2   61.21    1.74
   4   1   2   61.64    1.82
   5   1   2    7.57    0.36
   6   1   2    0.83    0.17
   6   1   2    0.85    0.13
   7   1   2    0.06    0.14
   7   1   2    0.14    0.11
   8   1   2    1.00    0.22
   7  -2  -2    0.81    0.22
   6  -2  -2    0.03    0.17
   5  -2  -2   -0.05    0.15
   4  -2  -2    5.63    0.33
   3  -2  -2    0.87    0.08
   3  -2  -2    0.82    0.14
   2  -2  -2    0.12    0.06
   2  -2  -2    0.04    0.08
   1  -2  -2    3.11    0.15
   1  -2  -2    3.03    0.15
   0  -2  -2  893.82   25.08
  -1  -2  -2  716.75   20.13
   1   2   2  716.53   20.17
   2   2   2   11.69    0.33
   2   2   2    9.10    0.33
  -3  -2  -2    1.28    0.10
   3   2   2    1.27    0.11
  -4  -2  -2   10.84    0.36
   4   2   2   11.52    0.41
   5   2   2   -0.04    0.07
   5   2   2   -0.17    0.10
   6   2   2    0.95    0.17
   6   2   2    0.84    0.13
   7   2   2    0.88    0.13
   7   2   2    1.20    0.21
   8   2   2    0.01    0.16
   7  -3  -2    0.06    0.19
   6  -3  -2    1.86    0.28
   5  -3  -2    1.04    0.22
   4  -3  -2    3.99    0.22
   4  -3  -2    4.09    0.30
   3  -3  -2   10.32    0.36
   3  -3  -2   11.25    0.44
   2  -3  -2    0.05    0.09
   2  -3  -2    0.13    0.08
   1  -3  -2   45.36    1.32
   1  -3  -2   44.77    1.31
   0  -3  -2   45.52    1.33
  -1  -3  -2   20.69    0.65
   1   3   2   21.02    0.65
  -2  -3  -2   32.24    0.95
   2   3   2   31.54    0.94
   2   3   2   31.54    0.92
  -3  -3  -2   11.18    0.38
   3   3   2   11.14    0.37
   3   3   2   11.48    0.39
  -4  -3  -2    1.65    0.14
   4   3   2    2.08    0.15
   4   3   2    2.07    0.16
  -5  -3  -2    1.96    0.14
   5   3   2    2.41    0.21
   5   3   2    2.27    0.20
   6   3   2   30.52    1.01
   6   3   2   30.67    1.02
   7   3   2    0.48    0.14
   7   3   2    0.41    0.16
   8   3   2    0.23    0.17
   8   3   2    0.25    0.13
   7  -4  -2    0.88    0.25
   6  -4  -2    0.13    0.20
   5  -4  -2    2.61    0.28
   4  -4  -2   34.10    1.13
   4  -4  -2   33.65    1.02
   3  -4  -2    5.53    0.25
   3  -4  -2    5.56    0.33
   2  -4  -2   45.92    1.35
   2  -4  -2   45.15    1.37
   1  -4  -2   66.41    1.94
   1  -4  -2   68.56    1.96
   0  -4  -2   40.44    1.21
  -1  -4  -2   32.38    0.99
   1   4   2   32.04    0.98
  -2  -4  -2    4.30    0.23
   2   4   2    4.35    0.16
   2   4   2    4.53    0.23
   3   4   2   27.64    0.85
   3   4   2   26.53    0.80
  -4  -4  -2    1.83    0.16
   4   4   2    2.13    0.17
   4   4   2    2.04    0.14
  -5  -4  -2    7.62    0.30
   5   4   2    7.79    0.37
   5   4   2    7.53    0.33
   6   4   2    3.22    0.27
   6   4   2    3.13    0.25
   7   4   2    0.50    0.15
   7   4   2    0.33    0.14
   8   4   2    0.47    0.17
   8   4   2    0.45    0.17
   6  -5  -2    0.30    0.20
   5  -5  -2    2.62    0.29
   4  -5  -2    0.69    0.19
   4  -5  -2    0.85    0.12
   3  -5  -2   13.86    0.50
   3  -5  -2   13.90    0.55
   2  -5  -2   19.35    0.66
   2  -5  -2   19.65    0.66
   1  -5  -2   30.82    0.97
  -1  -5  -2   21.88    0.73
   1   5   2   22.53    0.73
  -2  -5  -2  101.20    2.89
   2   5   2   99.53    2.89
  -3  -5  -2   49.03    1.46
   3   5   2   48.16    1.46
   3   5   2   48.28    1.39
  -4  -5  -2    4.07    0.23
   4   5   2    4.15    0.20
   4   5   2    3.98    0.25
  -5  -5  -2   -0.12    0.08
   5   5   2    0.06    0.11
   5   5   2   -0.01    0.09
   6   5   2    0.65    0.14
   6   5   2    0.36    0.14
   7   5   2   -0.10    0.11
   7   5   2   -0.04    0.13
   8   5   2    0.31    0.16
   8   5   2    0.43    0.17
   6  -6  -2    0.59    0.22
   5  -6  -2    1.76    0.26
   4  -6  -2    6.65    0.33
   4  -6  -2    6.78    0.42
   3  -6  -2    7.18    0.38
   3  -6  -2    7.46    0.34
   2  -6  -2    0.12    0.14
   2  -6  -2    0.13    0.14
   1  -6  -2    2.91    0.20
   1  -6  -2    2.86    0.23
   0  -6  -2   -0.18    0.12
   0  -6  -2    0.08    0.08
  -1  -6  -2   49.30    1.53
   1   6   2   50.82    1.52
  -2  -6  -2    0.31    0.16
   2   6   2    0.18    0.12
  -3  -6  -2    8.01    0.37
   3   6   2    8.60    0.38
   3   6   2    8.66    0.29
   4   6   2    1.02    0.15
   4   6   2    1.12    0.11
  -5  -6  -2    1.37    0.15
   5   6   2    1.53    0.14
   5   6   2    1.42    0.19
   6   6   2    4.26    0.27
   6   6   2    4.35    0.31
   7   6   2   -0.10    0.14
   8   6   2    0.44    0.20
   5  -7  -2    0.31    0.21
   4  -7  -2    1.11    0.23
   3  -7  -2    1.16    0.20
   3  -7  -2    1.17    0.18
   2  -7  -2   10.17    0.46
   2  -7  -2   13.49    0.50
   1  -7  -2    2.13    0.24
   1  -7  -2    2.01    0.19
   0  -7  -2   14.91    0.50
   0  -7  -2   14.78    0.58
  -1  -7  -2   17.15    0.65
   1   7   2   17.33    0.64
  -2  -7  -2   10.85    0.48
   2   7   2   11.60    0.49
  -3  -7  -2    0.42    0.18
   3   7   2    1.13    0.17
  -4  -7  -2   -0.03    0.13
   4   7   2   -0.08    0.12
  -5  -7  -2    2.49    0.21
   5   7   2    2.08    0.24
   6   7   2    1.69    0.24
   7   7   2    0.33    0.17
   5  -8  -2    0.74    0.23
   4  -8  -2    1.16    0.24
   3  -8  -2    0.05    0.14
   3  -8  -2    0.29    0.14
   2  -8  -2   -0.20    0.15
   2  -8  -2   -0.22    0.14
   1  -8  -2    2.42    0.21
   1  -8  -2    1.57    0.22
   0  -8  -2    0.46    0.20
  -1  -8  -2   -0.17    0.16
  -2  -8  -2    5.44    0.36
   2   8   2    6.17    0.37
  -3  -8  -2    0.13    0.18
   3   8   2    0.53    0.17
  -4  -8  -2    6.47    0.37
   4   8   2    6.74    0.38
  -5  -8  -2    1.91    0.19
   5   8   2    1.43    0.22
   6   8   2    1.47    0.23
   7   8   2    0.13    0.20
   3  -9  -2    0.47    0.18
   2  -9  -2    0.60    0.18
   1  -9  -2   -0.07    0.15
   0  -9  -2    0.48    0.20
  -1  -9  -2    1.65    0.26
  -2  -9  -2    0.90    0.22
   2   9   2    1.43    0.22
  -3  -9  -2   -0.03    0.18
   3   9   2    0.11    0.17
  -4  -9  -2    2.07    0.25
   4   9   2    2.04    0.26
  -5  -9  -2    0.40    0.17
   5   9   2    0.41    0.18
   6   9   2    0.35    0.20
   3 -10  -2    0.15    0.18
   2 -10  -2    2.57    0.29
   1 -10  -2    0.22    0.20
   0 -10  -2    0.27    0.19
  -1 -10  -2    0.20    0.21
  -2 -10  -2    5.13    0.40
  -3 -10  -2    3.83    0.37
   3  10   2    4.28    0.36
  -4 -10  -2    2.57    0.28
   4  10   2    2.61    0.28
  -5 -10  -2   -0.02    0.15
   5  10   2   -0.05    0.18
   2 -11  -2    0.52    0.21
   1 -11  -2    0.43    0.22
   0 -11  -2    0.12    0.22
  -1 -11  -2    1.12    0.26
  -2 -11  -2    0.63    0.23
  -3 -11  -2    0.90    0.26
   3  11   2    0.72    0.22
  -4 -11  -2    0.24    0.22
   4  11   2    0.02    0.22
  -1 -12  -2    0.52    0.24
  -2 -12  -2    0.45    0.27
   2  11  -3    0.10    0.24
  -2 -11   3   -0.09    0.17
  -1 -11   3    0.15    0.22
   0 -11   3   -0.24    0.21
   4  10  -3   -0.48    0.21
  -4 -10   3    0.13    0.14
   3  10  -3    0.80    0.28
  -3 -10   3    1.13    0.22
   2  10  -3    0.65    0.26
  -2 -10   3    0.88    0.22
   1  10  -3    1.81    0.27
  -1 -10   3    1.38    0.25
   0 -10   3    0.23    0.18
   1 -10   3   -0.17    0.17
   2 -10   3    0.32    0.22
   5   9  -3    0.10    0.23
   4   9  -3   -0.16    0.18
  -4  -9   3    0.29    0.15
   3   9  -3   -0.19    0.19
  -3  -9   3    0.06    0.13
   2   9  -3    0.88    0.21
  -2  -9   3    0.88    0.20
   1   9  -3    0.18    0.17
  -1  -9   3    0.24    0.17
   0  -9   3   -0.34    0.16
   1  -9   3    1.75    0.26
   2  -9   3    0.51    0.20
   3  -9   3    1.05    0.21
   4  -9   3    0.24    0.17
   6   8  -3    0.31    0.23
   5   8  -3   -0.18    0.16
   4   8  -3    0.01    0.18
   3   8  -3   -0.23    0.14
  -3  -8   3    0.20    0.14
   2   8  -3    0.67    0.18
  -2  -8   3    0.61    0.17
   1   8  -3    1.47    0.21
  -1  -8   3    1.74    0.22
   0   8  -3    2.71    0.26
   0  -8   3    2.53    0.26
   1  -8   3    4.08    0.34
   2  -8   3    7.41    0.41
   3  -8   3    0.63    0.17
   4  -8   3    2.28    0.25
   6   7  -3   -0.11    0.15
   5   7  -3   -0.11    0.14
   4   7  -3    2.34    0.25
  -4  -7   3    3.23    0.22
   3   7  -3   -0.01    0.14
  -3  -7   3    0.28    0.13
   2   7  -3    2.16    0.22
  -2  -7   3    2.66    0.24
   1   7  -3   18.51    0.68
  -1  -7   3   18.44    0.69
   0   7  -3    0.50    0.16
   0  -7   3    0.17    0.14
   1  -7   3   24.84    0.88
   2  -7   3    6.31    0.35
   3  -7   3    2.09    0.23
   4  -7   3    0.10    0.14
   4  -7   3    0.08    0.14
   5  -7   3    2.19    0.27
   7   6  -3    0.46    0.21
   6   6  -3   -0.02    0.14
   5   6  -3   -0.09    0.14
   4   6  -3    0.08    0.14
  -4  -6   3    0.21    0.10
   3   6  -3    0.05    0.12
  -3  -6   3    0.15    0.08
   2   6  -3    3.94    0.29
  -2  -6   3    4.41    0.28
   1   6  -3   12.18    0.49
  -1  -6   3   12.62    0.49
   0   6  -3    0.30    0.15
   0  -6   3    0.21    0.15
   1  -6   3    5.97    0.33
   2  -6   3    1.53    0.20
   2  -6   3    1.48    0.13
   3  -6   3   45.87    1.42
   3  -6   3   45.45    1.40
   4  -6   3    1.22    0.17
   5  -6   3    0.04    0.11
   5  -6   3   -0.25    0.14
   6  -6   3    0.25    0.17
   7   5  -3   -0.12    0.15
   6   5  -3    0.44    0.17
   5   5  -3    0.15    0.13
   4   5  -3   -0.03    0.11
  -4  -5   3    0.10    0.09
   3   5  -3   14.33    0.55
  -3  -5   3   14.58    0.51
   2   5  -3    7.07    0.34
  -2  -5   3    7.25    0.32
   1   5  -3    1.55    0.15
  -1  -5   3    1.62    0.17
   0   5  -3   71.38    2.06
   0  -5   3   69.08    2.07
  -1   5  -3   13.14    0.48
   1  -5   3   12.57    0.40
   1  -5   3   12.97    0.49
   2  -5   3    1.66    0.18
   2  -5   3    1.59    0.13
   3  -5   3   11.49    0.46
   3  -5   3   11.98    0.46
   4  -5   3    4.44    0.31
   4  -5   3    4.87    0.28
   5  -5   3    1.14    0.15
   5  -5   3    1.12    0.21
   6  -5   3    0.33    0.20
   7  -5   3    0.04    0.20
   7   4  -3    0.25    0.17
   6   4  -3    1.00    0.18
   5   4  -3    4.26    0.26
   5   4  -3    4.84    0.31
   4   4  -3   13.61    0.54
   4   4  -3   14.02    0.49
  -4  -4   3   13.33    0.45
   3   4  -3    1.12    0.15
   3   4  -3    1.26    0.11
  -3  -4   3    1.25    0.12
   2   4  -3    8.36    0.34
   2   4  -3    7.95    0.26
   1   4  -3   41.76    1.25
  -1  -4   3   42.05    1.25
   0   4  -3    7.86    0.31
   0  -4   3    7.72    0.32
   0  -4   3    7.84    0.23
  -1   4  -3    0.06    0.08
   1  -4   3    0.21    0.10
   1  -4   3    0.17    0.05
   2  -4   3    1.11    0.11
   2  -4   3    1.03    0.13
   3  -4   3   39.40    1.21
   3  -4   3   39.63    1.22
   4  -4   3   16.20    0.63
   4  -4   3   16.84    0.58
   5  -4   3    0.06    0.09
   5  -4   3   -0.16    0.12
   6  -4   3    0.02    0.18
   7  -4   3    0.31    0.20
   7   3  -3   -0.02    0.12
   7   3  -3    0.00    0.14
   6   3  -3    4.04    0.29
   6   3  -3    4.25    0.32
   5   3  -3    4.18    0.28
   5   3  -3    4.06    0.27
   4   3  -3    0.40    0.13
   4   3  -3    0.31    0.11
   3   3  -3   12.07    0.42
   3   3  -3   11.91    0.46
  -3  -3   3   12.21    0.39
   2   3  -3   58.45    1.72
   2   3  -3   57.52    1.67
  -2  -3   3   59.38    1.68
   1   3  -3    2.58    0.16
   1   3  -3    2.73    0.10
  -1  -3   3    2.71    0.15
   0   3  -3  162.45    4.51
   0  -3   3  160.53    4.52
   0  -3   3  158.17    4.59
  -1   3  -3  107.74    3.01
   1  -3   3  102.86    2.98
   1  -3   3  108.19    3.03
   2  -3   3   11.63    0.38
   2  -3   3    9.27    0.35
   3  -3   3   18.20    0.62
   3  -3   3   18.22    0.60
   4  -3   3    3.85    0.21
   4  -3   3    3.75    0.25
   5  -3   3    0.54    0.17
   5  -3   3    0.98    0.12
   6  -3   3    1.01    0.22
   7  -3   3   -0.09    0.15
   7   2  -3    1.40    0.23
   7   2  -3    1.02    0.18
   6   2  -3    2.43    0.25
   6   2  -3    2.25    0.23
   5   2  -3   11.98    0.51
   4   2  -3    5.74    0.30
   3   2  -3   -0.04    0.08
  -3  -2   3    0.07    0.04
   2   2  -3  107.78    3.09
   2   2  -3  107.14    3.06
  -2  -2   3  109.78    3.05
   1   2  -3  524.36   14.79
   1   2  -3  528.54   14.91
   0   2  -3  138.81    4.02
   0  -2   3  145.31    4.00
  -1   2  -3   91.93    2.59
   1  -2   3   92.92    2.58
   1  -2   3   90.41    2.61
   2  -2   3    4.96    0.21
   2  -2   3    4.89    0.20
   3  -2   3   22.14    0.72
   3  -2   3   22.91    0.70
   4  -2   3   10.98    0.38
   4  -2   3   10.68    0.44
   5  -2   3    1.15    0.11
   5  -2   3    0.74    0.17
   6  -2   3    0.64    0.18
   7  -2   3    0.52    0.19
   8  -2   3    0.19    0.19
   8   1  -3    0.20    0.15
   7   1  -3    0.08    0.16
   6   1  -3    2.24    0.25
   5   1  -3   -0.04    0.14
   4   1  -3   43.44    1.34
   3   1  -3    0.65    0.12
  -3  -1   3    1.18    0.06
   2   1  -3    0.60    0.09
  -2  -1   3    0.55    0.05
  -1  -1   3  268.16    7.64
   0   1  -3  157.82    4.47
   0  -1   3  153.77    4.39
  -1   1  -3  209.59    5.98
   1  -1   3  213.81    6.04
   2  -1   3  145.41    4.07
   2  -1   3  144.18    4.07
   3  -1   3   37.20    1.11
   3  -1   3   38.57    1.14
   4  -1   3    0.31    0.07
   4  -1   3    0.25    0.10
   5  -1   3    0.09    0.12
   5  -1   3    0.11    0.07
   6  -1   3    0.78    0.18
   7  -1   3    0.19    0.16
   8  -1   3    0.18    0.19
   7   0  -3    0.31    0.17
   6   0  -3    0.11    0.16
   5   0  -3    2.99    0.27
   4   0  -3   14.04    0.55
   3   0  -3   18.04    0.61
   2   0  -3  180.20    4.98
   2   0  -3  173.91    4.98
  -1   0   3  307.27    8.68
   0   0   3  531.89   14.97
   1   0   3    3.68    0.14
   1   0   3    3.60    0.15
   2   0   3    2.07    0.12
   2   0   3    2.09    0.11
   3   0   3    0.17    0.06
   3   0   3    0.01    0.07
   4   0   3    0.05    0.06
   4   0   3    0.08    0.10
   5   0   3    8.76    0.40
   5   0   3    9.15    0.31
   6   0   3    1.89    0.22
   7   0   3    4.03    0.32
   8   0   3    0.74    0.21
   7  -1  -3    0.12    0.17
   6  -1  -3   -0.12    0.17
   5  -1  -3    3.01    0.28
   4  -1  -3    4.06    0.28
   3  -1  -3    0.08    0.04
   3  -1  -3    0.10    0.10
   2  -1  -3   49.59    1.41
   2  -1  -3   50.19    1.46
   1  -1  -3   34.62    0.99
   0  -1  -3   10.97    0.34
  -1  -1  -3    2.30    0.12
  -2  -1  -3  128.04    3.66
   2   1   3  127.33    3.66
   2   1   3  136.40    3.73
  -3  -1  -3    5.36    0.20
   3   1   3    5.34    0.23
   3   1   3    5.23    0.20
  -4  -1  -3   30.86    0.91
   4   1   3   30.69    0.96
   4   1   3   30.96    0.93
  -5  -1  -3    0.22    0.08
   5   1   3    0.11    0.12
   5   1   3    0.37    0.09
   6   1   3    2.68    0.20
   6   1   3    2.92    0.24
   7   1   3    2.48    0.26
   8   1   3    0.36    0.19
   7  -2  -3    0.58    0.21
   6  -2  -3    2.06    0.27
   5  -2  -3    0.89    0.20
   4  -2  -3    1.03    0.19
   3  -2  -3   18.40    0.65
   3  -2  -3   19.17    0.57
   2  -2  -3    2.45    0.16
   2  -2  -3    2.49    0.13
   1  -2  -3   20.06    0.61
   1  -2  -3   19.70    0.60
   0  -2  -3 1000.00   28.03
  -1  -2  -3  744.70   20.86
   1   2   3  645.98   20.46
  -2  -2  -3   14.39    0.45
   2   2   3   14.85    0.45
   2   2   3   14.11    0.44
  -3  -2  -3   47.41    1.36
   3   2   3   46.39    1.37
   3   2   3   47.20    1.36
  -4  -2  -3   14.88    0.48
   4   2   3   14.89    0.52
   4   2   3   15.14    0.50
  -5  -2  -3   11.26    0.39
   5   2   3   11.68    0.43
   5   2   3   11.60    0.46
   6   2   3   17.24    0.62
   6   2   3   17.40    0.65
   7   2   3    0.00    0.10
   7   2   3    0.12    0.14
   8   2   3    0.06    0.17
   7  -3  -3    0.39    0.22
   6  -3  -3    1.64    0.25
   5  -3  -3    5.26    0.36
   4  -3  -3    1.19    0.21
   3  -3  -3   18.13    0.63
   3  -3  -3   17.51    0.56
   2  -3  -3   12.49    0.42
   2  -3  -3   12.60    0.45
   1  -3  -3   92.40    2.67
   1  -3  -3   95.75    2.67
   0  -3  -3  101.56    2.88
  -1  -3  -3   44.67    1.31
  -2  -3  -3    0.83    0.10
   2   3   3    1.26    0.09
   2   3   3    0.85    0.09
   3   3   3   23.54    0.67
   3   3   3   20.18    0.67
  -4  -3  -3    5.60    0.25
   4   3   3    5.86    0.25
  -5  -3  -3    2.46    0.17
   5   3   3    2.62    0.20
   6   3   3    0.31    0.14
   7   3   3    1.50    0.21
   8   3   3    0.37    0.18
   7  -4  -3    0.81    0.25
   6  -4  -3    1.00    0.24
   5  -4  -3    1.93    0.26
   4  -4  -3   31.25    1.05
   3  -4  -3   51.14    1.52
   3  -4  -3   52.49    1.58
   2  -4  -3   12.23    0.45
   2  -4  -3   12.68    0.44
   1  -4  -3   73.06    2.14
   1  -4  -3   74.85    2.13
   0  -4  -3    4.09    0.22
  -1  -4  -3   33.13    1.01
  -2  -4  -3   15.73    0.53
   2   4   3   15.66    0.52
   2   4   3   15.10    0.47
  -3  -4  -3   90.72    2.57
   3   4   3   90.03    2.57
   3   4   3   87.10    2.53
  -4  -4  -3    1.58    0.15
   4   4   3    1.49    0.14
   4   4   3    1.75    0.13
  -5  -4  -3    0.14    0.11
   5   4   3    0.35    0.11
   5   4   3    0.30    0.10
   6   4   3    6.07    0.31
   6   4   3    5.83    0.33
   7   4   3    0.83    0.17
   7   4   3    0.55    0.15
   8   4   3   -0.24    0.13
   6  -5  -3    2.37    0.32
   5  -5  -3    0.01    0.17
   4  -5  -3   15.26    0.62
   3  -5  -3    7.59    0.38
   3  -5  -3    7.19    0.32
   2  -5  -3    6.82    0.31
   2  -5  -3    6.27    0.32
   1  -5  -3    6.96    0.29
   1  -5  -3    7.00    0.33
   0  -5  -3    0.27    0.12
  -1  -5  -3   32.04    1.01
  -2  -5  -3    0.99    0.16
   2   5   3    0.83    0.12
  -3  -5  -3    0.16    0.13
   3   5   3    0.11    0.06
   3   5   3    0.16    0.09
  -4  -5  -3   -0.07    0.11
   4   5   3    0.01    0.07
   4   5   3    0.10    0.10
  -5  -5  -3    0.28    0.12
   5   5   3    0.44    0.13
   5   5   3    0.49    0.11
   6   5   3    7.96    0.40
   6   5   3    7.76    0.36
   7   5   3    2.41    0.25
   7   5   3    2.66    0.23
   8   5   3   -0.19    0.14
   8   5   3   -0.15    0.13
   6  -6  -3    0.57    0.23
   5  -6  -3    0.45    0.22
   4  -6  -3    1.89    0.25
   3  -6  -3    4.48    0.25
   3  -6  -3    4.84    0.31
   2  -6  -3    2.83    0.23
   2  -6  -3    3.14    0.23
   1  -6  -3    1.57    0.19
   0  -6  -3    0.22    0.08
   0  -6  -3    0.11    0.16
  -1  -6  -3    2.88    0.24
  -2  -6  -3   28.08    0.92
   2   6   3   28.51    0.92
  -3  -6  -3    0.15    0.14
   3   6   3    0.10    0.12
   3   6   3    0.08    0.07
  -4  -6  -3    1.98    0.21
   4   6   3    2.14    0.14
   4   6   3    2.35    0.22
  -5  -6  -3    0.25    0.13
   5   6   3    0.43    0.14
   5   6   3    0.40    0.10
   6   6   3   -0.02    0.10
   6   6   3    0.02    0.13
   7   6   3    0.94    0.17
   7   6   3    1.00    0.20
   8   6   3    0.11    0.17
   5  -7  -3    0.61    0.21
   4  -7  -3    0.17    0.18
   3  -7  -3    0.81    0.19
   3  -7  -3    0.89    0.15
   2  -7  -3    0.08    0.13
   2  -7  -3    0.13    0.15
   1  -7  -3    0.10    0.17
   1  -7  -3   -0.05    0.12
   0  -7  -3   31.70    1.03
   0  -7  -3   29.57    0.93
  -1  -7  -3   42.35    1.34
  -2  -7  -3    0.18    0.18
   2   7   3    0.03    0.13
  -3  -7  -3    2.05    0.24
   3   7   3    1.97    0.21
  -4  -7  -3    6.29    0.36
   4   7   3    6.83    0.29
   4   7   3    7.26    0.38
  -5  -7  -3    1.16    0.18
   5   7   3    1.34    0.20
   6   7   3    1.94    0.23
   7   7   3   -0.26    0.16
   5  -8  -3    0.36    0.21
   4  -8  -3    1.29    0.24
   3  -8  -3    4.13    0.32
   3  -8  -3    4.17    0.29
   2  -8  -3   16.83    0.59
   2  -8  -3   11.70    0.54
   1  -8  -3    1.72    0.19
   1  -8  -3    1.38    0.21
   0  -8  -3    1.47    0.15
   0  -8  -3    1.57    0.22
  -1  -8  -3   13.79    0.60
  -2  -8  -3    3.27    0.30
   2   8   3    2.49    0.23
  -3  -8  -3   39.44    1.28
   3   8   3   38.88    1.27
  -4  -8  -3    2.02    0.25
   4   8   3    1.70    0.22
  -5  -8  -3   -0.23    0.12
   5   8   3    0.03    0.14
   6   8   3    1.44    0.25
   7   8   3    0.42    0.22
   4  -9  -3    0.51    0.21
   3  -9  -3   10.60    0.49
   2  -9  -3    9.18    0.46
   1  -9  -3    3.28    0.31
   0  -9  -3    4.21    0.34
  -1  -9  -3    0.06    0.17
  -2  -9  -3   -0.17    0.17
  -3  -9  -3    0.16    0.18
   3   9   3    0.26    0.17
  -4  -9  -3    1.86    0.25
   4   9   3    1.92    0.25
  -5  -9  -3   -0.10    0.15
   5   9   3    0.02    0.18
   6   9   3   -0.15    0.17
   3 -10  -3    1.95    0.26
   2 -10  -3    1.23    0.22
   1 -10  -3    0.30    0.19
   0 -10  -3    1.25    0.26
  -1 -10  -3    0.47    0.22
  -2 -10  -3    1.51    0.26
  -3 -10  -3    0.11    0.20
   3  10   3   -0.01    0.18
  -4 -10  -3    0.59    0.21
   4  10   3    0.79    0.20
  -5 -10  -3    0.20    0.19
   5  10   3    0.11    0.20
   6  10   3    0.09    0.22
   2 -11  -3   -0.11    0.16
   1 -11  -3    0.72    0.22
   0 -11  -3   -0.12    0.21
  -1 -11  -3    0.11    0.20
  -2 -11  -3    1.67    0.30
  -3 -11  -3   -0.14    0.22
  -4 -11  -3    0.69    0.25
   4  11   3    0.99    0.26
  -1 -12  -3   -0.18    0.20
  -2 -12  -3    0.06    0.24
   3  10  -4    0.27    0.28
  -3 -10   4    0.85    0.21
   2  10  -4    1.90    0.30
  -2 -10   4    2.19    0.29
   1  10  -4    0.21    0.20
  -1 -10   4    0.35    0.21
   0 -10   4   -0.03    0.18
   1 -10   4    0.23    0.22
   2 -10   4    0.23    0.21
   4   9  -4   -0.19    0.20
   3   9  -4   -0.24    0.18
  -3  -9   4    0.29    0.14
   2   9  -4   -0.23    0.16
  -2  -9   4   -0.14    0.15
   1   9  -4    0.13    0.17
  -1  -9   4    0.05    0.16
   0   9  -4    0.06    0.18
   0  -9   4   -0.06    0.16
   1  -9   4    0.09    0.19
   2  -9   4    0.53    0.20
   3  -9   4   -0.16    0.16
   4  -9   4   -0.10    0.17
   5   8  -4    0.03    0.22
   4   8  -4    0.30    0.19
  -4  -8   4    0.38    0.14
   3   8  -4    0.15    0.19
  -3  -8   4    0.46    0.15
   2   8  -4    1.44    0.23
  -2  -8   4    1.36    0.20
   1   8  -4    0.07    0.17
  -1  -8   4   -0.13    0.13
   0   8  -4    1.51    0.22
   0  -8   4    1.08    0.22
   1  -8   4   -0.16    0.14
   2  -8   4    1.22    0.22
   3  -8   4    0.51    0.16
   4  -8   4    1.47    0.22
   5  -8   4   -0.01    0.15
   6   7  -4    0.43    0.22
   5   7  -4    0.03    0.15
   4   7  -4    1.04    0.21
   3   7  -4   -0.04    0.15
  -3  -7   4    0.20    0.13
   2   7  -4    1.48    0.19
  -2  -7   4    1.31    0.18
   1   7  -4    5.45    0.33
  -1  -7   4    5.45    0.34
   0   7  -4    4.95    0.34
   0  -7   4    5.04    0.32
   1  -7   4   21.81    0.79
   2  -7   4    3.13    0.29
   3  -7   4    0.84    0.18
   4  -7   4   -0.08    0.11
   5  -7   4    0.12    0.13
   6   6  -4    0.09    0.17
   5   6  -4   -0.10    0.14
   4   6  -4    0.21    0.13
  -4  -6   4    0.34    0.12
   3   6  -4   15.03    0.60
   2   6  -4  117.04    3.41
  -2  -6   4  117.32    3.38
   1   6  -4   22.91    0.79
  -1  -6   4   23.54    0.79
   0   6  -4    5.32    0.32
   0  -6   4    5.11    0.32
  -1   6  -4    0.19    0.13
   1  -6   4    0.25    0.16
   2  -6   4    2.74    0.24
   3  -6   4    4.98    0.26
   3  -6   4    5.21    0.30
   4  -6   4    0.03    0.11
   4  -6   4   -0.13    0.12
   5  -6   4    0.18    0.13
   5  -6   4    0.21    0.15
   6  -6   4    0.20    0.19
   7   5  -4    0.13    0.16
   6   5  -4    0.94    0.20
   5   5  -4    0.25    0.15
   4   5  -4   11.62    0.51
   3   5  -4    1.13    0.16
  -3  -5   4    1.20    0.14
   2   5  -4    0.80    0.13
  -2  -5   4    0.89    0.15
   1   5  -4    3.38    0.22
  -1  -5   4    3.41    0.22
   0   5  -4    6.53    0.31
   0  -5   4    6.37    0.31
  -1   5  -4    1.29    0.15
   1  -5   4    1.07    0.15
   1  -5   4    1.06    0.09
   2  -5   4    7.31    0.35
   2  -5   4    7.73    0.29
   3  -5   4    4.12    0.23
   3  -5   4    3.95    0.27
   4  -5   4    3.48    0.25
   4  -5   4    3.05    0.24
   5  -5   4    0.30    0.14
   5  -5   4    0.45    0.13
   6  -5   4    0.44    0.20
   7  -5   4    4.60    0.39
   7   4  -4    1.39    0.24
   6   4  -4    0.34    0.16
   5   4  -4    0.23    0.14
   4   4  -4    6.04    0.34
   4   4  -4    6.27    0.29
   3   4  -4   -0.02    0.10
   3   4  -4    0.02    0.08
  -3  -4   4    0.01    0.09
   2   4  -4   13.11    0.48
   2   4  -4   12.38    0.40
   1   4  -4   13.33    0.48
  -1  -4   4   13.37    0.47
   0   4  -4   12.29    0.43
   0  -4   4   12.02    0.44
  -1   4  -4   11.61    0.42
   1  -4   4   11.29    0.43
   1  -4   4   11.58    0.36
   2  -4   4    4.14    0.23
   2  -4   4    4.24    0.19
   3  -4   4    3.54    0.24
   4  -4   4   21.79    0.74
   4  -4   4   23.07    0.78
   5  -4   4    0.80    0.18
   5  -4   4    1.00    0.14
   6  -4   4    0.04    0.16
   7  -4   4    0.13    0.20
   7   3  -4    0.87    0.19
   7   3  -4    0.50    0.16
   6   3  -4    0.25    0.13
   6   3  -4    0.07    0.12
   5   3  -4    0.14    0.11
   5   3  -4    0.37    0.13
   4   3  -4    2.62    0.25
   4   3  -4    2.67    0.21
   3   3  -4    0.17    0.10
   3   3  -4    0.21    0.10
  -3  -3   4    0.18    0.07
   2   3  -4   11.80    0.39
   2   3  -4   11.73    0.44
  -2  -3   4   11.98    0.40
   1   3  -4    9.36    0.35
   1   3  -4   10.00    0.30
  -1  -3   4    9.53    0.34
   0   3  -4   60.66    1.75
   0  -3   4   60.34    1.76
  -1   3  -4   70.85    2.04
   1  -3   4   70.25    2.06
   1  -3   4   72.77    2.02
   2  -3   4   15.12    0.49
   2  -3   4   15.67    0.52
   3  -3   4    1.69    0.14
   3  -3   4    1.54    0.15
   4  -3   4   13.17    0.50
   4  -3   4   12.66    0.47
   5  -3   4   21.43    0.70
   5  -3   4   21.09    0.77
   6  -3   4    2.04    0.26
   7  -3   4    0.30    0.19
   7   2  -4    0.06    0.15
   7   2  -4    0.18    0.14
   6   2  -4    0.41    0.16
   6   2  -4    0.28    0.14
   5   2  -4    0.13    0.13
   4   2  -4    4.25    0.27
   3   2  -4   15.64    0.54
  -3  -2   4   15.82    0.48
   2   2  -4   57.89    1.70
   2   2  -4   57.41    1.66
  -2  -2   4   57.79    1.65
   1   2  -4   36.75    1.06
  -1  -2   4   33.92    1.04
   0   2  -4   29.54    0.88
   0  -2   4   30.00    0.89
  -1   2  -4    6.79    0.24
   1  -2   4    6.62    0.23
   1  -2   4    6.62    0.26
   2  -2   4    9.85    0.33
   2  -2   4    8.26    0.31
   3  -2   4   11.90    0.42
   3  -2   4   12.19    0.43
   4  -2   4    0.46    0.10
   4  -2   4    0.30    0.11
   5  -2   4   21.98    0.70
   5  -2   4   21.67    0.78
   6  -2   4    1.53    0.23
   7  -2   4   -0.06    0.14
   8  -2   4    0.01    0.18
   7   1  -4    0.41    0.17
   6   1  -4    0.42    0.18
   5   1  -4   -0.15    0.14
   4   1  -4    5.97    0.33
   3   1  -4    7.32    0.31
  -3  -1   4    7.27    0.24
   2   1  -4  265.97    7.68
  -2  -1   4  269.00    7.58
  -1  -1   4   22.02    0.66
   0   1  -4  337.83    9.79
   0  -1   4  356.49    9.91
  -1   1  -4   52.35    1.44
   1  -1   4   49.92    1.47
   2  -1   4   60.49    1.71
   2  -1   4   58.43    1.70
   3  -1   4    4.23    0.21
   3  -1   4    4.19    0.19
   4  -1   4    2.87    0.19
   4  -1   4    2.76    0.16
   5  -1   4    0.48    0.14
   5  -1   4    0.30    0.08
   6  -1   4    0.08    0.12
   7  -1   4    0.16    0.14
   8  -1   4    0.02    0.17
   7   0  -4    0.27    0.17
   6   0  -4    0.51    0.17
   5   0  -4   22.97    0.84
   4   0  -4   14.75    0.56
   3   0  -4   36.51    1.13
   3   0  -4   36.89    1.04
   2   0  -4   31.39    0.94
  -2   0   4   30.62    0.89
  -1   0   4   51.54    1.47
   0   0   4   53.09    1.52
   1   0   4    9.87    0.32
   1   0   4    9.76    0.33
   2   0   4   32.24    0.95
   2   0   4   32.17    0.94
   3   0   4  108.37    3.12
   3   0   4  114.25    3.08
   3   0   4  106.97    3.10
   4   0   4    0.97    0.13
   4   0   4    0.88    0.09
   5   0   4    3.48    0.18
   5   0   4    3.56    0.24
   6   0   4    5.69    0.33
   7   0   4   -0.16    0.13
   8   0   4   -0.13    0.17
   7  -1  -4    0.93    0.23
   6  -1  -4    0.04    0.17
   5  -1  -4   22.77    0.83
   4  -1  -4   32.44    1.07
   3  -1  -4    0.05    0.05
   3  -1  -4    0.09    0.11
   2  -1  -4    2.01    0.10
   2  -1  -4    1.91    0.14
   1  -1  -4   14.47    0.44
   0  -1  -4   20.50    0.61
   1   1   4  110.36    3.13
   1   1   4  112.32    3.15
   2   1   4   14.01    0.42
   2   1   4   14.10    0.44
   2   1   4   14.64    0.45
   3   1   4    0.54    0.05
   3   1   4    0.52    0.08
   3   1   4    0.61    0.09
  -4  -1  -4   69.76    2.01
   4   1   4   71.13    2.05
   4   1   4   69.39    2.00
  -5  -1  -4    2.65    0.16
   5   1   4    2.51    0.16
   5   1   4    2.52    0.21
   6   1   4    6.78    0.36
   6   1   4    7.10    0.31
   7   1   4    0.23    0.15
   8   1   4    0.17    0.17
   7  -2  -4    0.62    0.22
   6  -2  -4    0.18    0.19
   5  -2  -4    1.31    0.22
   4  -2  -4    0.54    0.17
   3  -2  -4    4.25    0.26
   3  -2  -4    3.80    0.17
   2  -2  -4    8.45    0.33
   2  -2  -4    8.57    0.29
   1  -2  -4    0.04    0.06
   0  -2  -4  202.49    5.68
  -1  -2  -4    1.86    0.12
   1   2   4    2.20    0.11
  -2  -2  -4   24.37    0.74
   2   2   4   24.06    0.73
   2   2   4   24.77    0.72
   3   2   4    9.65    0.32
   3   2   4    9.36    0.33
  -4  -2  -4   19.75    0.62
   4   2   4   19.83    0.64
   4   2   4   19.49    0.62
  -5  -2  -4    9.10    0.34
   5   2   4    9.23    0.35
   5   2   4    9.34    0.40
   6   2   4   31.33    1.05
   6   2   4   31.64    1.00
   7   2   4    0.31    0.16
   8   2   4    0.40    0.19
   7  -3  -4    1.38    0.27
   6  -3  -4    0.40    0.19
   5  -3  -4    1.30    0.24
   4  -3  -4    6.82    0.39
   3  -3  -4   16.22    0.59
   3  -3  -4   16.58    0.53
   2  -3  -4    6.13    0.28
   2  -3  -4    6.57    0.26
   1  -3  -4    0.99    0.11
   0  -3  -4  129.49    3.65
  -1  -3  -4   38.08    1.13
  -2  -3  -4   31.06    0.94
   2   3   4   32.19    0.93
  -3  -3  -4   25.25    0.76
   3   3   4   24.92    0.76
   3   3   4   24.11    0.75
  -4  -3  -4    2.05    0.17
   4   3   4    2.08    0.16
   4   3   4    2.28    0.15
  -5  -3  -4   33.40    1.02
   5   3   4   33.63    1.04
   5   3   4   34.22    1.06
   6   3   4    1.37    0.19
   6   3   4    1.35    0.16
   7   3   4    0.06    0.12
   7   3   4   -0.05    0.13
   8   3   4    0.14    0.16
   6  -4  -4    0.75    0.22
   5  -4  -4    0.06    0.17
   4  -4  -4   12.71    0.56
   3  -4  -4   29.98    0.97
   3  -4  -4   29.12    0.90
   2  -4  -4   66.95    1.95
   2  -4  -4   67.30    1.97
   1  -4  -4   20.28    0.67
   1  -4  -4   21.22    0.66
   0  -4  -4   81.72    2.35
  -1  -4  -4    5.15    0.25
  -2  -4  -4   53.90    1.58
   2   4   4   53.71    1.57
   2   4   4   53.24    1.54
  -3  -4  -4   14.73    0.51
   3   4   4   14.80    0.48
   3   4   4   14.95    0.50
  -4  -4  -4    0.28    0.11
   4   4   4    0.13    0.06
   4   4   4    0.43    0.09
  -5  -4  -4    5.84    0.29
   5   4   4    6.06    0.28
   6   4   4    4.52    0.26
   6   4   4    3.38    0.25
   7   4   4    1.31    0.18
   7   4   4    1.21    0.19
   8   4   4   -0.12    0.14
   6  -5  -4    0.27    0.20
   5  -5  -4    2.97    0.33
   4  -5  -4    0.21    0.18
   3  -5  -4    7.83    0.39
   3  -5  -4    8.06    0.34
   2  -5  -4   15.71    0.55
   2  -5  -4   15.58    0.56
   1  -5  -4    4.45    0.25
   1  -5  -4    4.43    0.22
   0  -5  -4    0.19    0.13
  -1  -5  -4   12.95    0.48
  -2  -5  -4    4.21    0.24
   2   5   4    4.38    0.24
  -3  -5  -4    9.51    0.40
   3   5   4    9.60    0.33
   3   5   4    9.84    0.38
  -4  -5  -4    2.00    0.19
   4   5   4    1.42    0.16
   4   5   4    1.92    0.14
  -5  -5  -4    7.67    0.36
   5   5   4    8.47    0.34
   5   5   4    8.39    0.38
   6   5   4   13.44    0.51
   6   5   4   14.27    0.56
   7   5   4    4.52    0.29
   7   5   4    4.81    0.32
   8   5   4    0.36    0.17
   6  -6  -4    1.45    0.29
   5  -6  -4    1.11    0.24
   4  -6  -4    5.46    0.39
   3  -6  -4    0.76    0.14
   3  -6  -4    0.86    0.19
   2  -6  -4    0.06    0.15
   2  -6  -4    0.08    0.14
   1  -6  -4    1.40    0.16
   1  -6  -4    1.27    0.18
   0  -6  -4    2.48    0.23
  -1  -6  -4    1.52    0.20
  -2  -6  -4    0.44    0.15
   2   6   4    0.74    0.15
  -3  -6  -4    0.16    0.15
   3   6   4    0.33    0.13
   3   6   4    0.20    0.08
  -4  -6  -4    0.53    0.16
   4   6   4    0.76    0.15
   4   6   4    0.66    0.10
  -5  -6  -4    2.23    0.21
   5   6   4    2.54    0.23
   5   6   4    2.34    0.17
   6   6   4    7.55    0.41
   6   6   4    7.62    0.34
   7   6   4    2.43    0.26
   7   6   4    3.15    0.24
   5  -7  -4    0.78    0.24
   4  -7  -4    0.05    0.19
   3  -7  -4    0.61    0.14
   3  -7  -4    0.87    0.21
   2  -7  -4    0.02    0.12
   2  -7  -4    0.02    0.14
   1  -7  -4    0.02    0.09
   1  -7  -4    0.13    0.15
   0  -7  -4    0.41    0.19
   0  -7  -4    0.45    0.11
  -1  -7  -4   10.25    0.46
  -2  -7  -4    6.44    0.39
   2   7   4    6.58    0.35
  -3  -7  -4    5.29    0.33
   3   7   4    5.02    0.33
  -4  -7  -4    3.56    0.31
   4   7   4    4.16    0.31
   4   7   4    4.49    0.21
   5   7   4    1.68    0.21
   5   7   4    1.69    0.15
   6   7   4   10.36    0.51
   7   7   4    0.81    0.21
   5  -8  -4    0.30    0.22
   4  -8  -4   -0.15    0.19
   3  -8  -4    1.09    0.23
   3  -8  -4    1.24    0.18
   2  -8  -4    2.87    0.26
   2  -8  -4    3.24    0.28
   1  -8  -4    0.17    0.15
   1  -8  -4   -0.05    0.12
   0  -8  -4    0.68    0.21
   0  -8  -4    1.01    0.14
  -1  -8  -4    1.43    0.23
  -2  -8  -4    0.15    0.20
  -3  -8  -4   29.96    1.02
   3   8   4   29.62    1.00
  -4  -8  -4   -0.10    0.15
   4   8   4    0.21    0.16
  -5  -8  -4    0.50    0.18
   5   8   4    0.10    0.17
   6   8   4    2.54    0.29
   7   8   4   -0.26    0.17
   4  -9  -4    0.11    0.18
   3  -9  -4    3.97    0.33
   3  -9  -4    4.35    0.32
   2  -9  -4    4.58    0.32
   2  -9  -4    5.29    0.35
   1  -9  -4    0.29    0.17
   1  -9  -4    0.02    0.23
   0  -9  -4    1.26    0.23
  -1  -9  -4    0.22    0.20
  -2  -9  -4    0.11    0.18
  -3  -9  -4    0.96    0.25
   3   9   4    0.64    0.17
  -4  -9  -4   -0.26    0.19
   4   9   4    0.12    0.15
  -5  -9  -4    0.05    0.19
   5   9   4    0.28    0.19
   6   9   4   -0.23    0.18
   3 -10  -4    0.12    0.16
   2 -10  -4    4.74    0.37
   1 -10  -4    0.47    0.21
   0 -10  -4   -0.02    0.20
  -1 -10  -4    0.35    0.20
  -2 -10  -4    0.02    0.19
  -3 -10  -4    3.86    0.38
  -4 -10  -4    0.62    0.23
   4  10   4    0.40    0.18
  -5 -10  -4    0.63    0.22
   5  10   4    0.36    0.19
   6  10   4    0.14    0.22
   2 -11  -4    0.13    0.19
   1 -11  -4    0.07    0.20
   0 -11  -4    0.04    0.19
  -1 -11  -4    1.02    0.25
  -2 -11  -4   -0.10    0.20
  -3 -11  -4    0.00    0.21
  -4 -11  -4    0.06    0.25
   4  11   4   -0.05    0.20
  -5 -11  -4    0.01    0.19
   5  11   4    0.06    0.22
  -1 -12  -4    0.30    0.24
  -2 -12  -4    0.88    0.26
   2  10  -5    0.88    0.28
  -2 -10   5    0.51    0.20
   1  10  -5   -0.06    0.22
  -1 -10   5    0.37    0.20
   0 -10   5    0.14    0.18
   1 -10   5   -0.24    0.17
   2 -10   5    0.38    0.22
   4   9  -5    1.42    0.29
   3   9  -5   -0.14    0.20
  -3  -9   5    0.40    0.16
   2   9  -5   -0.10    0.21
  -2  -9   5    0.13    0.14
   1   9  -5    0.75    0.23
  -1  -9   5    1.08    0.20
   0   9  -5   -0.16    0.17
   0  -9   5    0.26    0.17
   1  -9   5    1.59    0.25
   2  -9   5    0.11    0.17
   3  -9   5   -0.06    0.18
   5   8  -5   -0.03    0.19
   4   8  -5    0.29    0.22
   3   8  -5    1.09    0.23
  -3  -8   5    1.31    0.19
   2   8  -5    0.34    0.18
  -2  -8   5    0.62    0.17
   1   8  -5    0.36    0.19
  -1  -8   5    0.53    0.18
   0   8  -5    0.08    0.16
   0  -8   5    0.12    0.17
   1  -8   5    3.14    0.31
   2  -8   5    6.63    0.42
   3  -8   5    0.37    0.17
   4  -8   5    2.04    0.26
   6   7  -5    0.15    0.21
   5   7  -5    0.48    0.20
   4   7  -5    1.33    0.23
   3   7  -5    0.46    0.19
  -3  -7   5    0.62    0.14
   2   7  -5    1.12    0.20
  -2  -7   5    1.06    0.17
   1   7  -5   21.14    0.79
  -1  -7   5   22.33    0.79
   0   7  -5    9.63    0.46
   0  -7   5    9.78    0.46
   1  -7   5    0.38    0.15
   2  -7   5    0.08    0.14
   3  -7   5    3.65    0.31
   4  -7   5    1.01    0.20
   5  -7   5    4.52    0.32
   6   6  -5   -0.08    0.18
   5   6  -5    0.72    0.21
   4   6  -5    0.84    0.19
   3   6  -5    0.11    0.15
  -3  -6   5    0.29    0.05
   2   6  -5    8.42    0.42
  -2  -6   5    8.10    0.38
   1   6  -5    1.45    0.18
  -1  -6   5    1.60    0.20
   0   6  -5    8.23    0.40
   0  -6   5    8.01    0.39
  -1   6  -5    1.72    0.19
   1  -6   5    1.76    0.20
   2  -6   5   12.51    0.53
   3  -6   5    1.73    0.21
   4  -6   5    1.24    0.17
   4  -6   5    1.22    0.18
   5  -6   5    1.63    0.21
   5  -6   5    1.68    0.20
   6  -6   5    0.24    0.17
   6   5  -5   -0.21    0.14
   5   5  -5    0.12    0.13
   4   5  -5    2.71    0.26
   3   5  -5    1.84    0.21
  -3  -5   5    1.90    0.17
   2   5  -5   18.26    0.66
  -2  -5   5   17.93    0.62
   1   5  -5    3.73    0.26
  -1  -5   5    3.87    0.25
   0   5  -5    0.77    0.14
   0  -5   5    0.63    0.15
  -1   5  -5   11.13    0.43
   1  -5   5   10.63    0.45
   1  -5   5   10.15    0.34
   2  -5   5    0.42    0.09
   2  -5   5    0.50    0.14
   3  -5   5   20.43    0.66
   3  -5   5   19.08    0.70
   4  -5   5    4.66    0.29
   5  -5   5   -0.04    0.12
   5  -5   5   -0.02    0.11
   6  -5   5    0.39    0.17
   7   4  -5    1.50    0.24
   6   4  -5    0.09    0.13
   5   4  -5    2.64    0.26
   4   4  -5    0.19    0.13
   3   4  -5    0.03    0.11
  -3  -4   5    0.02    0.09
   2   4  -5    0.91    0.09
   2   4  -5    0.78    0.14
   1   4  -5    1.88    0.16
   1   4  -5    1.83    0.09
  -1  -4   5    2.11    0.17
   0   4  -5    0.55    0.10
   0  -4   5    0.71    0.13
  -1   4  -5    0.04    0.09
   1  -4   5   -0.02    0.10
   1  -4   5    0.05    0.06
   2  -4   5    0.15    0.07
   2  -4   5    0.13    0.11
   3  -4   5    2.12    0.17
   3  -4   5    2.21    0.19
   4  -4   5    0.12    0.12
   4  -4   5    0.05    0.10
   5  -4   5    3.06    0.27
   5  -4   5    2.90    0.22
   6  -4   5    0.04    0.16
   7  -4   5    0.32    0.21
   7   3  -5    1.93    0.25
   6   3  -5    0.09    0.12
   6   3  -5    0.02    0.14
   5   3  -5    0.47    0.15
   5   3  -5    0.51    0.14
   4   3  -5    0.17    0.11
   4   3  -5    0.54    0.13
   3   3  -5    5.41    0.26
   3   3  -5    5.40    0.31
  -3  -3   5    5.56    0.23
   2   3  -5    0.13    0.10
   2   3  -5    0.38    0.08
  -2  -3   5    0.29    0.09
   1   3  -5    1.23    0.12
  -1  -3   5    1.31    0.13
   0   3  -5    3.13    0.17
   0  -3   5    2.96    0.18
  -1   3  -5   23.16    0.73
   1  -3   5   23.86    0.76
   1  -3   5   24.33    0.71
   2  -3   5   16.23    0.52
   2  -3   5   16.54    0.56
   3  -3   5   54.32    1.58
   3  -3   5   53.12    1.60
   4  -3   5   57.57    1.70
   4  -3   5   55.58    1.68
   5  -3   5    7.05    0.36
   5  -3   5    7.07    0.32
   6  -3   5    0.50    0.18
   7  -3   5    0.08    0.18
   7   2  -5    1.12    0.21
   7   2  -5    1.16    0.22
   6   2  -5    0.07    0.13
   6   2  -5    0.33    0.16
   5   2  -5    1.08    0.17
   4   2  -5    0.60    0.15
   3   2  -5   10.07    0.38
  -3  -2   5    9.72    0.33
   2   2  -5   41.06    1.19
   2   2  -5   40.24    1.24
  -2  -2   5   40.35    1.18
   1   2  -5  291.67    8.15
  -1  -2   5  290.03    8.15
   0   2  -5    7.97    0.29
   0  -2   5    8.16    0.31
  -1   2  -5   12.92    0.41
   1  -2   5   13.44    0.41
   1  -2   5   12.64    0.44
   2  -2   5    3.85    0.16
   3  -2   5   14.00    0.48
   3  -2   5   14.04    0.48
   4  -2   5   20.20    0.66
   4  -2   5   20.01    0.68
   5  -2   5   10.36    0.39
   5  -2   5   10.32    0.45
   6  -2   5    1.64    0.23
   7  -2   5   -0.19    0.13
   8  -2   5    0.00    0.17
   7   1  -5    1.31    0.24
   6   1  -5    0.78    0.18
   5   1  -5    1.63    0.21
   4   1  -5   10.50    0.44
   3   1  -5    5.70    0.27
  -3  -1   5    5.69    0.21
   2   1  -5    7.54    0.29
  -2  -1   5    7.66    0.26
   0  -1   5  157.99    4.44
  -1   1  -5   66.32    1.87
   1  -1   5   66.14    1.90
   2  -1   5   97.12    2.83
   2  -1   5  102.73    2.85
   3  -1   5    1.33    0.12
   3  -1   5    1.50    0.13
   4  -1   5    9.23    0.35
   4  -1   5    9.95    0.38
   5  -1   5   18.01    0.60
   5  -1   5   18.19    0.66
   6  -1   5    3.42    0.27
   7  -1   5    0.06    0.14
   8  -1   5   -0.15    0.17
   7   0  -5    1.87    0.27
   6   0  -5    0.21    0.16
   5   0  -5    2.11    0.24
   4   0  -5   -0.08    0.15
   3   0  -5   16.22    0.49
   3   0  -5   15.96    0.56
   2   0  -5    4.74    0.22
  -2   0   5    4.25    0.17
  -1   0   5    6.64    0.24
   0   0   5   67.64    1.93
   1   0   5   10.45    0.35
   1   0   5   10.59    0.34
   2   0   5   49.65    1.43
   2   0   5   48.86    1.42
   3   0   5    0.16    0.07
   3   0   5    0.21    0.07
   4   0   5    1.85    0.16
   4   0   5    1.74    0.14
   4   0   5    1.82    0.10
   5   0   5    0.05    0.11
   5   0   5    0.00    0.08
   6   0   5    0.21    0.13
   7   0   5    0.37    0.16
   8   0   5    1.39    0.25
   7  -1  -5    0.12    0.18
   6  -1  -5    1.41    0.24
   5  -1  -5   23.42    0.85
   4  -1  -5   16.83    0.64
   3  -1  -5    2.55    0.20
   3  -1  -5    2.46    0.13
   2  -1  -5    0.69    0.11
   2  -1  -5    0.61    0.07
   1  -1  -5    1.35    0.10
   0   1   5    2.75    0.14
   1   1   5   39.27    1.12
   1   1   5   37.93    1.13
   2   1   5    2.87    0.16
   2   1   5    2.73    0.14
   3   1   5   11.05    0.38
   3   1   5   11.21    0.38
   3   1   5   10.98    0.34
  -4  -1  -5    0.62    0.10
   4   1   5    0.80    0.10
   4   1   5    0.79    0.12
   4   1   5    0.69    0.07
  -5  -1  -5   18.04    0.59
   5   1   5   17.91    0.58
   5   1   5   18.31    0.64
   6   1   5   12.75    0.53
   7   1   5    0.03    0.13
   8   1   5    3.03    0.32
   7  -2  -5   -0.15    0.17
   6  -2  -5    0.64    0.21
   5  -2  -5    0.41    0.18
   4  -2  -5    3.54    0.28
   3  -2  -5    2.40    0.21
   3  -2  -5    2.57    0.15
   2  -2  -5    0.06    0.08
   2  -2  -5   -0.01    0.06
   1  -2  -5    0.89    0.09
   0  -2  -5   30.78    0.91
  -1  -2  -5    3.32    0.16
  -2  -2  -5  157.62    4.35
   2   2   5  151.15    4.34
  -3  -2  -5    2.20    0.14
   3   2   5    2.25    0.12
   3   2   5    2.15    0.14
  -4  -2  -5   45.99    1.41
   4   2   5   49.95    1.40
   4   2   5   48.45    1.43
  -5  -2  -5   26.41    0.81
   5   2   5   24.56    0.79
   5   2   5   26.36    0.85
   6   2   5    6.62    0.34
   7   2   5    1.38    0.21
   8   2   5    0.36    0.16
   7  -3  -5    1.49    0.28
   6  -3  -5    0.32    0.21
   5  -3  -5    4.36    0.37
   4  -3  -5    4.93    0.32
   3  -3  -5    2.24    0.22
   3  -3  -5    2.18    0.16
   2  -3  -5   53.82    1.59
   2  -3  -5   53.23    1.55
   1  -3  -5   22.38    0.69
   0  -3  -5   60.90    1.76
  -1  -3  -5  204.81    5.75
  -2  -3  -5   83.03    2.37
   2   3   5   83.01    2.36
  -3  -3  -5    4.06    0.21
   3   3   5    4.11    0.18
   3   3   5    3.97    0.19
   4   3   5    1.58    0.14
   4   3   5    1.62    0.14
  -5  -3  -5   -0.01    0.10
   5   3   5    0.10    0.08
   5   3   5   -0.01    0.10
   6   3   5    0.27    0.14
   6   3   5    0.24    0.10
   7   3   5    4.56    0.32
   8   3   5   -0.22    0.14
   6  -4  -5    0.81    0.25
   5  -4  -5    2.92    0.30
   4  -4  -5   29.24    1.00
   3  -4  -5   12.41    0.45
   3  -4  -5   13.40    0.53
   2  -4  -5    6.34    0.28
   2  -4  -5    6.15    0.30
   1  -4  -5    0.45    0.12
   0  -4  -5   19.90    0.65
  -1  -4  -5  346.58    9.69
  -2  -4  -5   23.37    0.75
   2   4   5   23.84    0.72
  -3  -4  -5   13.69    0.49
   3   4   5   13.99    0.46
  -4  -4  -5    1.10    0.14
   4   4   5    0.76    0.11
   4   4   5    0.75    0.11
  -5  -4  -5    3.56    0.24
   5   4   5    3.71    0.22
   5   4   5    3.63    0.23
   6   4   5   -0.01    0.12
   6   4   5    0.04    0.10
   7   4   5    0.31    0.13
   8   4   5   -0.04    0.14
   6  -5  -5    1.15    0.26
   5  -5  -5    0.60    0.23
   4  -5  -5    0.34    0.18
   3  -5  -5    8.34    0.42
   3  -5  -5    8.81    0.36
   2  -5  -5    4.18    0.26
   2  -5  -5    4.41    0.26
   1  -5  -5    2.91    0.19
   1  -5  -5    2.92    0.23
   0  -5  -5    7.90    0.34
  -1  -5  -5    2.74    0.21
  -2  -5  -5    2.67    0.21
  -3  -5  -5    3.78    0.26
   3   5   5    3.66    0.18
   3   5   5    3.84    0.24
  -4  -5  -5    5.40    0.30
   4   5   5    5.31    0.24
   4   5   5    5.63    0.29
  -5  -5  -5    0.95    0.16
   5   5   5    0.97    0.13
   6   5   5    1.83    0.20
   6   5   5    2.48    0.19
   7   5   5   -0.05    0.12
   7   5   5    0.20    0.12
   8   5   5   -0.01    0.14
   5  -6  -5    2.11    0.29
   4  -6  -5    2.09    0.27
   3  -6  -5   -0.14    0.15
   3  -6  -5   -0.08    0.10
   2  -6  -5    5.52    0.32
   2  -6  -5    5.63    0.31
   1  -6  -5    2.75    0.22
   1  -6  -5    2.67    0.24
   0  -6  -5    1.38    0.18
  -1  -6  -5    0.66    0.16
  -2  -6  -5   14.11    0.54
  -3  -6  -5    1.62    0.20
   3   6   5    1.18    0.15
   3   6   5    1.33    0.12
  -4  -6  -5    0.84    0.18
   4   6   5    0.92    0.12
   4   6   5    0.70    0.15
  -5  -6  -5   -0.06    0.04
   5   6   5    0.11    0.09
   5   6   5   -0.05    0.12
   6   6   5    1.04    0.15
   6   6   5    0.89    0.17
   7   6   5    0.18    0.14
   7   6   5    0.13    0.13
   8   6   5    0.01    0.14
   5  -7  -5    0.02    0.20
   4  -7  -5    1.62    0.26
   3  -7  -5    0.24    0.14
   3  -7  -5   -0.06    0.16
   2  -7  -5   -0.21    0.13
   2  -7  -5    0.05    0.14
   1  -7  -5    8.67    0.38
   1  -7  -5    8.84    0.41
   0  -7  -5    5.58    0.34
  -1  -7  -5    1.08    0.20
  -2  -7  -5    0.70    0.19
  -3  -7  -5   36.60    1.18
   3   7   5   36.47    1.17
  -4  -7  -5    0.20    0.17
   4   7   5    0.05    0.08
   4   7   5    0.01    0.12
  -5  -7  -5    5.66    0.35
   5   7   5    5.98    0.27
   5   7   5    5.44    0.35
   6   7   5    0.10    0.16
   6   7   5    0.32    0.11
   7   7   5    0.13    0.17
   4  -8  -5    0.02    0.21
   3  -8  -5    0.13    0.17
   3  -8  -5    0.07    0.14
   2  -8  -5    0.02    0.16
   2  -8  -5    0.03    0.15
   1  -8  -5    0.82    0.19
   1  -8  -5    1.01    0.17
   0  -8  -5    2.62    0.26
   0  -8  -5    2.34    0.20
  -1  -8  -5    5.83    0.39
  -2  -8  -5   21.40    0.80
  -3  -8  -5    0.12    0.17
   3   8   5    0.40    0.15
  -4  -8  -5    3.02    0.30
   4   8   5    2.63    0.25
  -5  -8  -5    1.06    0.22
   5   8   5    0.84    0.19
  -6  -8  -5    0.27    0.25
   6   8   5   -0.10    0.17
   7   8   5    1.48    0.26
   4  -9  -5    1.60    0.27
   3  -9  -5    0.51    0.17
   3  -9  -5    0.76    0.22
   2  -9  -5    0.54    0.18
   2  -9  -5    0.26    0.17
   1  -9  -5    3.53    0.27
   1  -9  -5    3.39    0.31
   0  -9  -5    3.93    0.36
   0  -9  -5    4.14    0.25
  -1  -9  -5    9.80    0.49
  -2  -9  -5    2.59    0.29
  -3  -9  -5    0.22    0.20
  -4  -9  -5    2.89    0.32
   4   9   5    2.48    0.25
  -5  -9  -5   -0.30    0.18
   5   9   5   -0.08    0.17
   6   9   5    1.23    0.23
   3 -10  -5    0.06    0.23
   2 -10  -5    1.77    0.25
   1 -10  -5    0.38    0.19
   0 -10  -5    0.51    0.22
  -1 -10  -5    0.67    0.22
  -2 -10  -5    0.34    0.22
  -3 -10  -5    1.64    0.30
  -4 -10  -5    0.30    0.22
   4  10   5    0.39    0.17
  -5 -10  -5    0.23    0.23
   5  10   5    0.09    0.19
   6  10   5    0.64    0.24
   1 -11  -5    0.65    0.23
   0 -11  -5    0.74    0.25
  -1 -11  -5    0.61    0.26
  -2 -11  -5    0.14    0.22
  -3 -11  -5    0.34    0.26
  -4 -11  -5    0.09    0.22
  -5 -11  -5    0.06    0.20
   5  11   5    0.09    0.18
  -1 -12  -5    0.05    0.24
  -2 -12  -5    1.00    0.30
   1  10  -6    0.21    0.24
  -1 -10   6    0.07    0.18
   0 -10   6   -0.01    0.20
   3   9  -6   -0.27    0.23
  -3  -9   6    0.20    0.16
   2   9  -6   -0.32    0.19
  -2  -9   6    0.12    0.15
   1   9  -6    0.89    0.25
  -1  -9   6    1.04    0.22
   0   9  -6    2.22    0.28
   0  -9   6    2.46    0.30
   1  -9   6    2.44    0.30
   2  -9   6    0.59    0.21
   3  -9   6    1.03    0.25
   4   8  -6    0.59    0.23
   3   8  -6    0.28    0.22
  -3  -8   6    0.45    0.15
   2   8  -6    1.77    0.25
  -2  -8   6    2.13    0.23
   1   8  -6    0.00    0.18
  -1  -8   6    0.22    0.16
   0   8  -6    0.01    0.16
   0  -8   6    0.45    0.17
   1  -8   6    0.88    0.21
   2  -8   6    2.75    0.29
   3  -8   6   -0.16    0.16
   4  -8   6    0.16    0.18
   5   7  -6    0.40    0.20
   4   7  -6   -0.09    0.18
   3   7  -6   -0.03    0.17
  -3  -7   6    0.26    0.13
   2   7  -6    0.18    0.15
  -2  -7   6    0.08    0.14
   1   7  -6    1.00    0.20
  -1  -7   6    1.25    0.20
   0   7  -6    0.04    0.14
   0  -7   6    0.34    0.15
  -1   7  -6    1.59    0.20
   1  -7   6    1.90    0.23
   2  -7   6   -0.05    0.15
   3  -7   6   -0.10    0.13
   4  -7   6   -0.12    0.12
   5  -7   6    0.80    0.20
   6   6  -6    1.19    0.24
   5   6  -6    0.04    0.18
   4   6  -6    0.52    0.18
  -3  -6   6    1.79    0.15
   2   6  -6    0.59    0.15
  -2  -6   6    0.73    0.15
   1   6  -6    0.15    0.14
  -1  -6   6    0.20    0.13
   0   6  -6    7.83    0.38
   0  -6   6    7.61    0.38
  -1   6  -6   18.47    0.66
   1  -6   6   18.69    0.70
   2  -6   6   21.72    0.78
   3  -6   6    0.13    0.13
   4  -6   6    0.51    0.17
   5  -6   6   -0.23    0.13
   6  -6   6    0.26    0.18
   6   5  -6    1.32    0.24
   5   5  -6    0.22    0.16
   4   5  -6    0.43    0.17
   3   5  -6    0.27    0.13
  -3  -5   6    0.11    0.10
   2   5  -6    4.32    0.30
  -2  -5   6    4.01    0.25
   1   5  -6   28.64    0.94
  -1  -5   6   28.51    0.93
   0   5  -6    7.02    0.34
   0  -5   6    6.78    0.34
  -1   5  -6    2.70    0.23
   1  -5   6    2.56    0.23
   2  -5   6   -0.03    0.11
   2  -5   6   -0.13    0.07
   3  -5   6    0.31    0.09
   3  -5   6    0.15    0.13
   4  -5   6    0.55    0.12
   4  -5   6    0.53    0.14
   5  -5   6    5.16    0.31
   5  -5   6    5.79    0.33
   6  -5   6    1.02    0.21
   6   4  -6    0.22    0.15
   5   4  -6    1.64    0.23
   4   4  -6    0.06    0.11
   3   4  -6    0.83    0.15
  -3  -4   6    1.01    0.13
  -2  -4   6   11.06    0.41
   1   4  -6   34.79    1.08
  -1  -4   6   34.31    1.07
   0   4  -6   22.70    0.75
   0  -4   6   23.64    0.77
  -1   4  -6   12.12    0.44
   1  -4   6   12.34    0.47
   1  -4   6   12.01    0.39
   2  -4   6    0.05    0.11
   2  -4   6    0.01    0.08
   3  -4   6    2.55    0.23
   3  -4   6    2.46    0.17
   4  -4   6   11.66    0.45
   4  -4   6   10.99    0.46
   5  -4   6    0.69    0.16
   5  -4   6    0.60    0.14
   6  -4   6   -0.02    0.13
   7  -4   6   -0.05    0.16
   7   3  -6    0.97    0.22
   6   3  -6    0.11    0.13
   5   3  -6    2.44    0.25
   5   3  -6    1.98    0.23
   4   3  -6    4.65    0.28
   4   3  -6    5.22    0.33
   3   3  -6   12.27    0.50
   3   3  -6   12.16    0.45
  -3  -3   6   12.11    0.42
   2   3  -6   42.55    1.31
   2   3  -6   41.89    1.25
  -2  -3   6   42.82    1.26
   1   3  -6   30.82    0.96
  -1  -3   6   30.45    0.95
   0   3  -6   32.99    1.00
   0  -3   6   32.80    1.02
  -1   3  -6    9.24    0.34
   1  -3   6    9.30    0.38
   1  -3   6    9.56    0.32
   2  -3   6    8.02    0.30
   2  -3   6    8.26    0.35
   3  -3   6    2.13    0.14
   3  -3   6    2.68    0.21
   4  -3   6    9.85    0.41
   4  -3   6   10.27    0.40
   5  -3   6    2.46    0.23
   5  -3   6    2.07    0.19
   6  -3   6   -0.17    0.11
   7  -3   6   -0.01    0.17
   7   2  -6    2.04    0.26
   7   2  -6    1.00    0.21
   6   2  -6    1.32    0.22
   6   2  -6    1.31    0.22
   5   2  -6    0.95    0.18
   4   2  -6   23.76    0.81
   3   2  -6   16.21    0.57
  -3  -2   6   16.98    0.53
   2   2  -6    2.42    0.20
   2   2  -6    2.41    0.16
  -2  -2   6    2.27    0.15
   1   2  -6   22.18    0.73
  -1  -2   6   23.27    0.71
   0   2  -6   20.13    0.64
   0  -2   6   20.59    0.65
  -1   2  -6    7.25    0.27
   1  -2   6    7.88    0.31
   1  -2   6    7.94    0.27
   2  -2   6   27.63    0.87
   3  -2   6    3.12    0.21
   3  -2   6    3.02    0.18
   4  -2   6   13.75    0.50
   4  -2   6   13.55    0.50
   5  -2   6    0.58    0.12
   5  -2   6    0.50    0.13
   6  -2   6    2.71    0.25
   7  -2   6    0.16    0.16
   8  -2   6    0.04    0.17
   7   1  -6    0.36    0.17
   6   1  -6    0.29    0.15
   5   1  -6    0.03    0.15
   4   1  -6    1.14    0.19
   3   1  -6    0.07    0.11
  -3  -1   6   -0.06    0.06
   2   1  -6    5.92    0.25
  -2  -1   6    5.62    0.23
   0  -1   6   26.82    0.82
  -1   1  -6  224.49    6.46
   1  -1   6  231.91    6.41
   2  -1   6    0.60    0.09
   2  -1   6    0.32    0.09
   3  -1   6    8.06    0.31
   3  -1   6    8.14    0.32
   4  -1   6    4.56    0.24
   4  -1   6    4.74    0.25
   5  -1   6    1.70    0.19
   5  -1   6    1.69    0.16
   6  -1   6    2.36    0.23
   7  -1   6    0.15    0.15
   8  -1   6   -0.18    0.17
   7   0  -6    0.30    0.20
   6   0  -6    3.35    0.33
   5   0  -6    0.03    0.17
   4   0  -6    4.71    0.31
   3   0  -6   -0.04    0.06
   3   0  -6   -0.05    0.11
   2   0  -6    0.05    0.08
  -2   0   6    0.08    0.07
  -1   0   6   43.20    1.26
   0   0   6    4.78    0.21
   1   0   6   44.61    1.31
   1   0   6   45.56    1.32
   2   0   6    1.39    0.11
   2   0   6    1.41    0.13
   3   0   6    0.99    0.12
   3   0   6    0.94    0.11
   4   0   6    0.21    0.09
   4   0   6    0.39    0.11
   5   0   6   15.16    0.57
   5   0   6   15.55    0.53
   6   0   6    1.41    0.23
   6   0   6    1.78    0.21
   7   0   6    0.56    0.18
   8   0   6   -0.17    0.14
   7  -1  -6    0.56    0.23
   6  -1  -6    1.75    0.27
   5  -1  -6   -0.06    0.17
   4  -1  -6    3.01    0.27
   3  -1  -6    4.10    0.27
   3  -1  -6    4.04    0.18
   2  -1  -6   24.37    0.73
   2  -1  -6   23.81    0.77
   1  -1  -6   36.44    1.07
   0   1   6   15.27    0.49
   1   1   6    1.26    0.12
   2   1   6   46.85    1.36
   2   1   6   45.68    1.35
   3   1   6    2.63    0.17
   3   1   6    2.45    0.16
   4   1   6   21.31    0.62
   4   1   6   20.96    0.69
   4   1   6   21.15    0.68
  -5  -1  -6    0.18    0.10
   5   1   6    0.22    0.11
  -6  -1  -6    4.76    0.27
   6   1   6    4.25    0.28
   7   1   6    0.12    0.15
   8   1   6    0.38    0.17
   6  -2  -6    0.90    0.25
   5  -2  -6    0.12    0.17
   4  -2  -6    3.88    0.29
   3  -2  -6    3.06    0.24
   3  -2  -6    3.09    0.17
   2  -2  -6   27.70    0.86
   2  -2  -6   26.13    0.81
   1  -2  -6   13.48    0.44
   0  -2  -6   16.61    0.53
  -1  -2  -6  102.50    2.91
  -2  -2  -6    4.92    0.22
   2   2   6    4.98    0.21
  -3  -2  -6   16.75    0.55
   3   2   6   16.88    0.54
  -4  -2  -6    0.96    0.13
   4   2   6    0.91    0.08
   4   2   6    1.01    0.12
  -5  -2  -6   15.47    0.53
   5   2   6   14.32    0.49
   5   2   6   15.48    0.55
  -6  -2  -6   17.23    0.59
   6   2   6   16.87    0.63
   7   2   6    3.56    0.28
   8   2   6    0.17    0.17
   6  -3  -6    0.31    0.23
   5  -3  -6    2.45    0.29
   4  -3  -6   40.85    1.32
   3  -3  -6    2.92    0.26
   3  -3  -6    2.48    0.18
   2  -3  -6    1.66    0.15
   2  -3  -6    2.22    0.20
   1  -3  -6   -0.01    0.08
   0  -3  -6  103.43    2.94
  -1  -3  -6   15.77    0.52
  -2  -3  -6   19.04    0.61
   2   3   6   18.83    0.59
  -3  -3  -6   20.23    0.65
   3   3   6   19.74    0.63
   3   3   6   19.98    0.62
  -4  -3  -6    9.26    0.36
   4   3   6    8.50    0.32
   4   3   6    8.86    0.34
  -5  -3  -6    1.51    0.16
   5   3   6    1.22    0.12
   5   3   6    1.44    0.17
  -6  -3  -6    0.20    0.11
   6   3   6    0.11    0.11
   7   3   6    2.31    0.25
   8   3   6    0.36    0.16
   6  -4  -6   -0.04    0.19
   5  -4  -6    0.27    0.19
   4  -4  -6    0.13    0.16
   3  -4  -6   15.06    0.52
   3  -4  -6   15.43    0.60
   2  -4  -6    0.94    0.15
   2  -4  -6    1.07    0.14
   1  -4  -6   10.60    0.40
   0  -4  -6   36.66    1.11
  -1  -4  -6  290.65    8.15
  -2  -4  -6   78.03    2.26
  -3  -4  -6    5.60    0.28
   3   4   6    5.42    0.23
   3   4   6    5.80    0.26
  -4  -4  -6    3.77    0.25
   4   4   6    3.80    0.21
   4   4   6    4.02    0.21
  -5  -4  -6    3.48    0.24
   5   4   6    3.92    0.23
   5   4   6    4.13    0.23
  -6  -4  -6    1.11    0.15
   6   4   6    1.00    0.15
   6   4   6    0.86    0.14
   7   4   6   -0.03    0.12
   8   4   6    0.01    0.13
   6  -5  -6    0.40    0.23
   5  -5  -6    0.36    0.21
   4  -5  -6    0.04    0.16
   3  -5  -6    1.87    0.18
   3  -5  -6    1.77    0.22
   2  -5  -6   12.92    0.48
   2  -5  -6   12.67    0.50
   1  -5  -6    0.37    0.13
   0  -5  -6    2.23    0.19
  -1  -5  -6  101.94    2.94
  -2  -5  -6   14.44    0.52
  -3  -5  -6    2.71    0.23
   3   5   6    2.59    0.16
   3   5   6    2.60    0.20
  -4  -5  -6   -0.09    0.13
   4   5   6   -0.03    0.10
   4   5   6    0.02    0.09
  -5  -5  -6    0.01    0.09
   5   5   6   -0.01    0.10
   5   5   6    0.09    0.11
  -6  -5  -6    9.24    0.41
   6   5   6    9.34    0.42
   6   5   6    9.66    0.40
   7   5   6    0.56    0.16
   8   5   6    0.04    0.14
   5  -6  -6    0.21    0.22
   4  -6  -6    5.24    0.38
   3  -6  -6    0.19    0.15
   3  -6  -6    0.17    0.12
   2  -6  -6   19.15    0.69
   2  -6  -6   19.28    0.68
   1  -6  -6    4.32    0.30
   1  -6  -6    4.34    0.27
   0  -6  -6    1.09    0.19
  -1  -6  -6    5.19    0.30
  -2  -6  -6   66.26    1.97
  -3  -6  -6    1.36    0.19
   3   6   6    1.24    0.15
  -4  -6  -6   -0.10    0.15
   4   6   6   -0.06    0.09
   4   6   6   -0.07    0.12
  -5  -6  -6    0.13    0.14
   5   6   6    0.09    0.10
   5   6   6    0.21    0.10
  -6  -6  -6    0.27    0.15
   6   6   6   -0.05    0.11
   6   6   6    0.13    0.10
   7   6   6    0.09    0.13
   8   6   6   -0.11    0.14
   5  -7  -6    0.32    0.22
   4  -7  -6    1.50    0.26
   3  -7  -6    0.25    0.14
   3  -7  -6    0.34    0.17
   2  -7  -6    2.90    0.26
   2  -7  -6    3.14    0.27
   1  -7  -6   13.41    0.54
   1  -7  -6   13.61    0.52
   0  -7  -6    0.37    0.17
  -1  -7  -6    0.04    0.18
  -2  -7  -6    1.57    0.22
  -3  -7  -6    0.31    0.17
  -4  -7  -6    6.28    0.38
   4   7   6    6.19    0.34
   4   7   6    6.11    0.26
  -5  -7  -6    0.71    0.20
   5   7   6    0.35    0.15
   5   7   6    0.86    0.13
  -6  -7  -6    7.51    0.40
   6   7   6    7.55    0.33
   6   7   6    6.86    0.40
   7   7   6    2.91    0.31
   7   7   6    3.50    0.25
   4  -8  -6    2.95    0.35
   3  -8  -6    0.73    0.22
   3  -8  -6    0.63    0.18
   2  -8  -6   -0.04    0.13
   2  -8  -6   -0.17    0.15
   1  -8  -6    0.07    0.17
   1  -8  -6   -0.15    0.12
   0  -8  -6    0.08    0.11
   0  -8  -6    0.01    0.18
  -1  -8  -6    2.40    0.25
  -2  -8  -6   21.90    0.80
  -3  -8  -6    0.96    0.21
  -4  -8  -6   -0.01    0.19
   4   8   6    0.19    0.13
  -5  -8  -6    0.40    0.20
   5   8   6    0.00    0.15
  -6  -8  -6    1.88    0.24
   6   8   6    2.45    0.26
   7   8   6    2.22    0.29
   3  -9  -6    0.43    0.22
   2  -9  -6    0.96    0.21
   2  -9  -6    0.67    0.18
   1  -9  -6    0.36    0.15
   1  -9  -6    0.52    0.18
   0  -9  -6    0.83    0.16
   0  -9  -6    0.90    0.23
  -1  -9  -6    0.61    0.22
  -2  -9  -6    0.89    0.23
  -3  -9  -6    0.13    0.21
  -4  -9  -6    2.25    0.30
   4   9   6    2.16    0.24
  -5  -9  -6    2.74    0.31
   5   9   6    2.40    0.26
  -6  -9  -6    1.79    0.27
   6   9   6    1.63    0.25
   2 -10  -6    1.75    0.26
   1 -10  -6    1.50    0.25
   0 -10  -6   -0.09    0.18
  -1 -10  -6    2.19    0.29
  -2 -10  -6    1.30    0.26
  -3 -10  -6    0.25    0.24
  -4 -10  -6    0.69    0.26
  -5 -10  -6    0.17    0.24
   5  10   6   -0.02    0.18
  -6 -10  -6    0.39    0.23
   6  10   6    0.23    0.21
   1 -11  -6    0.66    0.22
   0 -11  -6    0.20    0.23
  -1 -11  -6    0.23    0.23
  -2 -11  -6    2.51    0.34
  -3 -11  -6    0.33    0.26
  -4 -11  -6    0.23    0.26
  -5 -11  -6    0.01    0.24
  -2 -12  -6    0.81    0.28
   2   9  -7    0.08    0.25
  -2  -9   7    0.71    0.19
   1   9  -7    0.05    0.22
  -1  -9   7    0.16    0.17
   0  -9   7    0.60    0.22
   1  -9   7    0.39    0.21
   2  -9   7    0.61    0.21
   4   8  -7    0.84    0.29
   3   8  -7   -0.05    0.22
  -3  -8   7    0.23    0.14
   2   8  -7   -0.09    0.20
  -2  -8   7    0.20    0.16
   1   8  -7    0.02    0.19
  -1  -8   7    0.56    0.18
   0   8  -7   -0.04    0.17
   0  -8   7    0.01    0.17
   1  -8   7    3.01    0.31
   2  -8   7   -0.04    0.15
   3  -8   7    0.20    0.18
   4  -8   7   -0.06    0.18
   5   7  -7    1.74    0.29
   4   7  -7    0.03    0.18
   3   7  -7    0.03    0.19
  -3  -7   7    0.04    0.12
   2   7  -7    0.69    0.20
  -2  -7   7    0.68    0.17
   1   7  -7   -0.06    0.16
  -1  -7   7    0.10    0.14
   0   7  -7   -0.22    0.14
   0  -7   7   -0.05    0.13
   1  -7   7    1.49    0.24
   2  -7   7   -0.11    0.14
   3  -7   7    2.76    0.28
   4  -7   7    0.03    0.15
   5  -7   7    0.47    0.17
   5   6  -7    0.96    0.25
   4   6  -7    0.93    0.21
   3   6  -7    0.80    0.18
  -3  -6   7    0.86    0.13
   2   6  -7    1.75    0.22
  -2  -6   7    1.89    0.20
   1   6  -7    0.51    0.16
  -1  -6   7    0.63    0.15
   0   6  -7    5.55    0.33
   0  -6   7    5.12    0.34
  -1   6  -7    0.08    0.12
   1  -6   7   -0.07    0.12
   2  -6   7    0.32    0.15
   3  -6   7    1.01    0.19
   4  -6   7    0.63    0.17
   5  -6   7    3.00    0.27
   6   5  -7    0.53    0.22
   5   5  -7   -0.10    0.14
   4   5  -7    0.20    0.15
   3   5  -7    1.68    0.22
  -3  -5   7    1.83    0.17
   2   5  -7    0.26    0.12
  -2  -5   7    0.38    0.13
   1   5  -7    0.06    0.12
  -1  -5   7    0.05    0.12
   0   5  -7    0.17    0.12
   0  -5   7    0.09    0.13
  -1   5  -7    0.92    0.15
   1  -5   7    1.09    0.17
   2  -5   7   13.05    0.53
   3  -5   7    0.19    0.15
   3  -5   7    0.12    0.09
   4  -5   7    0.72    0.13
   4  -5   7    0.60    0.15
   5  -5   7    2.78    0.25
   5  -5   7    2.69    0.23
   6  -5   7    0.27    0.16
   6   4  -7    0.11    0.18
   5   4  -7   -0.14    0.12
   4   4  -7    0.12    0.13
   3   4  -7    3.10    0.28
  -3  -4   7    3.22    0.19
   2   4  -7   10.06    0.43
  -2  -4   7    8.03    0.36
   1   4  -7   77.19    2.28
  -1  -4   7   77.10    2.26
   0   4  -7    1.49    0.15
   0  -4   7    1.43    0.17
  -1   4  -7    0.60    0.12
   1  -4   7    0.58    0.16
   1  -4   7    0.94    0.09
   2  -4   7    0.43    0.14
   2  -4   7   -0.05    0.07
   3  -4   7    0.40    0.10
   3  -4   7    0.15    0.14
   4  -4   7    3.21    0.25
   4  -4   7    2.82    0.20
   5  -4   7    2.00    0.21
   5  -4   7    2.07    0.21
   6  -4   7    0.06    0.15
   7  -4   7   -0.02    0.16
   6   3  -7    0.11    0.16
   5   3  -7    0.70    0.18
   4   3  -7    0.01    0.11
   3   3  -7    0.78    0.14
   3   3  -7    0.85    0.14
  -3  -3   7    0.66    0.10
   2   3  -7    1.78    0.18
   2   3  -7    1.97    0.16
  -2  -3   7    1.96    0.17
   1   3  -7   17.45    0.61
  -1  -3   7   18.08    0.60
   0   3  -7    0.03    0.08
   0  -3   7    0.16    0.12
  -1   3  -7   12.91    0.44
   1  -3   7   12.62    0.42
   1  -3   7   12.85    0.48
   2  -3   7    1.32    0.15
   2  -3   7    1.10    0.12
   3  -3   7    3.77    0.24
   4  -3   7    0.55    0.12
   4  -3   7    0.37    0.12
   5  -3   7    0.45    0.14
   5  -3   7    0.52    0.13
   6  -3   7    2.42    0.26
   6  -3   7    2.63    0.22
   7  -3   7    0.85    0.20
   6   2  -7    0.30    0.17
   6   2  -7    0.32    0.16
   5   2  -7    0.11    0.14
   5   2  -7    0.24    0.13
   4   2  -7    0.12    0.13
   3   2  -7    0.24    0.12
  -3  -2   7    0.32    0.09
   2   2  -7    5.36    0.28
   2   2  -7    5.16    0.24
  -2  -2   7    5.02    0.23
   1   2  -7   17.76    0.61
  -1  -2   7   18.08    0.59
   0   2  -7    9.52    0.35
   0  -2   7    9.72    0.37
  -1   2  -7   51.30    1.51
   1  -2   7   52.60    1.51
   1  -2   7   53.20    1.56
  -2   2  -7   31.60    0.91
   2  -2   7   31.24    0.98
   3  -2   7    0.04    0.11
   3  -2   7    0.02    0.08
   4  -2   7    4.81    0.26
   4  -2   7    4.87    0.26
   5  -2   7    5.36    0.28
   5  -2   7    5.65    0.30
   6  -2   7    0.16    0.11
   6  -2   7    0.04    0.12
   7  -2   7    0.09    0.15
   6   1  -7    0.33    0.18
   5   1  -7   -0.01    0.16
   4   1  -7   -0.12    0.11
   3   1  -7    2.45    0.21
  -3  -1   7    2.39    0.15
   2   1  -7    0.41    0.10
  -2  -1   7    0.54    0.09
  -1  -1   7   22.41    0.70
   0  -1   7    9.92    0.37
  -1   1  -7    6.05    0.22
   1  -1   7    5.39    0.22
   1  -1   7    5.96    0.26
  -2   1  -7    0.13    0.03
   2  -1   7    0.19    0.09
   2  -1   7    0.28    0.10
   3  -1   7    0.25    0.10
   3  -1   7    0.35    0.09
   4  -1   7   28.76    0.91
   4  -1   7   28.65    0.91
   5  -1   7    7.54    0.33
   5  -1   7    7.53    0.36
   6  -1   7    0.97    0.14
   6  -1   7    0.68    0.16
   7  -1   7   -0.06    0.13
   8  -1   7    0.03    0.18
   6   0  -7    0.03    0.16
   5   0  -7    0.31    0.16
   4   0  -7    1.38    0.20
   3   0  -7    0.89    0.15
   3   0  -7    1.21    0.12
   2   0  -7   -0.05    0.10
  -2   0   7    0.00    0.08
  -1   0   7    0.07    0.04
   0   0   7    9.83    0.36
   1   0   7   -0.06    0.08
   2   0   7    0.23    0.09
   2   0   7    0.21    0.09
   3   0   7    0.23    0.09
   3   0   7    0.28    0.09
   4   0   7    0.19    0.11
   4   0   7    0.24    0.10
   5   0   7   15.46    0.54
   5   0   7   15.32    0.56
   6   0   7    5.58    0.28
   6   0   7    4.71    0.30
   7   0   7    0.50    0.17
   8   0   7    0.19    0.16
   6  -1  -7    0.02    0.17
   5  -1  -7    0.18    0.16
   4  -1  -7    4.89    0.33
   3  -1  -7    7.31    0.36
   3  -1  -7    7.46    0.36
   2  -1  -7    5.19    0.27
   2  -1  -7    4.86    0.22
   1  -1  -7  137.09    3.87
   0   1   7    1.36    0.13
   1   1   7    0.11    0.09
   2   1   7   26.18    0.81
   2   1   7   26.88    0.83
   3   1   7    0.10    0.10
   3   1   7   -0.06    0.07
   4   1   7   35.72    1.11
   4   1   7   36.94    1.11
   5   1   7   20.46    0.70
  -6  -1  -7    0.54    0.13
   6   1   7    0.52    0.15
   7   1   7    0.06    0.13
   8   1   7   -0.17    0.13
   6  -2  -7    0.63    0.22
   5  -2  -7    0.98    0.22
   4  -2  -7   34.96    1.16
   3  -2  -7    7.76    0.37
   2  -2  -7    1.66    0.15
   2  -2  -7    1.91    0.18
   1  -2  -7   -0.13    0.08
   0  -2  -7    0.03    0.08
  -1  -2  -7  110.05    3.13
  -2  -2  -7   -0.06    0.09
   2   2   7    0.06    0.07
  -3  -2  -7   27.61    0.86
   3   2   7   27.82    0.85
  -4  -2  -7   10.29    0.40
   4   2   7   10.73    0.39
  -5  -2  -7    0.07    0.05
   5   2   7    0.28    0.12
  -6  -2  -7    2.42    0.20
   6   2   7    2.52    0.22
   7   2   7    1.43    0.20
   8   2   7   -0.04    0.14
   6  -3  -7    0.33    0.23
   5  -3  -7    6.18    0.43
   4  -3  -7    4.01    0.31
   3  -3  -7   16.43    0.62
   2  -3  -7    0.11    0.10
   2  -3  -7    0.08    0.12
   1  -3  -7   34.52    1.04
   0  -3  -7    0.93    0.12
  -1  -3  -7   11.50    0.42
  -2  -3  -7    8.32    0.33
   2   3   7    8.21    0.31
  -3  -3  -7    9.69    0.38
   3   3   7    9.67    0.35
  -4  -3  -7    5.94    0.28
   4   3   7    5.87    0.24
   4   3   7    6.00    0.28
  -5  -3  -7    9.16    0.41
   5   3   7   13.04    0.44
  -6  -3  -7    0.08    0.11
   6   3   7    0.31    0.13
   7   3   7    5.13    0.33
   8   3   7    0.31    0.16
   6  -4  -7    0.82    0.27
   5  -4  -7    2.57    0.31
   4  -4  -7    1.29    0.22
   3  -4  -7    0.78    0.18
   2  -4  -7    1.36    0.16
   2  -4  -7    1.11    0.17
   1  -4  -7    3.06    0.22
   0  -4  -7   22.34    0.72
  -1  -4  -7    1.98    0.17
  -2  -4  -7   34.74    1.07
  -3  -4  -7   16.68    0.58
   3   4   7   17.49    0.56
  -4  -4  -7   17.43    0.60
   4   4   7   16.61    0.56
   4   4   7   17.25    0.57
  -5  -4  -7    8.17    0.36
   5   4   7    7.42    0.32
   5   4   7    7.98    0.34
  -6  -4  -7    1.17    0.18
   6   4   7    1.24    0.18
   7   4   7    7.17    0.38
   8   4   7   -0.07    0.13
   5  -5  -7   -0.43    0.19
   4  -5  -7    0.01    0.18
   3  -5  -7    4.46    0.31
   2  -5  -7    0.28    0.13
   2  -5  -7    0.04    0.13
   1  -5  -7    0.18    0.14
   0  -5  -7    1.42    0.18
  -1  -5  -7   16.78    0.59
  -2  -5  -7    2.93    0.22
  -3  -5  -7    5.03    0.27
   3   5   7    4.53    0.22
  -4  -5  -7    0.69    0.15
   4   5   7    1.04    0.13
   4   5   7    0.70    0.13
  -5  -5  -7    2.68    0.24
   5   5   7    3.02    0.21
   5   5   7    2.87    0.21
  -6  -5  -7    0.01    0.13
   6   5   7   -0.03    0.11
   7   5   7    0.04    0.14
   8   5   7    1.74    0.24
   5  -6  -7    0.17    0.22
   4  -6  -7    0.10    0.18
   3  -6  -7    0.30    0.17
   2  -6  -7    1.33    0.19
   2  -6  -7    1.45    0.19
   1  -6  -7    3.92    0.29
   1  -6  -7    3.60    0.27
   0  -6  -7    7.96    0.39
  -1  -6  -7   49.28    1.51
  -2  -6  -7   17.89    0.66
  -3  -6  -7    1.66    0.22
  -4  -6  -7   -0.03    0.14
   4   6   7    0.01    0.03
   4   6   7    0.12    0.08
  -5  -6  -7    2.90    0.25
   5   6   7    2.59    0.23
   5   6   7    2.91    0.20
  -6  -6  -7    0.13    0.12
   6   6   7    0.14    0.10
   6   6   7   -0.19    0.12
   7   6   7    0.05    0.12
   8   6   7    0.38    0.15
   4  -7  -7    4.62    0.39
   3  -7  -7    0.53    0.21
   2  -7  -7    0.09    0.16
   2  -7  -7    0.20    0.15
   1  -7  -7    0.46    0.14
   1  -7  -7    0.55    0.18
   0  -7  -7    0.23    0.17
  -1  -7  -7    5.89    0.35
  -2  -7  -7    3.92    0.30
  -3  -7  -7    4.77    0.32
  -4  -7  -7    1.77    0.23
   4   7   7    2.03    0.20
  -5  -7  -7    1.40    0.23
   5   7   7    1.04    0.17
   5   7   7    1.31    0.15
  -6  -7  -7    0.87    0.20
   6   7   7    0.91    0.15
   7   7   7    1.98    0.21
   4  -8  -7    0.68    0.27
   3  -8  -7    5.26    0.38
   2  -8  -7    0.58    0.18
   2  -8  -7    1.15    0.21
   1  -8  -7    0.84    0.18
   1  -8  -7    0.90    0.21
   0  -8  -7    2.05    0.25
  -1  -8  -7    4.98    0.36
  -2  -8  -7    3.63    0.31
  -3  -8  -7    1.73    0.25
  -4  -8  -7    1.42    0.25
  -5  -8  -7   -0.01    0.19
   5   8   7    0.02    0.09
   5   8   7   -0.06    0.14
  -6  -8  -7   -0.14    0.18
   6   8   7   -0.05    0.15
   3  -9  -7    0.13    0.18
   2  -9  -7   -0.40    0.15
   2  -9  -7    0.03    0.15
   1  -9  -7    0.94    0.19
   1  -9  -7    1.31    0.23
   0  -9  -7    0.07    0.11
   0  -9  -7   -0.11    0.17
  -1  -9  -7    1.47    0.23
  -2  -9  -7    0.45    0.22
  -3  -9  -7    0.53    0.21
  -4  -9  -7    2.10    0.28
  -5  -9  -7    0.30    0.20
   5   9   7    0.42    0.17
  -6  -9  -7    0.48    0.23
   6   9   7    0.29    0.18
   2 -10  -7    0.30    0.20
   2 -10  -7   -0.02    0.19
   1 -10  -7    0.40    0.19
   1 -10  -7    0.21    0.17
   0 -10  -7    0.13    0.19
  -1 -10  -7    1.26    0.24
  -2 -10  -7    0.77    0.23
  -3 -10  -7    0.28    0.24
  -4 -10  -7    1.82    0.32
  -5 -10  -7   -0.10    0.22
  -6 -10  -7   -0.23    0.21
   6  10   7    0.40    0.20
   1 -11  -7    2.12    0.30
   0 -11  -7    0.69    0.23
  -1 -11  -7    2.11    0.32
  -2 -11  -7    0.33    0.26
  -3 -11  -7    0.24    0.26
  -4 -11  -7    0.12    0.23
   1   9  -8    0.03    0.24
  -1  -9   8    0.84    0.22
   0  -9   8    2.08    0.28
   1  -9   8   -0.07    0.19
   3   8  -8    0.39    0.23
  -3  -8   8    0.82    0.22
   2   8  -8    0.39    0.24
  -2  -8   8    0.71    0.19
   1   8  -8   -0.16    0.19
  -1  -8   8    0.04    0.14
   0  -8   8    1.60    0.25
   1  -8   8    1.05    0.21
   2  -8   8    1.39    0.24
   3  -8   8    1.29    0.24
   4   7  -8    3.67    0.36
   3   7  -8    2.13    0.30
  -3  -7   8    2.88    0.26
   2   7  -8    0.95    0.23
  -2  -7   8    1.10    0.18
   1   7  -8   -0.08    0.16
  -1  -7   8    0.09    0.13
   0   7  -8    1.56    0.22
   0  -7   8    1.62    0.23
   1  -7   8    0.04    0.15
   2  -7   8    0.18    0.17
   3  -7   8    0.03    0.17
   4  -7   8    0.18    0.16
   5   6  -8    0.34    0.22
   4   6  -8    0.58    0.20
   3   6  -8   -0.01    0.17
  -3  -6   8   -0.06    0.10
   2   6  -8    0.20    0.15
  -2  -6   8    0.31    0.14
   1   6  -8   -0.11    0.14
  -1  -6   8    0.05    0.14
   0   6  -8    3.27    0.30
   0  -6   8    3.60    0.30
   1  -6   8    0.46    0.17
   2  -6   8    0.08    0.15
   3  -6   8    0.06    0.14
   4  -6   8    0.18    0.15
   5  -6   8    0.37    0.17
   5   5  -8    0.27    0.20
   4   5  -8    0.14    0.17
   3   5  -8    1.65    0.23
  -3  -5   8    1.45    0.16
   2   5  -8    2.70    0.25
  -2  -5   8    2.90    0.23
   1   5  -8    3.68    0.28
  -1  -5   8    3.99    0.26
   0   5  -8    3.07    0.25
   0  -5   8    3.02    0.25
  -1   5  -8    0.85    0.15
   1  -5   8    0.87    0.17
   2  -5   8    4.77    0.33
   3  -5   8    0.29    0.16
   4  -5   8    0.57    0.16
   5  -5   8    2.20    0.24
   5  -5   8    1.35    0.16
   6  -5   8    0.51    0.17
   6  -5   8    0.29    0.14
   5   4  -8    0.05    0.17
   4   4  -8    0.93    0.20
   3   4  -8    0.18    0.13
  -3  -4   8    0.16    0.10
   2   4  -8   16.77    0.63
  -2  -4   8   16.22    0.58
   1   4  -8    0.69    0.14
  -1  -4   8    1.00    0.16
   0   4  -8    5.16    0.29
   0  -4   8    5.28    0.30
  -1   4  -8    0.09    0.10
   1  -4   8    0.25    0.13
   2  -4   8    0.05    0.11
   2  -4   8    0.02    0.08
   3  -4   8    0.10    0.09
   3  -4   8   -0.01    0.13
   4  -4   8    0.20    0.13
   5  -4   8    0.27    0.14
   5  -4   8    0.17    0.12
   6  -4   8    1.57    0.20
   6  -4   8    1.83    0.22
   6   3  -8    0.23    0.18
   5   3  -8    1.39    0.22
   4   3  -8   -0.06    0.12
   3   3  -8    2.93    0.25
  -3  -3   8    2.93    0.20
   2   3  -8   24.61    0.80
   2   3  -8   24.21    0.72
  -2  -3   8   19.28    0.72
   1   3  -8    3.88    0.25
  -1  -3   8    3.70    0.23
   0   3  -8   11.45    0.43
   0  -3   8   10.92    0.45
  -1   3  -8   12.67    0.44
   1  -3   8   12.48    0.49
   2  -3   8    7.58    0.30
   2  -3   8    7.47    0.35
   3  -3   8   11.97    0.49
   4  -3   8   18.05    0.66
   4  -3   8   18.58    0.63
   5  -3   8    0.78    0.15
   5  -3   8    0.69    0.15
   6  -3   8    0.91    0.16
   6  -3   8    0.80    0.16
   7  -3   8   -0.03    0.14
   6   2  -8    1.18    0.23
   5   2  -8    3.71    0.35
   5   2  -8    3.71    0.30
   4   2  -8    3.23    0.26
   3   2  -8    2.27    0.20
   2   2  -8   11.88    0.44
   2   2  -8   11.91    0.49
  -2  -2   8   12.44    0.43
   1   2  -8    2.91    0.22
  -1  -2   8    3.33    0.21
   0   2  -8   49.47    1.48
   0  -2   8   50.47    1.50
  -1   2  -8   13.70    0.45
   2  -2   8    0.04    0.04
   2  -2   8    0.17    0.11
   3  -2   8    6.83    0.33
   3  -2   8    6.94    0.30
   4  -2   8    0.86    0.15
   4  -2   8    1.09    0.15
   5  -2   8    0.12    0.12
   5  -2   8   -0.07    0.10
   6  -2   8    0.10    0.11
   6  -2   8    0.16    0.14
   7  -2   8    0.20    0.17
   6   1  -8    1.04    0.21
   5   1  -8    0.07    0.16
   4   1  -8    0.61    0.16
   3   1  -8    7.06    0.34
   2   1  -8    0.01    0.10
  -2  -1   8    0.10    0.09
  -1  -1   8    0.16    0.10
   0  -1   8    8.13    0.33
  -1   1  -8    0.67    0.08
   1  -1   8    0.55    0.11
  -2   1  -8    0.38    0.06
   2  -1   8    0.47    0.12
   2  -1   8    0.44    0.10
   3  -1   8    6.38    0.30
   3  -1   8    6.66    0.29
   4  -1   8   34.85    1.09
   4  -1   8   35.63    1.10
   5  -1   8   26.16    0.86
   5  -1   8   26.34    0.86
   6  -1   8    0.20    0.13
   6  -1   8   -0.01    0.10
   7  -1   8    1.06    0.19
   8  -1   8    0.85    0.21
   6   0  -8    0.63    0.22
   5   0  -8    0.12    0.15
   4   0  -8    1.66    0.21
   3   0  -8    0.16    0.12
   2   0  -8    1.18    0.15
  -2   0   8    1.23    0.13
  -1   0   8    1.59    0.14
   0   0   8   26.23    0.82
   1   0   8    0.29    0.10
  -2   0  -8   20.26    0.60
   2   0   8   21.17    0.67
   2   0   8   21.23    0.69
   3   0   8    3.13    0.22
   3   0   8    3.09    0.19
   4   0   8    0.42    0.12
   4   0   8    0.40    0.12
   5   0   8   42.11    1.29
   5   0   8   41.99    1.30
   6   0   8    2.07    0.19
   6   0   8    1.64    0.20
   7   0   8    0.01    0.14
   8   0   8    0.35    0.18
   6  -1  -8    1.33    0.27
   5  -1  -8    0.24    0.17
   4  -1  -8    1.05    0.20
   3  -1  -8    0.92    0.17
   2  -1  -8    3.89    0.21
   2  -1  -8    3.39    0.24
   1  -1  -8    9.48    0.36
   0   1   8    0.55    0.11
   1   1   8    5.68    0.26
   2   1   8  165.45    4.51
   2   1   8  153.46    4.52
   3   1   8   20.72    0.68
   3   1   8   20.04    0.66
   4   1   8    5.06    0.28
   4   1   8    5.27    0.26
  -5  -1  -8    0.53    0.13
   5   1   8    0.48    0.13
   5   1   8    0.40    0.13
  -6  -1  -8   15.62    0.56
   6   1   8   15.02    0.58
   7   1   8    0.13    0.13
   8   1   8    0.74    0.20
   6  -2  -8    0.39    0.22
   5  -2  -8    3.75    0.33
   4  -2  -8    5.79    0.35
   3  -2  -8    1.56    0.20
   2  -2  -8    5.35    0.26
   2  -2  -8    5.52    0.29
   1  -2  -8    0.33    0.11
   0  -2  -8    0.14    0.09
  -1  -2  -8    9.22    0.35
  -2  -2  -8    7.69    0.33
   2   2   8    7.77    0.30
  -3  -2  -8   21.96    0.72
   3   2   8   21.62    0.70
  -4  -2  -8    0.76    0.15
   4   2   8    0.86    0.13
  -5  -2  -8    6.57    0.32
   5   2   8    6.43    0.31
  -6  -2  -8    0.31    0.13
   6   2   8    0.36    0.13
   7   2   8    0.29    0.14
   8   2   8   -0.03    0.16
   6  -3  -8    0.14    0.21
   5  -3  -8    9.92    0.52
   4  -3  -8    3.84    0.31
   3  -3  -8    0.25    0.14
   2  -3  -8    2.41    0.22
   2  -3  -8    2.54    0.19
   1  -3  -8   19.52    0.64
   0  -3  -8    0.54    0.12
  -1  -3  -8    3.00    0.20
  -2  -3  -8    2.21    0.18
  -3  -3  -8    8.85    0.36
   3   3   8    8.48    0.33
  -4  -3  -8   13.53    0.50
   4   3   8   13.82    0.48
  -5  -3  -8    1.94    0.20
   5   3   8    2.19    0.19
  -6  -3  -8    0.03    0.12
   6   3   8   -0.06    0.12
   7   3   8   -0.01    0.12
   8   3   8   -0.01    0.16
   5  -4  -8   -0.15    0.18
   4  -4  -8    9.86    0.49
   3  -4  -8    3.03    0.28
   2  -4  -8    0.13    0.12
   2  -4  -8    0.18    0.14
   1  -4  -8    2.89    0.22
   0  -4  -8   12.78    0.48
  -1  -4  -8   13.71    0.49
  -2  -4  -8    4.88    0.27
  -3  -4  -8    0.13    0.12
   3   4   8    0.00    0.08
  -4  -4  -8    1.65    0.18
   4   4   8    1.69    0.16
  -5  -4  -8    7.16    0.35
   5   4   8    7.52    0.33
  -6  -4  -8    0.07    0.10
   6   4   8    0.29    0.13
   7   4   8    0.28    0.14
   8   4   8   -0.09    0.16
   5  -5  -8   -0.03    0.19
   4  -5  -8    0.52    0.20
   3  -5  -8    1.34    0.22
   2  -5  -8    4.69    0.28
   2  -5  -8    4.71    0.29
   1  -5  -8    0.53    0.16
   0  -5  -8   13.60    0.52
  -1  -5  -8    0.04    0.14
  -2  -5  -8   29.11    0.94
  -3  -5  -8    0.14    0.15
  -4  -5  -8    0.33    0.15
   4   5   8    0.31    0.10
  -5  -5  -8   15.65    0.59
   5   5   8   15.19    0.54
   5   5   8   14.21    0.58
   6   5   8    0.82    0.16
   7   5   8    0.24    0.13
   8   5   8   -0.20    0.15
   5  -6  -8    0.27    0.22
   4  -6  -8   -0.07    0.17
   3  -6  -8    3.36    0.31
   2  -6  -8    0.11    0.14
   2  -6  -8    0.02    0.14
   1  -6  -8    1.20    0.19
   0  -6  -8    0.04    0.16
  -1  -6  -8    3.69    0.27
  -2  -6  -8  143.48    4.12
  -3  -6  -8    3.05    0.27
  -4  -6  -8    0.08    0.16
   4   6   8    0.13    0.09
  -5  -6  -8    4.88    0.34
   5   6   8    4.55    0.25
   5   6   8    4.35    0.27
  -6  -6  -8    4.95    0.35
   6   6   8    4.73    0.27
   7   6   8    0.64    0.16
   8   6   8   -0.02    0.15
   4  -7  -8    0.59    0.26
   3  -7  -8    0.42    0.19
   2  -7  -8    2.35    0.24
   2  -7  -8    2.00    0.24
   1  -7  -8    4.22    0.31
   1  -7  -8    4.59    0.31
   0  -7  -8    0.07    0.17
  -1  -7  -8    6.07    0.35
  -2  -7  -8    8.66    0.42
  -3  -7  -8   34.73    1.14
  -4  -7  -8    1.72    0.22
  -5  -7  -8    0.26    0.17
   5   7   8    0.08    0.11
   5   7   8    0.11    0.09
  -6  -7  -8    0.98    0.23
   6   7   8    0.94    0.15
   7   7   8    1.48    0.20
   4  -8  -8    0.26    0.22
   3  -8  -8   -0.13    0.18
   2  -8  -8    1.64    0.25
   2  -8  -8    1.75    0.24
   1  -8  -8    0.77    0.17
   1  -8  -8    1.21    0.22
   0  -8  -8    7.08    0.40
  -1  -8  -8    1.90    0.24
  -2  -8  -8    0.49    0.18
  -3  -8  -8    1.16    0.22
  -4  -8  -8    0.15    0.20
  -5  -8  -8    0.55    0.22
  -6  -8  -8    0.40    0.22
   6   8   8    0.52    0.13
   3  -9  -8   -0.17    0.18
   2  -9  -8    0.45    0.19
   2  -9  -8    0.15    0.18
   1  -9  -8   -0.01    0.16
   1  -9  -8    0.13    0.16
   0  -9  -8    0.23    0.20
   0  -9  -8    0.21    0.14
  -1  -9  -8   -0.24    0.18
  -2  -9  -8    0.20    0.19
  -3  -9  -8    1.49    0.27
  -4  -9  -8    3.45    0.34
  -5  -9  -8    0.17    0.20
  -6  -9  -8    1.91    0.31
   6   9   8    1.38    0.22
   2 -10  -8    0.32    0.21
   2 -10  -8    0.84    0.23
   1 -10  -8    0.43    0.22
   1 -10  -8    0.14    0.17
   0 -10  -8    0.24    0.22
   0 -10  -8    0.15    0.14
  -1 -10  -8    0.30    0.22
  -2 -10  -8    0.55    0.21
  -3 -10  -8    0.23    0.23
  -4 -10  -8    0.46    0.23
  -5 -10  -8    0.33    0.26
   0 -11  -8    0.00    0.20
  -1 -11  -8    0.17    0.22
  -2 -11  -8    3.83    0.37
  -3 -11  -8   -0.27    0.24
  -4 -11  -8    0.40    0.25
   2   8  -9   -0.38    0.22
  -2  -8   9    0.14    0.16
  -1  -8   9    0.72    0.21
   0  -8   9    0.23    0.19
   1  -8   9    0.14    0.20
   2  -8   9    0.33    0.20
   3   7  -9   -0.12    0.21
   2   7  -9   -0.19    0.19
  -2  -7   9    0.16    0.15
   1   7  -9    0.46    0.20
  -1  -7   9    0.38    0.17
   0  -7   9    1.25    0.23
   1  -7   9    0.64    0.19
   2  -7   9   -0.05    0.15
   3  -7   9    0.26    0.18
   4  -7   9    1.22    0.23
   4   6  -9   -0.17    0.19
   3   6  -9    0.15    0.18
   2   6  -9    0.16    0.16
  -2  -6   9    0.22    0.14
   1   6  -9   -0.02    0.14
  -1  -6   9   -0.01    0.15
   0  -6   9    0.90    0.18
   1  -6   9    0.08    0.14
   2  -6   9    0.19    0.17
   3  -6   9    1.04    0.20
   4  -6   9    0.40    0.18
   5  -6   9    0.05    0.17
   5   5  -9    0.18    0.21
   4   5  -9    0.20    0.19
   3   5  -9    0.30    0.17
   2   5  -9    1.21    0.20
  -2  -5   9    1.16    0.16
  -1  -5   9    0.15    0.12
   0   5  -9    0.70    0.15
   0  -5   9    0.90    0.18
   1  -5   9    2.16    0.23
   2  -5   9   -0.01    0.13
   3  -5   9    0.06    0.14
   4  -5   9    1.90    0.23
   5  -5   9    1.79    0.24
   5   4  -9    0.99    0.24
   4   4  -9   -0.22    0.15
   3   4  -9    2.61    0.25
   2   4  -9    3.72    0.30
  -2  -4   9    3.90    0.25
   1   4  -9    0.36    0.13
  -1  -4   9    0.67    0.15
   0   4  -9    2.46    0.22
   0  -4   9    1.99    0.22
   1  -4   9   14.96    0.58
   2  -4   9    5.20    0.31
   3  -4   9    3.31    0.26
   3  -4   9    3.10    0.20
   4  -4   9    1.87    0.18
   4  -4   9    3.11    0.27
   5  -4   9    0.14    0.14
   5  -4   9   -0.09    0.10
   6  -4   9    0.67    0.16
   6  -4   9    0.74    0.17
   5   3  -9    0.29    0.16
   4   3  -9   -0.04    0.14
   3   3  -9    0.04    0.13
  -2  -3   9    6.11    0.28
   1   3  -9   -0.02    0.11
  -1  -3   9    0.14    0.12
   0   3  -9    7.28    0.34
   0  -3   9    7.62    0.37
  -1   3  -9    0.52    0.10
   1  -3   9    0.73    0.16
   2  -3   9    0.12    0.12
   2  -3   9    0.11    0.09
   3  -3   9   -0.06    0.13
   3  -3   9    0.06    0.09
   4  -3   9    0.59    0.15
   4  -3   9    0.79    0.13
   5  -3   9    2.03    0.20
   5  -3   9    2.19    0.21
   6  -3   9   -0.02    0.13
   6  -3   9    0.18    0.14
   7  -3   9   -0.02    0.16
   5   2  -9   -0.01    0.17
   4   2  -9    2.23    0.23
   4   2  -9    2.37    0.26
   3   2  -9    0.50    0.13
   3   2  -9    0.38    0.15
   2   2  -9   11.49    0.42
   2   2  -9   11.05    0.47
  -2  -2   9   11.56    0.43
   1   2  -9   30.35    0.98
  -1  -2   9   30.16    0.96
   0   2  -9    5.37    0.26
   0  -2   9    5.06    0.28
  -1   2  -9    1.46    0.13
   1  -2   9    1.23    0.16
   2  -2   9    1.91    0.19
   3  -2   9    0.22    0.12
   3  -2   9    0.25    0.11
   4  -2   9    8.91    0.37
   4  -2   9    9.16    0.41
   5  -2   9    1.26    0.18
   5  -2   9    1.40    0.17
   6  -2   9    0.05    0.12
   6  -2   9    0.23    0.13
   7  -2   9    0.28    0.15
   6   1  -9    0.18    0.16
   5   1  -9    0.31    0.18
   4   1  -9    0.20    0.15
   3   1  -9    0.61    0.14
   2   1  -9    0.30    0.11
  -2  -1   9    0.35    0.11
  -1  -1   9    4.30    0.24
   0  -1   9    0.54    0.13
  -1   1  -9   21.52    0.67
   1  -1   9   22.06    0.73
   2  -1   9    0.64    0.14
   2  -1   9    0.59    0.11
   3  -1   9   14.44    0.54
   3  -1   9   14.66    0.51
   4  -1   9    2.38    0.19
   4  -1   9    2.58    0.22
   5  -1   9    0.20    0.11
   5  -1   9    0.35    0.13
   6  -1   9    1.31    0.19
   6  -1   9    1.41    0.18
   7  -1   9    0.01    0.14
   6   0  -9    0.49    0.22
   5   0  -9    0.04    0.16
   4   0  -9    0.55    0.16
   3   0  -9    5.52    0.30
   2   0  -9    1.25    0.16
   2   0  -9    0.93    0.13
  -2   0   9    1.10    0.13
  -1   0   9    4.25    0.23
   0   0   9    2.77    0.19
   1   0   9   23.69    0.77
   2   0   9    1.82    0.17
   2   0   9    2.23    0.20
   3   0   9    0.38    0.12
   3   0   9    0.65    0.12
   4   0   9    3.62    0.23
   4   0   9    3.77    0.26
   5   0   9   14.86    0.55
   5   0   9   15.39    0.57
   6   0   9    1.11    0.16
   6   0   9    1.10    0.17
   7   0   9    0.07    0.15
   8   0   9    0.23    0.17
   6  -1  -9    1.18    0.27
   5  -1  -9    2.56    0.29
   4  -1  -9    0.62    0.19
   3  -1  -9    2.15    0.21
   2  -1  -9   10.44    0.39
   2  -1  -9    9.90    0.41
   1  -1  -9    0.42    0.12
   0   1   9    2.63    0.19
   1   1   9   21.20    0.71
   2   1   9    6.84    0.32
   2   1   9    6.68    0.29
   3   1   9   13.48    0.50
   3   1   9   13.26    0.47
   4   1   9    0.25    0.14
   4   1   9   -0.08    0.12
  -5  -1  -9    1.97    0.19
   5   1   9    1.62    0.19
   5   1   9    1.80    0.18
  -6  -1  -9    2.12    0.21
   6   1   9    2.50    0.22
   7   1   9    0.15    0.15
   8   1   9    0.12    0.16
   5  -2  -9    3.72    0.35
   4  -2  -9    0.05    0.15
   3  -2  -9    4.18    0.28
   2  -2  -9    5.02    0.30
   2  -2  -9    5.01    0.25
   1  -2  -9    1.28    0.16
   0  -2  -9   51.74    1.54
  -1  -2  -9    0.50    0.12
  -2  -2  -9    0.47    0.14
  -3  -2  -9    0.77    0.15
   3   2   9    0.94    0.13
  -4  -2  -9    4.91    0.27
   4   2   9    5.06    0.27
  -5  -2  -9   14.21    0.53
   5   2   9   13.61    0.52
  -6  -2  -9    0.94    0.16
   6   2   9    1.15    0.18
   7   2   9   -0.12    0.12
   8   2   9   -0.16    0.16
   5  -3  -9    0.12    0.20
   4  -3  -9    2.98    0.30
   3  -3  -9   13.93    0.56
   2  -3  -9   16.38    0.61
   2  -3  -9   16.46    0.57
   1  -3  -9   29.06    0.92
   0  -3  -9   20.33    0.68
  -1  -3  -9    2.22    0.19
  -2  -3  -9   16.18    0.57
  -3  -3  -9    3.27    0.23
   3   3   9    3.51    0.21
  -4  -3  -9    4.20    0.27
   4   3   9    4.28    0.25
  -5  -3  -9    0.70    0.16
   5   3   9    0.64    0.13
  -6  -3  -9    0.38    0.14
   6   3   9    0.30    0.13
   7   3   9    0.94    0.18
   8   3   9    0.21    0.16
   5  -4  -9   -0.07    0.19
   4  -4  -9    1.50    0.24
   3  -4  -9    5.29    0.36
   2  -4  -9    1.68    0.18
   2  -4  -9    1.66    0.20
   1  -4  -9    0.60    0.15
   0  -4  -9    0.84    0.15
  -1  -4  -9    0.57    0.14
  -2  -4  -9    7.11    0.33
  -3  -4  -9   14.11    0.52
   3   4   9   12.89    0.47
  -4  -4  -9    1.27    0.19
   4   4   9    1.49    0.16
  -5  -4  -9    0.66    0.16
   5   4   9    0.78    0.14
  -6  -4  -9    0.02    0.14
   6   4   9    0.31    0.13
   7   4   9    1.57    0.20
   8   4   9    0.89    0.21
   5  -5  -9    0.74    0.27
   4  -5  -9    2.85    0.31
   3  -5  -9    6.97    0.40
   2  -5  -9    2.79    0.24
   2  -5  -9    2.67    0.25
   1  -5  -9    5.36    0.31
   0  -5  -9    4.16    0.28
  -1  -5  -9   27.82    0.92
  -2  -5  -9    0.44    0.17
  -3  -5  -9    0.85    0.17
  -4  -5  -9    0.13    0.15
   4   5   9    0.04    0.10
  -5  -5  -9    8.77    0.42
   5   5   9    7.94    0.35
  -6  -5  -9    0.12    0.14
   6   5   9    0.02    0.11
   7   5   9    0.26    0.14
   8   5   9    1.00    0.20
   4  -6  -9    0.35    0.23
   3  -6  -9   -0.14    0.16
   2  -6  -9    2.20    0.24
   2  -6  -9    2.13    0.23
   1  -6  -9    5.93    0.34
   0  -6  -9   12.33    0.50
  -1  -6  -9   27.08    0.91
  -2  -6  -9    1.69    0.21
  -3  -6  -9    0.29    0.15
  -4  -6  -9    3.16    0.29
   4   6   9    2.96    0.20
  -5  -6  -9    2.55    0.25
   5   6   9    2.47    0.21
  -6  -6  -9   -0.02    0.16
   6   6   9    0.02    0.12
   7   6   9    0.06    0.13
   4  -7  -9   -0.02    0.20
   3  -7  -9    0.08    0.20
   2  -7  -9    1.87    0.22
   2  -7  -9    1.69    0.23
   1  -7  -9    0.03    0.15
   1  -7  -9    0.16    0.15
   0  -7  -9    0.46    0.17
  -1  -7  -9    1.22    0.22
  -2  -7  -9    0.25    0.18
  -3  -7  -9    2.01    0.24
  -4  -7  -9    1.28    0.23
  -5  -7  -9    0.34    0.20
   5   7   9    0.11    0.11
  -6  -7  -9    1.03    0.23
   6   7   9    0.42    0.14
   7   7   9    0.13    0.14
   3  -8  -9    1.80    0.29
   2  -8  -9    0.28    0.18
   2  -8  -9    0.26    0.19
   1  -8  -9    2.60    0.27
   1  -8  -9    3.14    0.29
   0  -8  -9    1.08    0.23
  -1  -8  -9    0.77    0.21
  -2  -8  -9    3.06    0.30
  -3  -8  -9    0.51    0.19
  -4  -8  -9    0.25    0.21
  -5  -8  -9   -0.18    0.17
  -6  -8  -9    0.31    0.22
   6   8   9    0.03    0.11
   7   8   9    0.43    0.15
   2  -9  -9   -0.07    0.18
   2  -9  -9    0.18    0.21
   1  -9  -9    0.72    0.20
   1  -9  -9    0.80    0.21
   0  -9  -9    0.22    0.16
   0  -9  -9    0.08    0.18
  -1  -9  -9    0.43    0.20
  -2  -9  -9    0.89    0.24
  -3  -9  -9    0.38    0.21
  -4  -9  -9    0.99    0.24
  -5  -9  -9    0.24    0.24
  -6  -9  -9    0.00    0.21
   1 -10  -9    0.58    0.21
   1 -10  -9    0.70    0.21
   0 -10  -9    0.23    0.16
   0 -10  -9   -0.01    0.21
  -1 -10  -9    0.26    0.20
  -2 -10  -9    0.22    0.22
  -3 -10  -9   -0.09    0.20
  -4 -10  -9    0.08    0.22
  -5 -10  -9    0.21    0.26
   0 -11  -9    0.82    0.26
  -1 -11  -9    0.22    0.22
  -2 -11  -9    0.30    0.23
  -3 -11  -9    0.74    0.29
  -4 -11  -9    0.42    0.28
   0  -8  10    0.15    0.18
   1  -8  10    0.80    0.23
   2   7 -10   -0.15    0.19
  -2  -7  10    0.18    0.15
  -1  -7  10    1.16    0.21
   0  -7  10    0.10    0.17
   1  -7  10    0.52    0.21
   2  -7  10   -0.17    0.18
   3  -7  10    0.07    0.19
   3   6 -10    0.29    0.21
   2   6 -10    0.13    0.18
  -2  -6  10    0.49    0.16
   1   6 -10    0.27    0.16
  -1  -6  10    0.52    0.16
   0  -6  10    0.42    0.16
   1  -6  10    0.08    0.14
   2  -6  10    0.16    0.17
   3  -6  10    0.19    0.16
   4  -6  10    1.26    0.24
   4   5 -10    3.86    0.38
   3   5 -10   -0.15    0.16
   2   5 -10    0.03    0.13
  -2  -5  10    0.06    0.12
   1   5 -10    0.08    0.13
  -1  -5  10    0.20    0.15
   0  -5  10    0.51    0.17
   1  -5  10    0.22    0.15
   2  -5  10    2.34    0.25
   3  -5  10    0.16    0.16
   4  -5  10    0.60    0.19
   5  -5  10    0.09    0.17
   4   4 -10    0.00    0.15
   3   4 -10    0.36    0.16
   2   4 -10    1.33    0.20
  -2  -4  10    1.46    0.17
   1   4 -10    6.02    0.34
  -1  -4  10    6.06    0.32
   0   4 -10    2.36    0.22
   0  -4  10    3.45    0.27
   1  -4  10    0.14    0.15
   2  -4  10    1.12    0.18
   3  -4  10   -0.02    0.13
   4  -4  10    0.20    0.11
   4  -4  10    0.10    0.14
   5  -4  10    0.44    0.16
   5  -4  10    0.61    0.14
   6  -4  10    3.15    0.30
   6  -4  10    2.71    0.26
   5   3 -10    0.09    0.16
   4   3 -10    0.10    0.15
   3   3 -10    0.69    0.17
   2   3 -10    4.03    0.30
   1   3 -10    0.44    0.13
  -1  -3  10    0.51    0.14
   0   3 -10    1.01    0.14
   0  -3  10    1.08    0.16
   1  -3  10    2.30    0.23
   2  -3  10    4.24    0.22
   2  -3  10    4.20    0.28
   3  -3  10    2.86    0.25
   3  -3  10    2.81    0.20
   4  -3  10    0.14    0.13
   4  -3  10   -0.01    0.10
   5  -3  10    0.22    0.13
   5  -3  10    0.21    0.13
   6  -3  10    0.68    0.18
   6  -3  10    0.63    0.15
   5   2 -10    0.31    0.18
   4   2 -10    0.12    0.14
   3   2 -10    0.22    0.13
   2   2 -10    2.04    0.21
   2   2 -10    1.96    0.18
  -2  -2  10    2.00    0.18
   1   2 -10   50.79    1.58
  -1  -2  10   52.99    1.57
   0   2 -10   13.93    0.51
   0  -2  10   14.18    0.53
   1  -2  10    0.28    0.14
   2  -2  10    1.22    0.17
   3  -2  10    0.05    0.11
   3  -2  10   -0.02    0.12
   4  -2  10    0.14    0.10
   4  -2  10   -0.06    0.12
   5  -2  10    0.46    0.13
   5  -2  10    0.46    0.16
   6  -2  10    0.17    0.12
   6  -2  10    0.46    0.15
   7  -2  10    0.28    0.17
   5   1 -10    0.24    0.17
   4   1 -10   -0.07    0.14
   3   1 -10   -0.01    0.12
   2   1 -10    0.36    0.11
  -2  -1  10    0.25    0.11
  -1  -1  10    8.78    0.36
   0   1 -10    0.09    0.09
   0  -1  10    0.13    0.13
  -1   1 -10    0.22    0.08
   1  -1  10    0.13    0.12
   2  -1  10    0.70    0.15
   2  -1  10    0.59    0.12
   3  -1  10    0.38    0.14
   3  -1  10    0.52    0.13
   4  -1  10   41.16    1.28
   4  -1  10   39.75    1.24
   5  -1  10    0.10    0.13
   5  -1  10    0.22    0.13
   6  -1  10    0.89    0.16
   6  -1  10    0.93    0.17
   7  -1  10   -0.05    0.14
   5   0 -10    0.46    0.20
   4   0 -10    0.55    0.18
   3   0 -10    3.37    0.26
   2   0 -10    0.00    0.10
   2   0 -10    0.10    0.10
  -1   0  10   -0.13    0.11
   0   0  10    0.68    0.14
   1   0  10    2.20    0.20
   2   0  10    6.52    0.32
   3   0  10   -0.02    0.11
   3   0  10    0.09    0.12
   4   0  10   10.21    0.44
   4   0  10   10.40    0.42
   5   0  10    0.34    0.13
   5   0  10    0.40    0.15
   6   0  10    2.01    0.22
   6   0  10    2.02    0.21
   7   0  10    0.22    0.14
   5  -1 -10   -0.05    0.18
   4  -1 -10    0.10    0.14
   3  -1 -10    0.13    0.14
   2  -1 -10    9.28    0.37
   2  -1 -10    9.37    0.40
   1  -1 -10    2.27    0.20
   0  -1 -10    3.23    0.22
   0   1  10    3.30    0.22
   1   1  10   28.56    0.92
   2   1  10    9.51    0.40
   3   1  10    0.58    0.16
   3   1  10    0.48    0.12
   4   1  10   17.45    0.64
   4   1  10   17.65    0.61
  -5  -1 -10    5.86    0.32
   5   1  10    5.59    0.32
   5   1  10    5.18    0.29
  -6  -1 -10   11.51    0.49
   6   1  10   11.53    0.48
   7   1  10    0.41    0.15
   8   1  10   -0.19    0.16
   5  -2 -10    2.35    0.31
   4  -2 -10    2.55    0.28
   3  -2 -10    0.22    0.13
   2  -2 -10    0.70    0.13
   2  -2 -10    0.64    0.15
   1  -2 -10    1.01    0.16
   0  -2 -10   17.76    0.62
  -1  -2 -10    8.87    0.38
  -2  -2 -10    0.15    0.14
  -3  -2 -10   14.90    0.56
   3   2  10   15.30    0.53
  -4  -2 -10    6.38    0.33
   4   2  10    6.43    0.30
  -5  -2 -10    9.21    0.42
   5   2  10    9.00    0.39
  -6  -2 -10   15.46    0.60
   6   2  10   15.91    0.60
   7   2  10    1.16    0.19
   8   2  10   -0.12    0.14
   5  -3 -10   -0.08    0.19
   4  -3 -10    0.60    0.21
   3  -3 -10    0.05    0.15
   2  -3 -10    0.10    0.12
   2  -3 -10    0.14    0.14
   1  -3 -10    5.94    0.30
   0  -3 -10    4.83    0.29
  -1  -3 -10    2.56    0.24
  -2  -3 -10   16.83    0.61
  -3  -3 -10   21.98    0.75
   3   3  10   21.72    0.72
  -4  -3 -10    5.42    0.32
   4   3  10    5.46    0.27
  -5  -3 -10    0.00    0.14
   5   3  10    0.34    0.12
  -6  -3 -10    3.43    0.29
   6   3  10    3.66    0.25
   7   3  10    1.49    0.21
   8   3  10    1.05    0.22
   5  -4 -10    0.02    0.22
   4  -4 -10    2.34    0.30
   3  -4 -10    1.25    0.21
   2  -4 -10    1.08    0.16
   2  -4 -10    0.62    0.16
   1  -4 -10    1.68    0.19
   0  -4 -10    0.16    0.15
  -1  -4 -10    7.56    0.36
  -2  -4 -10   -0.12    0.13
  -3  -4 -10    0.49    0.17
  -4  -4 -10    6.31    0.34
   4   4  10    6.52    0.31
  -5  -4 -10    0.44    0.17
   5   4  10    0.45    0.14
  -6  -4 -10    0.15    0.14
   6   4  10    0.06    0.11
   7   4  10   -0.03    0.14
   8   4  10    0.40    0.19
   4  -5 -10    5.01    0.39
   3  -5 -10    2.75    0.29
   2  -5 -10    1.82    0.21
   2  -5 -10    1.65    0.22
   1  -5 -10    0.75    0.16
   0  -5 -10    2.23    0.21
  -1  -5 -10    3.74    0.29
  -2  -5 -10   24.14    0.83
  -3  -5 -10    0.08    0.13
  -4  -5 -10    7.76    0.40
   4   5  10    7.61    0.34
  -5  -5 -10   -0.10    0.13
   5   5  10    0.04    0.10
  -6  -5 -10    0.87    0.20
   6   5  10    0.86    0.15
   7   5  10    0.48    0.15
   4  -6 -10    0.31    0.24
   3  -6 -10    1.75    0.27
   2  -6 -10   -0.27    0.14
   2  -6 -10   -0.07    0.14
   1  -6 -10    9.17    0.43
   0  -6 -10    0.07    0.16
  -1  -6 -10   17.67    0.66
  -2  -6 -10   -0.02    0.16
  -3  -6 -10    5.13    0.32
  -4  -6 -10   -0.04    0.14
  -5  -6 -10   -0.19    0.14
   5   6  10    0.14    0.10
  -6  -6 -10    1.22    0.23
   6   6  10    1.68    0.19
   7   6  10    1.20    0.18
   3  -7 -10    0.14    0.21
   2  -7 -10    0.11    0.16
   2  -7 -10    0.05    0.15
   1  -7 -10    0.30    0.16
   1  -7 -10    0.13    0.17
   0  -7 -10    0.44    0.17
  -1  -7 -10    0.29    0.17
  -2  -7 -10    0.51    0.18
  -3  -7 -10    4.38    0.32
  -4  -7 -10    0.55    0.21
  -5  -7 -10    2.58    0.29
   5   7  10    2.88    0.21
  -6  -7 -10    3.01    0.31
   6   7  10    3.22    0.25
   7   7  10    0.34    0.15
   3  -8 -10    0.42    0.22
   2  -8 -10    0.47    0.19
   2  -8 -10    0.33    0.20
   1  -8 -10    1.65    0.25
   1  -8 -10    1.78    0.25
   0  -8 -10   -0.10    0.18
  -1  -8 -10    2.39    0.28
  -2  -8 -10    9.80    0.51
  -3  -8 -10    4.42    0.35
  -4  -8 -10    0.25    0.19
  -5  -8 -10    2.01    0.30
  -6  -8 -10    2.66    0.33
   6   8  10    2.71    0.22
   2  -9 -10    0.15    0.21
   1  -9 -10    0.22    0.19
   1  -9 -10    0.14    0.21
   0  -9 -10    0.01    0.20
  -1  -9 -10    2.09    0.29
  -2  -9 -10    0.09    0.21
  -3  -9 -10    1.23    0.24
  -4  -9 -10    0.65    0.23
  -5  -9 -10    0.81    0.25
  -6  -9 -10    0.17    0.23
   1 -10 -10   -0.03    0.17
   1 -10 -10   -0.07    0.21
   0 -10 -10    0.00    0.20
   0 -10 -10    0.27    0.18
  -1 -10 -10    0.09    0.22
  -2 -10 -10    0.66    0.23
  -3 -10 -10   -0.08    0.20
  -4 -10 -10    0.58    0.25
  -5 -10 -10    0.49    0.26
  -1 -11 -10    0.63    0.25
  -2 -11 -10    0.05    0.22
  -3 -11 -10    0.05    0.25
  -1  -7  11    0.66    0.19
   0  -7  11    0.25    0.17
   1  -7  11    0.97    0.22
   2  -7  11    1.10    0.25
   2   6 -11   -0.21    0.17
  -2  -6  11    0.08    0.15
  -1  -6  11    0.59    0.17
   0  -6  11    1.01    0.21
   1  -6  11    0.13    0.16
   2  -6  11   -0.03    0.17
   3  -6  11    0.07    0.18
   3   5 -11    7.70    0.50
   2   5 -11   -0.04    0.15
  -2  -5  11   -0.10    0.12
  -1  -5  11    0.09    0.15
   0  -5  11    0.55    0.18
   1  -5  11    1.31    0.22
   2  -5  11    0.53    0.19
   3  -5  11    0.18    0.17
   4  -5  11   -0.21    0.14
   5  -5  11    0.57    0.20
   4   4 -11    0.05    0.16
   3   4 -11    0.36    0.16
   2   4 -11    0.33    0.15
  -2  -4  11    0.43    0.13
   1   4 -11    3.91    0.29
  -1  -4  11    4.24    0.30
   0  -4  11    1.17    0.18
   1  -4  11   -0.10    0.14
   2  -4  11    0.28    0.15
   3  -4  11    0.02    0.14
   4  -4  11   -0.18    0.15
   5  -4  11    0.30    0.17
   4   3 -11    0.85    0.20
   3   3 -11    1.17    0.21
   2   3 -11    1.27    0.19
   1   3 -11    0.62    0.14
  -1  -3  11    0.52    0.15
   0  -3  11    1.75    0.20
   1  -3  11    2.17    0.22
   2  -3  11    3.00    0.28
   3  -3  11    5.78    0.34
   3  -3  11    5.48    0.28
   4  -3  11    0.11    0.14
   4  -3  11    0.20    0.12
   5  -3  11    0.36    0.12
   5  -3  11    0.15    0.14
   6  -3  11    0.25    0.15
   6  -3  11    0.40    0.16
   4   2 -11    0.19    0.18
   3   2 -11    0.02    0.14
   2   2 -11    0.64    0.15
  -2  -2  11    0.52    0.13
   1   2 -11    0.88    0.14
  -1  -2  11    1.00    0.15
   0   2 -11    1.51    0.15
   0  -2  11    1.35    0.19
   1  -2  11   14.99    0.58
   2  -2  11    7.59    0.38
   3  -2  11    0.72    0.14
   3  -2  11    0.52    0.15
   4  -2  11    2.07    0.19
   4  -2  11    1.80    0.22
   5  -2  11    1.51    0.18
   5  -2  11    1.41    0.20
   6  -2  11    2.60    0.25
   6  -2  11    2.49    0.26
   4   1 -11   -0.04    0.13
   3   1 -11    0.16    0.13
   2   1 -11    0.72    0.14
  -2  -1  11    0.59    0.13
  -1  -1  11   -0.06    0.11
   0   1 -11    0.28    0.10
   0  -1  11    0.34    0.14
   1  -1  11   22.04    0.76
   2  -1  11    0.53    0.14
   3  -1  11    4.23    0.30
   3  -1  11    4.23    0.26
   4  -1  11    2.66    0.24
   4  -1  11    2.80    0.23
   5  -1  11    2.83    0.26
   5  -1  11    2.96    0.22
   6  -1  11    0.97    0.18
   6  -1  11    1.12    0.18
   7  -1  11    2.39    0.27
   5   0 -11    0.18    0.19
   4   0 -11    1.41    0.22
   3   0 -11    1.08    0.18
   2   0 -11    2.59    0.20
   2   0 -11    2.78    0.22
  -1   0  11   10.97    0.44
   0   0  11    1.58    0.19
   1   0  11    2.71    0.23
   2   0  11    0.08    0.14
   3   0  11    0.55    0.14
   3   0  11    0.58    0.15
   4   0  11    1.43    0.17
   4   0  11    1.63    0.20
   5   0  11    8.79    0.43
   5   0  11    9.64    0.41
   6   0  11    0.00    0.13
   6   0  11    0.14    0.12
   7   0  11   -0.17    0.12
   5  -1 -11    0.28    0.20
   4  -1 -11    0.03    0.14
   3  -1 -11    1.77    0.22
   2  -1 -11    3.92    0.27
   2  -1 -11    4.03    0.24
   1  -1 -11    8.45    0.37
   0  -1 -11    1.03    0.17
   1   1  11    1.03    0.17
   2   1  11    0.22    0.14
   3   1  11    4.94    0.29
   3   1  11    4.71    0.25
   4   1  11    4.97    0.28
   4   1  11    4.42    0.31
  -5  -1 -11    3.77    0.27
   5   1  11    3.50    0.24
   5   1  11    3.53    0.28
  -6  -1 -11    0.77    0.17
   6   1  11    0.53    0.15
  -7  -1 -11    1.72    0.27
   7   1  11    1.63    0.22
   5  -2 -11    1.46    0.27
   4  -2 -11    0.91    0.20
   3  -2 -11    1.17    0.20
   2  -2 -11    1.51    0.18
   2  -2 -11    1.54    0.20
   1  -2 -11    6.02    0.31
   0  -2 -11    0.20    0.12
  -1  -2 -11    1.37    0.19
  -2  -2 -11    0.47    0.15
  -3  -2 -11    3.16    0.27
   3   2  11    3.20    0.21
  -4  -2 -11    1.35    0.18
   4   2  11    1.01    0.15
  -5  -2 -11    1.47    0.20
   5   2  11    1.29    0.17
  -6  -2 -11    0.07    0.15
   6   2  11    0.27    0.13
  -7  -2 -11    0.14    0.16
   7   2  11    0.18    0.16
   4  -3 -11    0.46    0.21
   3  -3 -11    0.35    0.16
   2  -3 -11    1.04    0.19
   2  -3 -11    0.65    0.15
   1  -3 -11    1.61    0.17
   0  -3 -11    7.01    0.35
  -1  -3 -11    0.17    0.15
  -2  -3 -11    2.75    0.24
  -3  -3 -11    1.33    0.19
  -4  -3 -11    0.90    0.19
   4   3  11    0.93    0.15
  -5  -3 -11    2.77    0.26
   5   3  11    2.38    0.21
  -6  -3 -11    1.72    0.23
   6   3  11    1.53    0.19
  -7  -3 -11    2.19    0.25
   7   3  11    2.33    0.24
   4  -4 -11    0.24    0.19
   3  -4 -11    0.56    0.18
   2  -4 -11    0.70    0.18
   2  -4 -11    0.69    0.16
   1  -4 -11    0.04    0.13
   0  -4 -11    0.53    0.14
  -1  -4 -11   32.67    1.05
  -2  -4 -11    2.49    0.24
  -3  -4 -11    4.77    0.32
  -4  -4 -11    0.59    0.16
   4   4  11    0.56    0.12
  -5  -4 -11    0.09    0.16
   5   4  11    0.11    0.12
  -6  -4 -11    1.07    0.21
   6   4  11    1.37    0.18
  -7  -4 -11   -0.16    0.15
   7   4  11    0.21    0.15
   4  -5 -11    1.60    0.28
   3  -5 -11    0.52    0.19
   2  -5 -11   10.33    0.46
   2  -5 -11   10.16    0.50
   1  -5 -11    2.27    0.23
   0  -5 -11    0.16    0.14
  -1  -5 -11    5.36    0.33
  -2  -5 -11    3.76    0.29
  -3  -5 -11    4.12    0.29
  -4  -5 -11    3.12    0.27
   4   5  11    3.22    0.21
  -5  -5 -11    1.70    0.23
   5   5  11    1.59    0.19
  -6  -5 -11    0.11    0.17
   6   5  11    0.11    0.13
  -7  -5 -11   -0.05    0.18
   7   5  11    0.04    0.15
   3  -6 -11    0.27    0.19
   2  -6 -11    1.76    0.25
   2  -6 -11    2.37    0.38
   1  -6 -11    0.97    0.19
   0  -6 -11   -0.09    0.16
  -1  -6 -11    0.59    0.17
  -2  -6 -11    6.96    0.37
  -3  -6 -11    5.32    0.36
  -4  -6 -11    4.52    0.33
  -5  -6 -11    0.20    0.18
   5   6  11    0.51    0.13
  -6  -6 -11    0.16    0.20
   6   6  11    0.04    0.11
  -7  -6 -11   -0.03    0.19
   7   6  11    0.08    0.15
   3  -7 -11    1.54    0.27
   2  -7 -11   -0.07    0.16
   1  -7 -11   -0.15    0.16
   1  -7 -11    0.02    0.17
   0  -7 -11    1.31    0.21
  -1  -7 -11    0.24    0.17
  -2  -7 -11    2.85    0.27
  -3  -7 -11    2.09    0.25
  -4  -7 -11    0.33    0.18
  -5  -7 -11    0.15    0.21
  -6  -7 -11    0.41    0.21
   6   7  11    0.27    0.14
  -7  -7 -11    0.33    0.24
   7   7  11    0.49    0.17
   2  -8 -11    0.40    0.20
   1  -8 -11    1.18    0.24
   1  -8 -11    1.57    0.26
   0  -8 -11    0.28    0.20
  -1  -8 -11    3.23    0.32
  -2  -8 -11    8.06    0.46
  -3  -8 -11    5.06    0.40
  -4  -8 -11    0.38    0.22
  -5  -8 -11    0.45    0.24
  -6  -8 -11   -0.11    0.22
   1  -9 -11    0.18    0.22
   1  -9 -11    0.24    0.19
   0  -9 -11    0.74    0.23
  -1  -9 -11    0.11    0.21
  -2  -9 -11    5.32    0.43
  -3  -9 -11    2.29    0.32
  -4  -9 -11    1.52    0.29
  -5  -9 -11    0.50    0.25
   0 -10 -11    0.85    0.22
   0 -10 -11    0.93    0.26
  -1 -10 -11   -0.11    0.22
  -2 -10 -11    0.09    0.24
  -3 -10 -11    1.92    0.32
  -4 -10 -11    0.31    0.26
  -1  -6  12    0.44    0.19
   0  -6  12    0.02    0.16
   1  -6  12    0.08    0.17
   2  -6  12    0.08    0.17
  -2  -5  12    0.72    0.17
  -1  -5  12    0.04    0.14
   0  -5  12    0.30    0.18
   1  -5  12    2.06    0.26
   2  -5  12    0.41    0.18
   3  -5  12    0.17    0.19
   4  -5  12    1.03    0.24
   3   4 -12    0.83    0.21
   2   4 -12    0.56    0.17
  -2  -4  12    0.50    0.15
  -1  -4  12    0.03    0.13
   0  -4  12    0.03    0.14
   1  -4  12    0.05    0.15
   2  -4  12    0.00    0.16
   3  -4  12    0.59    0.19
   4  -4  12    0.89    0.21
   5  -4  12    0.13    0.16
   3   3 -12    0.19    0.15
   2   3 -12    0.36    0.15
   1   3 -12    0.21    0.13
  -1  -3  12    0.12    0.14
   0  -3  12    0.37    0.16
   1  -3  12    1.79    0.23
   2  -3  12    1.06    0.19
   3  -3  12    2.51    0.22
   3  -3  12    2.49    0.26
   4  -3  12   -0.03    0.08
   4  -3  12   -0.10    0.14
   5  -3  12   -0.05    0.12
   5  -3  12    0.27    0.18
   3   2 -12   -0.08    0.14
   2   2 -12    0.75    0.16
  -2  -2  12    0.47    0.13
   1   2 -12    2.64    0.23
  -1  -2  12    2.12    0.21
   0  -2  12    2.55    0.25
   1  -2  12    0.13    0.15
   2  -2  12    4.50    0.33
   3  -2  12    1.69    0.22
   3  -2  12    1.75    0.17
   4  -2  12    0.12    0.16
   4  -2  12    0.04    0.11
   5  -2  12   -0.06    0.12
   5  -2  12    0.24    0.16
   6  -2  12    3.54    0.28
   6  -2  12    3.29    0.31
   3   1 -12    0.62    0.16
   2   1 -12    2.41    0.21
  -2  -1  12    2.17    0.20
   1   1 -12    0.04    0.10
  -1  -1  12    0.05    0.13
   0  -1  12    0.84    0.17
   1  -1  12    0.07    0.13
   2  -1  12    1.55    0.21
   3  -1  12   17.34    0.61
   3  -1  12   16.69    0.66
   4  -1  12    1.73    0.18
   4  -1  12    1.86    0.23
   5  -1  12    0.20    0.15
   5  -1  12   -0.02    0.12
   6  -1  12    0.30    0.13
   6  -1  12    0.18    0.15
   4   0 -12    1.00    0.21
   3   0 -12    0.54    0.16
   2   0 -12    2.64    0.23
   2   0 -12    2.86    0.29
  -1   0  12    7.53    0.36
   0   0  12   31.19    1.02
   1   0  12    0.73    0.16
   2   0  12    3.08    0.25
   3   0  12    4.34    0.30
   3   0  12    4.78    0.27
   4   0  12    5.03    0.28
   4   0  12    5.03    0.32
   5   0  12    0.23    0.12
   5   0  12   -0.09    0.15
   6   0  12   -0.08    0.15
   6   0  12    0.02    0.14
  -7   0 -12    0.14    0.16
   7   0  12   -0.05    0.14
   4  -1 -12    2.19    0.26
   3  -1 -12    0.39    0.16
   2  -1 -12    4.21    0.29
   1  -1 -12    2.40    0.23
   0  -1 -12    3.02    0.24
   1   1  12   16.78    0.63
   2   1  12    2.46    0.24
   3   1  12    0.14    0.15
   3   1  12    0.06    0.10
   4   1  12    3.78    0.25
   4   1  12    3.65    0.30
  -5  -1 -12    3.98    0.32
   5   1  12    3.58    0.25
  -6  -1 -12    0.71    0.19
   6   1  12    0.46    0.14
  -7  -1 -12   -0.10    0.15
   7   1  12   -0.15    0.15
   4  -2 -12   -0.09    0.18
   3  -2 -12    1.11    0.20
   2  -2 -12    2.14    0.23
   1  -2 -12    0.42    0.15
   0  -2 -12    0.23    0.13
  -1  -2 -12    0.95    0.17
  -2  -2 -12    0.46    0.16
  -3  -2 -12    2.79    0.25
  -4  -2 -12    1.75    0.21
   4   2  12    2.11    0.19
  -5  -2 -12    0.28    0.16
   5   2  12    0.15    0.12
  -6  -2 -12    2.40    0.26
   6   2  12    2.07    0.22
  -7  -2 -12    1.22    0.23
   7   2  12    0.78    0.20
   4  -3 -12    0.25    0.19
   3  -3 -12   -0.01    0.15
   2  -3 -12    1.01    0.18
   1  -3 -12    0.01    0.14
   0  -3 -12    8.18    0.40
  -1  -3 -12    0.06    0.15
  -2  -3 -12    8.96    0.43
  -3  -3 -12    1.07    0.18
  -4  -3 -12    1.19    0.19
   4   3  12    1.27    0.16
  -5  -3 -12    3.32    0.29
   5   3  12    2.70    0.24
  -6  -3 -12    1.72    0.24
   6   3  12    1.81    0.21
  -7  -3 -12    4.18    0.36
   7   3  12    4.11    0.33
   4  -4 -12   -0.04    0.18
   3  -4 -12   -0.04    0.15
   2  -4 -12    1.77    0.23
   1  -4 -12    0.06    0.13
   0  -4 -12    0.97    0.18
  -1  -4 -12    1.09    0.19
  -2  -4 -12    0.10    0.14
  -3  -4 -12    0.50    0.16
  -4  -4 -12    0.11    0.17
   4   4  12    0.16    0.11
  -5  -4 -12    0.37    0.17
   5   4  12    0.36    0.13
  -6  -4 -12    0.78    0.21
   6   4  12    0.83    0.17
  -7  -4 -12    2.31    0.28
   7   4  12    2.53    0.26
   3  -5 -12    0.22    0.19
   2  -5 -12    1.29    0.23
   1  -5 -12    3.62    0.29
   0  -5 -12    9.43    0.45
  -1  -5 -12    4.74    0.31
  -2  -5 -12    1.92    0.23
  -3  -5 -12    1.66    0.21
  -4  -5 -12    0.42    0.17
  -5  -5 -12    0.18    0.18
   5   5  12    0.27    0.13
  -6  -5 -12    0.68    0.22
   6   5  12    0.69    0.15
  -7  -5 -12    0.04    0.19
   7   5  12    0.10    0.16
   3  -6 -12    2.32    0.33
   2  -6 -12   -0.09    0.16
   1  -6 -12    2.65    0.27
   0  -6 -12    1.39    0.22
  -1  -6 -12    3.35    0.30
  -2  -6 -12    0.39    0.19
  -3  -6 -12    0.48    0.20
  -4  -6 -12    0.23    0.18
  -5  -6 -12    0.18    0.20
  -6  -6 -12    0.64    0.21
   6   6  12    0.32    0.14
  -7  -6 -12    0.92    0.25
   7   6  12    0.81    0.18
   2  -7 -12    2.93    0.31
   1  -7 -12    0.06    0.17
   1  -7 -12   -0.26    0.17
   0  -7 -12    1.01    0.21
  -1  -7 -12    1.08    0.23
  -2  -7 -12    2.01    0.26
  -3  -7 -12    0.36    0.19
  -4  -7 -12    1.81    0.25
  -5  -7 -12    0.09    0.18
  -6  -7 -12    1.05    0.25
   6   7  12    1.40    0.19
   2  -8 -12    0.30    0.20
   1  -8 -12    0.03    0.19
   1  -8 -12    0.11    0.18
   0  -8 -12    1.39    0.26
  -1  -8 -12    0.97    0.22
  -2  -8 -12    1.01    0.22
  -3  -8 -12    0.41    0.21
  -4  -8 -12    0.18    0.20
  -5  -8 -12    0.13    0.21
  -6  -8 -12    0.51    0.26
   1  -9 -12    0.51    0.23
   1  -9 -12    0.44    0.20
   0  -9 -12    1.20    0.25
  -1  -9 -12    0.17    0.20
  -2  -9 -12    0.24    0.20
  -3  -9 -12    0.33    0.21
  -4  -9 -12    0.93    0.28
  -5  -9 -12   -0.05    0.22
  -1 -10 -12    0.20    0.22
  -2 -10 -12    0.75    0.25
  -3 -10 -12   -0.12    0.21
  -4 -10 -12    0.15    0.26
  -1  -5  13    1.00    0.21
   0  -5  13    0.07    0.18
   1  -5  13    1.59    0.24
   2  -5  13    0.51    0.21
   3  -5  13   -0.04    0.17
  -1  -4  13   -0.14    0.13
   0  -4  13   -0.05    0.16
   1  -4  13    0.36    0.19
   2  -4  13    0.82    0.21
   3  -4  13    0.31    0.17
   4  -4  13    0.14    0.19
   3   3 -13    1.51    0.24
   2   3 -13    1.58    0.22
  -1  -3  13   -0.12    0.13
   0  -3  13    0.11    0.15
   1  -3  13   -0.17    0.15
   2  -3  13    0.32    0.17
   3  -3  13    0.17    0.18
   4  -3  13    0.57    0.20
   5  -3  13    0.17    0.19
   3   2 -13   -0.08    0.14
   2   2 -13   -0.02    0.11
  -1  -2  13   -0.07    0.11
   0  -2  13    0.25    0.14
   1  -2  13   -0.06    0.13
   2  -2  13    0.35    0.16
   3  -2  13    2.00    0.24
   4  -2  13    2.06    0.26
   4  -2  13    2.13    0.21
   5  -2  13    0.03    0.13
   5  -2  13    0.18    0.17
   3   1 -13    0.07    0.17
   2   1 -13    0.17    0.13
   1   1 -13    1.16    0.17
  -1  -1  13    1.53    0.19
   0  -1  13    0.65    0.17
   1  -1  13    3.68    0.30
   2  -1  13    3.32    0.28
   3  -1  13    0.75    0.19
   4  -1  13    0.32    0.16
   4  -1  13    0.49    0.13
   5  -1  13    2.54    0.22
   5  -1  13    2.49    0.27
   6  -1  13    0.08    0.14
   6  -1  13    0.06    0.17
   3   0 -13    0.02    0.14
   2   0 -13    0.89    0.17
   1   0 -13    6.29    0.34
   0   0  13    3.55    0.28
   1   0  13    0.82    0.17
   2   0  13   15.96    0.64
   3   0  13    0.54    0.18
   4   0  13    1.07    0.17
   4   0  13    1.25    0.21
   5   0  13    0.30    0.18
   5   0  13    0.57    0.15
   6   0  13    0.31    0.18
   6   0  13    0.31    0.14
   3  -1 -13    0.13    0.16
   2  -1 -13    1.30    0.19
   1  -1 -13    0.14    0.13
   0  -1 -13    0.17    0.15
  -1  -1 -13    1.70    0.21
   1   1  13    1.80    0.21
   2   1  13    1.10    0.21
   3   1  13   -0.11    0.14
  -4  -1 -13    0.76    0.18
   4   1  13    0.69    0.14
   4   1  13    0.77    0.20
  -5  -1 -13    1.09    0.20
   5   1  13    1.28    0.17
  -6  -1 -13    0.25    0.17
   6   1  13    0.05    0.13
   3  -2 -13    0.05    0.15
   2  -2 -13    1.08    0.20
   1  -2 -13    0.33    0.15
   0  -2 -13    1.83    0.22
  -1  -2 -13    0.38    0.17
  -2  -2 -13    2.77    0.25
  -3  -2 -13    2.00    0.22
  -4  -2 -13    0.13    0.15
   4   2  13    0.26    0.12
  -5  -2 -13   -0.16    0.14
   5   2  13    0.06    0.13
  -6  -2 -13    0.35    0.19
   6   2  13   -0.02    0.13
  -7  -2 -13    0.63    0.21
   7   2  13    0.64    0.19
   3  -3 -13    0.14    0.16
   2  -3 -13    0.13    0.14
   1  -3 -13    1.40    0.20
   0  -3 -13    0.15    0.15
  -1  -3 -13    2.80    0.26
  -2  -3 -13    0.22    0.15
  -3  -3 -13    4.68    0.34
  -4  -3 -13    0.52    0.17
  -5  -3 -13    3.68    0.35
   5   3  13    4.01    0.28
  -6  -3 -13    1.29    0.23
   6   3  13    1.36    0.19
  -7  -3 -13   -0.14    0.18
   7   3  13    0.13    0.16
   3  -4 -13    0.11    0.17
   2  -4 -13    0.61    0.19
   1  -4 -13   -0.10    0.14
   0  -4 -13    5.14    0.32
  -1  -4 -13   10.08    0.46
  -2  -4 -13    0.23    0.16
  -3  -4 -13    1.60    0.23
  -4  -4 -13    2.29    0.27
  -5  -4 -13    0.10    0.18
   5   4  13    0.19    0.13
  -6  -4 -13    2.74    0.30
   6   4  13    2.95    0.25
  -7  -4 -13    0.71    0.23
   7   4  13    0.99    0.19
   3  -5 -13    0.47    0.22
   2  -5 -13    0.09    0.17
   1  -5 -13    0.61    0.19
   0  -5 -13    0.58    0.19
  -1  -5 -13    3.45    0.29
  -2  -5 -13    2.34    0.25
  -3  -5 -13    1.93    0.23
  -4  -5 -13    2.95    0.29
  -5  -5 -13   -0.15    0.15
   5   5  13    0.09    0.12
  -6  -5 -13    0.97    0.24
   6   5  13    0.95    0.17
   2  -6 -13    1.05    0.23
   1  -6 -13    0.29    0.19
   0  -6 -13    0.10    0.17
  -1  -6 -13    0.24    0.19
  -2  -6 -13    1.22    0.23
  -3  -6 -13    0.14    0.18
  -4  -6 -13    0.43    0.19
  -5  -6 -13    0.49    0.20
  -6  -6 -13    0.28    0.23
   6   6  13    0.08    0.13
   2  -7 -13    0.27    0.20
   1  -7 -13    0.16    0.20
   1  -7 -13    0.40    0.18
   0  -7 -13    0.15    0.20
  -1  -7 -13   -0.02    0.17
  -2  -7 -13    0.40    0.18
  -3  -7 -13    0.35    0.19
  -4  -7 -13    0.32    0.19
  -5  -7 -13    0.59    0.22
  -6  -7 -13   -0.16    0.21
   1  -8 -13    0.09    0.21
   1  -8 -13    0.91    0.23
   0  -8 -13    0.16    0.22
  -1  -8 -13    1.09    0.26
  -2  -8 -13    0.42    0.23
  -3  -8 -13   -0.04    0.19
  -4  -8 -13    2.94    0.33
  -5  -8 -13   -0.01    0.24
   0  -9 -13    0.30    0.22
  -1  -9 -13    1.98    0.29
  -2  -9 -13    0.16    0.21
  -3  -9 -13    1.78    0.31
  -4  -9 -13    0.91    0.28
   0  -4  14    0.22    0.18
   1  -4  14    0.71    0.20
   2  -4  14    1.02    0.24
   3  -4  14    0.58    0.22
  -1  -3  14    0.21    0.16
   0  -3  14    0.24    0.17
   1  -3  14    2.16    0.27
   2  -3  14    3.99    0.36
   3  -3  14    0.80    0.22
   4  -3  14    0.31    0.18
  -1  -2  14    0.54    0.17
   0  -2  14    0.38    0.17
   1  -2  14   -0.08    0.15
   2  -2  14   -0.03    0.15
   3  -2  14    0.22    0.18
   4  -2  14    3.54    0.32
   4  -2  14    3.83    0.26
   5  -2  14    0.47    0.15
   5  -2  14    0.47    0.18
   2   1 -14    0.29    0.15
  -1  -1  14    0.31    0.15
   0  -1  14    1.39    0.21
   1  -1  14    0.88    0.20
   2  -1  14    0.27    0.18
   3  -1  14    1.03    0.20
   4  -1  14   -0.06    0.12
   4  -1  14    0.19    0.16
   5  -1  14    0.42    0.15
   5  -1  14    0.21    0.19
   3   0 -14    0.07    0.17
   2   0 -14    0.14    0.14
   1   0 -14    2.45    0.24
   0   0  14    0.94    0.19
   1   0  14    0.07    0.14
   2   0  14    0.59    0.19
   3   0  14    0.98    0.20
   4   0  14    0.93    0.16
   4   0  14    0.79    0.21
   5   0  14    0.13    0.17
   5   0  14    0.48    0.14
  -6   0 -14    0.28    0.18
   6   0  14   -0.16    0.17
   6   0  14   -0.01    0.13
   3  -1 -14    0.41    0.18
   2  -1 -14    0.20    0.15
   1  -1 -14    0.08    0.14
   0  -1 -14    0.02    0.14
  -1  -1 -14    1.40    0.22
  -2  -1 -14    1.68    0.22
   2   1  14    1.41    0.22
  -3  -1 -14    2.02    0.25
   3   1  14    1.81    0.25
  -4  -1 -14    3.03    0.30
  -5  -1 -14    0.84    0.22
   5   1  14    0.80    0.16
  -6  -1 -14    0.73    0.22
   6   1  14    0.47    0.15
   3  -2 -14    0.96    0.22
   2  -2 -14    0.35    0.15
   1  -2 -14    2.82    0.26
   0  -2 -14    2.13    0.24
  -1  -2 -14    5.63    0.37
  -2  -2 -14    5.99    0.36
  -3  -2 -14    0.09    0.17
  -4  -2 -14    1.77    0.24
  -5  -2 -14    1.39    0.23
   5   2  14    1.87    0.21
  -6  -2 -14    0.35    0.21
   6   2  14    0.17    0.15
   3  -3 -14    0.51    0.19
   2  -3 -14    1.33    0.24
   1  -3 -14    3.40    0.29
   0  -3 -14    3.51    0.31
  -1  -3 -14    4.75    0.35
  -2  -3 -14    5.64    0.36
  -3  -3 -14    0.08    0.17
  -4  -3 -14    4.67    0.38
  -5  -3 -14    0.54    0.20
   5   3  14    0.35    0.15
  -6  -3 -14    0.07    0.18
   6   3  14    0.17    0.14
   2  -4 -14    0.92    0.21
   1  -4 -14    0.34    0.17
   0  -4 -14    0.61    0.19
  -1  -4 -14    1.80    0.24
  -2  -4 -14    3.76    0.31
  -3  -4 -14    0.20    0.18
  -4  -4 -14    0.59    0.22
  -5  -4 -14    0.43    0.19
   5   4  14    0.48    0.14
  -6  -4 -14    0.13    0.20
   6   4  14    0.21    0.16
   2  -5 -14    0.04    0.17
   1  -5 -14    0.01    0.17
   0  -5 -14    0.19    0.18
  -1  -5 -14   -0.22    0.17
  -2  -5 -14    1.23    0.23
  -3  -5 -14    1.40    0.22
  -4  -5 -14   -0.04    0.18
  -5  -5 -14    0.08    0.20
  -6  -5 -14    0.22    0.20
   6   5  14    0.35    0.16
   1  -6 -14   -0.05    0.19
   0  -6 -14    0.16    0.19
  -1  -6 -14    0.78    0.20
  -2  -6 -14    0.16    0.18
  -3  -6 -14    0.46    0.19
  -4  -6 -14    0.92    0.24
  -5  -6 -14    0.22    0.22
  -6  -6 -14    0.27    0.23
   1  -7 -14    0.50    0.23
   1  -7 -14    0.77    0.21
   0  -7 -14    0.95    0.24
  -1  -7 -14    0.22    0.22
  -2  -7 -14    0.07    0.20
  -3  -7 -14    0.90    0.22
  -4  -7 -14    1.04    0.24
  -5  -7 -14    0.33    0.22
   0  -8 -14    0.13    0.23
  -1  -8 -14    1.04    0.27
  -2  -8 -14    0.45    0.22
  -3  -8 -14    0.09    0.21
  -4  -8 -14    0.09    0.25
  -2  -9 -14    1.18    0.29
   0  -3  15   -0.01    0.17
   1  -3  15   -0.07    0.17
   2  -3  15    0.32    0.19
  -1  -2  15    0.59    0.18
   0  -2  15   -0.18    0.16
   1  -2  15    0.03    0.18
   2  -2  15   -0.07    0.16
   3  -2  15    0.44    0.19
   4  -2  15    0.18    0.18
  -1  -1  15    0.36    0.17
   0  -1  15   -0.02    0.16
   1  -1  15   -0.04    0.15
   2  -1  15    0.20    0.17
   3  -1  15    0.29    0.18
   4  -1  15    0.72    0.23
   1   0 -15    0.10    0.16
   0   0 -15   -0.01    0.16
   1   0  15    1.16    0.21
   2   0  15    0.09    0.16
   3   0  15    0.67    0.21
   4   0  15    0.15    0.17
   5   0  15    0.45    0.19
   5   0  15    0.47    0.15
   2  -1 -15    0.00    0.12
   1  -1 -15    0.07    0.15
   0  -1 -15   -0.06    0.14
  -1  -1 -15   -0.06    0.16
  -2  -1 -15    0.20    0.18
  -3  -1 -15    0.01    0.15
  -4  -1 -15    0.26    0.18
  -5  -1 -15    0.42    0.21
   5   1  15    0.35    0.15
   2  -2 -15    0.06    0.14
   1  -2 -15    5.78    0.37
   0  -2 -15    2.29    0.26
  -1  -2 -15    0.79    0.19
  -2  -2 -15    0.43    0.18
  -3  -2 -15    0.35    0.19
  -4  -2 -15   -0.06    0.16
  -5  -2 -15    0.12    0.19
   5   2  15    0.23    0.13
   2  -3 -15    0.36    0.19
   1  -3 -15    0.27    0.18
   0  -3 -15    5.99    0.39
  -1  -3 -15    1.07    0.22
  -2  -3 -15    0.36    0.20
  -3  -3 -15    0.40    0.20
  -4  -3 -15    0.66    0.22
  -5  -3 -15    1.44    0.27
   1  -4 -15    0.10    0.18
   0  -4 -15    0.36    0.20
  -1  -4 -15    0.00    0.16
  -2  -4 -15    0.23    0.20
  -3  -4 -15    0.27    0.18
  -4  -4 -15    0.37    0.20
  -5  -4 -15   -0.05    0.18
   0  -5 -15    0.55    0.22
  -1  -5 -15    0.09    0.19
  -2  -5 -15    1.05    0.24
  -3  -5 -15   -0.03    0.17
  -4  -5 -15    0.84    0.22
  -5  -5 -15    0.70    0.22
   0  -6 -15   -0.02    0.20
  -1  -6 -15    0.03    0.20
  -2  -6 -15    0.06    0.21
  -3  -6 -15    0.70    0.23
  -4  -6 -15    0.58    0.24
  -5  -6 -15   -0.04    0.20
   0  -7 -15    0.05    0.22
  -1  -7 -15    0.78    0.26
  -2  -7 -15   -0.12    0.19
  -3  -7 -15   -0.08    0.19
  -4  -7 -15    1.61    0.29
  -2  -8 -15    1.03    0.28
  -3  -8 -15    0.08    0.24
   0  -1  16    0.29    0.18
   1  -1  16    0.05    0.16
   2  -1  16    0.55    0.23
   3  -1  16    0.12    0.19
   0   0 -16    0.17    0.16
  -1   0 -16    0.29    0.18
   1   0  16    0.12    0.17
   2   0  16    0.40    0.19
   3   0  16   -0.35    0.16
   4   0  16   -0.03    0.18
   0  -1 -16    0.86    0.22
  -1  -1 -16    0.24    0.17
  -2  -1 -16    0.60    0.21
  -3  -1 -16    0.10    0.20
  -4  -1 -16    0.31    0.19
   0  -2 -16    6.98    0.43
  -1  -2 -16    0.14    0.19
  -2  -2 -16    2.45    0.29
  -3  -2 -16    0.76    0.21
  -4  -2 -16    0.39    0.20
   0  -3 -16    0.42    0.19
  -1  -3 -16    0.83    0.23
  -2  -3 -16    1.28    0.26
  -3  -3 -16    1.75    0.28
  -4  -3 -16    0.02    0.19
  -5  -3 -16    1.16    0.27
   0  -4 -16    1.47    0.24
  -1  -4 -16    0.92    0.22
  -2  -4 -16    0.10    0.21
  -3  -4 -16    0.07    0.19
  -4  -4 -16    0.15    0.22
   0  -5 -16   -0.28    0.19
  -1  -5 -16    0.14    0.21
  -2  -5 -16    0.50    0.21
  -3  -5 -16    0.01    0.18
  -4  -5 -16   -0.23    0.18
  -1  -6 -16   -0.17    0.21
  -2  -6 -16    0.85    0.26
  -3  -6 -16    0.24    0.21
  -4  -6 -16    0.39    0.22
  -2  -2 -17    0.62    0.23
  -3  -2 -17    2.84    0.34
  -2  -3 -17    0.70    0.25
  -3  -3 -17    1.23    0.27
  -2  -4 -17    0.38    0.21
   0   0   0    0.00    0.00
;
_shelx_hkl_checksum              76603
loop_
_space_group_symop_operation_xyz
'x, y, z'
'-x, -y, -z'
loop_
_atom_site_label
_atom_site_type_symbol
_atom_site_fract_x
_atom_site_fract_y
_atom_site_fract_z
_atom_site_U_iso_or_equiv
_atom_site_adp_type
_atom_site_occupancy
_atom_site_site_symmetry_order
_atom_site_calc_flag
_atom_site_refinement_flags_posn
_atom_site_refinement_flags_adp
C1 C -0.2200(3) 0.2140(2) 0.84725(14) 0.0495(4) Uani 1 1 d . .
H1A H -0.0868 0.1630 0.8557 0.059 Uiso 1 1 calc R U
O1 O 0.31464(18) -0.00906(17) 0.61619(12) 0.0659(4) Uani 1 1 d . .
F1 F -0.0882(2) -0.15065(18) 0.97326(10) 0.0890(5) Uani 1 1 d . .
C2 C -0.2952(3) 0.3480(2) 0.88592(16) 0.0600(5) Uani 1 1 d . .
H2A H -0.2138 0.3857 0.9212 0.072 Uiso 1 1 calc R U
O2 O 0.2557(2) -0.20666(17) 0.78410(13) 0.0725(4) Uani 1 1 d . .
H1WA H 0.3157 -0.2050 0.7179 0.087 Uiso 1 1 d R U
F2 F -0.0809(2) -0.35694(14) 0.91382(12) 0.0899(5) Uani 1 1 d . .
C3 C -0.4894(4) 0.4257(2) 0.87252(15) 0.0656(6) Uani 1 1 d . .
H3A H -0.5392 0.5170 0.8976 0.079 Uiso 1 1 calc R U
C4 C -0.6097(3) 0.3688(3) 0.82227(17) 0.0704(6) Uani 1 1 d . .
H4A H -0.7422 0.4210 0.8136 0.084 Uiso 1 1 calc R U
C5 C -0.5349(3) 0.2332(2) 0.78409(16) 0.0599(5) Uani 1 1 d . .
H5A H -0.6181 0.1954 0.7500 0.072 Uiso 1 1 calc R U
C6 C -0.3394(2) 0.15402(18) 0.79603(12) 0.0408(4) Uani 1 1 d . .
C7 C -0.1074(3) -0.2027(2) 0.88440(16) 0.0570(5) Uani 1 1 d . .
C8 C -0.3122(3) -0.1367(2) 0.85131(16) 0.0567(5) Uani 1 1 d . .
H8A H -0.4167 -0.1039 0.9122 0.068 Uiso 1 1 calc R U
H8B H -0.3661 -0.2113 0.8257 0.068 Uiso 1 1 calc R U
C9 C -0.2631(2) 0.00241(18) 0.75773(13) 0.0414(4) Uani 1 1 d . .
H9A H -0.3334 0.0003 0.6993 0.050 Uiso 1 1 calc R U
C10 C -0.0257(2) -0.03020(17) 0.71733(12) 0.0403(4) Uani 1 1 d . .
C11 C 0.0618(3) -0.1494(2) 0.78939(15) 0.0498(4) Uani 1 1 d . .
C12 C 0.1144(2) 0.04218(19) 0.62687(14) 0.0447(4) Uani 1 1 d . .
C13 C 0.0608(3) 0.1724(2) 0.54238(13) 0.0460(4) Uani 1 1 d . .
C14 C -0.1441(3) 0.2295(2) 0.52818(14) 0.0563(5) Uani 1 1 d . .
H14A H -0.2580 0.1850 0.5739 0.068 Uiso 1 1 calc R U
C15 C -0.1791(4) 0.3520(3) 0.44635(17) 0.0698(6) Uani 1 1 d . .
H15A H -0.3166 0.3888 0.4369 0.084 Uiso 1 1 calc R U
C16 C -0.0130(4) 0.4205(3) 0.37858(17) 0.0788(7) Uani 1 1 d . .
H16A H -0.0381 0.5045 0.3247 0.095 Uiso 1 1 calc R U
C17 C 0.1915(4) 0.3635(3) 0.39123(19) 0.0826(7) Uani 1 1 d . .
H17A H 0.3046 0.4084 0.3450 0.099 Uiso 1 1 calc R U
C18 C 0.2285(3) 0.2408(3) 0.47164(16) 0.0657(5) Uani 1 1 d . .
H18A H 0.3668 0.2028 0.4791 0.079 Uiso 1 1 calc R U
loop_
_atom_site_aniso_label
_atom_site_aniso_U_11
_atom_site_aniso_U_22
_atom_site_aniso_U_33
_atom_site_aniso_U_23
_atom_site_aniso_U_13
_atom_site_aniso_U_12
C1 0.0482(9) 0.0475(9) 0.0548(9) -0.0158(7) -0.0121(7) -0.0028(7)
O1 0.0365(7) 0.0755(10) 0.0786(9) -0.0171(7) -0.0040(6) 0.0024(6)
F1 0.1175(11) 0.1030(11) 0.0577(7) -0.0105(7) -0.0322(7) -0.0302(9)
C2 0.0741(13) 0.0496(10) 0.0588(10) -0.0200(8) -0.0095(9) -0.0092(9)
O2 0.0525(8) 0.0686(9) 0.0934(11) -0.0083(8) -0.0303(7) 0.0106(6)
F2 0.0996(10) 0.0442(7) 0.1139(11) 0.0108(7) -0.0234(8) -0.0094(6)
C3 0.0880(15) 0.0473(10) 0.0493(10) -0.0142(8) -0.0033(9) 0.0123(9)
C4 0.0627(12) 0.0726(14) 0.0645(12) -0.0195(10) -0.0137(10) 0.0273(10)
C5 0.0467(10) 0.0727(13) 0.0616(11) -0.0234(9) -0.0172(8) 0.0090(8)
C6 0.0372(8) 0.0442(8) 0.0378(7) -0.0090(6) -0.0037(6) -0.0015(6)
C7 0.0732(12) 0.0399(9) 0.0605(11) -0.0028(8) -0.0245(9) -0.0085(8)
C8 0.0536(10) 0.0494(10) 0.0659(11) -0.0066(8) -0.0081(8) -0.0148(8)
C9 0.0359(8) 0.0443(9) 0.0469(8) -0.0122(7) -0.0112(6) -0.0046(6)
C10 0.0351(8) 0.0418(8) 0.0476(8) -0.0164(7) -0.0125(6) 0.0000(6)
C11 0.0467(9) 0.0444(9) 0.0635(10) -0.0153(8) -0.0213(8) -0.0004(7)
C12 0.0378(8) 0.0480(9) 0.0510(9) -0.0210(7) -0.0078(6) -0.0004(6)
C13 0.0493(9) 0.0498(10) 0.0405(8) -0.0170(7) -0.0044(6) -0.0075(7)
C14 0.0563(11) 0.0642(12) 0.0463(9) -0.0103(8) -0.0098(8) -0.0041(8)
C15 0.0810(14) 0.0715(14) 0.0565(11) -0.0072(10) -0.0237(10) -0.0033(11)
C16 0.118(2) 0.0681(14) 0.0530(11) 0.0010(10) -0.0241(12) -0.0247(13)
C17 0.0969(18) 0.0911(18) 0.0590(12) 0.0022(12) -0.0077(11) -0.0418(14)
C18 0.0614(12) 0.0759(14) 0.0581(11) -0.0108(10) -0.0043(9) -0.0186(10)
loop_
_atom_type_symbol
_atom_type_description
_atom_type_scat_dispersion_real
_atom_type_scat_dispersion_imag
_atom_type_scat_source
C C 0.0033 0.0016 'International Tables Vol C Tables 4.2.6.8 and 6.1.1.4'
O O 0.0106 0.0060 'International Tables Vol C Tables 4.2.6.8 and 6.1.1.4'
F F 0.0171 0.0103 'International Tables Vol C Tables 4.2.6.8 and 6.1.1.4'
H H 0.0000 0.0000 'International Tables Vol C Tables 4.2.6.8 and 6.1.1.4'
loop_
_geom_angle_atom_site_label_1
_geom_angle_atom_site_label_2
_geom_angle_atom_site_label_3
_geom_angle
C2 C1 C6 121.17(17)
C3 C2 C1 120.10(18)
C4 C3 C2 119.75(18)
C3 C4 C5 120.19(18)
C6 C5 C4 120.92(18)
C5 C6 C1 117.86(16)
C5 C6 C9 120.32(14)
C1 C6 C9 121.78(14)
F2 C7 F1 104.97(15)
F2 C7 C8 114.00(15)
F1 C7 C8 111.82(16)
F2 C7 C11 111.70(17)
F1 C7 C11 108.62(15)
C8 C7 C11 105.74(15)
C7 C8 C9 105.86(14)
C10 C9 C6 114.56(12)
C10 C9 C8 103.28(13)
C6 C9 C8 112.37(14)
C11 C10 C12 117.80(15)
C11 C10 C9 110.18(14)
C12 C10 C9 131.91(14)
O2 C11 C10 128.43(17)
O2 C11 C7 121.31(16)
C10 C11 C7 110.19(15)
O1 C12 C10 117.43(15)
O1 C12 C13 114.87(14)
C10 C12 C13 127.70(14)
C14 C13 C18 118.50(18)
C14 C13 C12 124.29(15)
C18 C13 C12 117.21(16)
C15 C14 C13 120.18(18)
C16 C15 C14 120.8(2)
C15 C16 C17 119.4(2)
C18 C17 C16 120.3(2)
C17 C18 C13 120.7(2)
loop_
_geom_bond_atom_site_label_1
_geom_bond_atom_site_label_2
_geom_bond_distance
C1 C2 1.378(3)
C1 C6 1.386(2)
O1 C12 1.295(2)
F1 C7 1.372(2)
C2 C3 1.368(3)
O2 C11 1.274(2)
F2 C7 1.358(2)
C3 C4 1.365(3)
C4 C5 1.388(3)
C5 C6 1.376(2)
C6 C9 1.522(2)
C7 C8 1.488(3)
C7 C11 1.499(3)
C8 C9 1.563(2)
C9 C10 1.515(2)
C10 C11 1.395(2)
C10 C12 1.416(2)
C12 C13 1.473(3)
C13 C14 1.390(3)
C13 C18 1.396(3)
C14 C15 1.380(3)
C15 C16 1.375(3)
C16 C17 1.381(4)
C17 C18 1.372(3)
