#------------------------------------------------------------------------------
#$Date: 2017-07-25 13:29:16 +0300 (Tue, 25 Jul 2017) $
#$Revision: 199266 $
#$URL: file:///home/coder/svn-repositories/cod/cif/1/54/66/1546672.cif $
#------------------------------------------------------------------------------
#
# This file is available in the Crystallography Open Database (COD),
# http://www.crystallography.net/. The original data for this entry
# were provided by IUCr Journals, http://journals.iucr.org/.
#
# The file may be used within the scientific community so long as
# proper attribution is given to the journal article from which the
# data were obtained.
#
data_1546672
loop_
_publ_author_name
'Rillema, D. Paul'
'KomReddy, Venugopal'
'Senaratne, Nilmini K.'
'Eichhorn, David M.'
_publ_section_title
;
 Methyl 5-methylpyrazine-2-carboxylate
;
_journal_coeditor_code           SJ4126
_journal_issue                   7
_journal_name_full               IUCrData
_journal_page_first              x170997
_journal_paper_doi               10.1107/S241431461700997X
_journal_volume                  2
_journal_year                    2017
_chemical_formula_iupac          'C7 H8 N2 O2'
_chemical_formula_moiety         'C7 H8 N2 O2'
_chemical_formula_sum            'C7 H8 N2 O2'
_chemical_formula_weight         152.15
_chemical_name_systematic
;
Methyl 5-methylpyrazine-2-carboxylate
;
_space_group_crystal_system      monoclinic
_space_group_IT_number           4
_space_group_name_Hall           'P 2yb'
_space_group_name_H-M_alt        'P 1 21 1'
_symmetry_space_group_name_Hall  'P 2yb'
_symmetry_space_group_name_H-M   'P 1 21 1'
_atom_sites_solution_hydrogens   geom
_atom_sites_solution_primary     direct
_audit_creation_method
;
Olex2 1.2
(compiled 2017.01.04 svn.r3372 for OlexSys, GUI svn.r5292)
;
_cell_angle_alpha                90
_cell_angle_beta                 93.303(2)
_cell_angle_gamma                90
_cell_formula_units_Z            2
_cell_length_a                   3.88720(10)
_cell_length_b                   6.8386(3)
_cell_length_c                   13.6279(5)
_cell_measurement_reflns_used    7189
_cell_measurement_temperature    150
_cell_measurement_theta_max      26.97
_cell_measurement_theta_min      2.99
_cell_volume                     361.67(2)
_computing_cell_refinement
;
SAINT (Bruker, 2012)
;
_computing_data_collection
;
SMART (Bruker, 2012)
;
_computing_data_reduction
;
SAINT (Bruker, 2012)
;
_computing_molecular_graphics
;
<i>OLEX2</i> (Dolomanov <i>et al.</i>,  2009)
;
_computing_publication_material
;
<i>OLEX2</i> (Dolomanov <i>et al.</i>,  2009)
;
_computing_structure_refinement
;
SHELXL2014 (Sheldrick, 2015b)
;
_computing_structure_solution
;
SHELXT (Sheldrick, 2015a)
;
_diffrn_ambient_temperature      150
_diffrn_detector_area_resol_mean 5.6
_diffrn_measured_fraction_theta_full 0.997
_diffrn_measured_fraction_theta_max 0.997
_diffrn_measurement_device       'three-circle diffractometer'
_diffrn_measurement_device_type  'Bruker APEXII CCD'
_diffrn_measurement_method       '\f and \w scans'
_diffrn_radiation_monochromator  graphite
_diffrn_radiation_type           MoK\a
_diffrn_radiation_wavelength     0.71073
_diffrn_reflns_av_R_equivalents  0.0149
_diffrn_reflns_limit_h_max       4
_diffrn_reflns_limit_h_min       -4
_diffrn_reflns_limit_k_max       8
_diffrn_reflns_limit_k_min       -8
_diffrn_reflns_limit_l_max       17
_diffrn_reflns_limit_l_min       -17
_diffrn_reflns_number            9931
_diffrn_reflns_theta_full        25.242
_diffrn_reflns_theta_max         27.119
_diffrn_reflns_theta_min         3.334
_diffrn_standards_number         0
_exptl_absorpt_coefficient_mu    0.105
_exptl_absorpt_correction_T_max  0.9755
_exptl_absorpt_correction_T_min  0.9248
_exptl_absorpt_correction_type   numerical
_exptl_absorpt_process_details
;
(SADABS; Bruker, 2012)
;
_exptl_crystal_colour            'clear colourless'
_exptl_crystal_density_diffrn    1.397
_exptl_crystal_description       block
_exptl_crystal_F_000             160
_exptl_crystal_size_max          0.657
_exptl_crystal_size_mid          0.652
_exptl_crystal_size_min          0.562
_refine_diff_density_max         0.195
_refine_diff_density_min         -0.173
_refine_ls_abs_structure_details
;
Flack <i>x</i>
determined using 659 quotients
[(<i>I</i>^+^)-(<i>I</i>^-^)]/[(<i>I</i>^+^)+(<i>I</i>^-^)]
(Parsons <i>et al</i>, 2013)
;
_refine_ls_abs_structure_Flack   0.0(2)
_refine_ls_extinction_method     none
_refine_ls_goodness_of_fit_ref   1.137
_refine_ls_hydrogen_treatment    constr
_refine_ls_matrix_type           full
_refine_ls_number_parameters     102
_refine_ls_number_reflns         1556
_refine_ls_number_restraints     1
_refine_ls_restrained_S_all      1.136
_refine_ls_R_factor_all          0.0303
_refine_ls_R_factor_gt           0.0290
_refine_ls_shift/su_max          0.000
_refine_ls_shift/su_mean         0.000
_refine_ls_structure_factor_coef Fsqd
_refine_ls_weighting_details
'w=1/[\s^2^(Fo^2^)+(0.0504P)^2^+0.0328P] where P=(Fo^2^+2Fc^2^)/3'
_refine_ls_weighting_scheme      calc
_refine_ls_wR_factor_gt          0.0817
_refine_ls_wR_factor_ref         0.0827
_reflns_number_gt                1495
_reflns_number_total             1556
_reflns_threshold_expression     'I > 2\s(I)'
_cod_data_source_file            sj4126sup1.cif
_cod_data_source_block           I
_cod_database_code               1546672
_shelx_space_group_comment
;
The symmetry employed for this shelxl refinement is uniquely defined
by the following loop, which should always be used as a source of
symmetry information in preference to the above space-group names.
They are only intended as comments.
;
_shelx_hkl_file
;
  -1   0   0  918.11   16.60
  -1   0   0  956.60   16.60
   1   0   0  888.41   17.70
   1   0   0  955.60   17.70
   1   0   0  908.81   14.80
  -1   0   0  923.21   17.80
  -1   0   0  941.01   17.80
  -1   0   0  946.91   14.90
  -1   0   0  948.61   15.10
  -1   0   0  882.81   15.10
  -1   0   0  892.91   14.90
  -1   0   0  962.40   15.20
  -1   0   0  899.31   15.10
   2   0   0   46.60    1.70
  -2   0   0   49.80    1.70
  -2   0   0   49.90    1.70
   2   0   0   50.39    1.70
   2   0   0   49.30    1.70
   2   0   0   49.90    1.60
  -2   0   0   51.09    1.80
  -2   0   0   47.50    1.80
  -2   0   0   47.70    1.80
  -2   0   0   52.29    2.20
  -2   0   0   49.90    2.10
  -2   0   0   49.50    1.70
   2   0   0   51.19    1.70
  -3   0   0  118.89    4.20
  -3   0   0  116.59    3.40
   3   0   0  119.79    3.10
   3   0   0  117.29    3.00
  -3   0   0  117.69    3.20
  -3   0   0  117.49    3.40
   4   0   0  285.57    5.90
  -4   0   0  291.67    7.00
  -4   0   0  306.07    6.90
   0  -1   0   -2.20    0.20
   0  -1   0   -2.10    0.10
   0  -1   0   -1.90    0.20
   0  -1   0   -2.10    0.20
   0  -1   0   -2.00    0.20
   0  -1   0   -2.00    0.10
   0  -1   0   -1.90    0.10
   0  -1   0   -2.20    0.20
   0   1   0   -1.50    0.20
   0   1   0   -1.70    0.30
   0   1   0   -1.90    0.20
   0   1   0   -1.80    0.10
   0   1   0   -2.10    0.20
   0   1   0   -1.90    0.20
   0   1   0   -2.10    0.10
   0   1   0   -2.00    0.20
   0   1   0   -1.90    0.20
  -1  -1   0 1231.28   20.30
  -1  -1   0 1212.48   23.80
  -1  -1   0 1244.48   21.70
  -1  -1   0 1246.68   21.70
  -1  -1   0 1255.77   19.90
  -1  -1   0 1232.78   22.30
  -1  -1   0 1222.18   23.80
   1  -1   0 1247.88   19.90
  -1  -1   0 1244.38   20.30
   1  -1   0 1227.28   19.90
   1  -1   0 1213.58   19.50
   1  -1   0 1258.47   19.50
  -1  -1   0 1239.58   22.30
  -1  -1   0 1181.58   20.70
  -1  -1   0 1215.58   20.10
   1   1   0 1279.77   23.80
  -1   1   0 1202.58   19.60
  -1   1   0 1212.18   23.40
  -1   1   0 1222.48   19.90
  -1   1   0 1200.38   19.60
   1   1   0 1221.98   20.00
   1   1   0 1199.48   20.30
   1   1   0 1240.68   20.30
   1   1   0 1194.58   23.80
  -1   1   0 1201.48   19.90
   1   1   0 1266.47   21.50
   1   1   0 1268.87   21.60
   1   1   0 1213.38   19.90
   1   1   0 1250.77   19.90
   1   1   0 1232.78   22.20
  -1   1   0 1244.88   20.00
  -1   1   0 1274.37   20.00
  -1   1   0 1261.97   19.60
   1   1   0 1214.98   20.20
   2  -1   0 1142.99   18.50
  -2  -1   0 1115.79   20.70
  -2  -1   0 1136.99   19.10
  -2  -1   0 1107.29   20.10
  -2  -1   0 1141.69   22.30
  -2  -1   0 1124.69   18.80
   2  -1   0 1099.89   18.50
  -2  -1   0 1110.29   18.70
   2  -1   0 1088.59   18.00
  -2  -1   0 1080.99   19.20
   2  -1   0 1105.09   18.00
  -2  -1   0 1113.59   18.90
  -2  -1   0 1106.19   19.00
   2   1   0 1108.69   22.00
   2   1   0 1120.59   18.70
  -2   1   0 1113.49   18.30
  -2   1   0 1098.09   18.60
   2   1   0 1122.59   22.00
   2   1   0 1117.29   18.60
   2   1   0 1110.19   18.30
   2   1   0 1123.09   18.90
  -2   1   0 1133.49   18.70
  -2   1   0 1090.89   18.60
  -2   1   0 1143.19   21.90
   2   1   0 1109.89   20.20
  -2   1   0 1120.19   20.20
  -2   1   0 1132.99   18.60
  -2   1   0 1149.78   18.40
   2   1   0 1129.09   20.30
  -3  -1   0  229.08    6.50
   3  -1   0  228.58    4.40
  -3  -1   0  225.88    5.30
  -3  -1   0  227.78    5.40
  -3  -1   0  225.28    5.40
   3  -1   0  222.58    4.40
   3   1   0  230.78    5.10
   3   1   0  221.48    5.60
  -3   1   0  228.28    5.00
   3   1   0  226.78    5.60
  -3   1   0  223.38    5.00
  -4  -1   0   13.40    1.90
  -4  -1   0   12.80    1.80
  -4   1   0   12.20    1.70
   4   1   0   12.30    1.50
  -4   1   0   14.30    1.60
   0  -2   0 1323.27   22.10
   0  -2   0 1338.67   22.10
   0  -2   0 1359.26   24.20
   0  -2   0 1374.76   26.00
   0  -2   0 1324.77   26.00
   0  -2   0 1364.66   21.70
   0  -2   0 1388.36   21.90
   0  -2   0 1333.47   21.90
   0  -2   0 1330.77   23.60
   0  -2   0 1338.97   22.50
   0  -2   0 1331.97   22.10
   0  -2   0 1363.26   21.70
   0   2   0 1363.86   23.70
   0   2   0 1326.47   24.30
   0   2   0 1335.57   21.90
   0   2   0 1336.17   21.90
   0   2   0 1344.17   22.10
   0   2   0 1385.56   26.10
   0   2   0 1385.66   24.30
   0   2   0 1332.57   22.10
   0   2   0 1351.16   23.70
   0   2   0 1331.17   26.00
   0   2   0 1327.97   21.70
   0   2   0 1365.26   22.20
  -1  -2   0  495.25    8.70
  -1  -2   0  489.15    9.30
  -1  -2   0  487.45    8.80
   1  -2   0  501.35    8.20
  -1  -2   0  499.55    8.70
   1  -2   0  499.45    9.20
  -1  -2   0  478.85   10.40
   1  -2   0  483.95    8.40
   1  -2   0  490.85    8.40
  -1  -2   0  476.85    8.90
  -1  -2   0  500.65    9.70
  -1  -2   0  479.75    8.70
   1  -2   0  479.95    8.20
  -1  -2   0  496.05    9.70
  -1  -2   0  495.45    9.30
   1   2   0  481.95    8.70
  -1   2   0  495.55    8.50
   1   2   0  503.25    9.60
   1   2   0  481.15    8.90
  -1   2   0  479.75    8.30
   1   2   0  482.45    9.20
   1   2   0  486.15   10.40
   1   2   0  487.75    8.80
  -1   2   0  485.75    8.40
  -1   2   0  477.15    9.90
  -1   2   0  503.05    9.90
   1   2   0  482.65    9.60
   1   2   0  493.55   10.40
  -1   2   0  478.45    8.40
  -1   2   0  484.25    8.20
  -1   2   0  474.85    8.20
   1   2   0  504.15    8.70
  -1   2   0  491.35    9.10
  -1   2   0  488.15    8.50
   1   2   0  493.45    8.90
  -1   2   0  478.35    9.10
  -2  -2   0   52.89    2.70
  -2  -2   0   52.59    2.20
  -2  -2   0   55.39    2.50
  -2  -2   0   54.29    2.20
  -2  -2   0   55.89    2.10
   2  -2   0   56.19    1.70
   2  -2   0   53.89    1.50
   2  -2   0   55.59    1.60
  -2  -2   0   54.69    2.20
  -2  -2   0   54.39    2.20
  -2  -2   0   53.69    2.20
   2  -2   0   57.09    1.50
  -2  -2   0   52.89    2.20
  -2   2   0   53.99    1.80
   2   2   0   57.69    1.80
  -2   2   0   54.79    1.70
   2   2   0   54.89    2.50
   2   2   0   53.59    2.00
  -2   2   0   56.89    2.20
  -2   2   0   54.09    1.70
  -2   2   0   55.99    1.80
   2   2   0   53.39    2.50
   2   2   0   56.69    2.10
  -2   2   0   56.39    1.80
   2   2   0   59.09    2.30
  -2   2   0   56.19    1.80
   2   2   0   53.99    1.80
   2   2   0   54.39    2.20
  -2   2   0   56.29    2.10
  -2   2   0   53.29    1.70
   2   2   0   53.19    2.00
   2   2   0   55.09    2.20
   2   2   0   53.49    2.20
  -3  -2   0   15.30    1.80
  -3  -2   0    9.60    1.70
  -3  -2   0   13.30    1.60
  -3  -2   0   14.20    1.70
  -3   2   0   13.40    1.30
   3   2   0   14.50    1.20
   3   2   0   13.90    1.70
   3   2   0   10.40    1.60
   3   2   0   12.00    1.50
   3   2   0   14.90    1.30
  -3   2   0   12.50    1.20
   3   2   0   13.90    1.20
  -4  -2   0   86.79    3.90
  -4  -2   0   94.59    4.10
   4   2   0   90.79    3.50
  -4   2   0   91.99    3.40
   0  -3   0   -3.00    0.70
   0  -3   0   -2.20    0.60
   0  -3   0   -3.70    0.60
   0  -3   0   -1.40    0.70
   0  -3   0   -2.20    0.70
   0  -3   0   -2.80    0.80
   0  -3   0   -3.20    0.90
   0  -3   0   -2.80    0.70
   0  -3   0   -3.60    0.60
   0  -3   0   -2.20    0.70
   0  -3   0   -3.70    0.70
   0  -3   0   -2.40    0.70
   0   3   0   -2.20    0.70
   0   3   0   -3.40    0.70
   0   3   0   -3.50    0.60
   0   3   0   -3.30    0.60
   0   3   0   -2.10    0.70
   0   3   0   -2.30    0.70
   0   3   0   -4.20    0.70
   0   3   0   -2.80    0.60
   0   3   0   -2.70    0.80
   0   3   0   -3.30    0.70
   1  -3   0  388.46    8.30
   1  -3   0  396.06    7.90
  -1  -3   0  403.86    8.10
  -1  -3   0  408.46    7.80
  -1  -3   0  405.36    7.80
  -1  -3   0  401.26    8.50
   1  -3   0  390.96    7.40
  -1  -3   0  405.26    7.70
  -1  -3   0  403.86    8.10
  -1  -3   0  411.56    7.80
   1  -3   0  404.86    7.20
   1  -3   0  409.86    8.30
   1  -3   0  413.96    7.20
  -1  -3   0  398.36    7.80
   1  -3   0  404.76    7.20
   1  -3   0  396.56    7.30
  -1  -3   0  405.16    8.50
  -1  -3   0  402.16    7.90
  -1  -3   0  407.36    9.20
  -1  -3   0  410.46    9.20
  -1   3   0  393.86    7.20
  -1   3   0  389.76    7.40
   1   3   0  394.66    7.60
  -1   3   0  399.86    8.00
  -1   3   0  404.16    7.50
   1   3   0  404.86    7.90
  -1   3   0  390.56    8.70
   1   3   0  405.06    9.20
   1   3   0  413.86    9.30
  -1   3   0  396.36    7.30
   1   3   0  406.56    7.90
   1   3   0  395.46    7.70
   1   3   0  403.86    8.50
   1   3   0  396.46    7.90
   1   3   0  392.36    8.10
  -1   3   0  397.06    7.20
  -1   3   0  400.86    8.70
  -1   3   0  397.56    7.40
   1   3   0  415.16    8.50
  -2  -3   0   35.60    1.90
  -2  -3   0   42.30    2.10
  -2  -3   0   41.30    2.20
   2  -3   0   41.80    1.40
  -2  -3   0   36.50    2.20
  -2  -3   0   45.20    2.70
  -2  -3   0   41.10    2.30
   2  -3   0   42.70    1.60
  -2  -3   0   41.50    2.10
   2  -3   0   41.30    1.40
  -2  -3   0   40.20    2.10
  -2  -3   0   42.80    2.30
  -2   3   0   41.10    1.70
  -2   3   0   40.40    1.70
  -2   3   0   41.50    1.70
   2   3   0   39.00    2.50
   2   3   0   42.60    2.00
  -2   3   0   42.50    2.10
  -2   3   0   43.10    1.70
   2   3   0   44.60    2.10
   2   3   0   41.20    2.20
   2   3   0   39.90    1.90
   2   3   0   42.80    2.20
   2   3   0   40.90    2.50
  -2   3   0   42.80    1.60
  -2   3   0   41.20    1.80
   2   3   0   39.50    2.20
   2   3   0   41.10    2.00
   2   3   0   44.00    2.20
   2   3   0   42.10    2.20
  -3  -3   0   19.60    2.10
  -3  -3   0   14.50    1.80
  -3  -3   0   19.30    2.00
   3   3   0   18.80    1.70
   3   3   0   19.30    2.10
   3   3   0   17.60    1.90
  -3   3   0   20.80    1.60
  -4  -3   0    2.80    1.90
  -4  -3   0    2.00    1.60
  -4   3   0    1.20    1.20
   4   3   0    1.40    1.40
   0  -4   0   12.20    1.10
   0  -4   0    9.90    1.10
   0  -4   0   12.20    1.20
   0  -4   0   11.80    1.30
   0  -4   0   12.70    1.20
   0  -4   0   12.40    1.40
   0  -4   0   12.40    1.20
   0  -4   0   11.60    1.10
   0  -4   0   11.40    1.00
   0  -4   0   13.80    1.30
   0  -4   0   11.20    1.40
   0  -4   0   12.20    1.10
   0  -4   0   15.10    1.30
   0   4   0   13.10    1.30
   0   4   0   11.80    1.20
   0   4   0   12.80    1.40
   0   4   0   12.40    1.30
   0   4   0   11.80    1.40
   0   4   0   11.50    1.20
   0   4   0   12.00    1.30
   0   4   0   10.70    1.20
   0   4   0   11.50    1.20
   0   4   0   12.60    1.20
  -1  -4   0  149.99    4.00
  -1  -4   0  155.68    3.90
   1  -4   0  151.58    4.00
   1  -4   0  150.58    3.50
  -1  -4   0  149.99    4.80
  -1  -4   0  157.88    4.30
   1  -4   0  154.88    3.50
   1  -4   0  144.79    3.90
  -1  -4   0  132.39    4.70
  -1  -4   0  148.69    4.30
  -1  -4   0  151.08    4.10
   1  -4   0  148.59    3.80
  -1  -4   0  154.08    4.10
  -1  -4   0  153.68    4.10
  -1  -4   0  149.09    4.00
  -1  -4   0  148.09    3.90
   1   4   0  149.79    4.00
  -1   4   0  144.49    4.30
  -1   4   0  150.38    4.40
   1   4   0  153.58    4.10
   1   4   0  151.78    4.10
   1   4   0  150.78    4.80
  -1   4   0  144.89    3.70
   1   4   0  150.38    4.10
  -1   4   0  147.59    3.90
   1   4   0  156.88    4.40
  -1   4   0  143.29    3.60
   1   4   0  148.89    4.10
  -1   4   0  150.18    3.70
   1   4   0  152.28    3.90
   1   4   0  147.29    4.30
  -1   4   0  148.59    3.80
  -1   4   0  145.59    3.60
   1   4   0  156.88    4.20
   1   4   0  149.79    3.90
  -2  -4   0   66.69    3.00
  -2  -4   0   70.89    3.10
   2  -4   0   63.39    2.70
   2  -4   0   69.19    2.00
  -2  -4   0   66.09    3.10
  -2  -4   0   67.89    3.10
  -2  -4   0   70.59    2.80
  -2  -4   0   70.79    3.00
   2  -4   0   66.49    2.00
  -2  -4   0   65.99    2.90
  -2   4   0   63.29    2.40
   2   4   0   63.29    3.00
   2   4   0   68.29    3.00
   2   4   0   63.79    2.90
  -2   4   0   67.29    2.90
   2   4   0   67.79    3.00
   2   4   0   65.89    3.50
   2   4   0   64.79    2.90
  -2   4   0   65.19    2.50
   2   4   0   63.69    2.90
  -3  -4   0   43.20    3.20
  -3  -4   0   45.30    3.10
   3   4   0   39.90    2.60
   3   4   0   39.30    2.80
   3   4   0   41.10    3.20
   3   4   0   37.90    2.10
  -4  -4   0   42.40    3.50
  -4  -4   0   45.20    3.50
   4   4   0   36.20    2.90
  -4   4   0   39.20    2.80
   0  -5   0    2.30    0.90
   0  -5   0    0.60    0.80
   0  -5   0   -0.40    0.70
   0  -5   0    0.40    0.80
   0  -5   0    0.60    0.80
   0  -5   0   -0.10    0.80
   0  -5   0   -0.90    1.10
   0  -5   0    1.00    1.20
   0  -5   0   -0.60    0.90
   0  -5   0   -0.30    0.90
   0  -5   0    0.90    0.90
   0  -5   0    0.60    0.90
   0   5   0   -0.30    0.90
   0   5   0    0.50    0.80
   0   5   0    0.70    0.80
   0   5   0    0.10    0.90
   0   5   0   -0.60    0.80
   0   5   0    0.10    1.10
   0   5   0    0.60    1.00
   0   5   0   -1.60    0.70
   0   5   0   -0.10    0.90
  -1  -5   0  162.78    4.80
  -1  -5   0  162.18    4.60
   1  -5   0  160.48    4.60
   1  -5   0  156.88    4.30
  -1  -5   0  158.28    4.50
  -1  -5   0  159.98    5.50
   1  -5   0  166.08    4.10
  -1  -5   0  161.68    4.70
  -1  -5   0  157.68    4.50
  -1  -5   0  154.08    4.30
   1  -5   0  163.68    4.50
  -1   5   0  166.78    4.40
   1   5   0  161.48    4.60
   1   5   0  166.08    4.50
  -1   5   0  160.18    4.40
   1   5   0  161.78    4.70
   1   5   0  164.38    4.80
   1   5   0  165.78    4.80
   1   5   0  160.98    4.70
  -1   5   0  161.58    5.10
   1   5   0  165.68    5.00
   1   5   0  193.78    5.00
  -2  -5   0 1098.99   20.20
   2  -5   0 1074.59   20.60
  -2  -5   0 1095.69   19.80
   2  -5   0 1104.09   18.20
  -2  -5   0 1107.09   21.80
  -2  -5   0 1096.29   20.10
   2   5   0 1096.69   20.00
   2   5   0 1083.69   21.70
   2   5   0 1109.59   19.80
  -2   5   0 1064.19   19.30
   2   5   0 1098.69   20.80
  -3  -5   0    1.90    1.60
  -3  -5   0    1.10    1.80
   3   5   0    0.70    1.40
   3   5   0    2.00    1.30
  -3   5   0    2.50    1.20
   3   5   0    2.70    1.40
  -4  -5   0   10.10    2.70
  -4  -5   0   15.10    2.70
  -4   5   0    9.10    1.80
   4   5   0    9.60    2.20
   0  -6   0 2269.67   38.10
   0  -6   0 2274.87   45.30
   0  -6   0 2286.77   41.40
   0  -6   0 2314.27   42.00
   0  -6   0 2308.27   38.00
   0   6   0 2322.37   39.10
   0   6   0 2293.97   39.10
   1  -6   0  322.97    7.90
  -1  -6   0  334.27    7.70
  -1  -6   0  332.07    7.70
  -1  -6   0  327.87    7.50
   1  -6   0  324.37    7.60
   1  -6   0  334.57    8.00
  -1  -6   0  335.47    8.20
  -1  -6   0  322.47    7.30
  -1  -6   0  331.97    7.70
   1  -6   0  317.97    7.00
  -1   6   0  318.97    7.60
   1   6   0  334.67    8.00
   1   6   0  328.07    8.00
  -2  -6   0   25.80    2.50
  -2  -6   0   27.30    2.60
   2  -6   0   24.40    1.70
  -2  -6   0   24.90    2.40
  -2  -6   0   30.50    2.60
   2   6   0   26.60    2.50
   2   6   0   27.40    2.60
  -2   6   0   22.10    2.10
   2   6   0   26.50    2.70
  -3  -6   0   26.60    3.00
  -3  -6   0   24.80    2.80
  -3   6   0   24.00    2.30
   3   6   0   24.50    2.40
   3   6   0   21.00    2.70
   0  -7   0   -0.30    1.20
   0  -7   0    0.90    0.90
   0  -7   0    2.20    1.50
   0   7   0   -0.40    1.40
  -1  -7   0   58.09    3.30
   1  -7   0   60.79    2.90
   1  -7   0   67.39    3.30
  -1  -7   0   56.69    3.30
  -1   7   0   55.89    3.40
   1   7   0   62.79    3.70
   2  -7   0   29.60    2.10
  -2  -7   0   34.00    2.80
   2   7   0   31.90    3.00
  -2   7   0   35.30    2.90
  -3  -7   0   37.50    3.50
   0  -8   0   87.89    4.00
   0   8   0   95.89    4.60
  -1  -8   0    7.60    1.70
  -1  -8   0    8.40    2.00
   1  -8   0    4.40    1.50
   1   8   0    9.90    2.10
  -1   8   0    7.20    2.00
  -2   8   0    1.10    1.70
  -4   0   1   47.80    2.90
  -4   0   1   43.50    3.00
   4   0  -1   48.20    2.40
   3   0  -1  222.38    5.20
   3   0  -1  210.08    4.90
   3   0  -1  223.18    4.90
  -3   0   1  214.38    5.10
  -3   0   1  222.58    5.00
  -3   0   1  220.38    5.20
   3   0  -1  222.68    5.30
   2   0  -1   42.00    1.60
  -2   0   1   41.80    1.70
  -2   0   1   44.50    1.70
  -2   0   1   43.70    2.20
   2   0  -1   42.30    1.30
   2   0  -1   39.60    1.40
  -2   0   1   40.90    1.70
  -2   0   1   42.50    1.60
   2   0  -1   40.60    1.80
   2   0  -1   41.80    1.90
  -2   0   1   41.70    1.70
  -2   0   1   44.10    2.00
  -2   0   1   43.40    1.70
  -2   0   1   44.60    1.70
   2   0  -1   41.30    1.50
  -1   0   1 3165.58   49.90
   1   0  -1 3023.20   54.39
   1   0  -1 3130.59   50.59
  -1   0   1 3111.49   52.79
  -1   0   1 3050.69   49.00
  -1   0   1 3006.30   54.19
   1   0  -1 2980.70   49.10
  -1   0   1 3084.59   59.59
   1   0  -1 2959.00   48.60
  -1   0   1 3060.69   53.59
   1   0  -1 3057.89   53.09
   1   0  -1 3112.99   54.89
   1   0  -1 3081.79   58.79
  -1   0   1 2966.50   50.49
   1   0  -1 3095.89   57.69
   1   0  -1 3102.49   52.79
   1   0  -1 3043.40   48.70
   1   0  -1 2988.40   49.30
  -1   0   1 3146.19   50.69
  -1   0   1 3081.09   55.19
  -1   0   1 3086.29   49.80
  -1   0   1 2998.80   48.90
  -1   0   1 3117.29   57.69
   0   0   1    0.00    0.10
  -1   0  -1 8912.91  167.08
   1   0   1 8841.92  141.99
   1   0   1 8915.31  139.19
   1   0   1 8737.73  141.29
   1   0   1 8921.91  138.79
  -1   0  -1 9216.98  139.59
  -1   0  -1 8893.11  142.19
  -1   0  -1 8618.94  166.38
  -1   0  -1 8859.81  142.09
  -1   0  -1 8619.94  141.59
  -2   0  -1  406.26    7.30
   2   0   1  407.86    7.00
  -2   0  -1  423.26    7.40
  -2   0  -1  393.36    7.30
  -2   0  -1  406.76    7.20
   2   0   1  407.36    7.30
  -2   0  -1  397.76    7.40
  -2   0  -1  413.26    7.50
   2   0   1  412.96    7.10
  -2   0  -1  412.26    7.90
  -2   0  -1  415.36    8.70
   2   0   1  400.56    7.30
  -2   0  -1  403.46    8.70
   3   0   1   17.90    1.20
  -3   0  -1   20.80    1.60
   3   0   1   19.60    1.40
  -3   0  -1   23.40    2.20
  -3   0  -1   21.40    1.60
  -4   0  -1    1.40    1.30
  -4   0  -1    0.30    1.20
  -4  -1   1   22.00    2.20
  -4  -1   1   25.70    2.40
   4  -1  -1   25.10    1.70
  -4   1   1   19.40    2.00
  -4   1   1   21.70    2.10
   4   1  -1   26.30    2.10
  -3  -1   1  148.79    4.20
  -3  -1   1  154.48    5.40
  -3  -1   1  157.18    4.30
   3  -1  -1  153.58    3.50
  -3  -1   1  151.18    4.20
  -3   1   1  154.28    3.80
  -3   1   1  149.29    3.90
  -3   1   1  148.19    3.90
   3   1  -1  150.78    4.00
   3   1  -1  149.79    4.40
   3   1  -1  150.08    3.30
   3   1  -1  147.59    4.40
  -2  -1   1 1039.60   17.80
  -2  -1   1 1050.89   21.00
   2  -1  -1 1044.00   20.10
   2  -1  -1 1029.70   17.00
   2  -1  -1 1004.60   17.40
  -2  -1   1 1038.50   17.60
   2  -1  -1 1033.20   17.10
  -2  -1   1 1038.70   18.90
  -2  -1   1 1048.30   17.60
  -2  -1   1 1044.00   17.90
  -2  -1   1 1031.60   19.50
   2  -1  -1 1005.00   20.10
  -2  -1   1 1054.49   21.00
  -2  -1   1 1032.10   18.10
   2  -1  -1 1044.90   17.40
  -2  -1   1 1035.00   17.90
   2   1  -1 1015.70   17.80
  -2   1   1 1043.10   17.30
   2   1  -1 1031.50   20.70
  -2   1   1 1062.29   17.60
  -2   1   1 1048.40   17.30
  -2   1   1 1056.39   20.60
  -2   1   1 1034.50   17.50
  -2   1   1 1047.10   17.50
   2   1  -1 1045.60   17.50
  -2   1   1 1046.70   19.10
   2   1  -1 1029.30   17.60
   2   1  -1 1038.70   19.10
   2   1  -1 1046.80   19.10
   2   1  -1 1052.59   17.40
   2   1  -1 1019.00   20.70
  -1  -1   1 9930.61  173.58
  -1  -1   1 9685.43  154.98
  -1  -1   1 9851.71  183.68
  -1  -1   1 9348.07  160.28
  -1  -1   1 9744.83  157.18
  -1  -1   1 9711.43  168.98
  -1  -1   1 9774.72  185.08
   1  -1  -1 9775.82  182.88
   1  -1  -1 9451.95  153.58
   1  -1  -1 9713.03  156.38
   1  -1  -1 9462.45  170.28
  -1  -1   1 9689.33  171.88
   1  -1  -1 9416.36  153.68
   1  -1  -1 9920.71  153.38
  -1  -1   1 9665.13  154.18
   1  -1  -1 9416.16  170.38
  -1  -1   1 9658.53  167.88
  -1  -1   1 9676.83  157.18
  -1   1   1 9653.93  156.48
  -1   1   1 9711.53  171.28
   1   1  -1 9736.53  168.88
   1   1  -1 9700.73  185.38
  -1   1   1 9385.86  154.48
   1   1  -1 9531.15  157.18
   1   1  -1 9590.84  167.68
   1   1  -1 9565.54  156.18
  -1   1   1 9655.83  156.08
   1   1  -1 9936.81  173.78
  -1   1   1 9720.93  183.68
  -1   1   1 9884.51  156.98
  -1   1   1 9793.92  153.78
  -1   1   1 9687.13  154.58
  -1   1   1 9699.33  183.68
   1   1  -1 9751.02  183.88
   1   1  -1 9690.33  153.58
  -1   1   1 9695.13  171.28
   1   1  -1 9999.00  154.58
  -1   1   1 9519.65  157.08
  -1   1   1 9552.64  159.18
  -1   1   1 9592.64  166.68
   1   1  -1 9539.55  171.88
   0  -1  -1  585.54   10.30
   0  -1   1  643.54   11.10
   0  -1   1  594.54   10.00
   0  -1   1  533.55   10.10
   0  -1   1  569.14   11.10
   0  -1  -1  625.84   10.10
   0  -1  -1  587.74   10.30
   0  -1  -1  629.14   11.30
   0   1   1  670.23   10.10
   0   1   1  688.63   10.30
   0   1   1  691.33   10.20
   0   1  -1  558.34   11.90
   0   1   1  667.23   11.00
  -1  -1  -1  590.44   10.00
  -1  -1  -1  585.54   11.10
  -1  -1  -1  580.54   10.20
  -1  -1  -1  596.94   10.20
  -1  -1  -1  609.44   10.70
   1  -1   1  595.84   11.00
  -1  -1  -1  582.14   11.90
  -1  -1  -1  578.54   10.10
  -1  -1  -1  603.74   11.10
  -1  -1  -1  590.24   11.90
  -1  -1  -1  597.84   10.00
   1   1   1  586.14    9.90
   1   1   1  599.94   11.00
   1   1   1  590.24   10.00
   1   1   1  580.54   11.80
  -1   1  -1  593.04    9.50
   1   1   1  615.24   11.00
   1   1   1  592.14   10.10
   1   1   1  584.94   10.10
   1   1   1  602.04   11.90
  -2  -1  -1  213.78    4.80
  -2  -1  -1  218.98    5.40
  -2  -1  -1  204.78    5.30
  -2  -1  -1  211.98    4.40
  -2  -1  -1  218.38    4.50
  -2  -1  -1  207.38    4.50
  -2  -1  -1  214.98    4.60
   2   1   1  210.78    4.40
   2   1   1  211.28    4.50
  -2   1  -1  214.48    4.80
   2   1   1  208.88    5.00
  -2   1  -1  218.48    4.20
  -2   1  -1  215.38    4.10
  -2   1  -1  211.78    4.20
   2   1   1  219.08    4.40
   2   1   1  214.98    5.00
  -2   1  -1  208.28    4.10
  -2   1  -1  212.58    4.80
  -3  -1  -1   64.39    2.60
  -3  -1  -1   65.69    3.30
  -3  -1  -1   60.39    2.50
  -3  -1  -1   64.29    2.60
  -3   1  -1   65.79    2.20
   3   1   1   69.39    2.40
  -3   1  -1   63.29    2.20
  -3   1  -1   64.99    2.30
  -4  -1  -1   28.80    2.40
  -4  -1  -1   30.60    2.50
   4   1   1   25.50    2.00
  -4   1  -1   26.70    2.10
  -4  -2   1    7.10    1.70
  -4  -2   1    7.00    1.90
   4   2  -1    7.40    1.60
  -4   2   1    7.60    1.50
  -3  -2   1   94.19    4.10
   3  -2  -1   91.29    2.50
  -3  -2   1  100.79    3.50
  -3  -2   1   96.59    3.60
  -3  -2   1   97.49    3.60
  -3   2   1   92.69    2.80
   3   2  -1   95.39    3.70
   3   2  -1   96.69    3.70
   3   2  -1   94.29    3.40
  -3   2   1   95.69    3.10
  -3   2   1   93.89    3.00
  -3   2   1   97.79    3.70
   3   2  -1   95.49    2.90
   3   2  -1  100.39    3.00
   3   2  -1   95.59    3.00
  -2  -2   1  674.23   13.60
   2  -2  -1  685.23   11.50
   2  -2  -1  675.63   11.80
  -2  -2   1  678.63   12.50
   2  -2  -1  670.93   11.50
  -2  -2   1  694.63   14.70
  -2  -2   1  681.63   12.30
  -2  -2   1  673.83   12.50
   2  -2  -1  678.03   11.80
  -2  -2   1  669.43   13.00
  -2  -2   1  696.23   12.60
  -2  -2   1  685.03   12.40
  -2   2   1  690.33   11.80
   2   2  -1  684.83   12.20
  -2   2   1  672.43   11.90
  -2   2   1  682.83   12.00
  -2   2   1  682.33   14.00
   2   2  -1  682.73   12.10
  -2   2   1  683.13   14.00
   2   2  -1  689.53   13.40
   2   2  -1  707.73   12.70
   2   2  -1  687.93   14.50
   2   2  -1  695.63   13.50
  -2   2   1  690.83   12.10
   2   2  -1  689.93   14.50
   2   2  -1  682.93   12.30
  -2   2   1  682.03   11.80
   2   2  -1  682.63   12.50
   2   2  -1  684.73   12.50
   2   2  -1  667.33   12.20
   2   2  -1  665.43   12.70
  -2   2   1  678.83   13.00
   1  -2  -1   13.00    0.90
  -1  -2   1   13.50    1.20
  -1  -2   1   15.00    1.30
   1  -2  -1   12.50    0.70
  -1  -2   1   12.70    1.00
   1  -2  -1   13.50    0.90
   1  -2  -1   13.50    0.80
   1  -2  -1   12.20    0.80
   1  -2  -1   13.00    1.00
   1  -2  -1   12.60    1.10
  -1  -2   1   12.60    1.20
  -1  -2   1   17.00    1.20
  -1  -2   1   14.10    1.30
  -1  -2   1   13.30    1.10
  -1  -2   1   13.70    1.10
  -1  -2   1   12.50    1.10
   1  -2  -1   13.00    0.80
  -1  -2   1   12.90    1.10
  -1  -2   1   13.00    1.10
   1  -2  -1   11.10    1.10
  -1   2   1   10.80    0.90
  -1   2   1   11.80    0.90
   1   2  -1    8.80    0.90
  -1   2   1   11.70    0.90
  -1   2   1   13.00    1.00
  -1   2   1   12.40    1.00
  -1   2   1   12.70    0.90
  -1   2   1   12.70    1.00
  -1   2   1   14.30    0.90
   1   2  -1    9.80    1.30
  -1   2   1   13.70    1.20
   1   2  -1   13.20    1.40
   1   2  -1   13.40    1.10
   1   2  -1   10.80    1.10
   1   2  -1   13.20    1.10
   1   2  -1   13.60    1.10
   1   2  -1   11.50    1.10
   1   2  -1   12.00    1.00
   1   2  -1   13.60    1.10
  -1   2   1   12.70    1.10
  -1   2   1   12.10    1.00
   0  -2   1 1328.67   21.80
   0  -2  -1 1321.77   21.70
   0  -2  -1 1332.77   21.90
   0  -2  -1 1327.27   24.10
   0  -2   1 1313.47   21.70
   0  -2  -1 1329.47   25.80
   0  -2   1 1336.87   25.60
   0  -2   1 1352.16   23.10
   0  -2   1 1327.47   21.50
   0  -2  -1 1340.37   25.80
   0  -2  -1 1304.87   21.50
   0  -2  -1 1321.67   21.90
   0  -2  -1 1353.06   24.10
   0  -2  -1 1345.67   21.90
   0  -2  -1 1327.57   21.50
   0  -2   1 1339.17   23.80
   0  -2   1 1312.17   21.50
   0  -2   1 1322.97   25.60
   0  -2   1 1357.36   21.40
   0  -2   1 1314.97   23.80
   0  -2  -1 1312.37   22.40
   0   2  -1 1296.67   21.80
   0   2   1 1342.67   21.60
   0   2  -1 1309.27   25.60
   0   2  -1 1378.86   24.00
   0   2   1 1328.07   21.70
   0   2  -1 1332.87   24.00
   0   2   1 1328.17   25.80
   0   2   1 1353.96   23.50
   0   2  -1 1314.27   21.80
   0   2  -1 1337.87   25.70
   0   2  -1 1297.57   21.40
   0   2  -1 1314.07   21.60
   0   2  -1 1357.06   21.60
   0   2   1 1330.67   22.00
   0   2   1 1335.37   21.90
   0   2   1 1391.56   24.10
   0   2   1 1322.37   24.10
   0   2   1 1323.37   23.40
   0   2  -1 1341.37   23.30
   0   2   1 1337.27   22.00
   0   2  -1 1327.37   23.30
   0   2  -1 1353.86   21.90
   0   2   1 1318.97   21.70
  -1  -2  -1  268.97    5.30
  -1  -2  -1  265.87    5.20
  -1  -2  -1  264.27    6.20
   1  -2   1  259.97    4.90
  -1  -2  -1  269.97    5.70
  -1  -2  -1  262.87    6.10
   1  -2   1  264.07    4.60
  -1  -2  -1  262.77    5.30
  -1  -2  -1  265.97    5.70
  -1  -2  -1  263.37    5.40
   1  -2   1  269.47    5.50
  -1  -2  -1  263.17    5.20
  -1  -2  -1  262.17    5.40
   1  -2   1  270.47    4.40
  -1  -2  -1  259.67    5.30
  -1  -2  -1  264.67    5.10
  -1  -2  -1  259.67    5.20
   1  -2   1  259.67    4.70
  -1   2  -1  260.47    4.60
   1   2   1  274.77    5.20
   1   2   1  265.27    6.20
  -1   2  -1  251.07    5.50
   1   2   1  261.57    6.10
   1   2   1  258.07    5.20
  -1   2  -1  261.47    4.80
   1   2   1  264.57    5.30
  -1   2  -1  256.57    4.70
   1   2   1  256.37    5.20
  -1   2  -1  247.88    4.60
   1   2   1  254.27    5.30
   1   2   1  255.87    5.30
   1   2   1  258.17    5.30
  -1   2  -1  270.77    5.50
  -1   2  -1  261.37    4.60
   1   2   1  262.47    5.60
  -2  -2  -1  248.88    5.50
  -2  -2  -1  257.87    5.40
  -2  -2  -1  254.27    5.50
  -2  -2  -1  247.58    5.40
  -2  -2  -1  245.38    5.50
  -2  -2  -1  253.87    5.40
  -2  -2  -1  252.17    5.90
  -2  -2  -1  255.17    6.50
  -2  -2  -1  239.78    6.40
  -2   2  -1  259.27    4.90
   2   2   1  254.07    5.50
   2   2   1  260.87    6.20
   2   2   1  255.57    5.40
   2   2   1  257.07    5.00
  -2   2  -1  248.78    4.70
  -2   2  -1  243.58    4.70
   2   2   1  252.77    5.50
   2   2   1  259.77    5.30
   2   2   1  257.67    5.50
  -2   2  -1  252.67    4.80
   2   2   1  256.57    5.50
   2   2   1  253.47    6.30
  -3  -2  -1   49.90    2.70
  -3  -2  -1   51.59    2.60
  -3  -2  -1   49.30    2.60
   3   2   1   52.09    2.40
  -3   2  -1   50.89    2.10
   3   2   1   53.79    2.60
  -3   2  -1   48.90    2.00
   3   2   1   50.19    2.60
  -4  -2  -1   39.30    2.90
  -4  -2  -1   38.80    2.90
   4   2   1   32.90    2.40
  -4   2  -1   32.00    2.40
  -4  -3   1   43.60    3.40
  -4  -3   1   43.50    3.70
   4   3  -1   44.50    3.10
  -4   3   1   42.80    2.80
  -3  -3   1   27.60    2.30
  -3  -3   1   34.40    2.60
  -3  -3   1   30.90    2.50
   3   3  -1   28.00    2.10
   3   3  -1   29.20    2.30
  -3   3   1   26.70    2.00
   3   3  -1   27.40    2.60
   2  -3  -1  111.09    2.90
  -2  -3   1  118.59    3.70
  -2  -3   1  115.09    3.50
  -2  -3   1  113.39    3.50
  -2  -3   1  113.39    3.30
  -2  -3   1  106.99    3.40
  -2  -3   1  116.29    3.50
  -2  -3   1  112.79    3.50
  -2  -3   1  112.59    3.50
   2  -3  -1  111.99    2.70
   2  -3  -1  108.89    2.70
  -2  -3   1  109.09    4.00
   2   3  -1  110.39    3.50
   2   3  -1  115.19    3.50
   2   3  -1  111.79    4.00
  -2   3   1  112.59    3.10
   2   3  -1  112.29    3.40
  -2   3   1  115.49    3.60
   2   3  -1  109.99    4.00
   2   3  -1  104.69    3.40
   2   3  -1  106.99    3.50
  -2   3   1  110.69    3.00
  -2   3   1  111.69    3.00
   2   3  -1  113.59    3.30
  -2   3   1  104.99    3.10
   2   3  -1  111.09    3.60
  -2   3   1  105.79    2.80
  -2   3   1  108.29    3.00
   2   3  -1  108.29    3.30
  -1  -3   1  135.79    3.40
   1  -3  -1  129.89    3.10
  -1  -3   1  136.99    3.50
  -1  -3   1  130.59    4.10
  -1  -3   1  134.19    3.50
  -1  -3   1  130.99    3.70
   1  -3  -1  129.99    3.10
  -1  -3   1  131.99    4.10
   1  -3  -1  127.59    3.10
   1  -3  -1  130.59    2.80
   1  -3  -1  129.59    2.80
   1  -3  -1  132.99    3.60
  -1  -3   1  133.19    3.40
  -1  -3   1  129.99    3.50
   1  -3  -1  128.99    2.90
  -1  -3   1  132.89    3.40
  -1  -3   1  133.69    3.70
  -1  -3   1  132.39    3.40
   1  -3  -1  130.09    3.00
   1  -3  -1  124.29    3.50
   1   3  -1  130.89    4.10
  -1   3   1  128.09    3.20
   1   3  -1  125.29    3.70
  -1   3   1  130.79    3.10
   1   3  -1  133.39    3.40
   1   3  -1  129.59    4.10
  -1   3   1  132.49    3.20
   1   3  -1  130.49    3.50
  -1   3   1  127.99    3.20
   1   3  -1  132.39    3.60
  -1   3   1  133.19    3.80
   1   3  -1  138.29    3.80
   1   3  -1  132.29    3.50
  -1   3   1  128.49    3.70
   1   3  -1  131.29    3.50
   1   3  -1  127.29    3.50
  -1   3   1  130.39    3.10
   1   3  -1  127.09    3.50
  -1   3   1  125.89    3.00
  -1   3   1  135.79    3.40
   0  -3   1  151.18    4.10
   0  -3  -1  154.28    3.50
   0  -3  -1  155.18    3.60
   0  -3  -1  151.98    3.70
   0  -3  -1  152.48    3.60
   0  -3   1  148.59    3.40
   0  -3  -1  156.18    4.30
   0  -3   1  154.88    3.40
   0  -3  -1  163.28    3.80
   0  -3   1  153.78    3.30
   0  -3   1  152.58    3.50
   0  -3  -1  152.88    3.60
   0  -3  -1  153.68    3.40
   0  -3   1  159.38    4.10
   0  -3   1  166.88    4.00
   0  -3   1  153.58    3.30
   0  -3   1  153.78    3.60
   0  -3   1  153.58    3.60
   0  -3  -1  152.68    3.60
   0  -3   1  152.28    3.50
   0  -3  -1  152.38    3.60
   0  -3   1  155.78    3.60
   0  -3  -1  152.18    4.20
   0   3  -1  153.58    3.50
   0   3  -1  150.38    4.20
   0   3  -1  157.18    4.20
   0   3  -1  158.38    3.80
   0   3   1  159.28    4.40
   0   3   1  157.88    3.90
   0   3   1  153.78    3.60
   0   3   1  153.88    3.70
   0   3  -1  153.58    3.60
   0   3  -1  155.68    3.50
   0   3   1  153.98    3.70
   0   3   1  152.28    3.50
   0   3  -1  154.98    3.60
   0   3   1  152.28    3.70
   0   3   1  156.58    3.60
   0   3   1  147.49    3.70
   0   3  -1  148.09    3.80
   0   3   1  153.08    4.30
   0   3  -1  151.28    3.60
   0   3  -1  150.08    3.40
   0   3   1  151.98    3.90
   0   3  -1  152.58    3.60
   0   3   1  157.78    3.80
  -1  -3  -1  350.16    8.20
   1  -3   1  350.86    6.30
   1  -3   1  355.86    6.20
  -1  -3  -1  350.26    7.20
  -1  -3  -1  353.66    6.80
   1  -3   1  345.27    6.20
  -1  -3  -1  347.87    7.10
  -1  -3  -1  345.37    7.00
   1  -3   1  340.67    7.20
  -1  -3  -1  354.16    6.90
  -1  -3  -1  336.37    6.90
  -1  -3  -1  351.86    6.90
   1  -3   1  348.37    6.50
  -1  -3  -1  349.37    7.50
   1  -3   1  346.97    6.40
  -1  -3  -1  349.07    7.30
  -1  -3  -1  353.16    7.00
  -1  -3  -1  352.36    7.60
   1   3   1  348.97    6.90
   1   3   1  346.37    6.80
  -1   3  -1  343.47    6.40
  -1   3  -1  345.97    6.90
  -1   3  -1  349.27    6.30
   1   3   1  351.36    8.20
  -1   3  -1  347.37    6.40
   1   3   1  349.47    7.50
   1   3   1  345.37    6.80
  -1   3  -1  342.87    7.50
  -1   3  -1  341.57    6.50
  -1   3  -1  348.37    6.20
   1   3   1  351.66    8.20
   1   3   1  357.86    7.20
   1   3   1  344.87    7.00
   1   3   1  347.97    7.00
  -1   3  -1  353.96    6.50
   1   3   1  352.56    7.10
  -1   3  -1  333.67    6.40
   1   3   1  342.87    7.50
  -1   3  -1  346.97    7.60
  -2  -3  -1   20.60    2.00
   2  -3   1   19.70    1.70
  -2  -3  -1   23.30    2.20
  -2  -3  -1   20.30    1.70
  -2  -3  -1   21.00    1.70
  -2  -3  -1   18.70    1.70
  -2  -3  -1   19.20    1.60
  -2  -3  -1   20.70    1.70
  -2  -3  -1   19.70    1.60
  -2  -3  -1   23.80    1.90
  -2  -3  -1   20.10    1.70
   2   3   1   19.50    1.60
  -2   3  -1   21.70    1.20
   2   3   1   22.00    1.70
   2   3   1   22.40    1.50
   2   3   1   21.30    1.80
   2   3   1   22.50    1.70
   2   3   1   18.20    1.80
  -2   3  -1   19.40    1.20
  -2   3  -1   24.10    1.50
  -2   3  -1   19.60    1.30
  -2   3  -1   21.70    1.20
   2   3   1   23.20    2.10
   2   3   1   22.00    1.70
   2   3   1   20.20    1.60
   2   3   1   19.10    1.60
   2   3   1   25.40    1.80
  -2   3  -1   21.70    1.10
   2   3   1   18.00    1.60
  -3  -3  -1   55.99    3.10
  -3  -3  -1   49.80    2.90
   3   3   1   51.39    3.00
   3   3   1   52.49    2.30
  -3   3  -1   53.69    2.20
   3   3   1   50.49    3.00
   3   3   1   51.69    2.70
  -4  -3  -1   83.39    4.10
  -4  -3  -1   86.49    4.30
  -4   3  -1   80.49    3.20
   4   3   1   74.19    3.50
  -4  -4   1   44.40    3.60
  -4  -4   1   44.50    3.60
   4   4  -1   50.49    3.40
  -4   4   1   47.00    3.00
  -3  -4   1  194.78    5.70
  -3  -4   1  199.38    5.90
  -3  -4   1  193.08    5.70
   3   4  -1  198.58    5.70
   3   4  -1  196.28    5.00
  -3   4   1  195.28    5.00
   3   4  -1  199.48    5.60
   3   4  -1  172.48    6.90
   3   4  -1  192.28    4.90
   2  -4  -1  117.69    3.00
  -2  -4   1  115.39    3.90
  -2  -4   1  117.49    4.00
   2  -4  -1  110.09    3.00
  -2  -4   1  123.59    4.00
  -2  -4   1  120.49    3.90
  -2  -4   1  122.19    3.90
  -2  -4   1  114.59    3.90
  -2  -4   1  110.69    4.00
   2   4  -1  112.89    3.90
   2   4  -1  117.59    4.00
   2   4  -1  120.09    4.10
   2   4  -1  115.29    3.90
   2   4  -1  112.39    3.90
  -2   4   1  121.19    4.00
  -2   4   1  113.29    3.40
  -2   4   1  117.99    3.30
   2   4  -1  114.89    4.60
   1  -4  -1  196.18    5.10
  -1  -4   1  205.78    4.70
   1  -4  -1  200.78    5.20
  -1  -4   1  208.88    5.20
   1  -4  -1  201.68    4.40
  -1  -4   1  200.68    5.00
  -1  -4   1  198.68    4.80
  -1  -4   1  207.98    4.90
  -1  -4   1  200.28    5.80
  -1  -4   1  203.98    4.90
   1  -4  -1  203.08    4.10
  -1  -4   1  198.28    4.80
  -1  -4   1  200.68    4.90
  -1  -4   1  198.68    4.70
   1  -4  -1  202.78    4.40
   1  -4  -1  206.58    4.40
   1  -4  -1  195.48    4.50
   1  -4  -1  206.78    4.10
   1  -4  -1  203.98    4.50
  -1  -4   1  204.38    5.20
  -1  -4   1  210.08    5.80
   1   4  -1  201.38    5.00
   1   4  -1  207.78    5.30
   1   4  -1  204.38    5.00
   1   4  -1  203.68    5.00
  -1   4   1  203.68    5.50
  -1   4   1  203.08    5.50
   1   4  -1  205.28    5.30
  -1   4   1  199.68    4.50
  -1   4   1  207.38    4.60
   1   4  -1  201.08    5.00
  -1   4   1  203.38    4.60
   1   4  -1  198.18    4.80
   1   4  -1  198.98    5.00
   1   4  -1  201.48    4.80
  -1   4   1  204.28    5.00
  -1   4   1  197.78    4.70
   1   4  -1  201.48    4.90
  -1   4   1  205.38    4.70
  -1   4   1  196.38    4.70
   1   4  -1  202.88    5.80
   1   4  -1  200.38    5.90
   0  -4   1  402.76    8.00
   0  -4  -1  387.86    7.60
   0  -4   1  403.06    8.30
   0  -4   1  388.06    7.50
   0  -4   1  391.66    7.40
   0  -4  -1  391.06    9.10
   0  -4   1  395.26    7.50
   0  -4   1  395.86    7.40
   0  -4  -1  401.06    9.10
   0  -4  -1  387.76    7.50
   0  -4  -1  391.96    7.60
   0  -4  -1  392.66    7.80
   0  -4  -1  390.66    7.60
   0  -4   1  380.56    8.80
   0  -4  -1  386.06    7.80
   0  -4  -1  392.36    7.50
   0  -4   1  388.06    7.30
   0  -4   1  390.16    7.40
   0  -4   1  391.66    8.90
   0  -4  -1  389.56    7.90
   0  -4   1  388.16    7.50
   0  -4   1  401.56    7.70
   0  -4  -1  393.86    8.30
   0  -4  -1  398.76    7.70
   0   4  -1  386.46    7.80
   0   4   1  387.86    8.50
   0   4  -1  385.86    8.00
   0   4  -1  380.26    7.50
   0   4  -1  395.76    7.80
   0   4   1  387.76    7.80
   0   4   1  403.56    7.90
   0   4   1  398.86    7.90
   0   4  -1  390.56    7.60
   0   4  -1  401.46    7.70
   0   4   1  379.56    8.00
   0   4   1  392.66    7.70
   0   4  -1  391.56    9.10
   0   4   1  401.76    7.70
   0   4   1  399.46    8.50
   0   4  -1  396.16    9.20
   0   4  -1  389.36    8.40
   0   4   1  389.76    7.70
   0   4  -1  392.96    7.80
   0   4   1  391.06    9.20
   1  -4   1  393.16    8.10
  -1  -4  -1  398.56    8.70
  -1  -4  -1  387.96    7.90
  -1  -4  -1  391.06    7.90
  -1  -4  -1  389.96    9.40
   1  -4   1  377.46    8.20
  -1  -4  -1  391.26    8.10
  -1  -4  -1  387.96    7.80
   1  -4   1  381.76    7.10
  -1  -4  -1  400.46    8.20
  -1  -4  -1  379.26    7.90
  -1  -4  -1  383.96    9.40
   1  -4   1  386.96    7.40
  -1  -4  -1  392.26    8.20
  -1  -4  -1  389.56    8.60
  -1  -4  -1  385.86    8.00
   1  -4   1  387.96    7.50
   1  -4   1  369.76    8.10
   1  -4   1  390.96    7.20
  -1   4  -1  391.66    8.10
   1   4   1  400.86    7.80
   1   4   1  408.06    8.70
  -1   4  -1  387.76    8.80
  -1   4  -1  395.46    8.90
  -1   4  -1  383.86    7.40
  -1   4  -1  388.66    7.50
   1   4   1  390.76    8.00
  -1   4  -1  392.96    7.40
   1   4   1  382.26    9.30
   1   4   1  392.76    8.10
   1   4   1  398.96    9.50
  -1   4  -1  392.06    7.60
   1   4   1  398.46    8.00
   1   4   1  398.86    8.70
   1   4   1  379.16    8.20
   1   4   1  399.06    8.20
  -1   4  -1  394.46    7.60
   1   4   1  383.96    7.80
  -2  -4  -1    6.60    1.30
  -2  -4  -1    7.40    1.30
  -2  -4  -1    7.50    1.30
  -2  -4  -1    4.40    1.40
  -2  -4  -1    6.70    1.40
   2  -4   1    7.90    0.90
  -2  -4  -1    5.60    1.40
   2  -4   1    6.90    1.30
  -2  -4  -1    5.10    1.20
  -2   4  -1    6.60    1.10
   2   4   1    4.40    1.20
  -2   4  -1    6.50    1.00
   2   4   1    9.20    1.40
   2   4   1    5.90    1.30
   2   4   1    7.50    1.40
   2   4   1    5.70    1.50
   2   4   1    4.60    1.20
  -2   4  -1    4.20    0.90
   2   4   1    7.70    1.30
  -3  -4  -1    1.60    1.40
  -3  -4  -1    3.00    1.70
  -3   4  -1    0.80    1.00
   3   4   1    2.90    1.40
   3   4   1    2.00    1.20
   3   4   1   -0.20    1.30
  -4  -4  -1   50.79    3.90
  -4  -4  -1   45.90    3.60
   4   4   1   43.30    3.30
  -4   4  -1   36.90    2.60
  -4  -5   1    7.20    2.30
  -4  -5   1    5.50    2.50
  -4   5   1    4.70    1.70
   4   5  -1    5.20    2.00
  -3  -5   1  108.09    4.60
  -3  -5   1  119.99    4.70
   3   5  -1  112.49    4.40
   3   5  -1  109.19    4.00
   3   5  -1  108.89    4.40
  -3   5   1  102.99    3.90
  -2  -5   1  414.66    9.10
   2  -5  -1  410.56    7.90
  -2  -5   1  417.36    9.00
  -2  -5   1  395.46    8.90
  -2  -5   1  406.16    9.70
   2   5  -1  411.36    9.10
  -2   5   1  387.16    8.40
   2   5  -1  415.36    9.80
   2   5  -1  405.36    9.00
   2   5  -1  398.46    9.10
   1  -5  -1  879.21   16.20
   1  -5  -1  839.72   16.30
   1  -5  -1  859.31   18.00
   1  -5  -1  868.41   15.40
   1  -5  -1  876.71   14.80
  -1  -5   1  890.71   16.70
  -1  -5   1  882.71   15.90
  -1  -5   1  869.21   16.60
  -1  -5   1  872.71   16.00
  -1  -5   1  877.61   17.40
  -1  -5   1  888.91   15.90
  -1  -5   1  872.81   18.90
   1  -5  -1  888.71   14.90
  -1  -5   1  860.61   15.90
   1   5  -1  889.01   15.90
   1   5  -1  857.51   16.20
  -1   5   1  870.41   18.60
  -1   5   1  866.01   15.90
   1   5  -1  889.41   15.90
   1   5  -1  890.31   16.30
   1   5  -1  868.71   15.90
  -1   5   1  850.51   15.80
   1   5  -1  869.11   16.20
   1   5  -1  876.41   17.60
   0  -5  -1    1.50    0.90
   0  -5  -1    4.30    1.10
   0  -5  -1    3.10    0.90
   0  -5  -1    2.90    1.30
   0  -5  -1    4.80    1.20
   0  -5  -1    0.60    1.10
   0  -5  -1    1.70    1.00
   0  -5   1    1.70    1.10
   0  -5  -1    4.50    1.10
   0  -5   1    3.10    0.90
   0  -5   1    2.60    0.90
   0  -5  -1    1.40    1.00
   0  -5   1    4.00    0.90
   0  -5  -1    3.30    1.00
   0  -5   1    3.40    1.00
   0  -5   1    3.50    1.10
   0  -5  -1    3.30    0.90
   0  -5  -1    2.20    0.90
   0  -5   1    1.70    0.90
   0  -5   1    3.70    1.20
   0  -5   1    4.70    1.10
   0   5  -1    4.60    1.50
   0   5   1    3.10    1.00
   0   5  -1    2.30    1.00
   0   5  -1    4.00    1.00
   0   5   1    2.60    1.40
   0   5  -1    2.30    1.20
   0   5   1    3.00    1.00
   0   5   1    3.20    1.10
   0   5   1    2.80    1.00
   0   5  -1    2.70    1.10
   0   5  -1    3.20    1.10
   0   5  -1    2.90    0.90
   0   5  -1    2.50    1.00
   0   5   1    2.00    0.90
   0   5   1    2.00    1.10
   0   5   1    3.50    1.10
   0   5   1    3.50    1.20
  -1  -5  -1   40.20    2.90
   1  -5   1   37.70    1.80
  -1  -5  -1   39.00    2.40
   1  -5   1   39.40    2.00
  -1  -5  -1   35.00    2.30
   1  -5   1   39.40    1.90
   1  -5   1   39.80    1.90
  -1  -5  -1   38.20    2.40
   1  -5   1   39.50    2.30
  -1  -5  -1   37.20    2.40
  -1  -5  -1   39.00    2.40
  -1  -5  -1   38.70    2.50
  -1  -5  -1   39.50    2.60
  -1  -5  -1   38.40    2.50
   1   5   1   37.70    2.40
   1   5   1   38.70    2.40
  -1   5  -1   36.80    2.20
   1   5   1   40.70    2.40
   1   5   1   40.10    2.60
   1   5   1   39.60    2.30
  -1   5  -1   37.20    2.10
   1   5   1   42.00    2.70
   1   5   1   41.30    2.60
  -1   5  -1   41.00    2.50
  -2  -5  -1   37.40    3.00
  -2  -5  -1   32.80    2.50
   2  -5   1   31.50    2.40
  -2  -5  -1   40.20    2.90
   2   5   1   39.00    2.70
   2   5   1   33.30    2.70
   2   5   1   38.10    2.90
  -2   5  -1   35.20    2.20
   2   5   1   35.40    2.70
  -3  -5  -1   37.60    3.00
  -3  -5  -1   42.80    3.30
   3   5   1   38.10    2.40
   3   5   1   33.90    2.20
   3   5   1   36.60    2.90
  -3   5  -1   32.80    2.30
  -4  -5  -1   38.00    3.50
  -4  -5  -1   47.50    3.90
  -4   5  -1   36.20    2.80
   4   5   1   35.50    3.20
  -3  -6   1  102.79    4.90
  -3  -6   1  115.09    5.00
   3   6  -1  110.49    4.80
   3   6  -1  102.99    4.30
  -3   6   1  102.59    4.10
  -2  -6   1   54.49    3.40
  -2  -6   1   57.59    3.40
  -2  -6   1   59.09    3.30
  -2  -6   1   63.79    3.30
   2  -6  -1   58.89    2.50
  -2   6   1   59.89    3.10
   2   6  -1   59.89    3.60
   2   6  -1   57.69    3.40
   2   6  -1   61.19    3.50
  -1  -6   1  357.76    8.10
   1  -6  -1  345.87    8.60
   1  -6  -1  338.67    7.50
   1  -6  -1  355.66    6.90
  -1  -6   1  351.46    7.90
  -1  -6   1  351.06    8.50
  -1  -6   1  349.77    7.50
   1  -6  -1  357.46    6.80
   1   6  -1  361.06    8.40
  -1   6   1  346.27    8.10
   1   6  -1  356.26    8.30
   0  -6   1   14.60    1.70
   0  -6  -1   14.90    1.50
   0  -6  -1   18.40    1.50
   0  -6   1   16.80    2.00
   0  -6   1   14.90    1.50
   0  -6   1   14.40    1.50
   0  -6  -1   14.90    1.70
   0  -6  -1   15.50    2.10
   0  -6   1   12.60    1.80
   0  -6  -1   12.90    1.60
   0  -6  -1   16.80    1.70
   0  -6  -1   14.30    1.70
   0   6   1   13.70    1.70
   0   6  -1   16.30    1.90
   0   6   1   20.80    2.10
   0   6  -1   14.90    1.80
   1  -6   1  834.02   17.70
   1  -6   1  864.81   17.80
   1  -6   1  863.11   17.10
  -1  -6  -1  895.71   17.10
  -1  -6  -1  897.41   16.50
  -1  -6  -1  865.81   16.20
  -1  -6  -1  888.01   16.40
  -1  -6  -1  863.31   16.30
  -1  -6  -1  870.71   17.80
   1  -6   1  868.51   15.40
   1   6   1  877.61   16.70
  -1   6  -1  861.31   16.20
   1   6   1  864.01   16.70
   1   6   1  881.01   16.50
  -2  -6  -1   33.40    2.70
  -2  -6  -1   36.60    2.90
   2   6   1   37.90    3.00
   2   6   1   32.40    2.70
   2   6   1   39.40    3.00
  -2   6  -1   33.50    2.50
   2   6   1   35.10    2.70
  -3  -6  -1   37.00    3.20
  -3  -6  -1   33.20    3.10
  -3   6  -1   32.30    2.60
   3   6   1   34.60    3.10
   3   6   1   34.10    2.80
  -3  -7   1    5.40    2.40
   2  -7  -1   93.89    3.30
  -2  -7   1   92.89    4.30
  -2  -7   1   88.89    4.10
  -2  -7   1   91.49    4.40
  -2   7   1   91.09    4.10
   2   7  -1   83.09    4.40
  -1  -7   1  359.86    8.80
  -1  -7   1  350.36    8.50
   1  -7  -1  350.56    7.90
   1   7  -1  355.86    8.80
  -1   7   1  360.36    8.70
   0  -7   1  353.76    8.10
   0  -7  -1  347.17    8.20
   0  -7  -1  367.96    9.90
   0  -7   1  357.56    8.00
   0  -7  -1  362.26    8.40
   0  -7   1  361.86    9.40
   0  -7   1  351.86    8.80
   0   7   1  353.46    8.70
   0   7  -1  359.16    8.70
  -1  -7  -1   31.70    2.70
  -1  -7  -1   28.20    2.60
  -1  -7  -1   27.30    2.20
   1  -7   1   32.80    2.30
  -1   7  -1   32.90    2.70
   1   7   1   29.00    2.70
   2  -7   1   49.10    2.20
  -2  -7  -1   51.89    3.50
  -2   7  -1   50.59    3.20
  -2   8   1   32.20    3.10
  -1  -8   1   71.69    3.90
   1  -8  -1   74.79    3.50
  -1   8   1   74.29    4.20
   1   8  -1   78.49    4.40
   0  -8  -1   11.70    2.00
   0  -8   1   12.40    2.00
   0   8   1   12.40    2.30
   0   8  -1   10.00    2.20
  -1  -8  -1    5.50    1.80
   1  -8   1    4.30    1.50
  -1  -8  -1    5.90    1.90
   1   8   1    4.70    1.90
  -1   8  -1    5.80    2.00
  -4   0   2   84.89    3.60
  -4   0   2   82.29    3.80
   4   0  -2   85.99    3.20
  -3   0   2   39.80    2.20
   3   0  -2   39.20    2.10
  -3   0   2   40.00    2.30
  -3   0   2   36.00    2.00
   3   0  -2   42.20    2.20
   2   0  -2  153.98    3.70
  -2   0   2  158.48    3.70
  -2   0   2  159.68    4.00
  -2   0   2  158.38    3.70
   2   0  -2  158.18    3.70
   2   0  -2  160.48    3.70
   2   0  -2  153.48    3.60
   2   0  -2  154.08    3.40
   2   0  -2  160.88    3.60
  -2   0   2  154.28    3.70
   2   0  -2  159.98    4.20
   2   0  -2  153.38    4.20
  -2   0   2  157.18    3.70
  -2   0   2  158.08    4.40
  -2   0   2  158.98    3.80
  -2   0   2  152.08    3.60
  -2   0   2  151.88    3.70
   2   0  -2  159.98    3.60
   1   0  -2    5.20    0.80
  -1   0   2    2.70    0.60
   1   0  -2    2.20    0.50
   1   0  -2    3.60    0.60
  -1   0   2    4.90    0.60
   1   0  -2    3.20    0.70
   1   0  -2    2.60    0.60
   1   0  -2    2.80    0.60
  -1   0   2    3.60    0.60
  -1   0   2    3.60    0.70
   1   0  -2    3.90    0.60
  -1   0   2    3.20    0.60
  -1   0   2    2.30    0.50
   1   0  -2    2.90    0.60
  -1   0   2    3.40    0.60
   1   0  -2    4.10    0.60
  -1   0   2    3.50    0.60
  -1   0   2    7.20    0.80
  -1   0   2    5.00    0.70
   1   0  -2    2.70    0.60
  -1   0  -2   34.40    1.00
  -1   0  -2   35.70    0.80
  -1   0  -2   32.90    0.90
  -1   0  -2   37.00    1.00
  -1   0  -2   34.70    1.00
   2   0   2  192.68    3.70
  -2   0  -2  189.68    3.80
  -2   0  -2  190.28    3.90
  -2   0  -2  192.38    3.70
  -2   0  -2  193.48    3.80
   2   0   2  191.78    3.70
  -2   0  -2  187.88    3.80
  -2   0  -2  191.28    3.90
  -2   0  -2  186.78    4.50
  -2   0  -2  193.28    3.90
  -2   0  -2  194.78    4.50
  -3   0  -2  267.57    5.70
   3   0   2  267.87    5.40
  -3   0  -2  272.07    5.80
  -3   0  -2  290.37    6.00
  -4   0  -2    9.00    1.50
  -4  -1   2   19.40    2.20
  -4  -1   2   21.60    2.40
   4  -1  -2   23.40    1.80
  -4   1   2   24.70    2.20
   4   1  -2   22.00    2.00
  -4   1   2   26.10    2.40
   4   1  -2   24.20    2.20
   3  -1  -2   10.90    1.20
  -3  -1   2   12.80    1.60
  -3  -1   2    6.60    1.40
  -3  -1   2    9.00    1.40
  -3  -1   2    8.30    1.30
   3  -1  -2    9.00    1.20
   3  -1  -2    8.00    1.10
  -3   1   2   10.90    1.40
   3   1  -2    9.50    1.50
   3   1  -2   10.40    1.20
   3   1  -2   10.40    1.10
   3   1  -2    7.40    1.00
   3   1  -2   11.90    1.60
   3   1  -2    6.20    1.30
  -3   1   2   10.00    1.20
  -3   1   2    8.50    1.30
  -2  -1   2  705.93   12.20
  -2  -1   2  683.13   13.40
   2  -1  -2  709.23   11.50
   2  -1  -2  680.03   13.90
  -2  -1   2  698.83   14.50
  -2  -1   2  666.43   12.40
  -2  -1   2  666.33   14.50
  -2  -1   2  682.33   12.40
   2  -1  -2  685.53   12.50
  -2  -1   2  683.93   12.40
   2  -1  -2  675.43   12.00
  -2  -1   2  695.93   12.30
   2  -1  -2  696.13   13.90
   2  -1  -2  665.73   11.40
  -2  -1   2  688.83   12.20
   2  -1  -2  672.03   11.70
   2  -1  -2  681.93   11.80
  -2  -1   2  681.03   12.90
   2   1  -2  690.03   13.20
   2   1  -2  682.63   11.90
  -2   1   2  690.13   12.10
   2   1  -2  698.83   12.50
  -2   1   2  687.13   11.90
   2   1  -2  676.23   12.50
  -2   1   2  673.83   14.20
   2   1  -2  675.13   12.30
   2   1  -2  691.63   13.20
  -2   1   2  687.43   12.10
  -2   1   2  674.03   12.10
   2   1  -2  684.73   14.30
   2   1  -2  685.03   14.30
  -2   1   2  678.73   12.20
  -2   1   2  691.23   13.20
  -2   1   2  692.73   12.00
   2   1  -2  693.53   12.20
   2   1  -2  692.73   12.10
   1  -1  -2 8941.91  140.49
   1  -1  -2 8975.10  167.38
  -1  -1   2 8846.12  152.88
   1  -1  -2 8651.73  152.18
   1  -1  -2 8686.73  142.99
  -1  -1   2 8755.12  145.99
  -1  -1   2 8882.81  143.79
   1  -1  -2 8571.54  152.08
   1  -1  -2 8849.01  157.78
   1  -1  -2 8980.30  143.49
   1  -1  -2 8660.03  140.99
   1  -1  -2 9172.28  140.69
  -1  -1   2 8815.22  143.79
  -1  -1   2 8960.80  169.28
   1  -1  -2 8610.14  156.68
  -1  -1   2 8752.82  154.18
  -1  -1   2 8706.03  156.68
  -1  -1   2 8850.51  158.48
  -1  -1   2 8829.12  141.09
   1  -1  -2 8770.02  141.29
  -1  -1   2 8692.33  143.19
  -1  -1   2 8765.92  141.69
   1  -1  -2 8753.42  142.49
  -1   1   2 8880.71  143.19
  -1   1   2 8968.50  143.79
   1   1  -2 9094.69  157.88
   1   1  -2 8537.85  140.89
  -1   1   2 8825.12  167.98
  -1   1   2 8751.22  151.28
   1   1  -2 8568.44  152.98
   1   1  -2 8989.60  141.09
  -1   1   2 8735.33  156.78
  -1   1   2 8874.51  168.08
  -1   1   2 8741.73  156.88
  -1   1   2 8802.52  143.59
  -1   1   2 8609.64  152.88
   1   1  -2 8982.60  169.28
   1   1  -2 8694.83  166.88
   1   1  -2 8773.22  142.89
  -1   1   2 8906.81  140.89
   1   1  -2 8773.22  156.58
  -1   1   2 8944.60  152.78
   1   1  -2 8776.72  139.99
   1   1  -2 8709.93  142.69
  -1   1   2 8579.14  141.59
   0  -1   2 4719.43   77.19
   0  -1  -2 4746.62   78.99
   0  -1  -2 4744.43   84.79
   0  -1  -2 4888.21   92.89
   0  -1   2 4769.52   78.19
   0  -1  -2 4871.81   84.69
   0  -1  -2 4901.11   77.59
   0  -1   2 4923.51   84.79
   0  -1  -2 4766.42   77.29
   0  -1  -2 4869.31   78.99
   0  -1  -2 4917.91   83.59
   0  -1   2 4818.92   77.29
   0  -1   2 4743.33   85.39
   0  -1  -2 4688.53   86.79
   0  -1   2 4882.71   85.49
   0  -1   2 4754.92   91.79
   0  -1  -2 4773.02   78.89
   0  -1  -2 4894.31   78.09
   0  -1   2 4777.72   76.89
   0  -1  -2 4757.02   78.39
   0  -1   2 4884.11   85.49
   0   1   2 4907.81   86.89
   0   1  -2 4843.42   77.49
   0   1  -2 4929.61   85.99
   0   1   2 4969.30   78.89
   0   1   2 4921.31   86.79
   0   1  -2 4943.11   91.99
   0   1   2 4798.62   84.89
   0   1  -2 4948.60   77.49
   0   1  -2 4796.32   85.79
   0   1  -2 4817.82   78.09
   0   1  -2 4618.14   78.19
   0   1   2 4910.11   79.19
   0   1  -2 4793.02   78.39
   0   1   2 4869.61   77.79
   0   1   2 4943.91   79.29
   0   1   2 4883.81   93.09
   0   1   2 5035.10   77.79
   0   1  -2 4691.73   78.29
   0   1  -2 4828.62   76.69
   0   1  -2 4911.11   76.99
   0   1   2 4801.22   78.59
   0   1   2 4809.32   93.19
  -1  -1  -2   94.79    2.30
  -1  -1  -2   99.49    2.40
   1  -1   2   97.39    2.30
  -1  -1  -2   98.79    2.20
   1  -1   2   98.79    2.70
  -1  -1  -2   98.49    2.40
  -1  -1  -2   99.99    2.30
  -1  -1  -2   97.99    2.40
  -1  -1  -2   96.19    2.20
  -1  -1  -2  101.29    2.30
  -1  -1  -2   97.59    2.70
   1   1   2   98.59    2.00
   1   1   2  101.39    2.20
   1   1   2   97.09    2.30
   1   1   2   97.79    2.60
   1   1   2   98.49    2.60
   1   1   2   95.29    2.20
   1   1   2  100.99    2.20
  -2  -1  -2   88.49    2.50
  -2  -1  -2   86.59    2.40
  -2  -1  -2   84.69    2.40
  -2  -1  -2   80.09    2.80
  -2  -1  -2   82.59    2.50
  -2  -1  -2   92.79    3.00
  -2  -1  -2   85.99    2.40
   2   1   2   83.89    2.20
   2   1   2   81.29    2.30
   2   1   2   85.39    2.30
  -2   1  -2   83.19    1.90
   2   1   2   84.79    2.40
   2   1   2   84.89    2.40
  -2   1  -2   85.09    2.00
  -2   1  -2   84.49    2.00
  -2   1  -2   85.79    1.90
   2   1   2   85.89    2.40
  -3  -1  -2  403.46    9.40
  -3  -1  -2  386.66    7.90
  -3  -1  -2  390.66    8.00
  -3  -1  -2  397.76    7.80
  -3   1  -2  387.66    7.40
  -3   1  -2  392.86    7.40
   3   1   2  399.86    7.40
   3   1   2  384.66    7.30
  -3   1  -2  384.96    7.20
  -4  -1  -2    1.10    1.30
  -4  -1  -2    4.90    1.50
   4   1   2    2.00    1.00
  -4   1  -2    1.40    1.10
  -4  -2   2   51.39    3.40
   4  -2  -2   49.60    2.20
  -4  -2   2   48.70    3.60
   4   2  -2   53.49    3.10
  -4   2   2   43.80    2.80
  -3  -2   2  211.78    5.50
  -3  -2   2  215.68    5.60
   3  -2  -2  213.28    4.60
  -3  -2   2  216.58    5.60
   3   2  -2  208.38    6.10
  -3   2   2  210.88    5.10
   3   2  -2  211.78    5.30
   3   2  -2  215.28    5.50
  -3   2   2  211.28    5.10
  -2  -2   2 1143.59   19.40
  -2  -2   2 1088.69   20.50
  -2  -2   2 1145.39   19.20
  -2  -2   2 1105.59   19.70
  -2  -2   2 1073.99   22.80
  -2  -2   2 1138.29   19.20
   2  -2  -2 1108.19   21.80
   2  -2  -2 1106.99   18.50
   2  -2  -2 1106.69   21.80
  -2  -2   2 1123.99   21.30
  -2  -2   2 1117.89   19.50
  -2  -2   2 1139.99   21.30
  -2  -2   2 1082.79   22.70
   2  -2  -2 1103.69   18.90
  -2  -2   2 1089.69   19.40
   2  -2  -2 1146.69   19.30
   2  -2  -2 1100.89   18.50
   2   2  -2 1119.79   19.50
  -2   2   2 1106.59   20.80
  -2   2   2 1106.39   19.10
   2   2  -2 1124.99   22.70
  -2   2   2 1120.99   18.80
   2   2  -2 1101.69   19.10
  -2   2   2 1120.89   19.00
  -2   2   2 1114.69   19.00
   2   2  -2 1121.89   21.10
   2   2  -2 1136.49   20.30
  -2   2   2 1125.29   22.30
  -2   2   2 1115.79   22.30
  -2   2   2 1110.29   18.70
   2   2  -2 1145.89   22.80
   2   2  -2 1118.49   20.30
   2   2  -2 1128.29   19.10
   2   2  -2 1127.29   19.30
   2   2  -2 1121.99   19.10
   1  -2  -2  347.17    6.90
  -1  -2   2  342.27    6.70
  -1  -2   2  349.87    6.80
  -1  -2   2  360.66    7.40
   1  -2  -2  352.56    7.60
   1  -2  -2  349.37    6.60
   1  -2  -2  357.06    6.40
  -1  -2   2  359.06    6.60
   1  -2  -2  353.46    6.60
  -1  -2   2  361.46    7.40
  -1  -2   2  361.76    6.70
   1  -2  -2  355.96    6.30
   1  -2  -2  349.57    6.30
  -1  -2   2  344.87    7.90
  -1  -2   2  354.46    6.70
   1  -2  -2  359.86    7.60
  -1  -2   2  349.37    7.00
  -1  -2   2  347.37    6.70
  -1  -2   2  350.06    7.20
  -1  -2   2  355.66    6.80
   1  -2  -2  355.96    7.00
   1  -2  -2  343.57    6.40
   1   2  -2  354.96    8.00
  -1   2   2  354.06    7.10
   1   2  -2  343.77    6.60
   1   2  -2  361.06    7.40
  -1   2   2  349.77    6.50
   1   2  -2  350.16    7.30
   1   2  -2  355.46    6.90
  -1   2   2  357.16    7.80
  -1   2   2  351.46    6.60
   1   2  -2  348.37    7.00
   1   2  -2  350.46    7.10
  -1   2   2  348.27    6.80
  -1   2   2  357.46    6.60
  -1   2   2  346.27    7.70
   1   2  -2  351.16    6.80
  -1   2   2  349.96    6.40
  -1   2   2  347.17    7.10
  -1   2   2  349.67    6.50
   1   2  -2  363.16    8.00
  -1   2   2  351.06    6.60
   0  -2  -2  211.88    4.20
   0  -2   2  215.68    3.90
   0  -2   2  218.08    4.70
   0  -2   2  210.48    4.70
   0  -2  -2  206.88    4.60
   0  -2  -2  216.88    4.30
   0  -2   2  214.78    3.90
   0  -2  -2  213.98    5.10
   0  -2  -2  212.68    5.00
   0  -2  -2  215.28    4.20
   0  -2   2  210.18    4.00
   0  -2   2  207.18    4.10
   0  -2  -2  210.68    4.30
   0  -2   2  217.88    4.30
   0  -2  -2  212.58    4.30
   0  -2  -2  213.98    4.20
   0  -2   2  215.98    4.80
   0  -2  -2  210.38    4.20
   0  -2   2  214.58    4.20
   0   2  -2  209.08    4.80
   0   2   2  213.08    4.70
   0   2   2  212.78    4.60
   0   2  -2  213.88    4.40
   0   2   2  209.08    4.40
   0   2   2  216.68    4.20
   0   2  -2  214.98    4.00
   0   2   2  214.38    4.30
   0   2   2  214.38    4.50
   0   2  -2  207.78    4.10
   0   2   2  209.58    4.30
   0   2  -2  212.88    4.20
   0   2   2  218.98    4.30
   0   2  -2  208.58    4.00
   0   2  -2  216.78    4.10
   0   2  -2  211.88    4.80
   0   2   2  212.78    4.20
   0   2   2  213.98    4.20
   0   2   2  214.88    5.00
   0   2  -2  215.78    4.20
   0   2  -2  209.78    4.10
   1  -2   2  602.34   11.40
  -1  -2  -2  590.14   10.60
  -1  -2  -2  603.94   12.50
  -1  -2  -2  599.54   10.70
  -1  -2  -2  589.44   10.40
  -1  -2  -2  595.54   11.10
  -1  -2  -2  597.84   11.50
  -1  -2  -2  588.74   10.60
  -1  -2  -2  583.44   11.50
  -1  -2  -2  599.34   12.50
  -1  -2  -2  592.64   10.40
  -1  -2  -2  605.74   10.40
   1  -2   2  595.64   10.80
   1   2   2  601.04   10.60
   1   2   2  572.34   10.20
   1   2   2  605.84   11.40
   1   2   2  593.84   10.60
   1   2   2  609.44   11.00
  -1   2  -2  599.44    9.90
   1   2   2  604.44   11.00
   1   2   2  591.84   10.50
   1   2   2  596.24   10.40
   1   2   2  603.24   12.30
   1   2   2  605.64   12.40
   1   2   2  600.14   10.40
  -1   2  -2  567.84    9.90
  -2  -2  -2  844.62   14.60
  -2  -2  -2  799.52   15.30
  -2  -2  -2  824.42   14.40
  -2  -2  -2  785.92   17.10
  -2  -2  -2  833.62   14.70
  -2  -2  -2  848.12   17.30
  -2  -2  -2  829.12   14.40
  -2  -2  -2  806.92   15.90
  -2  -2  -2  825.82   14.40
   2  -2   2  812.72   16.00
   2   2   2  829.32   14.30
   2   2   2  833.62   13.90
   2   2   2  827.72   15.40
  -2   2  -2  808.42   13.60
  -2   2  -2  824.52   13.60
   2   2   2  841.02   14.30
   2   2   2  840.62   15.40
   2   2   2  833.02   16.80
   2   2   2  844.02   16.90
   2   2   2  836.82   14.60
  -3  -2  -2   42.80    2.50
  -3  -2  -2   45.50    2.50
   3   2   2   40.50    2.20
  -3   2  -2   44.10    1.80
  -3   2  -2   39.20    1.70
   3   2   2   37.70    2.20
   3   2   2   40.80    2.20
  -4  -2  -2    7.50    1.80
  -4  -2  -2    6.60    1.70
  -4   2  -2    8.10    1.40
   4   2   2    7.10    1.30
  -4  -3   2   53.99    3.90
  -4  -3   2   55.49    3.60
   4   3  -2   51.79    3.40
  -4   3   2   51.09    3.10
  -3  -3   2   49.90    2.90
  -3  -3   2   36.40    2.70
   3  -3  -2   43.10    1.90
  -3  -3   2   43.40    3.00
   3   3  -2   40.60    2.10
   3   3  -2   40.00    2.50
   3   3  -2   38.90    3.00
   3   3  -2   39.00    2.30
  -3   3   2   39.70    2.30
   3   3  -2   43.90    2.70
  -2  -3   2  225.08    5.50
  -2  -3   2  234.88    5.90
   2  -3  -2  227.28    4.90
  -2  -3   2  225.78    5.50
  -2  -3   2  220.58    5.30
  -2  -3   2  215.18    5.20
  -2  -3   2  224.48    5.40
  -2  -3   2  224.58    5.50
  -2  -3   2  230.18    5.80
   2  -3  -2  225.58    4.70
  -2  -3   2  224.58    5.50
  -2  -3   2  234.28    5.40
   2  -3  -2  219.58    4.70
   2  -3  -2  220.08    5.30
  -2  -3   2  232.28    5.50
  -2  -3   2  222.28    6.40
   2   3  -2  224.78    5.40
  -2   3   2  233.78    5.90
  -2   3   2  226.58    4.90
   2   3  -2  226.18    5.40
   2   3  -2  227.68    6.40
  -2   3   2  221.58    5.40
   2   3  -2  227.68    5.50
   2   3  -2  222.18    6.40
   2   3  -2  227.98    5.40
   2   3  -2  223.48    5.70
  -2   3   2  216.18    5.00
  -2   3   2  227.58    5.00
   2   3  -2  226.68    5.40
   2   3  -2  217.88    5.40
   2   3  -2  227.68    5.80
  -2   3   2  219.48    5.00
  -2   3   2  221.88    5.00
  -2   3   2  218.38    5.90
  -1  -3   2   38.90    1.80
  -1  -3   2   41.10    2.00
   1  -3  -2   39.10    1.80
   1  -3  -2   40.50    1.60
   1  -3  -2   39.90    1.40
   1  -3  -2   38.50    1.70
  -1  -3   2   43.60    2.00
  -1  -3   2   42.00    2.40
   1  -3  -2   40.10    1.60
   1  -3  -2   43.00    2.00
  -1  -3   2   42.40    2.00
   1  -3  -2   39.20    1.70
  -1  -3   2   50.09    2.40
   1  -3  -2   43.20    2.10
   1  -3  -2   38.40    1.80
  -1  -3   2   41.40    2.00
  -1  -3   2   41.60    1.90
  -1  -3   2   40.20    1.80
   1  -3  -2   40.00    1.60
  -1  -3   2   39.00    1.90
   1  -3  -2   39.60    1.60
  -1  -3   2   40.40    1.90
  -1   3   2   39.70    2.10
  -1   3   2   38.20    1.70
   1   3  -2   40.50    1.90
   1   3  -2   38.30    2.00
  -1   3   2   38.80    2.10
   1   3  -2   41.00    2.30
   1   3  -2   42.40    2.10
  -1   3   2   39.50    1.70
   1   3  -2   36.80    1.90
   1   3  -2   42.40    2.00
   1   3  -2   40.50    2.10
   1   3  -2   39.20    2.00
  -1   3   2   38.70    1.80
   1   3  -2   36.80    2.00
  -1   3   2   38.80    1.70
   1   3  -2   40.10    2.00
  -1   3   2   42.90    1.90
  -1   3   2   43.10    1.70
  -1   3   2   39.30    1.90
  -1   3   2   42.80    1.80
   0  -3   2  446.06    9.00
   0  -3   2  438.66    8.00
   0  -3   2  443.96    8.50
   0  -3  -2  440.06    9.80
   0  -3   2  443.26    7.90
   0  -3  -2  441.36    8.20
   0  -3  -2  449.26    8.20
   0  -3  -2  440.66    8.20
   0  -3  -2  431.76    8.60
   0  -3  -2  443.16    9.00
   0  -3   2  439.26    8.10
   0  -3   2  446.76    7.80
   0  -3  -2  440.76    8.40
   0  -3  -2  446.16    9.70
   0  -3  -2  444.76    8.30
   0  -3  -2  439.26    9.00
   0  -3   2  440.86    8.50
   0  -3  -2  441.16    8.20
   0  -3   2  439.26    9.40
   0  -3   2  436.96    7.80
   0  -3  -2  440.76    8.30
   0  -3   2  433.46    9.40
   0   3  -2  449.86    9.60
   0   3  -2  445.36    8.20
   0   3   2  439.96    9.80
   0   3  -2  433.56    8.10
   0   3   2  433.16    9.00
   0   3   2  434.16    8.10
   0   3   2  438.26    8.20
   0   3   2  437.86    8.70
   0   3   2  445.76    8.70
   0   3   2  441.26    8.40
   0   3  -2  444.26    8.80
   0   3   2  441.96    8.20
   0   3  -2  443.06    8.50
   0   3  -2  454.15    9.60
   0   3   2  444.56    8.40
   0   3   2  445.86    9.00
   0   3  -2  443.96    8.00
   0   3  -2  436.46    8.00
   0   3  -2  442.96    8.00
   0   3   2  454.35    8.40
   0   3  -2  440.26    8.20
   0   3  -2  455.05    8.80
  -1  -3  -2   56.09    2.30
  -1  -3  -2   56.19    2.30
  -1  -3  -2   61.39    2.30
  -1  -3  -2   57.59    2.70
  -1  -3  -2   60.79    2.30
  -1  -3  -2   55.19    2.20
  -1  -3  -2   59.99    2.30
  -1  -3  -2   59.99    2.30
   1  -3   2   57.69    2.30
   1  -3   2   56.89    1.60
  -1  -3  -2   60.09    2.40
   1  -3   2   56.89    1.80
   1  -3   2   58.19    1.50
  -1  -3  -2   57.69    2.20
  -1  -3  -2   59.19    2.30
  -1  -3  -2   58.69    2.30
   1   3   2   59.39    2.20
  -1   3  -2   56.09    1.60
  -1   3  -2   58.49    1.60
   1   3   2   59.99    2.30
   1   3   2   56.69    2.20
  -1   3  -2   56.49    1.70
   1   3   2   57.09    2.30
   1   3   2   56.39    2.70
  -1   3  -2   54.49    1.80
  -1   3  -2   59.39    1.70
  -1   3  -2   56.89    2.00
   1   3   2   56.69    2.30
  -1   3  -2   60.89    1.80
   1   3   2   56.79    2.20
   1   3   2   60.49    2.10
  -1   3  -2   58.19    1.80
   1   3   2   60.29    2.20
  -1   3  -2   57.09    1.70
   1   3   2   59.29    2.30
  -1   3  -2   61.19    2.10
   1   3   2   60.79    2.60
  -2  -3  -2   20.00    1.60
  -2  -3  -2   19.60    1.70
  -2  -3  -2   18.00    1.60
  -2  -3  -2   20.30    1.70
  -2  -3  -2   20.70    1.60
  -2  -3  -2   20.20    1.70
   2  -3   2   22.70    1.90
  -2  -3  -2   23.10    2.20
  -2  -3  -2   19.90    1.60
  -2  -3  -2   15.10    1.60
   2   3   2   19.10    1.60
   2   3   2   22.90    2.00
   2   3   2   21.30    1.50
   2   3   2   19.80    1.30
  -2   3  -2   19.40    1.10
   2   3   2   21.40    1.50
   2   3   2   18.00    1.80
  -2   3  -2   22.00    1.20
   2   3   2   21.10    1.70
  -2   3  -2   18.20    1.10
   2   3   2   22.40    1.50
   2   3   2   19.50    1.60
   2   3   2   21.70    1.70
  -2   3  -2   19.90    1.20
  -3  -3  -2  311.57    7.20
  -3  -3  -2  301.77    7.10
   3   3   2  292.67    6.30
   3   3   2  290.77    7.60
   3   3   2  294.17    6.30
   3   3   2  294.27    5.90
   3   3   2  306.27    6.80
   3   3   2  298.67    7.80
  -4  -3  -2  180.78    5.90
  -4  -3  -2  179.78    5.90
  -4   3  -2  182.18    4.70
   4   3   2  177.28    5.10
  -4  -4   2   94.19    4.90
  -4  -4   2   96.99    4.70
  -4   4   2   89.59    3.90
   4   4  -2   88.79    4.30
  -3  -4   2  376.06    8.80
  -3  -4   2  396.06    8.90
   3  -4  -2  368.76    7.30
  -3  -4   2  389.26    9.00
   3   4  -2  376.36    8.30
   3   4  -2  373.66    9.10
  -3   4   2  377.86    8.10
   3   4  -2  372.86    8.70
  -2  -4   2  463.15    9.50
  -2  -4   2  451.15    9.70
  -2  -4   2  452.35    9.30
  -2  -4   2  455.55    9.30
   2  -4  -2  443.46    9.60
  -2  -4   2  452.35    9.50
   2  -4  -2  450.05    8.50
  -2  -4   2  455.55    9.40
  -2  -4   2  459.05   10.20
  -2  -4   2  459.25    9.60
   2   4  -2  457.85    9.50
   2   4  -2  436.66    9.40
   2   4  -2  449.36    9.40
   2   4  -2  452.95   10.10
   2   4  -2  465.75    9.60
  -2   4   2  438.66    8.90
  -2   4   2  440.16   10.50
   2   4  -2  449.06    9.60
   2   4  -2  434.06   11.00
  -2   4   2  432.66    8.90
   1  -4  -2   38.60    2.00
   1  -4  -2   41.90    1.80
  -1  -4   2   43.40    2.20
  -1  -4   2   41.90    2.20
   1  -4  -2   42.80    1.80
   1  -4  -2   40.50    1.90
  -1  -4   2   41.60    2.50
  -1  -4   2   44.10    2.10
   1  -4  -2   43.90    1.80
  -1  -4   2   40.50    2.50
   1  -4  -2   39.20    2.20
   1  -4  -2   38.90    2.20
  -1  -4   2   41.90    2.10
  -1  -4   2   38.50    2.10
  -1  -4   2   41.10    2.20
   1  -4  -2   43.70    1.90
  -1  -4   2   39.70    1.90
  -1  -4   2   41.70    2.20
  -1  -4   2   40.10    2.10
   1  -4  -2   41.80    1.70
   1  -4  -2   40.10    1.50
  -1   4   2   44.50    2.10
   1   4  -2   41.50    2.60
  -1   4   2   41.60    2.10
   1   4  -2   42.90    2.30
  -1   4   2   39.20    2.30
  -1   4   2   41.80    1.90
   1   4  -2   40.00    2.10
   1   4  -2   42.90    2.30
  -1   4   2   43.20    2.30
   1   4  -2   39.70    2.10
   1   4  -2   38.40    2.20
  -1   4   2   39.50    1.90
   1   4  -2   42.60    2.10
  -1   4   2   39.70    1.90
  -1   4   2   42.80    2.10
   1   4  -2   45.20    2.30
  -1   4   2   39.60    2.10
   1   4  -2   38.40    2.20
  -1   4   2   41.00    1.90
   1   4  -2   41.40    2.20
   0  -4   2  181.58    4.90
   0  -4  -2  190.58    5.30
   0  -4   2  187.48    4.30
   0  -4  -2  189.78    4.40
   0  -4  -2  188.18    4.50
   0  -4  -2  186.68    4.40
   0  -4   2  182.68    4.20
   0  -4  -2  181.58    4.50
   0  -4  -2  183.38    4.20
   0  -4   2  180.48    4.30
   0  -4  -2  184.08    4.70
   0  -4   2  192.08    4.10
   0  -4   2  187.18    4.90
   0  -4   2  188.88    4.00
   0  -4   2  183.78    4.90
   0  -4  -2  181.68    4.40
   0  -4  -2  186.08    4.60
   0  -4  -2  185.28    4.70
   0  -4  -2  182.68    5.20
   0  -4   2  184.48    4.20
   0  -4   2  185.48    4.00
   0   4   2  179.38    4.80
   0   4   2  179.28    4.30
   0   4   2  184.58    4.60
   0   4  -2  183.98    4.20
   0   4   2  181.28    4.50
   0   4   2  183.98    4.60
   0   4  -2  185.38    4.40
   0   4  -2  184.88    5.10
   0   4  -2  190.38    4.30
   0   4  -2  173.08    4.60
   0   4   2  181.98    4.50
   0   4   2  191.18    4.60
   0   4   2  184.68    5.30
   0   4   2  183.48    4.80
   0   4  -2  184.18    4.40
   0   4  -2  179.38    5.10
   0   4  -2  180.38    4.40
   0   4  -2  184.88    4.40
   0   4  -2  182.78    4.30
   0   4   2  188.08    4.50
   0   4   2  182.58    4.40
   1  -4   2  975.40   15.70
  -1  -4  -2  969.30   17.20
  -1  -4  -2  940.71   17.10
   1  -4   2  944.21   18.00
  -1  -4  -2  956.30   18.50
  -1  -4  -2  947.51   20.00
  -1  -4  -2  964.80   20.10
  -1  -4  -2  967.60   17.00
  -1  -4  -2  945.01   16.70
   1  -4   2  927.81   15.70
  -1  -4  -2  947.61   16.80
  -1  -4  -2  938.81   17.90
  -1  -4  -2  958.00   16.80
  -1  -4  -2  944.21   18.50
   1  -4   2  953.40   17.20
  -1  -4  -2  939.81   17.10
  -1  -4  -2  956.90   17.90
   1   4   2  954.60   20.00
  -1   4  -2  942.31   16.10
   1   4   2  950.10   17.00
   1   4   2  978.00   18.60
   1   4   2  944.11   16.80
  -1   4  -2  939.31   16.40
  -1   4  -2  924.91   16.40
   1   4   2  943.71   19.90
  -1   4  -2  945.41   16.40
   1   4   2  964.50   18.50
   1   4   2  949.40   16.70
  -1   4  -2  939.11   16.10
  -1   4  -2  954.10   17.80
   1   4   2  946.41   16.70
   1   4   2  941.51   17.00
  -1   4  -2  959.00   19.20
   1   4   2  968.90   17.80
   1   4   2  973.40   17.20
   2  -4   2  152.98    4.70
  -2  -4  -2  164.38    4.70
  -2  -4  -2  159.98    4.40
  -2  -4  -2  163.08    4.60
  -2  -4  -2  153.48    4.50
  -2  -4  -2  164.28    4.90
   2   4   2  152.28    4.50
   2   4   2  160.48    4.20
   2   4   2  161.38    4.60
  -2   4  -2  148.29    3.70
  -2   4  -2  150.78    3.50
  -2   4  -2  156.48    3.80
   2   4   2  156.08    4.30
   2   4   2  167.48    4.50
  -3  -4  -2   20.70    2.20
  -3  -4  -2   22.40    2.30
   3   4   2   22.90    2.00
  -3   4  -2   23.90    1.80
   3   4   2   22.10    2.20
   3   4   2   21.50    2.40
  -4  -4  -2   10.80    2.30
  -4  -4  -2   10.90    2.60
   4   4   2   11.40    2.10
  -4   4  -2    8.50    1.50
  -4  -5   2    2.30    2.30
  -4  -5   2    5.90    2.20
  -4   5   2   -1.30    1.50
   4   5  -2    0.70    1.70
   3  -5  -2   32.20    1.80
  -3  -5   2   36.20    2.90
  -3  -5   2   38.80    3.10
   3   5  -2   33.80    2.80
   3   5  -2   34.40    2.90
   3   5  -2   33.10    2.90
  -2  -5   2  614.14   13.40
  -2  -5   2  619.24   12.30
  -2  -5   2  610.84   12.30
   2  -5  -2  588.94   12.80
   2  -5  -2  613.94   11.30
  -2  -5   2  616.84   12.30
  -2  -5   2  611.84   12.30
  -2  -5   2  605.74   12.70
   2   5  -2  610.54   12.80
   2   5  -2  639.94   12.70
  -2   5   2  599.84   12.00
   2   5  -2  632.94   12.60
   2   5  -2  620.94   12.40
   2   5  -2  601.54   13.40
   1  -5  -2  565.74   10.10
  -1  -5   2  570.64   11.80
  -1  -5   2  552.24   10.70
  -1  -5   2  558.94   12.90
  -1  -5   2  550.64   10.90
   1  -5  -2  564.84   10.20
  -1  -5   2  555.84   11.10
  -1  -5   2  551.84   10.60
   1  -5  -2  550.64   12.40
   1  -5  -2  536.65   10.60
   1  -5  -2  546.75   11.00
  -1  -5   2  555.54   10.90
  -1  -5   2  564.94   11.20
   1  -5  -2  568.34   11.10
   1  -5  -2  537.05   12.30
   1  -5  -2  555.54   10.50
  -1   5   2  541.05   10.90
   1   5  -2  567.74   11.00
   1   5  -2  553.84   11.00
   1   5  -2  562.64   11.00
  -1   5   2  551.94   10.90
  -1   5   2  572.54   12.80
   1   5  -2  554.94   12.10
   1   5  -2  551.94   11.20
   1   5  -2  558.94   11.30
   0  -5   2  172.08    5.00
   0  -5   2  169.38    4.30
   0  -5   2  169.28    4.20
   0  -5  -2  177.58    4.60
   0  -5  -2  169.78    4.70
   0  -5  -2  172.48    4.80
   0  -5  -2  179.98    4.50
   0  -5  -2  174.58    4.40
   0  -5  -2  171.08    5.40
   0  -5  -2  167.28    4.20
   0  -5   2  175.68    4.00
   0  -5   2  176.48    4.00
   0  -5  -2  169.08    4.40
   0  -5  -2  171.08    4.40
   0  -5   2  179.58    5.10
   0  -5  -2  172.38    5.40
   0  -5   2  171.48    4.20
   0  -5   2  167.98    5.00
   0  -5  -2  167.48    4.60
   0   5  -2  173.58    4.70
   0   5   2  176.88    4.60
   0   5  -2  174.48    5.40
   0   5   2  176.28    4.50
   0   5  -2  180.48    5.40
   0   5   2  169.08    5.50
   0   5  -2  173.88    4.60
   0   5   2  170.88    5.00
   0   5  -2  171.28    4.60
   0   5   2  166.28    4.80
   0   5   2  174.68    4.70
   0   5   2  172.98    4.60
   0   5   2  172.18    4.70
  -1  -5  -2   23.60    2.00
  -1  -5  -2   24.50    2.20
   1  -5   2   25.20    2.00
   1  -5   2   26.30    1.70
  -1  -5  -2   28.80    2.20
   1  -5   2   25.20    1.50
  -1  -5  -2   28.00    2.30
  -1  -5  -2   27.00    2.20
  -1  -5  -2   24.90    2.10
   1  -5   2   26.30    1.60
  -1  -5  -2   27.30    2.30
  -1  -5  -2   22.20    2.00
   1   5   2   28.80    2.30
  -1   5  -2   25.40    1.90
   1   5   2   24.50    2.20
   1   5   2   23.40    2.10
   1   5   2   28.30    2.20
   1   5   2   26.10    2.10
  -1   5  -2   26.70    1.80
   1   5   2   26.40    2.00
  -1   5  -2   26.20    2.20
   1   5   2   26.00    2.20
  -2  -5  -2   89.99    3.80
   2  -5   2   88.39    3.70
  -2  -5  -2   87.89    3.80
  -2   5  -2   91.89    3.10
   2   5   2   87.09    3.60
   2   5   2   89.29    3.70
   2   5   2   87.49    3.70
   2   5   2   87.99    3.50
  -3  -5  -2  105.89    4.60
  -3  -5  -2  114.89    4.80
   3   5   2  106.99    4.30
  -3   5  -2  104.09    3.50
  -4  -5  -2   21.20    3.00
  -4  -5  -2   21.50    3.00
  -4   5  -2   19.30    2.00
  -3  -6   2   36.00    3.20
   3  -6  -2   36.00    2.00
  -3  -6   2   37.30    3.20
   3   6  -2   41.60    3.50
  -3   6   2   31.60    2.80
   3   6  -2   40.80    3.20
  -2  -6   2   60.99    3.50
  -2  -6   2   53.69    3.20
   2  -6  -2   62.29    2.70
  -2  -6   2   60.99    3.40
  -2  -6   2   65.29    3.50
  -2  -6   2   64.69    3.40
  -2   6   2   54.09    3.20
   2   6  -2   62.59    3.80
  -1  -6   2   41.60    2.80
   1  -6  -2   36.10    2.30
   1  -6  -2   41.40    2.80
  -1  -6   2   36.80    2.70
   1  -6  -2   40.50    2.20
  -1  -6   2   40.50    3.30
   1  -6  -2   37.60    2.00
  -1  -6   2   40.80    2.60
  -1   6   2   40.90    2.80
   1   6  -2   42.80    3.10
   1   6  -2   38.90    2.80
   0  -6  -2   76.09    3.20
   0  -6  -2   78.59    3.00
   0  -6   2   77.39    3.50
   0  -6  -2   76.19    3.10
   0  -6   2   75.89    3.60
   0  -6  -2   73.99    2.70
   0  -6   2   78.89    2.70
   0  -6  -2   76.89    3.10
   0  -6   2   78.99    2.70
   0  -6  -2   78.69    3.00
   0  -6  -2   72.09    3.20
   0  -6   2   78.79    3.60
   0  -6   2   76.49    3.10
   0  -6  -2   79.49    3.90
   0   6  -2   78.79    3.50
   0   6   2   79.19    3.60
   0   6  -2   81.39    3.30
   0   6   2   85.39    3.50
  -1  -6  -2  218.58    6.00
  -1  -6  -2  216.58    6.00
   1  -6   2  220.88    5.10
  -1  -6  -2  220.88    5.80
  -1  -6  -2  212.98    5.80
  -1  -6  -2  214.88    6.30
   1  -6   2  211.78    6.10
  -1  -6  -2  222.08    6.10
  -1   6  -2  220.88    5.70
   1   6   2  229.08    6.30
   1   6   2  229.08    6.20
   1   6   2  222.08    6.50
   1   6   2  219.08    6.00
   2  -6   2   27.30    2.50
  -2  -6  -2   27.30    2.60
  -2  -6  -2   25.60    2.60
   2   6   2   28.60    2.60
  -2   6  -2   29.50    2.30
   2   6   2   24.40    2.40
   2   6   2   25.90    2.40
  -3  -6  -2   84.69    4.60
  -3  -6  -2   75.69    4.50
  -3   6  -2   80.29    3.50
   3   6   2   83.29    3.30
   3   6   2   69.79    4.00
  -2  -7   2   12.90    2.30
  -2  -7   2   14.40    2.20
   2  -7  -2   14.80    1.70
   2   7  -2   15.40    2.50
  -2   7   2   15.80    2.20
   1  -7  -2  322.17    7.70
  -1  -7   2  326.47    8.10
  -1  -7   2  332.67    8.30
  -1   7   2  346.47    8.40
   1   7  -2  344.27    8.60
   0  -7   2  406.46    8.60
   0  -7  -2  424.46    8.60
   0  -7   2  413.26   10.00
   0  -7  -2  409.46    9.60
   0  -7   2  397.36    8.90
   0  -7  -2  411.66    8.60
   0  -7  -2  412.26    9.30
   0   7   2  423.46    9.70
   0   7  -2  405.46    9.50
  -1  -7  -2    5.90    1.60
   1  -7   2    6.60    1.30
  -1  -7  -2    8.40    1.70
  -1  -7  -2    6.80    1.80
  -1  -7  -2    8.80    1.80
   1   7   2    9.60    2.00
  -1   7  -2    7.40    1.80
  -2  -7  -2    6.50    2.10
  -2  -7  -2    6.80    2.00
  -2   7  -2    9.50    1.90
   2   7   2    8.30    2.00
   1  -8  -2   61.59    3.40
  -1  -8   2   66.59    4.50
  -1  -8   2   63.49    3.70
   1   8  -2   61.49    4.20
  -1   8   2   67.79    4.00
   0  -8   2    4.70    1.60
   0  -8  -2    1.40    1.50
   0   8  -2    3.90    1.90
   0   8   2    6.40    2.10
   1  -8   2   31.20    2.30
  -1  -8  -2   30.40    3.10
   1   8   2   32.30    3.20
  -1   8  -2   30.70    3.10
   4   0  -3    1.70    1.20
   4   0  -3    3.30    1.40
  -4   0   3    4.30    1.50
   3   0  -3    1.50    1.00
   3   0  -3    1.20    1.10
  -3   0   3    2.30    1.00
   3   0  -3    1.20    0.70
  -3   0   3    1.50    1.20
  -3   0   3    2.10    1.00
  -3   0   3    0.60    1.20
   3   0  -3    0.00    0.90
   3   0  -3    0.30    0.70
   3   0  -3    0.30    0.70
   2   0  -3  630.34   11.60
  -2   0   3  640.84   12.20
  -2   0   3  658.53   13.70
   2   0  -3  661.03   12.40
   2   0  -3  635.04   11.60
   2   0  -3  639.44   13.40
   2   0  -3  639.94   11.20
  -2   0   3  649.34   11.60
   2   0  -3  644.34   12.40
   2   0  -3  646.74   11.70
   2   0  -3  652.33   11.40
  -2   0   3  640.44   11.70
  -2   0   3  644.44   12.60
   2   0  -3  638.84   13.40
   2   0  -3  628.04   11.70
  -2   0   3  632.04   11.40
   2   0  -3  634.94   11.40
  -2   0   3  630.04   11.50
   2   0  -3  628.04   11.30
  -2   0   3  643.84   11.50
   1   0  -3  653.63   11.40
  -1   0   3  660.53   12.50
  -1   0   3  663.33   11.40
   1   0  -3  651.23   11.40
  -1   0   3  669.13   11.40
   1   0  -3  657.33   12.50
  -1   0   3  658.73   11.50
   1   0  -3  663.53   13.40
  -1   0   3  668.23   12.50
   1   0  -3  673.23   12.50
   1   0  -3  667.73   11.20
   1   0  -3  665.93   11.40
  -1   0   3  660.33   12.10
   1   0  -3  651.83   11.20
  -1   0   3  647.14   11.30
  -1   0   3  674.43   11.30
  -1   0   3  668.73   13.40
   1   0  -3  660.23   12.10
  -1   0   3  668.33   12.10
   0   0   3   56.39    1.70
   0   0  -3   54.19    1.50
   0   0   3   57.89    1.50
   0   0  -3   55.39    1.80
   0   0   3   56.09    1.50
   0   0  -3   54.29    1.60
   0   0  -3   57.29    1.60
   0   0   3   53.69    1.40
   0   0   3   54.99    1.50
   0   0  -3   52.39    1.50
   0   0   3   56.39    1.60
   0   0   3   56.89    1.80
   0   0  -3   51.99    1.50
   0   0   3   51.29    1.80
   0   0  -3   54.29    1.80
   0   0   3   56.09    1.70
   0   0  -3   52.39    1.50
   0   0  -3   55.29    1.50
   0   0   3   54.29    1.50
   0   0  -3   54.29    1.50
  -1   0  -3 1568.54   24.70
  -1   0  -3 1553.14   25.20
  -1   0  -3 1554.74   25.20
   1   0   3 1584.64   27.80
  -2   0  -3  322.87    5.90
  -2   0  -3  321.67    7.00
  -2   0  -3  327.17    6.00
  -2   0  -3  338.27    7.00
  -2   0  -3  329.47    5.90
  -3   0  -3    2.50    0.90
  -3   0  -3    1.40    0.90
  -3   0  -3    2.00    0.80
  -4   0  -3    3.00    1.20
  -4  -1   3   25.20    2.60
  -4  -1   3   22.60    2.40
   4   1  -3   21.60    2.20
  -4   1   3   17.90    2.10
  -3  -1   3    3.60    1.20
   3  -1  -3    4.60    1.20
   3  -1  -3    5.50    1.20
  -3  -1   3    2.10    1.30
  -3  -1   3    6.50    1.50
  -3  -1   3    2.90    1.10
   3  -1  -3    5.40    1.10
   3   1  -3    6.30    1.40
   3   1  -3    3.80    1.00
   3   1  -3    4.20    1.00
  -3   1   3    4.20    1.20
  -3   1   3    2.70    1.00
   3   1  -3    7.30    1.60
   3   1  -3    4.00    1.00
  -2  -1   3  186.98    4.50
  -2  -1   3  183.28    4.40
  -2  -1   3  196.08    5.40
  -2  -1   3  188.88    4.80
   2  -1  -3  189.78    4.30
  -2  -1   3  186.18    4.50
   2  -1  -3  190.98    4.30
   2  -1  -3  180.38    3.90
   2  -1  -3  183.68    4.10
  -2  -1   3  188.58    4.40
  -2  -1   3  194.98    4.80
   2  -1  -3  187.38    3.90
   2  -1  -3  184.48    4.90
   2  -1  -3  186.28    4.30
   2  -1  -3  190.08    4.80
   2  -1  -3  182.08    4.20
  -2  -1   3  186.88    4.60
   2  -1  -3  192.18    4.20
  -2  -1   3  188.98    4.40
  -2  -1   3  188.48    4.40
  -2   1   3  188.58    4.60
  -2   1   3  188.58    4.30
   2   1  -3  196.68    5.20
  -2   1   3  190.68    5.10
  -2   1   3  188.28    4.20
   2   1  -3  184.18    4.30
   2   1  -3  184.98    4.30
  -2   1   3  190.68    5.10
   2   1  -3  194.58    5.20
  -2   1   3  184.18    4.30
   2   1  -3  185.68    4.50
  -2   1   3  189.48    4.30
  -2   1   3  184.98    4.30
  -2   1   3  188.48    4.40
   2   1  -3  188.18    4.20
   2   1  -3  187.68    4.40
   2   1  -3  194.58    4.30
   2   1  -3  184.58    4.40
   2   1  -3  188.98    4.70
   1  -1  -3 1016.40   17.00
  -1  -1   3  987.50   16.80
   1  -1  -3 1012.80   19.80
   1  -1  -3 1008.20   18.50
  -1  -1   3  988.90   18.10
   1  -1  -3 1008.30   16.90
   1  -1  -3  994.20   17.90
  -1  -1   3 1013.60   18.10
   1  -1  -3 1010.20   19.80
  -1  -1   3 1013.90   18.60
   1  -1  -3 1004.70   17.90
   1  -1  -3 1001.20   16.60
  -1  -1   3 1025.80   17.00
  -1  -1   3 1022.20   18.60
  -1  -1   3 1007.40   20.00
  -1  -1   3 1013.10   17.00
   1  -1  -3  997.40   16.60
  -1  -1   3 1021.10   16.90
   1  -1  -3 1008.10   16.90
   1   1  -3  981.40   18.10
  -1   1   3 1012.50   18.60
   1   1  -3  997.80   18.10
  -1   1   3 1014.10   16.90
  -1   1   3 1015.50   19.90
  -1   1   3  990.00   19.90
   1   1  -3 1000.70   17.00
   1   1  -3  998.90   16.70
   1   1  -3 1011.70   19.90
  -1   1   3  993.50   17.70
  -1   1   3 1019.40   16.70
   1   1  -3  982.50   16.90
   1   1  -3  988.80   16.80
   1   1  -3 1052.49   18.60
  -1   1   3 1005.20   18.00
   1   1  -3 1003.30   20.00
   1   1  -3  991.00   17.00
  -1   1   3 1000.70   18.50
  -1   1   3 1005.40   18.00
  -1   1   3  981.70   16.70
  -1   1   3 1027.70   16.90
   1   1  -3 1006.00   18.60
  -1   1   3 1031.10   17.00
   0  -1  -3  442.66    9.10
   0  -1   3  446.76    8.70
   0  -1  -3  444.06    7.60
   0  -1   3  424.86    7.20
   0  -1   3  439.96    8.40
   0  -1   3  434.06    8.30
   0  -1  -3  445.16    7.70
   0  -1  -3  433.86    7.70
   0  -1   3  412.16    7.40
   0  -1  -3  438.56    7.90
   0  -1  -3  444.86    8.40
   0  -1   3  430.36    8.70
   0  -1  -3  416.76    8.30
   0  -1   3  429.96    7.30
   0  -1  -3  446.06    8.10
   0  -1   3  433.96    7.20
   0  -1  -3  431.76    7.50
   0  -1  -3  424.96    7.60
   0  -1  -3  430.16    7.70
   0   1   3  445.56    7.70
   0   1  -3  447.16    7.40
   0   1   3  448.06    7.70
   0   1   3  455.05    7.60
   0   1   3  412.06    8.30
   0   1  -3  443.56    8.10
   0   1   3  444.56    7.60
   0   1  -3  430.66    7.40
   0   1   3  458.65    7.90
   0   1   3  447.96    8.10
   0   1  -3  431.46    7.30
   0   1   3  436.56    8.20
   0   1  -3  433.76    8.10
   0   1  -3  438.06    7.50
   0   1   3  446.46    7.60
   0   1   3  424.56    9.00
   0   1   3  444.86    8.40
   0   1   3  431.06    7.50
   0   1   3  465.75    9.00
   0   1  -3  435.76    7.50
   0   1  -3  426.26    7.40
   0   1  -3  451.95    8.80
  -1  -1  -3 1513.25   28.80
  -1  -1  -3 1498.35   24.50
  -1  -1  -3 1499.45   24.20
  -1  -1  -3 1520.25   26.90
  -1  -1  -3 1506.95   24.50
  -1  -1  -3 1478.25   26.80
  -1  -1  -3 1428.36   28.80
  -1  -1  -3 1532.45   24.20
  -1  -1  -3 1496.55   24.10
  -1  -1  -3 1518.25   24.50
   1  -1   3 1514.55   26.80
   1  -1   3 1471.25   26.30
   1   1   3 1469.05   28.60
   1   1   3 1512.75   24.00
   1   1   3 1540.75   28.60
   1   1   3 1494.95   24.00
   1   1   3 1469.65   24.40
  -2  -1  -3   90.69    3.00
  -2  -1  -3   86.79    2.50
  -2  -1  -3   85.39    2.40
  -2  -1  -3   84.99    2.40
  -2  -1  -3   84.39    2.80
  -2  -1  -3   84.29    2.40
  -2  -1  -3   87.19    2.30
   2   1   3   87.09    2.40
   2   1   3   86.49    2.20
   2   1   3   86.79    2.20
   2   1   3   90.79    2.40
  -3  -1  -3    2.90    1.00
  -3  -1  -3    5.60    1.50
  -3  -1  -3    3.90    1.10
   3   1   3    4.00    0.80
   3   1   3    4.90    0.90
  -3   1  -3    4.30    0.70
  -3   1  -3    3.00    0.80
  -4  -1  -3   76.79    3.40
  -4  -1  -3   81.79    3.30
  -4   1  -3   73.09    2.90
  -4  -2   3    4.60    1.70
   4  -2  -3    1.30    0.90
  -4  -2   3    3.70    2.00
   4   2  -3    0.90    1.40
  -4   2   3    4.30    1.50
  -3  -2   3  736.53   14.10
   3  -2  -3  730.43   14.90
  -3  -2   3  732.63   13.90
  -3  -2   3  744.83   14.10
   3  -2  -3  727.73   13.00
   3  -2  -3  707.13   14.90
  -3   2   3  724.63   13.50
   3   2  -3  736.33   13.60
   3   2  -3  738.73   13.70
   3   2  -3  736.23   14.60
  -3   2   3  732.63   13.60
   3   2  -3  724.53   13.50
   3   2  -3  699.93   16.00
  -2  -2   3 1717.83   28.60
  -2  -2   3 1689.73   30.60
  -2  -2   3 1675.33   28.70
   2  -2  -3 1668.73   30.40
  -2  -2   3 1716.53   30.60
  -2  -2   3 1752.42   31.50
   2  -2  -3 1670.93   28.00
  -2  -2   3 1716.33   28.80
   2  -2  -3 1715.53   33.00
   2  -2  -3 1717.23   27.60
  -2  -2   3 1675.13   29.20
   2  -2  -3 1672.13   27.60
   2  -2  -3 1685.93   28.30
   2  -2  -3 1707.03   30.40
   2  -2  -3 1695.73   27.70
  -2  -2   3 1724.63   28.50
   2   2  -3 1713.93   30.40
  -2   2   3 1690.03   31.10
  -2   2   3 1722.83   28.50
   2   2  -3 1698.83   28.70
  -2   2   3 1664.13   30.40
  -2   2   3 1705.33   28.40
   2   2  -3 1661.53   33.70
   2   2  -3 1717.63   28.70
  -2   2   3 1688.03   28.10
  -2   2   3 1680.63   27.90
   2   2  -3 1711.33   30.40
   2   2  -3 1657.13   31.30
  -2   2   3 1674.53   28.40
   2   2  -3 1696.23   28.20
   2   2  -3 1714.73   31.30
   2   2  -3 1677.83   33.60
  -2   2   3 1735.53   33.40
  -2   2   3 1667.23   33.30
  -1  -2   3 1840.42   35.20
   1  -2  -3 1805.62   29.20
   1  -2  -3 1812.32   29.80
   1  -2  -3 1785.52   29.20
   1  -2  -3 1795.22   29.80
  -1  -2   3 1809.82   35.10
  -1  -2   3 1803.12   29.90
  -1  -2   3 1813.82   32.80
   1  -2  -3 1785.62   31.70
   1  -2  -3 1814.62   32.60
  -1  -2   3 1818.62   32.00
   1  -2  -3 1801.62   34.90
  -1  -2   3 1811.02   29.90
   1  -2  -3 1834.52   35.00
  -1  -2   3 1826.62   29.60
  -1  -2   3 1819.02   30.00
  -1  -2   3 1822.82   32.80
  -1  -2   3 1819.62   29.40
   1  -2  -3 1825.52   29.40
   1  -2  -3 1831.42   29.80
   1  -2  -3 1797.92   31.70
   1  -2  -3 1790.72   29.40
  -1   2   3 1800.72   32.80
   1   2  -3 1805.12   29.70
   1   2  -3 1837.92   29.50
  -1   2   3 1819.32   29.30
  -1   2   3 1843.32   29.90
  -1   2   3 1790.52   31.90
   1   2  -3 1810.02   35.20
   1   2  -3 1785.52   32.90
   1   2  -3 1840.32   32.90
   1   2  -3 1844.82   30.00
   1   2  -3 1784.32   32.00
  -1   2   3 1827.82   29.80
  -1   2   3 1796.72   29.80
  -1   2   3 1791.22   31.20
  -1   2   3 1754.92   29.50
   1   2  -3 1789.52   32.00
   1   2  -3 1789.02   30.00
  -1   2   3 1806.02   35.00
  -1   2   3 1796.72   35.10
  -1   2   3 1830.02   32.70
   0  -2  -3  274.47    5.40
   0  -2  -3  265.37    5.40
   0  -2   3  275.77    4.80
   0  -2  -3  274.07    5.60
   0  -2   3  268.87    5.10
   0  -2   3  266.47    5.00
   0  -2   3  279.47    5.90
   0  -2  -3  274.37    5.20
   0  -2  -3  277.87    5.40
   0  -2   3  272.47    5.20
   0  -2  -3  271.37    5.30
   0  -2  -3  273.57    6.30
   0  -2   3  281.77    5.90
   0  -2  -3  274.17    5.80
   0  -2  -3  269.77    5.80
   0  -2   3  271.27    4.80
   0  -2   3  274.87    5.20
   0   2   3  276.77    5.30
   0   2   3  268.97    5.30
   0   2   3  289.77    5.40
   0   2  -3  266.47    5.50
   0   2  -3  280.27    6.10
   0   2  -3  265.57    6.00
   0   2   3  277.17    5.60
   0   2  -3  271.67    5.20
   0   2   3  266.77    6.30
   0   2   3  274.27    5.40
   0   2   3  274.07    5.80
   0   2  -3  277.87    5.10
   0   2  -3  281.27    5.50
   0   2   3  278.87    5.80
   0   2  -3  277.17    5.00
   0   2  -3  265.87    5.10
   0   2   3  272.77    5.20
   0   2   3  280.47    5.40
   0   2   3  272.17    5.30
   0   2  -3  282.67    5.00
   0   2   3  274.27    6.30
   0   2  -3  275.27    5.20
  -1  -2  -3  450.55    8.30
  -1  -2  -3  441.46    8.10
  -1  -2  -3  450.35    8.20
  -1  -2  -3  446.16    9.80
  -1  -2  -3  442.46    9.00
   1  -2   3  441.16    8.50
  -1  -2  -3  445.26    8.40
  -1  -2  -3  457.15    9.00
  -1  -2  -3  450.65    8.20
  -1  -2  -3  449.95    9.80
  -1  -2  -3  444.06    8.70
   1  -2   3  444.96    9.10
  -1  -2  -3  443.36    8.40
   1   2   3  455.95    8.00
   1   2   3  453.05    8.90
   1   2   3  455.55    8.40
   1   2   3  460.45    8.20
   1   2   3  451.35    8.40
   1   2   3  451.05    9.60
   1   2   3  453.05    8.40
   1   2   3  451.05    8.30
   1   2   3  457.65    8.20
   1   2   3  446.36    9.70
   1   2   3  452.25    8.80
   1   2   3  445.06    8.10
   2  -2   3  687.03   13.70
  -2  -2  -3  692.03   12.40
  -2  -2  -3  644.34   14.40
  -2  -2  -3  682.93   12.30
  -2  -2  -3  681.93   12.20
  -2  -2  -3  701.33   12.20
  -2  -2  -3  665.23   13.40
  -2  -2  -3  726.63   14.60
   2   2   3  686.43   11.50
   2   2   3  703.13   12.00
   2   2   3  686.93   12.00
   2   2   3  623.44   14.00
   2   2   3  686.53   14.00
  -3  -2  -3   98.79    3.40
  -3  -2  -3   92.49    3.40
   3   2   3   96.09    3.10
   3   2   3   91.09    3.00
  -3   2  -3   95.99    2.50
  -4  -2  -3    6.80    1.70
  -4  -2  -3    2.90    1.70
   4   2   3    4.70    1.20
  -4   2  -3    2.20    1.10
  -4  -3   3  146.39    5.40
  -4  -3   3  154.18    5.70
  -4   3   3  145.59    4.90
   4   3  -3  139.49    5.10
  -3  -3   3  627.24   12.60
  -3  -3   3  640.44   12.70
   3  -3  -3  621.24   11.40
  -3  -3   3  623.54   12.70
   3   3  -3  637.24   12.30
   3   3  -3  624.34   12.30
   3   3  -3  612.14   14.50
   3   3  -3  627.24   13.20
  -3   3   3  614.24   12.00
   3   3  -3  629.84   12.40
  -2  -3   3  163.98    4.30
  -2  -3   3  173.48    4.90
  -2  -3   3  168.28    4.50
   2  -3  -3  164.28    3.90
  -2  -3   3  166.68    4.50
   2  -3  -3  167.58    3.50
  -2  -3   3  160.88    4.50
  -2  -3   3  169.28    5.30
  -2  -3   3  161.38    4.70
  -2  -3   3  154.78    4.40
   2  -3  -3  163.98    4.50
  -2  -3   3  159.38    4.40
   2  -3  -3  168.18    3.50
  -2  -3   3  166.48    4.50
  -2  -3   3  159.58    5.20
  -2  -3   3  163.28    4.40
   2  -3  -3  163.08    3.90
  -2   3   3  164.98    4.00
  -2   3   3  165.58    4.90
  -2   3   3  162.28    4.90
  -2   3   3  160.48    4.40
   2   3  -3  164.38    4.50
   2   3  -3  163.68    5.20
   2   3  -3  163.78    4.50
   2   3  -3  159.38    4.40
  -2   3   3  163.78    4.20
   2   3  -3  165.98    4.40
  -2   3   3  159.78    4.10
  -2   3   3  159.58    4.10
   2   3  -3  162.88    4.60
   2   3  -3  158.68    4.50
   2   3  -3  168.78    4.30
   2   3  -3  160.58    4.70
   2   3  -3  162.88    5.20
   1  -3  -3  695.53   13.50
   1  -3  -3  698.53   12.60
   1  -3  -3  715.33   12.30
  -1  -3   3  689.53   12.60
  -1  -3   3  702.13   14.90
   1  -3  -3  708.03   12.90
   1  -3  -3  693.23   12.30
  -1  -3   3  711.73   12.50
   1  -3  -3  715.33   12.20
  -1  -3   3  703.33   13.80
   1  -3  -3  712.63   14.70
   1  -3  -3  708.43   14.70
  -1  -3   3  720.83   12.60
   1  -3  -3  696.83   12.50
  -1  -3   3  691.43   12.70
  -1  -3   3  694.13   12.70
   1  -3  -3  704.73   13.50
   1  -3  -3  708.13   12.50
  -1  -3   3  703.73   13.20
   1  -3  -3  717.33   12.90
   1  -3  -3  692.03   12.30
  -1  -3   3  701.83   13.80
  -1  -3   3  695.53   13.20
  -1   3   3  691.73   14.80
  -1   3   3  700.73   12.40
   1   3  -3  706.63   12.60
   1   3  -3  719.93   13.40
  -1   3   3  696.73   12.40
   1   3  -3  727.23   14.00
   1   3  -3  714.13   12.60
  -1   3   3  746.13   14.10
   1   3  -3  701.63   13.40
  -1   3   3  677.33   13.70
  -1   3   3  708.33   12.60
  -1   3   3  700.73   14.80
   1   3  -3  706.83   15.00
   1   3  -3  716.83   12.90
  -1   3   3  690.73   13.20
   1   3  -3  692.43   12.70
  -1   3   3  693.03   12.40
   1   3  -3  695.73   13.90
  -1   3   3  712.03   12.70
  -1   3   3  702.53   12.60
   0  -3   3 2901.31   50.29
   0  -3  -3 2848.01   51.09
   0  -3  -3 2810.62   50.99
   0  -3   3 2817.42   45.30
   0  -3   3 2786.62   46.10
   0  -3  -3 2872.21   46.00
   0  -3   3 2825.12   50.09
   0  -3  -3 2853.41   46.50
   0  -3  -3 2861.81   45.70
   0  -3  -3 2853.11   46.00
   0  -3   3 2854.51   45.40
   0  -3   3 2906.51   50.29
   0  -3  -3 2816.32   46.50
   0  -3  -3 2828.32   46.40
   0  -3   3 2847.22   53.99
   0  -3  -3 2775.92   54.59
   0  -3  -3 2794.62   54.59
   0  -3   3 2815.82   45.40
   0   3  -3 2944.21   49.60
   0   3   3 2864.01   49.80
   0   3  -3 2838.22   46.20
   0   3   3 2821.02   46.00
   0   3   3 2852.91   54.59
   0   3  -3 2869.91   54.29
   0   3  -3 2847.81   45.80
   0   3  -3 2848.52   45.80
   0   3   3 2676.13   45.90
   0   3   3 2820.52   46.50
   0   3  -3 2830.22   46.30
   0   3   3 2908.81   46.50
   0   3  -3 2879.51   45.40
   0   3   3 2864.21   49.90
   0   3  -3 2807.42   46.20
   0   3   3 2880.81   46.50
   0   3  -3 2842.52   50.79
   0   3   3 2878.51   54.69
   0   3   3 2863.61   51.09
   0   3   3 2884.11   51.09
   0   3   3 2857.11   45.70
   0   3  -3 2900.71   54.39
  -1  -3  -3 1134.29   19.30
  -1  -3  -3 1128.99   19.30
   1  -3   3 1108.79   21.00
  -1  -3  -3 1137.29   20.80
  -1  -3  -3 1140.69   23.10
  -1  -3  -3 1162.68   21.10
  -1  -3  -3 1130.19   19.60
  -1  -3  -3 1152.28   19.70
  -1  -3  -3 1130.69   21.40
  -1  -3  -3 1128.49   21.40
  -1  -3  -3 1130.49   19.60
   1  -3   3 1110.19   20.30
  -1  -3  -3 1134.09   19.30
   1   3   3 1141.59   19.20
  -1   3  -3 1110.09   18.70
  -1   3  -3 1105.59   18.80
   1   3   3 1128.89   21.30
   1   3   3 1122.69   20.50
   1   3   3 1157.18   19.70
  -1   3  -3 1101.99   18.70
   1   3   3 1130.09   19.20
  -1   3  -3 1118.99   18.80
   1   3   3 1157.08   19.20
   1   3   3 1134.29   22.90
   1   3   3 1160.88   23.00
   1   3   3 1118.99   21.50
  -1   3  -3 1153.88   22.00
  -1   3  -3 1148.29   22.00
   1   3   3 1163.78   19.50
   1   3   3 1143.39   20.50
   1   3   3 1158.88   19.70
  -2  -3  -3   27.70    1.90
  -2  -3  -3   25.50    2.00
  -2  -3  -3   31.50    2.20
  -2  -3  -3   27.70    2.40
  -2  -3  -3   32.00    2.00
  -2  -3  -3   26.90    1.90
   2  -3   3   26.60    2.10
  -2  -3  -3   30.80    2.10
  -2  -3  -3   28.00    2.40
   2   3   3   30.10    2.30
   2   3   3   31.10    1.90
   2   3   3   28.40    2.20
   2   3   3   32.30    1.70
   2   3   3   28.10    1.70
  -2   3  -3   29.80    1.20
   2   3   3   31.90    2.00
  -2   3  -3   27.30    1.10
   2   3   3   31.60    2.00
   2   3   3   27.40    1.80
  -3  -3  -3    7.90    1.70
  -3  -3  -3    6.10    1.50
   3   3   3    6.50    1.40
   3   3   3    7.80    1.50
   3   3   3    9.40    1.50
  -4  -3  -3  141.29    5.20
  -4  -3  -3  144.99    5.20
   4   3   3  146.09    4.40
  -4   3  -3  137.59    3.90
  -4  -4   3   47.60    3.80
  -4  -4   3   35.10    3.20
   4   4  -3   39.20    3.30
  -4   4   3   41.50    3.20
  -3  -4   3  655.43   13.30
  -3  -4   3  670.43   13.40
  -3  -4   3  657.93   13.50
   3  -4  -3  639.14   11.80
  -3   4   3  628.14   12.60
   3   4  -3  644.84   13.10
   3   4  -3  636.14   13.10
   3   4  -3  666.13   14.00
  -2  -4   3  331.07    7.70
   2  -4  -3  327.47    6.80
  -2  -4   3  328.17    7.40
   2  -4  -3  329.37    6.10
   2  -4  -3  320.97    7.70
  -2  -4   3  331.17    7.50
  -2  -4   3  338.87    7.70
  -2  -4   3  332.47    7.40
  -2  -4   3  334.17    7.50
   2  -4  -3  322.17    6.00
  -2  -4   3  325.87    8.00
  -2  -4   3  330.87    7.60
   2   4  -3  336.47    7.70
  -2   4   3  314.37    7.10
   2   4  -3  340.27    7.70
   2   4  -3  336.07    8.10
  -2   4   3  322.07    7.10
   2   4  -3  318.97    7.50
   2   4  -3  331.07    7.50
   2   4  -3  331.07    7.60
   1  -4  -3   93.59    2.90
  -1  -4   3   92.59    3.10
   1  -4  -3   94.49    3.00
  -1  -4   3   99.99    3.30
  -1  -4   3   91.99    3.10
   1  -4  -3   94.79    2.50
  -1  -4   3   89.29    3.50
   1  -4  -3   97.89    2.80
  -1  -4   3   97.39    3.00
   1  -4  -3   93.49    2.90
  -1  -4   3   91.89    3.70
   1  -4  -3   90.09    2.50
   1  -4  -3   90.39    2.90
   1  -4  -3   92.59    2.90
   1  -4  -3   92.39    3.00
  -1  -4   3   97.49    3.00
  -1  -4   3   98.59    3.10
  -1  -4   3   91.69    3.10
  -1  -4   3   92.59    3.00
   1  -4  -3   93.49    3.40
   1  -4  -3   92.49    2.80
   1   4  -3   88.79    3.30
   1   4  -3   88.59    3.20
  -1   4   3   94.79    3.00
   1   4  -3   94.39    3.70
   1   4  -3  100.69    3.30
   1   4  -3   99.39    3.20
   1   4  -3   89.59    3.10
   1   4  -3   90.89    3.10
  -1   4   3   91.19    2.90
  -1   4   3   89.19    3.50
  -1   4   3   90.59    2.90
  -1   4   3   91.49    3.10
  -1   4   3   91.99    3.00
  -1   4   3   89.39    3.20
  -1   4   3   93.59    3.10
   1   4  -3   93.59    3.40
  -1   4   3   94.89    3.10
  -1   4   3   86.49    3.50
   1   4  -3  103.39    3.30
   0  -4   3   69.49    2.60
   0  -4   3   70.49    2.00
   0  -4  -3   65.69    2.60
   0  -4  -3   65.59    2.60
   0  -4   3   68.69    2.90
   0  -4  -3   68.19    2.60
   0  -4   3   69.99    2.30
   0  -4   3   67.59    2.30
   0  -4  -3   67.99    3.00
   0  -4  -3   67.19    2.60
   0  -4   3   70.09    2.00
   0  -4   3   69.19    2.00
   0  -4  -3   64.39    2.50
   0  -4   3   68.79    2.20
   0  -4   3   70.99    2.00
   0  -4  -3   60.69    2.90
   0  -4  -3   63.89    2.50
   0  -4  -3   69.39    2.40
   0  -4  -3   65.79    2.50
   0  -4  -3   71.89    2.60
   0  -4   3   64.69    2.60
   0   4  -3   64.09    2.40
   0   4  -3   65.79    2.30
   0   4  -3   67.59    2.40
   0   4  -3   67.19    2.40
   0   4   3   70.59    2.60
   0   4   3   70.79    2.70
   0   4   3   66.19    2.60
   0   4   3   67.99    2.60
   0   4   3   67.09    2.60
   0   4   3   68.29    3.00
   0   4  -3   65.49    2.30
   0   4   3   67.39    2.70
   0   4   3   62.59    2.40
   0   4  -3   70.99    2.40
   0   4   3   64.19    2.50
   0   4  -3   64.49    2.40
   0   4   3   72.89    2.70
   0   4  -3   70.59    2.80
   0   4  -3   70.19    2.40
   0   4   3   65.89    2.40
   0   4  -3   69.09    2.90
  -1  -4  -3  214.98    5.40
  -1  -4  -3  220.28    6.30
   1  -4   3  225.18    4.20
  -1  -4  -3  217.58    5.30
  -1  -4  -3  213.48    5.20
   1  -4   3  218.68    4.20
  -1  -4  -3  219.18    5.70
  -1  -4  -3  216.08    5.10
  -1  -4  -3  217.68    5.30
  -1  -4  -3  211.98    5.30
   1  -4   3  215.88    5.60
  -1  -4  -3  222.48    5.40
  -1  -4  -3  219.48    6.30
  -1  -4  -3  218.28    5.40
  -1  -4  -3  217.78    5.40
   1  -4   3  215.78    4.90
  -1   4  -3  215.78    4.70
  -1   4  -3  218.98    4.60
  -1   4  -3  214.88    4.70
   1   4   3  223.98    6.20
   1   4   3  223.58    5.60
   1   4   3  217.98    5.40
   1   4   3  226.38    5.30
   1   4   3  215.48    5.20
  -1   4  -3  216.08    5.50
  -1   4  -3  219.08    4.50
   1   4   3  222.38    5.30
  -1   4  -3  210.88    4.70
  -1   4  -3  219.28    4.90
   1   4   3  212.88    6.20
   1   4   3  224.18    5.40
   1   4   3  215.78    5.10
   1   4   3  218.98    5.60
   1   4   3  219.58    5.10
   1   4   3  227.58    5.30
  -2  -4  -3  130.69    4.20
  -2  -4  -3  133.49    4.40
  -2  -4  -3  129.19    4.00
  -2  -4  -3  138.69    4.30
   2  -4   3  127.39    4.40
  -2   4  -3  124.79    3.10
   2   4   3  132.49    3.70
  -2   4  -3  131.59    3.20
   2   4   3  129.59    4.10
   2   4   3  127.19    4.10
   2   4   3  131.99    3.60
   2   4   3  131.49    4.00
  -3  -4  -3  168.88    5.30
  -3  -4  -3  179.08    5.40
   3   4   3  150.78    5.50
   3   4   3  172.38    5.00
   3   4   3  168.98    4.50
  -3   4  -3  167.28    4.00
  -4  -4  -3   14.30    2.40
  -4  -4  -3   16.20    2.70
  -4   4  -3   18.80    1.70
   4   4   3   19.40    2.30
  -4  -5   3    1.90    2.40
  -4  -5   3    1.60    1.90
  -4   5   3    0.40    1.60
   4   5  -3    2.50    2.00
  -3  -5   3   11.10    2.00
   3  -5  -3   10.90    1.40
  -3  -5   3   10.60    2.20
  -3   5   3    9.10    1.80
   3   5  -3   10.60    2.00
   3   5  -3    9.70    2.00
   3   5  -3   10.00    1.90
  -2  -5   3   42.80    2.90
  -2  -5   3   48.50    2.90
   2  -5  -3   47.30    2.60
   2  -5  -3   49.20    2.40
  -2  -5   3   44.50    2.80
  -2  -5   3   50.69    3.00
   2  -5  -3   40.40    2.50
  -2  -5   3   45.30    3.00
  -2  -5   3   48.30    3.00
  -2   5   3   47.10    2.80
   2   5  -3   49.80    3.20
   2   5  -3   43.80    2.90
   2   5  -3   42.50    3.00
   2   5  -3   47.50    3.10
  -1  -5   3   24.30    2.10
   1  -5  -3   26.10    1.90
   1  -5  -3   22.90    2.30
  -1  -5   3   25.50    1.90
   1  -5  -3   21.60    1.80
  -1  -5   3   25.40    2.20
  -1  -5   3   25.60    2.10
   1  -5  -3   26.60    2.00
   1  -5  -3   23.40    1.80
  -1  -5   3   24.80    2.00
   1  -5  -3   26.30    2.40
  -1  -5   3   24.30    1.90
  -1  -5   3   23.70    2.30
  -1   5   3   26.10    2.40
  -1   5   3   24.00    2.10
   1   5  -3   24.60    2.20
  -1   5   3   24.80    2.10
   1   5  -3   26.90    2.10
   1   5  -3   24.50    2.10
   1   5  -3   27.90    2.20
   1   5  -3   21.20    1.90
   0  -5  -3  129.69    5.10
   0  -5   3  130.89    3.10
   0  -5   3  124.39    3.20
   0  -5  -3  122.39    3.80
   0  -5  -3  126.99    3.80
   0  -5  -3  127.29    4.60
   0  -5  -3  126.19    4.00
   0  -5   3  123.99    4.00
   0  -5   3  131.19    4.10
   0  -5  -3  127.59    3.60
   0  -5   3  124.79    3.60
   0  -5  -3  123.69    3.90
   0  -5   3  121.19    4.30
   0  -5  -3  120.99    4.00
   0  -5   3  125.29    3.20
   0  -5  -3  125.09    3.90
   0  -5   3  126.79    3.10
   0  -5  -3  126.29    3.80
   0   5   3  124.59    4.10
   0   5   3  126.29    3.80
   0   5   3  127.69    4.20
   0   5   3  121.19    3.80
   0   5   3  119.89    3.90
   0   5   3  123.19    3.90
   0   5  -3  134.99    4.70
   0   5  -3  123.79    3.90
   0   5  -3  126.09    3.80
   0   5   3  126.59    4.00
   0   5  -3  126.29    4.40
  -1  -5  -3  167.48    5.00
  -1  -5  -3  184.68    5.10
   1  -5   3  178.48    4.00
  -1  -5  -3  185.28    5.20
   1  -5   3  183.28    5.30
  -1  -5  -3  186.08    5.20
  -1  -5  -3  179.88    4.90
  -1  -5  -3  189.58    5.40
  -1  -5  -3  179.18    5.00
   1  -5   3  181.18    4.00
  -1  -5  -3  175.88    4.90
   1  -5   3  185.88    4.60
  -1   5  -3  187.38    5.40
  -1   5  -3  179.88    4.60
   1   5   3  180.18    5.10
   1   5   3  176.48    4.80
  -1   5  -3  176.48    4.50
   1   5   3  177.48    5.10
   1   5   3  180.88    5.30
   1   5   3  184.78    5.20
   1   5   3  182.68    5.10
   1   5   3  186.18    5.10
  -2  -5  -3    1.40    1.40
   2  -5   3   -0.10    1.30
  -2  -5  -3    1.90    1.50
   2   5   3   -0.40    1.10
  -2   5  -3    1.20    0.90
   2   5   3    0.70    1.10
   2   5   3    1.90    1.30
  -3  -5  -3    4.90    1.90
  -3  -5  -3    6.60    2.00
   3   5   3   10.00    1.90
  -3   5  -3    7.30    1.30
   3  -6  -3   31.40    2.10
  -3  -6   3   28.60    3.00
  -3  -6   3   28.40    3.00
  -2  -6   3   29.00    2.60
  -2  -6   3   25.70    2.40
   2  -6  -3   24.20    2.30
   2  -6  -3   27.60    2.10
  -2  -6   3   27.50    2.60
  -2  -6   3   33.50    2.70
  -2   6   3   25.70    2.40
   2   6  -3   29.50    2.80
  -1  -6   3   30.80    2.40
   1  -6  -3   36.10    2.80
   1  -6  -3   37.20    2.40
  -1  -6   3   41.00    2.50
  -1  -6   3   36.60    2.70
  -1  -6   3   33.80    2.90
   1  -6  -3   39.20    2.50
   1  -6  -3   36.70    2.10
  -1  -6   3   39.30    2.60
   1   6  -3   36.60    2.80
  -1   6   3   36.30    2.70
   1   6  -3   36.30    2.80
   0  -6   3    8.70    1.60
   0  -6  -3    8.00    1.90
   0  -6  -3    8.60    1.50
   0  -6   3    9.10    1.40
   0  -6  -3    9.00    1.60
   0  -6   3    7.50    1.00
   0  -6   3    7.80    1.10
   0  -6  -3    6.80    1.50
   0  -6   3    9.00    1.80
   0  -6  -3    8.10    1.40
   0  -6   3    8.70    1.00
   0  -6  -3    9.10    1.50
   0  -6   3   10.00    1.70
   0  -6   3    9.40    1.10
   0   6   3    6.20    1.30
   0   6   3    7.80    1.70
   0   6  -3    8.70    1.70
  -1  -6  -3   68.89    3.50
  -1  -6  -3   67.09    3.50
  -1  -6  -3   74.89    3.50
   1  -6   3   71.39    2.60
  -1  -6  -3   69.19    3.30
   1  -6   3   64.29    3.50
  -1  -6  -3   70.49    3.30
   1   6   3   68.79    3.50
   1   6   3   73.79    3.40
  -1   6  -3   68.49    3.10
   1   6   3   74.99    3.60
  -2  -6  -3   12.70    2.10
  -2  -6  -3   13.10    2.10
   2  -6   3   11.90    2.00
   2   6   3   14.10    1.90
  -2   6  -3   11.50    1.60
   2   6   3   12.80    2.00
   2   6   3   13.50    2.00
  -3  -6  -3   53.09    4.10
  -3  -6  -3   52.99    4.20
   3   6   3   51.39    3.60
  -3   6  -3   55.79    2.90
  -2  -7   3   51.09    3.50
  -2  -7   3   49.20    3.60
   2  -7  -3   52.79    2.90
  -2   7   3   45.60    3.40
   2   7  -3   53.09    4.00
  -1  -7   3   92.39    4.80
   1  -7  -3   85.49    3.70
  -1  -7   3   92.49    3.90
   1   7  -3   93.49    4.50
  -1   7   3   87.59    4.10
   0  -7  -3  196.48    5.20
   0  -7   3  186.78    6.30
   0  -7  -3  193.18    5.80
   0  -7  -3  205.68    5.80
   0  -7   3  198.68    5.40
   0   7   3  197.38    6.10
   0   7  -3  200.38    6.00
   1  -7   3   13.40    2.10
  -1  -7  -3   15.60    2.20
   1  -7   3   19.10    1.70
  -1  -7  -3   17.70    2.20
  -1  -7  -3   15.60    2.00
   1   7   3   11.10    2.00
  -1   7  -3   14.80    2.10
  -2  -7  -3   44.60    3.70
  -2  -7  -3   41.90    3.40
  -2   7  -3   42.00    3.00
   2   7   3   45.30    3.50
   2   7   3   48.30    3.30
  -1  -8   3  274.47    7.60
   1  -8  -3  289.07    7.50
  -1  -8   3  290.07    8.90
   1   8  -3  292.77    8.30
  -1   8   3  296.47    8.10
   0  -8   3   30.60    2.60
   0  -8  -3   31.50    2.90
   0   8   3   34.20    3.30
   0   8  -3   35.90    3.30
  -1  -8  -3   30.30    2.90
   1  -8   3   34.40    2.40
  -1   8  -3   35.40    3.20
   1   8   3   37.50    3.50
  -4   0   4   16.70    2.10
   3   0  -4    2.20    0.90
   3   0  -4    0.60    1.20
  -3   0   4    0.80    1.20
  -3   0   4    1.00    1.00
  -3   0   4    2.30    1.00
   3   0  -4    1.70    0.80
   3   0  -4    2.30    1.10
   3   0  -4   -0.40    0.90
   3   0  -4    1.20    0.90
   2   0  -4   63.29    2.70
   2   0  -4   60.29    2.30
  -2   0   4   64.19    2.30
  -2   0   4   65.49    2.60
   2   0  -4   61.79    2.30
  -2   0   4   59.89    2.70
   2   0  -4   61.29    2.30
  -2   0   4   60.19    2.30
  -2   0   4   63.89    2.40
   2   0  -4   60.99    2.20
  -2   0   4   61.59    2.40
   2   0  -4   61.79    2.10
   2   0  -4   61.49    2.60
   2   0  -4   61.79    2.20
   2   0  -4   64.09    2.20
  -2   0   4   62.09    2.50
  -2   0   4   61.19    2.30
  -2   0   4   62.29    2.40
   2   0  -4   62.99    2.30
  -1   0   4   38.40    1.60
   1   0  -4   44.40    1.90
  -1   0   4   38.10    1.80
  -1   0   4   37.00    1.60
  -1   0   4   37.80    1.50
   1   0  -4   37.20    1.50
   1   0  -4   38.80    1.60
  -1   0   4   37.40    1.50
   1   0  -4   36.70    1.60
   1   0  -4   35.80    1.60
   1   0  -4   35.70    1.50
   1   0  -4   38.90    1.60
  -1   0   4   39.90    1.70
  -1   0   4   37.20    1.80
  -1   0   4   39.50    1.50
  -1   0   4   39.50    1.60
   1   0  -4   39.70    1.60
  -1   0   4   38.40    1.60
  -1   0   4   37.80    1.60
   1   0  -4   39.00    1.60
  -1   0   4   39.30    1.50
   0   0  -4   21.80    1.10
   0   0  -4   22.20    1.00
   0   0   4   21.70    1.10
   0   0   4   23.70    1.00
   0   0  -4   22.10    1.00
   0   0  -4   19.60    1.00
   0   0  -4   21.10    1.00
   0   0  -4   20.20    1.00
   0   0   4   22.50    1.00
   0   0   4   20.40    1.20
   0   0   4   23.10    0.90
   0   0   4   20.20    1.20
   0   0   4   22.30    1.20
   0   0   4   22.00    0.90
   0   0   4   19.90    0.90
   0   0   4   21.80    0.90
   0   0  -4   20.70    1.00
   0   0  -4   21.40    1.20
   0   0  -4   23.30    1.20
  -1   0  -4   63.39    1.50
  -1   0  -4   66.19    1.40
  -1   0  -4   67.79    1.60
  -1   0  -4   68.39    1.60
   1   0   4   68.99    2.30
  -1   0  -4   63.89    1.50
   1   0   4   64.69    2.20
  -2   0  -4  670.23   11.50
  -2   0  -4  682.73   11.60
  -2   0  -4  701.93   13.50
  -2   0  -4  673.13   11.50
  -3   0  -4  153.68    3.70
  -3   0  -4  151.78    3.70
  -4   0  -4    2.70    1.30
   4  -1  -4   19.90    1.90
  -4  -1   4   20.70    2.40
  -4   1   4   15.70    2.00
   4   1  -4   16.10    2.10
   3  -1  -4   53.29    2.00
  -3  -1   4   50.59    2.70
   3  -1  -4   52.99    2.00
   3  -1  -4   52.09    2.60
   3  -1  -4   52.79    1.90
   3  -1  -4   50.59    2.50
   3  -1  -4   50.59    2.00
  -3  -1   4   47.80    2.60
   3  -1  -4   49.99    2.70
  -3   1   4   47.80    2.90
   3   1  -4   54.79    2.60
  -3   1   4   47.90    2.60
   3   1  -4   46.50    3.00
  -3   1   4   55.19    2.60
   3   1  -4   53.89    2.90
   3   1  -4   52.59    2.70
   2  -1  -4   90.69    2.80
  -2  -1   4   88.99    2.80
  -2  -1   4   89.09    3.40
   2  -1  -4   87.89    2.50
   2  -1  -4   89.19    3.10
  -2  -1   4   93.49    3.10
   2  -1  -4   88.19    2.40
   2  -1  -4   88.39    2.80
  -2  -1   4   89.79    3.00
  -2  -1   4   86.89    2.90
   2  -1  -4   90.09    2.80
  -2  -1   4   89.89    2.90
   2  -1  -4   88.29    2.70
   2  -1  -4   86.19    2.40
   2  -1  -4   87.49    2.60
  -2  -1   4   88.49    2.90
   2  -1  -4   90.39    2.70
  -2  -1   4   89.79    3.10
   2  -1  -4   92.59    2.80
  -2  -1   4   92.89    2.90
  -2  -1   4   91.69    2.90
   2   1  -4   90.49    3.00
  -2   1   4   86.89    2.90
   2   1  -4   89.09    2.90
  -2   1   4   88.29    2.80
   2   1  -4   90.69    2.90
  -2   1   4   87.29    2.60
   2   1  -4   89.89    2.90
   2   1  -4   85.89    2.90
   2   1  -4   89.39    2.90
   2   1  -4   91.49    2.80
   2   1  -4   88.29    3.40
   2   1  -4   83.39    2.80
  -2   1   4   89.09    3.30
  -2   1   4   87.59    2.80
  -2   1   4   90.89    2.80
  -2   1   4   87.39    3.30
  -2   1   4   86.59    2.80
  -2   1   4   84.19    2.80
  -2   1   4   90.99    2.80
   2   1  -4   88.49    3.30
  -1  -1   4  238.98    4.90
  -1  -1   4  237.58    5.00
  -1  -1   4  240.78    5.80
  -1  -1   4  246.58    5.00
   1  -1  -4  242.88    5.80
  -1  -1   4  241.68    5.00
   1  -1  -4  241.88    4.90
   1  -1  -4  236.88    5.00
   1  -1  -4  238.88    4.90
  -1  -1   4  245.28    5.40
  -1  -1   4  257.67    5.10
  -1  -1   4  240.48    4.90
   1  -1  -4  235.38    4.80
  -1  -1   4  246.78    4.90
   1  -1  -4  238.38    5.30
   1  -1  -4  242.38    5.80
   1  -1  -4  237.78    5.30
   1  -1  -4  235.28    5.10
  -1  -1   4  246.38    5.40
   1  -1  -4  241.58    4.90
   1   1  -4  241.78    5.40
   1   1  -4  246.98    4.90
  -1   1   4  238.88    5.10
  -1   1   4  237.28    5.80
   1   1  -4  239.88    5.10
   1   1  -4  239.28    5.20
   1   1  -4  239.78    5.00
   1   1  -4  239.88    5.00
   1   1  -4  243.48    5.00
  -1   1   4  227.78    4.90
  -1   1   4  234.78    5.00
  -1   1   4  236.58    5.30
  -1   1   4  239.28    4.90
  -1   1   4  242.08    5.00
   1   1  -4  241.88    5.00
  -1   1   4  243.48    5.10
   1   1  -4  240.78    5.80
   1   1  -4  234.48    5.40
  -1   1   4  245.48    4.90
  -1   1   4  241.28    4.90
  -1   1   4  243.58    5.40
   0  -1   4  133.09    2.70
   0  -1  -4  131.59    2.90
   0  -1   4  128.39    3.10
   0  -1   4  131.39    2.60
   0  -1  -4  129.99    2.90
   0  -1  -4  130.69    3.40
   0  -1   4  134.19    3.30
   0  -1   4  125.79    3.20
   0  -1  -4  130.49    3.40
   0  -1  -4  130.29    2.90
   0  -1   4  127.69    2.40
   0  -1  -4  128.39    2.90
   0  -1   4  130.89    3.10
   0  -1  -4  134.99    3.10
   0  -1  -4  127.69    2.90
   0  -1  -4  130.09    3.00
   0  -1   4  121.09    2.70
   0  -1   4  127.69    2.40
   0  -1  -4  125.69    3.10
   0   1   4  133.19    2.90
   0   1   4  134.49    2.90
   0   1   4  132.29    2.80
   0   1  -4  130.39    2.90
   0   1  -4  130.49    2.60
   0   1  -4  132.19    2.70
   0   1  -4  128.39    3.20
   0   1   4  133.29    2.90
   0   1  -4  128.89    2.70
   0   1  -4  131.19    2.60
   0   1  -4  127.49    2.70
   0   1   4  133.19    3.40
   0   1  -4  135.89    3.20
   0   1   4  133.69    3.10
   0   1  -4  130.49    2.80
   0   1   4  128.99    3.10
   0   1   4  129.59    2.80
   0   1   4  129.09    2.90
   0   1   4  127.69    2.90
   0   1  -4  128.49    2.80
   0   1   4  135.39    2.80
   0   1  -4  125.49    2.70
   0   1   4  131.59    3.40
   0   1   4  131.39    3.00
  -1  -1  -4  203.88    4.20
  -1  -1  -4  205.68    4.20
  -1  -1  -4  211.48    4.00
   1  -1   4  201.08    4.60
  -1  -1  -4  205.38    4.20
  -1  -1  -4  202.08    4.40
  -1  -1  -4  209.78    4.10
   1  -1   4  201.78    4.90
  -1  -1  -4  207.28    4.80
  -1  -1  -4  212.48    4.40
  -1  -1  -4  203.68    4.90
  -1  -1  -4  207.78    4.00
   1   1   4  214.98    4.60
   1   1   4  204.08    4.60
   1   1   4  202.78    4.00
   1   1   4  208.38    4.10
   1   1   4  200.28    4.00
  -2  -1  -4  453.55    8.10
  -2  -1  -4  406.86    9.50
  -2  -1  -4  449.36    8.00
  -2  -1  -4  461.75    9.70
  -2  -1  -4  458.65    8.30
  -2  -1  -4  453.95    8.30
   2  -1   4  441.66    9.60
  -2  -1  -4  442.06    8.20
  -2  -1  -4  423.76    8.70
   2   1   4  454.75    8.00
   2   1   4  438.76    7.70
   2   1   4  447.96    7.70
   2   1   4  443.16    8.00
  -3  -1  -4    2.50    1.00
  -3   1  -4    3.00    0.80
  -4  -1  -4   40.00    2.70
  -4   1  -4   38.50    2.30
   4  -2  -4    9.90    1.50
  -4  -2   4   11.40    2.10
  -4   2   4   11.40    2.00
   4   2  -4    9.70    1.90
  -3  -2   4   98.29    3.90
   3  -2  -4  101.59    3.60
  -3  -2   4   96.89    3.80
   3  -2  -4   98.09    3.50
   3  -2  -4   96.69    3.30
  -3  -2   4   99.29    3.70
   3   2  -4  108.39    3.80
   3   2  -4  100.09    3.30
  -3   2   4  101.59    3.40
   3   2  -4   93.99    3.10
   3   2  -4  102.79    4.20
  -3   2   4   93.49    3.50
   2  -2  -4 1353.26   26.60
  -2  -2   4 1363.76   22.90
  -2  -2   4 1295.17   27.20
   2  -2  -4 1304.97   22.70
   2  -2  -4 1350.16   22.90
  -2  -2   4 1356.26   24.60
   2  -2  -4 1363.36   22.30
   2  -2  -4 1327.27   22.90
  -2  -2   4 1358.86   24.60
   2  -2  -4 1340.27   24.70
  -2  -2   4 1359.56   25.40
   2  -2  -4 1359.16   24.60
  -2  -2   4 1354.86   23.00
  -2  -2   4 1317.77   25.20
  -2  -2   4 1351.96   23.10
   2  -2  -4 1345.97   22.50
   2  -2  -4 1333.67   22.30
   2   2  -4 1353.86   27.20
  -2   2   4 1328.87   22.60
  -2   2   4 1331.07   23.50
  -2   2   4 1343.57   23.10
   2   2  -4 1345.37   23.20
  -2   2   4 1309.67   25.10
  -2   2   4 1327.97   22.70
   2   2  -4 1337.67   25.30
  -2   2   4 1334.27   27.00
   2   2  -4 1345.27   25.30
  -2   2   4 1329.27   26.90
  -2   2   4 1361.76   23.00
  -2   2   4 1337.97   22.90
   2   2  -4 1368.66   24.50
   2   2  -4 1372.96   23.30
   2   2  -4 1336.67   27.20
   2   2  -4 1357.26   22.90
   2   2  -4 1374.66   22.90
   2   2  -4 1328.57   24.40
  -2   2   4 1320.67   24.30
  -1  -2   4  977.30   16.80
   1  -2  -4  988.20   17.60
   1  -2  -4  976.00   16.40
   1  -2  -4  970.80   16.70
   1  -2  -4  972.20   19.50
  -1  -2   4  956.00   16.70
  -1  -2   4  953.30   16.60
   1  -2  -4  931.41   18.10
  -1  -2   4  955.70   16.40
  -1  -2   4  984.90   18.20
  -1  -2   4  968.00   16.50
   1  -2  -4  955.30   16.30
   1  -2  -4  975.90   16.40
  -1  -2   4 1004.60   16.50
  -1  -2   4  956.00   19.60
  -1  -2   4  968.50   17.60
  -1  -2   4  942.61   17.60
   1  -2  -4  970.20   16.70
  -1  -2   4  983.90   18.30
   1  -2  -4  973.50   17.60
   1  -2  -4  978.90   19.60
   1  -2  -4  965.20   16.60
   1  -2  -4  972.50   18.20
  -1   2   4  963.80   18.20
  -1   2   4  980.20   16.70
  -1   2   4  977.90   18.30
  -1   2   4  979.80   19.60
  -1   2   4  957.10   19.70
  -1   2   4  965.60   16.80
   1   2  -4  971.30   16.80
  -1   2   4  992.60   17.70
   1   2  -4  979.10   16.50
  -1   2   4  990.60   16.50
  -1   2   4  954.60   17.20
  -1   2   4  949.90   17.70
   1   2  -4  963.70   16.60
   1   2  -4  994.80   18.40
   1   2  -4  952.30   16.80
   1   2  -4  959.00   18.30
  -1   2   4  958.00   16.50
   1   2  -4  962.50   17.80
   1   2  -4  992.70   17.80
   1   2  -4  976.30   19.70
   0  -2  -4  304.47    6.10
   0  -2   4  309.07    6.60
   0  -2   4  306.07    5.50
   0  -2   4  300.87    6.40
   0  -2   4  309.87    6.40
   0  -2   4  302.07    5.50
   0  -2  -4  303.27    5.90
   0  -2   4  292.47    5.60
   0  -2  -4  304.97    5.80
   0  -2  -4  307.77    7.10
   0  -2   4  301.87    6.50
   0  -2  -4  312.27    6.50
   0  -2  -4  305.87    6.20
   0  -2  -4  303.67    5.90
   0  -2  -4  300.67    6.00
   0  -2  -4  304.87    6.00
   0  -2  -4  303.27    6.50
   0   2   4  303.17    6.20
   0   2  -4  294.27    5.50
   0   2   4  311.87    5.90
   0   2   4  294.77    7.00
   0   2   4  308.97    5.90
   0   2   4  308.17    6.50
   0   2  -4  301.47    6.70
   0   2   4  301.07    5.90
   0   2  -4  316.07    6.10
   0   2  -4  299.77    5.70
   0   2  -4  308.87    5.60
   0   2   4  308.97    7.00
   0   2   4  311.17    6.50
   0   2  -4  303.87    6.70
   0   2   4  302.77    6.00
   0   2   4  307.67    5.90
   0   2  -4  306.57    6.10
   0   2  -4  306.47    5.60
   0   2   4  302.87    6.00
   0   2  -4  296.17    5.70
  -1  -2  -4   55.09    2.10
  -1  -2  -4   54.49    2.10
  -1  -2  -4   58.79    2.50
  -1  -2  -4   59.69    2.10
   1  -2   4   54.09    2.40
  -1  -2  -4   53.09    2.10
  -1  -2  -4   54.39    2.10
  -1  -2  -4   55.29    2.00
  -1  -2  -4   56.49    2.00
  -1  -2  -4   53.99    2.40
  -1  -2  -4   52.89    2.00
   1  -2   4   53.69    2.00
  -1  -2  -4   57.19    2.00
   1   2   4   57.49    1.80
   1   2   4   56.99    1.80
   1   2   4   55.19    2.40
   1   2   4   55.29    1.90
   1   2   4   60.79    2.10
   1   2   4   58.09    1.90
   1   2   4   57.59    2.00
   1   2   4   54.39    2.00
   1   2   4   57.29    2.00
   1   2   4   55.19    2.30
  -2  -2  -4  409.16    8.00
  -2  -2  -4  404.66    7.80
  -2  -2  -4  388.96    8.50
  -2  -2  -4  411.36    8.00
   2  -2   4  394.86    9.00
  -2  -2  -4  414.66    9.40
  -2  -2  -4  412.26    7.80
  -2  -2  -4  418.26    8.10
  -2  -2  -4  368.56    9.20
   2   2   4  404.26    7.60
   2   2   4  408.86    7.60
   2   2   4  406.96    8.80
   2   2   4  400.26    8.70
  -3  -2  -4  185.08    5.00
   3   2   4  192.68    4.50
  -4  -2  -4   87.09    3.70
  -4  -2  -4   71.99    3.70
  -4   2  -4   76.69    2.80
   4   2   4   81.39    2.70
  -4  -3   4  774.02   15.60
   4  -3  -4  732.93   13.70
  -4  -3   4  763.12   15.50
   4   3  -4  762.12   15.10
  -4   3   4  744.63   14.90
  -3  -3   4   81.69    3.70
  -3  -3   4   77.59    3.50
  -3  -3   4   79.99    3.80
   3  -3  -4   75.19    3.00
   3  -3  -4   77.59    2.90
   3  -3  -4   74.99    3.00
   3   3  -4   76.09    3.50
   3   3  -4   74.89    3.30
  -3   3   4   78.29    3.30
   3   3  -4   77.79    3.50
  -2  -3   4  259.97    6.50
   2  -3  -4  257.07    5.20
  -2  -3   4  249.78    7.00
   2  -3  -4  249.48    5.60
  -2  -3   4  257.47    6.10
  -2  -3   4  256.77    6.50
  -2  -3   4  257.57    6.00
  -2  -3   4  250.87    5.80
  -2  -3   4  253.57    6.10
  -2  -3   4  256.07    6.10
  -2  -3   4  252.07    7.10
   2  -3  -4  251.07    5.70
  -2  -3   4  262.57    6.10
  -2  -3   4  259.57    6.00
   2  -3  -4  237.48    5.50
   2  -3  -4  255.97    5.20
   2  -3  -4  254.17    5.60
   2  -3  -4  257.47    6.50
  -2   3   4  253.67    6.80
  -2   3   4  254.57    5.90
  -2   3   4  249.38    5.70
  -2   3   4  245.38    6.20
  -2   3   4  257.77    6.90
   2   3  -4  269.57    6.50
   2   3  -4  252.37    7.10
   2   3  -4  255.27    6.10
   2   3  -4  255.97    5.90
   2   3  -4  257.27    6.20
   2   3  -4  260.17    6.50
   2   3  -4  261.17    6.20
   2   3  -4  255.97    7.10
  -2   3   4  253.17    5.80
  -2   3   4  250.47    5.80
  -2   3   4  241.58    5.80
  -1  -3   4  364.66    7.10
   1  -3  -4  355.56    7.20
  -1  -3   4  356.56    7.20
  -1  -3   4  352.06    8.40
  -1  -3   4  347.37    7.20
   1  -3  -4  352.36    7.20
   1  -3  -4  353.86    7.00
  -1  -3   4  356.16    7.20
   1  -3  -4  346.87    7.10
   1  -3  -4  349.96    7.00
  -1  -3   4  352.86    7.20
  -1  -3   4  356.86    7.10
  -1  -3   4  349.96    7.00
   1  -3  -4  353.86    8.30
  -1  -3   4  359.96    7.70
   1  -3  -4  355.16    7.10
  -1  -3   4  346.77    7.00
   1  -3  -4  362.76    6.90
   1  -3  -4  354.06    7.60
   1  -3  -4  351.56    7.10
   1  -3  -4  354.56    6.90
  -1   3   4  346.57    7.40
   1   3  -4  347.47    8.60
   1   3  -4  347.27    7.80
  -1   3   4  349.27    6.90
   1   3  -4  364.56    7.10
  -1   3   4  349.77    7.00
   1   3  -4  374.16    7.90
   1   3  -4  353.76    7.30
  -1   3   4  347.77    8.40
  -1   3   4  357.06    7.70
   1   3  -4  359.96    8.50
   1   3  -4  353.76    7.50
  -1   3   4  355.46    7.20
  -1   3   4  342.77    7.00
  -1   3   4  345.17    7.10
  -1   3   4  350.96    8.40
   1   3  -4  360.76    7.20
  -1   3   4  350.56    7.20
   1   3  -4  349.07    7.20
  -1   3   4  351.16    7.70
   0  -3  -4 1052.49   19.40
   0  -3   4 1083.39   17.60
   0  -3   4 1073.79   17.30
   0  -3  -4 1051.49   18.10
   0  -3  -4 1053.69   20.00
   0  -3  -4 1077.39   21.60
   0  -3  -4 1054.29   21.50
   0  -3  -4 1060.19   18.30
   0  -3  -4 1054.79   20.00
   0  -3  -4 1024.20   18.30
   0  -3   4 1069.99   17.30
   0  -3   4 1054.39   17.60
   0  -3   4 1043.70   17.90
   0  -3   4 1079.59   20.90
   0  -3  -4 1072.59   18.10
   0  -3   4 1066.69   19.90
   0  -3  -4 1073.99   18.50
   0  -3  -4 1059.69   18.10
   0   3  -4 1076.89   18.10
   0   3   4 1069.19   18.40
   0   3  -4 1053.99   19.70
   0   3   4 1044.40   18.40
   0   3   4 1062.39   18.00
   0   3   4 1053.39   18.30
   0   3   4 1070.79   19.50
   0   3   4 1066.19   21.50
   0   3   4 1059.19   21.60
   0   3   4 1075.49   20.10
   0   3  -4 1047.60   17.70
   0   3  -4 1070.19   17.80
   0   3  -4 1045.20   18.00
   0   3  -4 1069.79   21.20
   0   3   4 1058.89   19.40
   0   3   4 1034.70   18.00
   0   3   4 1058.49   20.00
   0   3  -4 1082.59   21.20
  -1  -3  -4  639.74   11.80
  -1  -3  -4  644.14   13.90
  -1  -3  -4  649.43   11.70
  -1  -3  -4  630.34   11.60
   1  -3   4  656.83   12.90
  -1  -3  -4  628.64   12.30
  -1  -3  -4  641.64   11.80
   1  -3   4  622.84   12.10
  -1  -3  -4  619.14   11.50
  -1  -3  -4  636.64   12.80
  -1  -3  -4  643.84   12.80
  -1  -3  -4  642.44   11.90
  -1  -3  -4  636.14   13.90
   1   3   4  634.14   13.80
   1   3   4  644.04   12.10
  -1   3  -4  635.84   12.70
   1   3   4  659.23   11.60
   1   3   4  663.83   11.90
   1   3   4  633.94   11.60
   1   3   4  637.44   11.40
  -1   3  -4  625.74   10.80
   1   3   4  644.84   12.00
  -1   3  -4  629.74   10.80
   1   3   4  636.04   11.40
   1   3   4  655.93   11.70
   1   3   4  648.74   13.70
  -1   3  -4  632.34   10.90
  -1   3  -4  640.44   11.00
   1   3   4  647.64   12.60
   1   3   4  637.74   11.80
  -2  -3  -4    0.40    0.90
   2  -3   4    0.20    1.10
  -2  -3  -4    1.50    1.30
  -2  -3  -4    0.70    1.30
  -2  -3  -4    2.70    1.10
   2   3   4   -0.30    0.70
   2   3   4    1.40    0.90
   2   3   4    0.30    0.70
   2   3   4    0.60    0.70
   2   3   4    0.00    1.10
   2   3   4    0.60    1.00
   2   3   4   -1.10    0.80
  -3  -3  -4   66.99    3.30
  -3  -3  -4   65.29    3.20
  -3   3  -4   62.59    1.90
   3   3   4   64.49    3.00
   3   3   4   61.09    2.90
   3   3   4   64.49    2.80
  -4  -3  -4   20.70    2.50
  -4  -3  -4   22.00    2.60
  -4   3  -4   21.10    1.70
   4   3   4   26.70    2.10
  -4  -4   4   23.70    2.80
   4  -4  -4   23.60    1.80
  -4   4   4   26.20    2.60
   4   4  -4   21.80    2.60
   3  -4  -4  136.39    4.10
  -3  -4   4  144.69    5.00
  -3  -4   4  154.08    5.10
  -3  -4   4  150.38    5.10
   3  -4  -4  144.59    4.30
   3   4  -4  151.48    5.00
   3   4  -4  147.49    5.20
  -3   4   4  145.29    4.70
   3   4  -4  150.78    4.80
   2  -4  -4  375.36    7.20
  -2  -4   4  391.76    8.40
   2  -4  -4  374.16    9.00
   2  -4  -4  383.46    7.80
  -2  -4   4  381.56    8.40
  -2  -4   4  374.66    8.30
  -2  -4   4  374.76    8.50
   2  -4  -4  375.86    9.00
  -2  -4   4  380.66    8.50
   2  -4  -4  382.26    7.20
   2  -4  -4  379.06    7.80
   2  -4  -4  373.56    7.80
  -2  -4   4  373.46    8.90
  -2  -4   4  379.96    8.30
  -2   4   4  361.16    8.00
   2   4  -4  388.56    8.60
   2   4  -4  371.06    8.60
   2   4  -4  385.96    8.40
   2   4  -4  375.76    8.50
  -2   4   4  370.76    9.50
   2   4  -4  380.56    9.00
   2   4  -4  374.86    8.50
  -2   4   4  375.16    8.10
   1  -4  -4  351.56    8.70
  -1  -4   4  373.56    7.90
   1  -4  -4  361.56    7.40
  -1  -4   4  365.76    7.40
   1  -4  -4  365.86    7.90
   1  -4  -4  367.06    7.40
   1  -4  -4  357.56    8.70
  -1  -4   4  358.46    8.00
  -1  -4   4  357.96    7.50
   1  -4  -4  363.86    7.50
   1  -4  -4  361.26    7.60
  -1  -4   4  365.26    7.50
  -1  -4   4  363.56    7.50
   1  -4  -4  364.76    7.20
  -1  -4   4  355.86    7.40
  -1  -4   4  378.76    9.00
   1  -4  -4  360.66    7.40
   1  -4  -4  368.56    7.30
  -1  -4   4  353.66    8.80
   1  -4  -4  364.26    7.00
  -1  -4   4  374.26    7.70
   1  -4  -4  360.86    7.90
  -1  -4   4  369.16    7.20
   1   4  -4  359.16    7.60
   1   4  -4  358.56    7.90
   1   4  -4  362.36    9.10
  -1   4   4  352.46    8.20
  -1   4   4  362.96    7.50
   1   4  -4  360.66    9.00
   1   4  -4  366.16    7.80
  -1   4   4  346.67    8.90
  -1   4   4  357.46    7.40
  -1   4   4  360.96    7.60
  -1   4   4  361.86    7.50
   1   4  -4  352.56    8.30
   1   4  -4  358.86    7.70
  -1   4   4  352.36    7.80
  -1   4   4  356.96    7.70
  -1   4   4  363.36    7.60
   1   4  -4  348.57    7.70
   1   4  -4  376.66    7.60
  -1   4   4  358.56    8.90
   0  -4  -4  189.88    4.80
   0  -4  -4  183.88    4.70
   0  -4  -4  187.48    5.00
   0  -4  -4  188.18    5.60
   0  -4  -4  187.58    5.00
   0  -4  -4  183.88    4.60
   0  -4  -4  188.78    4.80
   0  -4   4  191.88    3.70
   0  -4   4  188.18    4.20
   0  -4  -4  189.98    5.60
   0  -4   4  190.18    4.90
   0  -4   4  193.28    3.80
   0  -4   4  193.68    5.30
   0  -4   4  189.88    4.30
   0  -4  -4  187.38    4.70
   0   4   4  185.38    5.10
   0   4  -4  191.48    5.30
   0   4  -4  185.58    4.50
   0   4  -4  189.58    4.50
   0   4  -4  182.28    4.50
   0   4   4  189.68    5.60
   0   4  -4  188.48    4.30
   0   4   4  187.38    4.50
   0   4  -4  192.98    5.30
   0   4   4  196.98    4.80
   0   4   4  176.48    4.70
   0   4   4  188.98    5.00
   0   4   4  188.08    4.70
   0   4   4  186.98    4.70
   0   4   4  188.28    4.80
   0   4  -4  189.28    4.40
   0   4   4  186.78    4.80
   0   4   4  184.98    5.50
   0   4   4  188.58    4.60
   0   4  -4  186.38    4.70
  -1  -4  -4   41.50    2.20
  -1  -4  -4   45.80    2.50
   1  -4   4   47.60    2.60
  -1  -4  -4   40.60    2.70
  -1  -4  -4   42.40    2.20
  -1  -4  -4   49.40    2.50
   1  -4   4   45.20    2.00
  -1  -4  -4   42.70    2.30
  -1  -4  -4   43.40    2.50
  -1  -4  -4   46.50    2.50
   1  -4   4   45.40    1.60
  -1  -4  -4   44.10    2.30
  -1  -4  -4   45.50    2.40
   1   4   4   43.90    2.30
   1   4   4   42.90    2.60
   1   4   4   44.00    2.30
   1   4   4   43.50    2.20
  -1   4  -4   43.10    1.80
   1   4   4   47.50    2.40
  -1   4  -4   45.20    1.80
   1   4   4   50.89    2.40
  -1   4  -4   43.00    1.80
  -1   4  -4   41.80    1.60
   1   4   4   46.40    2.20
  -1   4  -4   43.00    2.20
   1   4   4   44.70    2.20
   1   4   4   41.70    2.20
   1   4   4   45.40    2.80
  -1   4  -4   45.60    1.80
   1   4   4   40.40    2.20
   2  -4   4   57.69    3.20
  -2  -4  -4   63.39    3.10
  -2  -4  -4   58.89    3.00
  -2  -4  -4   58.79    3.10
   2   4   4   59.49    2.30
  -2   4  -4   59.69    1.90
   2   4   4   60.89    2.80
   2   4   4   61.29    2.30
  -2   4  -4   61.19    2.00
   2   4   4   57.39    2.70
  -3  -4  -4  159.78    5.20
  -3  -4  -4  162.48    5.30
  -3   4  -4  151.58    3.60
   3   4   4  157.78    4.80
  -4  -4  -4   69.09    4.30
  -4  -4  -4   71.39    4.50
   4   4   4   66.19    3.50
  -4   4  -4   63.09    2.70
   3  -5  -4   11.90    1.60
  -3  -5   4    7.70    2.00
   3   5  -4    9.90    2.00
   3   5  -4    9.50    2.00
  -3   5   4    8.00    1.80
   3   5  -4    8.70    2.00
  -2  -5   4    6.70    1.60
   2  -5  -4    6.60    1.40
   2  -5  -4    6.90    0.90
   2  -5  -4    6.50    1.30
  -2  -5   4    5.60    1.50
   2  -5  -4    7.00    1.60
  -2  -5   4    7.80    1.60
  -2  -5   4    5.30    1.50
  -2  -5   4    8.10    1.70
   2   5  -4    8.30    1.60
  -2   5   4    4.90    1.50
   2   5  -4    4.50    1.70
   2   5  -4    7.20    1.80
   2   5  -4    5.80    1.60
   1  -5  -4   19.20    1.90
  -1  -5   4   17.20    1.90
  -1  -5   4   23.40    2.00
   1  -5  -4   20.30    1.50
  -1  -5   4   18.90    2.10
   1  -5  -4   22.30    1.70
   1  -5  -4   17.90    2.10
   1  -5  -4   21.20    1.80
  -1  -5   4   24.80    1.90
  -1  -5   4   18.90    1.60
  -1  -5   4   19.70    1.80
  -1  -5   4   14.60    1.60
   1  -5  -4   21.10    1.80
   1   5  -4   20.80    2.00
   1   5  -4   18.60    1.90
   1   5  -4   20.10    2.00
  -1   5   4   19.20    1.80
  -1   5   4   20.20    2.00
   0  -5  -4  187.68    5.10
   0  -5  -4  190.08    5.10
   0  -5   4  199.58    4.00
   0  -5  -4  198.98    4.90
   0  -5   4  194.38    5.30
   0  -5   4  190.28    5.70
   0  -5   4  192.48    4.00
   0  -5   4  191.68    4.60
   0  -5  -4  191.08    5.20
   0  -5  -4  197.68    5.00
   0  -5  -4  185.58    5.90
   0  -5  -4  191.58    5.40
   0  -5  -4  181.88    5.10
   0   5   4  191.88    5.00
   0   5   4  189.48    5.30
   0   5   4  190.48    5.20
   0   5   4  189.68    5.50
   0   5   4  193.98    5.10
   0   5  -4  186.18    5.00
   0   5   4  193.18    5.20
   0   5   4  185.38    5.10
   0   5  -4  190.78    5.00
  -1  -5  -4    0.90    1.10
   1  -5   4    3.60    0.80
  -1  -5  -4    2.40    1.30
  -1  -5  -4    2.50    1.40
  -1  -5  -4    1.80    1.30
   1  -5   4    2.90    0.70
  -1  -5  -4    0.40    1.30
  -1  -5  -4    2.60    1.20
  -1  -5  -4    1.90    1.30
  -1  -5  -4    2.90    1.30
   1  -5   4    4.10    1.40
   1  -5   4    4.00    1.10
   1   5   4    6.50    1.40
   1   5   4    4.50    1.40
  -1   5  -4    3.00    1.10
   1   5   4    2.50    1.20
   1   5   4    4.10    1.30
  -1   5  -4    4.20    1.00
   1   5   4    1.90    1.30
   1   5   4    4.30    1.40
  -2  -5  -4  105.39    4.30
  -2  -5  -4  115.39    4.40
  -2  -5  -4  111.79    4.20
   2  -5   4  108.39    4.40
   2   5   4  110.09    3.60
  -2   5  -4  107.49    3.20
   2   5   4  106.29    4.10
   2   5   4  105.09    4.00
   3  -5   4    6.70    1.90
  -3  -5  -4    6.50    1.90
  -3  -5  -4    7.90    2.20
  -3   5  -4    6.30    1.20
   3   5   4    7.30    1.70
   3  -6  -4   40.30    2.50
  -3   6   4   34.80    3.00
  -2  -6   4   31.40    2.70
  -2  -6   4   32.60    2.70
  -2  -6   4   35.30    2.80
  -2  -6   4   25.50    2.40
   2  -6  -4   31.90    2.40
  -2   6   4   29.60    2.60
   2   6  -4   32.70    2.90
   1  -6  -4    2.30    1.30
  -1  -6   4    1.60    1.20
  -1  -6   4    1.70    1.10
  -1  -6   4    2.30    1.60
   1  -6  -4   -0.20    1.20
  -1  -6   4    2.00    1.30
  -1  -6   4    0.90    1.10
   1  -6  -4    0.60    1.00
   1  -6  -4    2.80    1.50
   1   6  -4    3.50    1.60
   1   6  -4    2.20    1.40
  -1   6   4   -0.10    1.20
   0  -6  -4   25.10    2.30
   0  -6  -4   21.60    2.00
   0  -6  -4   21.60    2.10
   0  -6   4   25.20    2.20
   0  -6  -4   23.90    2.20
   0  -6  -4   20.80    1.90
   0  -6   4   20.50    1.90
   0  -6   4   24.20    2.50
   0  -6  -4   24.60    2.30
   0   6   4   24.00    2.30
   0   6   4   20.70    2.00
   0   6  -4   25.80    2.30
   1  -6   4   43.10    2.00
  -1  -6  -4   39.10    3.00
  -1  -6  -4   44.10    2.90
  -1  -6  -4   43.10    2.90
   1  -6   4   43.40    3.20
  -1  -6  -4   39.30    2.90
  -1   6  -4   42.90    2.60
   1   6   4   46.40    3.00
   1   6   4   44.70    3.00
   1   6   4   40.70    3.00
   1   6   4   41.40    3.00
  -2  -6  -4   51.29    3.50
  -2  -6  -4   47.80    3.50
   2  -6   4   45.10    3.40
  -2   6  -4   44.90    2.60
   2   6   4   44.80    2.80
   2   6   4   46.00    3.20
   2   6   4   45.30    3.20
  -3  -6  -4   99.79    5.00
  -3  -6  -4   96.29    4.90
   3   6   4  110.29    4.70
  -3   6  -4   95.59    3.60
  -2  -7   4   38.70    3.00
  -2  -7   4   43.50    3.40
   2  -7  -4   31.30    2.50
   2   7  -4   41.30    3.60
  -2   7   4   32.20    2.90
  -1  -7   4   15.90    2.50
  -1  -7   4   19.60    2.20
   1  -7  -4   13.40    2.00
  -1   7   4   15.70    2.20
   1   7  -4   15.70    2.50
   0  -7  -4   32.70    2.80
   0  -7   4   27.90    2.30
   0  -7  -4   32.60    2.60
   0  -7  -4   31.30    2.60
   0  -7   4   37.70    3.30
   0   7  -4   35.00    3.00
   0   7   4   34.30    3.00
  -1  -7  -4   32.70    2.90
   1  -7   4   32.40    2.00
   1  -7   4   30.70    3.00
  -1  -7  -4   31.50    2.60
  -1  -7  -4   38.60    3.00
   1   7   4   34.50    2.90
  -1   7  -4   39.00    2.90
  -2  -7  -4  119.29    5.30
  -2  -7  -4  125.09    5.30
  -2   7  -4  121.19    4.40
   2   7   4  120.49    5.10
   2   7   4  116.09    4.50
  -1  -8   4   49.60    4.20
   1  -8  -4   47.20    3.30
  -1  -8   4   40.70    3.30
  -1   8   4   49.99    3.80
   1   8  -4   48.60    3.90
   0  -8  -4   12.20    1.70
   0  -8  -4   12.00    2.10
   0  -8   4    9.70    2.40
   0  -8   4   10.10    1.80
   0   8  -4   11.20    2.40
   0   8   4    9.30    2.30
   1  -8   4   49.10    2.60
  -1   8  -4   48.10    3.70
  -4   0   5    1.20    1.50
   4   0  -5    3.60    1.40
   3   0  -5   10.40    1.70
   3   0  -5   11.80    1.70
  -3   0   5   11.50    1.60
  -3   0   5   12.20    1.70
   3   0  -5   10.40    1.50
   3   0  -5   11.30    1.50
   2   0  -5  180.78    4.30
   2   0  -5  175.18    5.10
   2   0  -5  175.38    4.60
   2   0  -5  178.28    5.20
  -2   0   5  180.08    4.60
  -2   0   5  181.38    4.40
  -2   0   5  181.28    4.80
   2   0  -5  178.18    4.70
   2   0  -5  172.68    4.50
   2   0  -5  181.28    4.40
  -2   0   5  174.08    5.20
  -2   0   5  183.18    4.50
  -2   0   5  177.58    4.50
   2   0  -5  180.78    4.40
   2   0  -5  182.78    4.50
   2   0  -5  182.38    4.50
  -2   0   5  181.88    4.40
  -2   0   5  182.48    4.80
  -1   0   5   57.99    2.50
   1   0  -5   58.69    2.60
  -1   0   5   63.79    2.10
  -1   0   5   59.79    2.20
   1   0  -5   60.99    2.20
   1   0  -5   59.09    2.30
  -1   0   5   60.09    2.10
  -1   0   5   64.09    2.20
  -1   0   5   62.19    2.10
  -1   0   5   58.59    2.40
  -1   0   5   60.99    2.20
   1   0  -5   60.09    2.10
  -1   0   5   63.89    2.20
   1   0  -5   61.19    2.10
  -1   0   5   58.59    2.10
   1   0  -5   60.99    2.10
   1   0  -5   62.49    2.20
  -1   0   5   59.59    2.10
   1   0  -5   61.89    2.10
   1   0  -5   59.49    2.10
   0   0  -5 4020.20   71.79
   0   0   5 4130.19   71.39
   0   0  -5 4117.29   72.49
   0   0   5 4102.69   64.99
   0   0  -5 4050.59   64.89
   0   0  -5 4062.49   65.69
   0   0  -5 4049.89   65.39
   0   0  -5 3953.30   76.69
   0   0   5 4065.09   77.59
   0   0   5 4093.69   71.89
   0   0  -5 4106.89   64.39
   0   0   5 4053.19   64.89
   0   0   5 3993.90   72.09
   0   0  -5 3993.00   63.69
   0   0   5 4026.20   65.09
   0   0  -5 4059.19   76.79
   0   0   5 4037.00   66.19
   0   0   5 4097.09   77.39
   0   0   5 3965.00   71.29
  -1   0  -5   88.19    2.10
  -1   0  -5   89.39    2.40
   1   0   5   88.29    2.00
  -1   0  -5   91.49    2.00
  -1   0  -5   86.99    2.00
  -1   0  -5   90.99    2.10
  -1   0  -5   89.19    2.00
   1   0   5   90.49    2.90
  -1   0  -5   80.49    2.30
   1   0   5   92.29    2.90
  -2   0  -5  109.19    2.50
  -2   0  -5  112.69    2.60
  -2   0  -5  111.99    2.50
  -2   0  -5  116.19    2.70
  -3   0  -5   62.59    2.20
  -3   0  -5   57.49    2.20
  -4   0  -5 1079.79   19.10
   4  -1  -5   44.00    2.70
  -4  -1   5   41.50    3.30
  -4   1   5   46.90    3.20
   3  -1  -5   12.60    1.40
  -3  -1   5   12.90    1.80
   3  -1  -5   14.60    1.90
   3  -1  -5   12.10    1.60
   3  -1  -5   11.40    1.50
   3  -1  -5   14.80    1.40
   3  -1  -5   13.60    1.40
  -3  -1   5   14.10    1.70
  -3   1   5   10.80    1.40
  -3   1   5   15.70    1.80
   3   1  -5   16.90    1.80
   3   1  -5   14.10    1.40
   3   1  -5   13.80    1.80
   3   1  -5   11.70    1.60
   3   1  -5   14.40    1.50
   2  -1  -5  309.47    6.60
   2  -1  -5  310.97    6.60
   2  -1  -5  319.97    6.50
  -2  -1   5  326.87    6.80
  -2  -1   5  315.97    6.70
  -2  -1   5  326.47    7.00
   2  -1  -5  318.47    6.70
   2  -1  -5  322.97    7.10
  -2  -1   5  313.57    6.70
   2  -1  -5  317.27    6.40
   2  -1  -5  317.57    7.70
  -2  -1   5  323.17    7.40
   2  -1  -5  304.07    6.50
   2  -1  -5  314.57    6.60
   2  -1  -5  316.67    6.70
  -2  -1   5  319.77    6.80
  -2  -1   5  310.17    8.00
  -2  -1   5  318.67    6.70
  -2  -1   5  321.67    7.00
  -2  -1   5  321.67    7.30
   2   1  -5  325.17    6.80
  -2   1   5  319.07    6.70
  -2   1   5  315.67    7.20
   2   1  -5  311.37    6.80
  -2   1   5  324.67    7.90
  -2   1   5  311.67    6.60
   2   1  -5  313.67    7.20
  -2   1   5  310.97    6.60
  -2   1   5  316.57    7.90
  -2   1   5  322.27    6.70
  -2   1   5  310.67    6.90
   2   1  -5  318.87    7.90
  -2   1   5  312.77    6.70
  -2   1   5  314.97    6.80
   2   1  -5  319.77    6.80
   2   1  -5  312.37    6.80
   2   1  -5  315.27    6.80
   2   1  -5  303.47    7.80
   1  -1  -5  283.77    5.80
   1  -1  -5  292.97    6.10
  -1  -1   5  288.37    5.70
  -1  -1   5  282.57    5.70
  -1  -1   5  292.67    6.30
   1  -1  -5  285.37    6.30
   1  -1  -5  293.37    6.90
   1  -1  -5  291.67    5.80
  -1  -1   5  281.57    5.80
  -1  -1   5  286.47    6.00
   1  -1  -5  291.57    5.90
   1  -1  -5  282.17    6.80
  -1  -1   5  286.07    6.90
  -1  -1   5  293.37    5.70
   1  -1  -5  287.37    5.90
  -1  -1   5  280.97    6.40
   1  -1  -5  290.27    6.30
   1  -1  -5  289.07    5.70
  -1  -1   5  282.77    6.20
  -1  -1   5  288.77    5.80
  -1  -1   5  281.37    6.00
  -1  -1   5  286.87    6.80
  -1  -1   5  283.07    5.80
   1   1  -5  291.57    5.80
   1   1  -5  282.17    5.80
  -1   1   5  278.17    6.80
  -1   1   5  284.57    5.70
   1   1  -5  281.97    5.90
  -1   1   5  286.57    6.00
  -1   1   5  292.17    5.80
   1   1  -5  283.37    6.30
  -1   1   5  283.57    6.30
   1   1  -5  291.37    6.30
   1   1  -5  285.17    5.90
   1   1  -5  282.97    6.10
  -1   1   5  288.57    5.80
   1   1  -5  281.67    6.00
  -1   1   5  287.77    5.90
  -1   1   5  283.77    6.80
  -1   1   5  273.87    6.00
  -1   1   5  288.27    6.30
  -1   1   5  283.17    5.90
  -1   1   5  285.97    5.90
   1   1  -5  292.07    5.80
   0  -1   5  777.52   13.40
   0  -1   5  778.72   13.20
   0  -1  -5  790.22   13.50
   0  -1   5  809.12   13.10
   0  -1  -5  805.42   13.50
   0  -1   5  790.42   14.90
   0  -1  -5  804.12   15.00
   0  -1   5  790.52   15.60
   0  -1  -5  787.62   16.10
   0  -1  -5  785.22   13.70
   0  -1  -5  788.32   13.70
   0  -1  -5  768.02   14.90
   0  -1   5  801.82   14.90
   0  -1  -5  806.82   16.10
   0  -1   5  802.62   15.60
   0  -1  -5  817.92   13.70
   0   1   5  819.52   13.40
   0   1  -5  786.82   15.80
   0   1  -5  804.92   14.70
   0   1   5  808.12   16.00
   0   1  -5  815.62   15.90
   0   1   5  809.12   14.40
   0   1  -5  777.82   13.50
   0   1  -5  802.92   13.30
   0   1  -5  792.22   13.50
   0   1  -5  791.92   13.50
   0   1   5  818.32   13.70
   0   1  -5  808.32   13.30
   0   1   5  804.62   16.00
   0   1   5  788.72   13.40
   0   1   5  812.42   13.70
   0   1   5  815.92   14.90
   0   1   5  798.92   13.60
   0   1   5  779.92   14.30
   0   1  -5  825.02   14.70
   0   1   5  809.22   13.50
   0   1   5  784.92   14.80
   0   1   5  816.82   14.40
   1  -1   5 2099.29   37.70
  -1  -1  -5 2146.89   40.40
  -1  -1  -5 2121.69   33.80
  -1  -1  -5 2037.20   40.40
  -1  -1  -5 2131.29   34.50
  -1  -1  -5 2098.89   34.00
   1  -1   5 2066.89   37.20
  -1  -1  -5 2164.88   34.10
  -1  -1  -5 2075.69   37.70
  -1  -1  -5 2116.89   34.40
  -1  -1  -5 2095.19   34.40
   1   1   5 2157.28   40.10
   1   1   5 2149.28   33.70
   1   1   5 2101.19   33.60
   1   1   5 2137.79   34.40
   1   1   5 2063.69   40.10
   1   1   5 2136.39   34.30
   1   1   5 2119.89   34.20
  -2  -1  -5  386.66    8.30
  -2  -1  -5  420.56    7.70
  -2  -1  -5  408.56    7.50
   2  -1   5  416.16    9.30
  -2  -1  -5  422.76    7.90
  -2  -1  -5  422.06    9.10
  -2  -1  -5  416.16    7.80
  -2  -1  -5  427.96    7.90
   2   1   5  422.56    7.60
   2   1   5  423.86    7.30
   2   1   5  414.96    7.30
  -3  -1  -5    9.40    1.30
  -3   1  -5    9.70    0.90
  -4  -1  -5   35.30    2.70
  -4   1  -5   34.80    2.20
  -4  -2   5   97.59    4.40
   4  -2  -5   91.69    3.50
   4   2  -5   89.79    4.10
  -4   2   5   93.19    4.10
  -3  -2   5   29.80    2.30
   3  -2  -5   29.30    1.80
   3  -2  -5   30.40    2.40
   3  -2  -5   29.00    1.70
  -3  -2   5   33.70    2.60
   3  -2  -5   31.10    2.40
   3  -2  -5   30.40    1.70
   3  -2  -5   30.50    1.60
   3  -2  -5   31.00    2.20
  -3   2   5   27.90    2.10
  -3   2   5   29.90    2.40
   3   2  -5   30.00    2.40
   3   2  -5   28.30    2.50
   3   2  -5   26.60    2.30
   3   2  -5   28.70    2.20
   3   2  -5   30.50    2.70
  -2  -2   5  316.27    6.90
  -2  -2   5  326.07    7.60
  -2  -2   5  322.47    7.10
  -2  -2   5  331.57    7.00
   2  -2  -5  336.97    7.20
  -2  -2   5  331.17    7.10
  -2  -2   5  342.17    7.30
   2  -2  -5  328.37    6.50
   2  -2  -5  320.47    6.90
   2  -2  -5  333.17    6.50
  -2  -2   5  338.47    7.10
  -2  -2   5  330.17    7.30
   2  -2  -5  324.87    6.60
   2  -2  -5  307.67    6.60
   2  -2  -5  322.37    6.80
  -2  -2   5  332.47    8.40
   2  -2  -5  321.57    7.20
  -2  -2   5  340.17    7.70
   2  -2  -5  322.27    6.60
   2  -2  -5  329.97    7.90
   2  -2  -5  316.27    6.80
  -2   2   5  324.77    8.10
  -2   2   5  316.17    6.50
  -2   2   5  323.37    7.00
  -2   2   5  322.57    6.90
  -2   2   5  310.37    7.10
   2   2  -5  330.87    7.20
   2   2  -5  331.57    8.30
  -2   2   5  322.57    6.90
  -2   2   5  327.87    7.00
   2   2  -5  319.07    7.60
   2   2  -5  326.17    7.20
  -2   2   5  313.07    7.50
   2   2  -5  326.57    7.10
   2   2  -5  325.27    8.30
  -2   2   5  320.67    6.80
  -2   2   5  313.27    8.10
   2   2  -5  332.07    7.60
   2   2  -5  329.27    7.10
   2   2  -5  327.17    6.90
  -1  -2   5 1271.27   21.60
  -1  -2   5 1293.47   21.20
   1  -2  -5 1289.07   22.90
   1  -2  -5 1298.07   21.30
  -1  -2   5 1258.17   21.70
  -1  -2   5 1275.17   22.80
  -1  -2   5 1289.57   23.70
   1  -2  -5 1289.97   23.70
   1  -2  -5 1268.17   21.60
   1  -2  -5 1277.37   21.30
   1  -2  -5 1270.87   23.70
   1  -2  -5 1268.97   25.40
  -1  -2   5 1268.47   21.50
   1  -2  -5 1153.88   21.50
   1  -2  -5 1313.57   21.70
   1  -2  -5 1270.67   23.00
  -1  -2   5 1300.07   21.30
   1  -2  -5 1239.78   21.70
  -1  -2   5 1276.87   21.30
  -1  -2   5 1254.57   25.40
  -1  -2   5 1272.07   22.80
   1  -2  -5 1269.07   25.40
  -1   2   5 1279.67   21.30
   1   2  -5 1311.37   23.80
  -1   2   5 1258.97   21.70
   1   2  -5 1295.97   25.60
   1   2  -5 1275.27   21.70
  -1   2   5 1263.17   23.80
  -1   2   5 1275.17   21.60
  -1   2   5 1268.37   21.70
   1   2  -5 1237.78   23.80
  -1   2   5 1257.07   25.40
  -1   2   5 1286.17   21.40
   1   2  -5 1299.67   23.20
   1   2  -5 1281.37   21.40
  -1   2   5 1279.77   23.70
   1   2  -5 1278.37   23.10
   1   2  -5 1278.77   21.40
   1   2  -5 1253.77   21.70
  -1   2   5 1255.77   23.00
  -1   2   5 1268.37   22.60
  -1   2   5 1300.37   23.10
   1   2  -5 1290.67   21.70
   1   2  -5 1245.78   25.40
   0  -2  -5 1837.22   32.70
   0  -2   5 1871.81   33.20
   0  -2   5 1840.22   32.90
   0  -2   5 1878.71   29.60
   0  -2   5 1770.82   30.10
   0  -2  -5 1900.31   33.70
   0  -2   5 1840.62   35.20
   0  -2   5 1775.72   29.60
   0  -2  -5 1837.32   30.70
   0  -2  -5 1839.42   30.60
   0  -2  -5 1859.41   30.10
   0  -2  -5 1859.01   30.30
   0  -2  -5 1887.31   36.10
   0  -2   5 1910.21   35.30
   0  -2  -5 1864.11   30.70
   0  -2  -5 1817.42   30.30
   0  -2  -5 1810.32   33.60
   0   2   5 1832.92   36.00
   0   2   5 1873.31   30.10
   0   2   5 1895.11   30.10
   0   2  -5 1800.02   30.30
   0   2  -5 1830.52   29.90
   0   2  -5 1857.91   30.30
   0   2   5 1832.92   30.30
   0   2  -5 1852.21   30.30
   0   2  -5 1823.12   29.70
   0   2   5 1860.21   30.60
   0   2   5 1856.91   35.90
   0   2   5 1859.51   32.70
   0   2   5 1889.21   30.70
   0   2   5 1842.92   32.60
   0   2   5 1861.21   30.50
   0   2  -5 1839.12   33.20
   0   2  -5 1912.61   35.60
   0   2   5 1867.61   33.60
   0   2   5 1803.72   33.50
  -1  -2  -5  135.49    3.50
  -1  -2  -5  139.89    3.40
   1  -2   5  136.49    3.70
  -1  -2  -5  136.49    4.10
  -1  -2  -5  137.39    3.50
  -1  -2  -5  129.99    3.40
  -1  -2  -5  134.59    3.40
   1  -2   5  136.09    4.00
  -1  -2  -5  137.79    3.70
  -1  -2  -5  139.29    3.30
  -1  -2  -5  143.89    4.10
  -1  -2  -5  139.59    3.60
   1   2   5  138.29    3.10
   1   2   5  136.39    3.90
   1   2   5  131.19    3.30
   1   2   5  140.59    3.40
   1   2   5  141.39    3.90
   1   2   5  139.69    3.50
   1   2   5  143.19    3.30
   1   2   5  143.59    3.40
   1   2   5  137.79    3.50
  -2  -2  -5  122.69    3.50
   2  -2   5  115.49    4.10
  -2  -2  -5  119.09    3.30
  -2  -2  -5  113.69    3.40
  -2  -2  -5  120.89    4.00
  -2  -2  -5  115.69    4.30
  -2  -2  -5  115.19    3.40
  -2  -2  -5  116.19    3.50
   2   2   5  118.79    3.10
   2   2   5  123.09    3.30
   2   2   5  122.09    3.10
   2   2   5  114.59    3.40
   2   2   5  117.29    3.30
  -3  -2  -5   42.70    2.60
   3   2   5   45.00    2.10
  -4  -2  -5   35.30    2.80
  -4  -2  -5   37.60    3.10
  -4   2  -5   38.20    2.00
   4  -3  -5  104.19    3.80
  -4  -3   5  111.59    4.90
  -4   3   5  116.49    4.60
   4   3  -5  105.89    4.60
  -3  -3   5  939.31   17.30
   3  -3  -5  918.01   19.00
  -3  -3   5  907.41   17.40
   3  -3  -5  898.11   19.00
   3  -3  -5  893.51   16.40
   3  -3  -5  884.41   15.30
  -3   3   5  890.51   16.90
   3   3  -5  908.21   17.50
   3   3  -5  927.81   18.60
   3   3  -5  909.31   17.10
   2  -3  -5  107.29    3.30
   2  -3  -5  111.19    3.10
  -2  -3   5  113.09    3.90
   2  -3  -5  117.59    3.20
  -2  -3   5  106.49    3.70
   2  -3  -5  108.79    3.50
   2  -3  -5  107.69    3.30
   2  -3  -5  107.29    3.30
  -2  -3   5  111.29    3.70
   2  -3  -5  107.99    3.40
  -2  -3   5  104.99    3.60
   2  -3  -5  108.69    3.90
  -2  -3   5  106.29    3.60
  -2  -3   5  114.19    3.70
  -2   3   5  112.89    3.50
   2   3  -5  113.29    3.80
  -2   3   5   98.69    4.00
   2   3  -5  105.99    3.70
   2   3  -5  109.89    3.90
   2   3  -5  101.19    4.30
   2   3  -5  113.39    3.90
  -2   3   5  109.29    3.50
   2   3  -5  110.39    3.90
   1  -3  -5   10.70    1.20
  -1  -3   5   10.50    1.20
   1  -3  -5    7.80    1.10
   1  -3  -5   10.60    1.50
   1  -3  -5    9.90    1.50
   1  -3  -5    8.30    1.00
   1  -3  -5   10.20    1.20
   1  -3  -5   10.50    1.10
  -1  -3   5    8.20    1.10
  -1  -3   5    8.00    1.10
  -1  -3   5    7.30    1.30
   1  -3  -5   10.10    1.20
  -1  -3   5    9.70    1.10
  -1  -3   5    9.80    1.20
   1  -3  -5    8.40    1.20
  -1  -3   5   10.80    1.20
  -1  -3   5    9.80    1.10
  -1  -3   5    7.10    1.10
  -1  -3   5    9.40    1.20
   1  -3  -5   11.00    1.30
   1  -3  -5    9.40    1.20
  -1  -3   5    7.80    1.10
  -1   3   5    9.60    1.10
   1   3  -5   10.30    1.30
   1   3  -5    9.00    1.20
  -1   3   5   10.30    1.30
  -1   3   5   10.90    1.30
  -1   3   5   11.60    1.30
   1   3  -5    7.90    1.20
  -1   3   5    8.50    1.10
   1   3  -5    8.70    1.50
  -1   3   5    8.20    1.20
   1   3  -5    7.90    1.20
  -1   3   5    7.00    1.10
  -1   3   5    7.60    1.00
   1   3  -5    9.40    1.20
  -1   3   5    8.20    1.30
   1   3  -5    9.00    1.50
   0  -3   5  172.38    3.70
   0  -3  -5  176.78    5.00
   0  -3  -5  171.88    4.30
   0  -3  -5  174.88    4.40
   0  -3  -5  178.08    4.20
   0  -3   5  174.78    4.80
   0  -3   5  174.88    3.90
   0  -3  -5  176.88    4.30
   0  -3   5  166.08    3.80
   0  -3  -5  172.38    4.60
   0  -3   5  173.68    4.20
   0  -3  -5  168.78    4.30
   0  -3  -5  170.28    5.10
   0  -3   5  174.78    4.30
   0  -3  -5  179.28    4.30
   0  -3  -5  169.88    4.20
   0  -3   5  173.68    3.80
   0  -3   5  176.08    4.60
   0   3   5  175.28    4.30
   0   3  -5  174.18    4.00
   0   3  -5  178.88    4.70
   0   3   5  180.08    4.10
   0   3  -5  169.88    3.80
   0   3   5  179.08    5.00
   0   3  -5  177.68    4.70
   0   3  -5  174.58    3.90
   0   3   5  171.38    5.00
   0   3  -5  171.58    4.00
   0   3   5  172.48    4.50
   0   3   5  167.48    4.50
   0   3   5  165.48    4.30
   0   3  -5  178.18    3.90
   0   3   5  179.18    4.30
   0   3  -5  172.78    4.20
   0   3   5  171.78    4.10
   0   3   5  173.58    4.20
   0   3   5  176.08    4.30
   1  -3   5  340.07    7.40
  -1  -3  -5  351.86    7.80
  -1  -3  -5  351.26    8.50
  -1  -3  -5  348.07    7.30
   1  -3   5  347.47    8.00
  -1  -3  -5  349.37    7.10
  -1  -3  -5  354.66    7.20
  -1  -3  -5  347.27    8.50
  -1  -3  -5  351.36    7.30
  -1  -3  -5  339.97    7.40
  -1  -3  -5  355.26    7.40
  -1  -3  -5  338.67    7.00
   1   3   5  366.16    7.10
   1   3   5  360.66    7.10
   1   3   5  350.26    7.60
   1   3   5  342.57    7.50
   1   3   5  350.76    7.20
   1   3   5  357.46    8.30
   1   3   5  344.97    6.90
   1   3   5  359.36    7.10
  -1   3  -5  337.67    6.20
   1   3   5  352.66    6.80
   1   3   5  349.77    7.30
  -1   3  -5  331.97    6.20
  -1   3  -5  346.97    6.40
  -1   3  -5  356.66    6.40
   1   3   5  346.17    8.30
   1   3   5  353.96    7.10
   1   3   5  341.97    7.00
  -1   3  -5  354.66    7.40
   2  -3   5   35.30    2.70
   2  -3   5   36.90    2.00
  -2  -3  -5   36.20    2.40
  -2  -3  -5   37.80    2.80
  -2  -3  -5   38.70    2.40
   2   3   5   36.50    2.50
   2   3   5   39.60    1.80
   2   3   5   41.70    2.40
   2   3   5   40.70    2.20
   2   3   5   36.70    1.80
  -3  -3  -5   73.49    3.40
   3   3   5   73.69    3.00
   3   3   5   70.29    2.90
  -4  -3  -5    4.00    1.80
  -4  -3  -5    0.40    1.70
   4   3   5    0.40    1.10
  -4  -4   5  139.19    5.60
   4  -4  -5  138.99    4.30
   4   4  -5  135.99    5.40
  -4   4   5  138.49    5.20
   3  -4  -5   15.10    1.70
  -3  -4   5   18.70    2.30
   3   4  -5   14.60    2.20
   3   4  -5   18.10    2.30
   3   4  -5   15.20    2.20
  -3   4   5   16.90    2.10
  -2  -4   5   90.79    3.60
  -2  -4   5   98.59    3.70
  -2  -4   5   98.59    3.70
   2  -4  -5   95.59    3.00
  -2  -4   5   92.59    3.60
   2  -4  -5   90.59    3.30
   2  -4  -5   91.19    3.10
   2  -4  -5   87.49    3.80
  -2  -4   5   96.89    3.80
  -2  -4   5   93.49    3.70
   2  -4  -5   93.89    3.80
   2   4  -5   98.79    3.90
   2   4  -5   93.59    3.90
  -2   4   5   93.89    3.40
   2   4  -5  101.09    4.00
   2   4  -5   92.39    3.80
   1  -4  -5   96.19    3.80
   1  -4  -5   97.69    3.40
   1  -4  -5   95.29    3.10
  -1  -4   5   99.19    3.10
   1  -4  -5   95.89    3.80
  -1  -4   5   93.09    3.30
  -1  -4   5   96.89    3.20
   1  -4  -5   99.09    3.10
   1  -4  -5   97.49    3.10
  -1  -4   5   94.69    2.90
  -1  -4   5   99.49    3.00
   1  -4  -5   96.59    3.10
  -1  -4   5   99.69    3.30
   1  -4  -5   98.79    3.30
  -1  -4   5   99.29    3.30
  -1  -4   5   94.99    3.10
   1  -4  -5   99.59    3.30
  -1  -4   5   96.09    3.80
   1  -4  -5   97.49    3.40
  -1  -4   5   95.49    3.00
  -1   4   5  102.09    3.30
  -1   4   5   93.89    3.80
  -1   4   5   95.59    3.40
   1   4  -5   97.39    4.00
  -1   4   5   99.49    3.30
   1   4  -5   96.99    3.30
   1   4  -5   96.09    3.50
  -1   4   5   97.29    3.50
   1   4  -5  102.69    3.50
   1   4  -5   92.09    4.00
  -1   4   5  104.59    3.40
  -1   4   5  100.99    3.30
  -1   4   5  101.29    3.20
   0  -4   5  980.80   16.70
   0  -4  -5 1009.50   17.50
   0  -4   5  993.30   19.30
   0  -4  -5  979.70   17.50
   0  -4  -5 1000.60   17.50
   0  -4   5 1017.10   19.80
   0  -4  -5  995.00   19.30
   0  -4  -5  980.50   19.30
   0  -4  -5  987.80   20.90
   0  -4  -5  951.30   17.70
   0  -4   5  964.80   16.80
   0  -4  -5 1001.30   17.80
   0  -4  -5  978.30   17.80
   0  -4   5  993.10   18.90
   0  -4  -5  962.00   20.70
   0   4   5 1006.10   17.80
   0   4   5  990.90   17.70
   0   4   5  967.80   19.30
   0   4  -5 1014.30   20.40
   0   4  -5  992.70   17.00
   0   4   5 1007.20   19.40
   0   4   5  997.70   17.80
   0   4  -5  981.50   18.90
   0   4   5  975.70   20.70
   0   4   5  977.60   18.60
   0   4  -5 1014.40   20.50
   0   4   5  995.30   17.50
   0   4  -5 1000.90   17.10
   0   4   5 1014.00   17.40
   0   4  -5  985.30   17.30
   0   4  -5  997.10   17.40
   0   4   5  983.90   20.90
   0   4  -5  990.90   17.40
   0   4   5  990.60   17.50
  -1  -4  -5   37.60    2.40
  -1  -4  -5   39.30    2.30
  -1  -4  -5   34.10    2.30
  -1  -4  -5   38.10    2.50
  -1  -4  -5   35.60    2.70
   1  -4   5   36.70    2.00
  -1  -4  -5   38.50    2.40
  -1  -4  -5   40.40    2.50
  -1  -4  -5   34.50    2.40
  -1  -4  -5   38.20    2.20
   1  -4   5   39.10    2.70
  -1   4  -5   39.10    1.80
   1   4   5   39.50    2.60
   1   4   5   34.90    2.10
  -1   4  -5   39.40    1.70
   1   4   5   38.40    2.10
   1   4   5   39.70    2.30
  -1   4  -5   36.80    1.50
  -1   4  -5   37.10    1.80
   1   4   5   36.30    2.20
   1   4   5   39.10    2.10
   1   4   5   35.90    2.70
  -1   4  -5   38.20    1.70
   1   4   5   40.50    2.20
   1   4   5   38.50    2.30
  -2  -4  -5   76.29    3.40
   2  -4   5   74.99    3.70
  -2  -4  -5   79.59    3.50
   2   4   5   77.89    3.20
   2   4   5   74.09    3.70
  -2   4  -5   72.99    2.20
   2   4   5   78.09    3.00
  -3  -4  -5   56.49    3.50
  -3  -4  -5   47.40    3.30
   3  -4   5   47.70    3.60
  -3   4  -5   52.59    1.90
   3   4   5   52.69    3.00
  -4  -4  -5   24.50    3.10
  -4  -4  -5   24.60    2.90
   4   4   5   26.30    2.40
  -3  -5   5   22.40    2.50
   3  -5  -5   16.30    1.80
  -3   5   5   15.00    2.10
   3   5  -5   14.70    2.30
   3   5  -5   24.20    2.70
   2  -5  -5    5.90    1.70
  -2  -5   5    5.40    1.50
  -2  -5   5    6.20    1.60
  -2  -5   5    7.10    1.70
  -2  -5   5    6.20    1.60
   2  -5  -5    5.80    1.40
  -2  -5   5    5.20    1.50
   2  -5  -5    6.00    1.10
   2   5  -5    6.60    1.60
  -2   5   5    4.60    1.50
   2   5  -5    4.70    1.70
   1  -5  -5  113.19    3.30
  -1  -5   5  109.79    3.80
   1  -5  -5  116.39    4.50
   1  -5  -5  116.99    3.50
  -1  -5   5  115.99    3.30
   1  -5  -5  117.39    3.60
  -1  -5   5  112.59    3.80
  -1  -5   5  119.39    3.60
   1  -5  -5  115.59    3.90
   1  -5  -5  119.89    3.70
  -1  -5   5  115.69    3.40
   1  -5  -5  110.19    3.90
   1   5  -5  116.19    4.10
  -1   5   5  119.19    4.10
   1   5  -5  118.49    4.20
   0  -5  -5   97.79    3.60
   0  -5  -5   99.79    3.50
   0  -5  -5  105.39    3.70
   0  -5  -5  106.19    3.90
   0  -5   5  100.49    3.20
   0  -5  -5  100.49    3.80
   0  -5   5  104.89    3.90
   0  -5  -5  101.69    3.80
   0  -5   5  104.79    3.60
   0  -5   5  105.99    4.30
   0  -5  -5  102.79    3.70
   0   5   5  111.29    4.00
   0   5   5  108.29    3.70
   0   5  -5  104.69    3.50
   0   5   5   99.49    3.70
   0   5   5  109.19    3.80
   0   5   5   96.49    3.70
   0   5  -5  100.29    3.50
   0   5   5  107.19    3.80
   0   5   5   96.29    3.60
  -1  -5  -5   53.89    3.10
  -1  -5  -5   49.30    2.90
   1  -5   5   52.49    2.50
   1  -5   5   52.59    3.20
  -1  -5  -5   52.99    3.00
  -1  -5  -5   47.80    2.90
  -1  -5  -5   47.20    2.80
  -1   5  -5   49.30    2.40
   1   5   5   51.49    2.70
   1   5   5   52.09    2.70
  -1   5  -5   53.09    2.40
   1   5   5   45.80    2.80
   1   5   5   54.69    2.90
   1   5   5   51.99    2.90
  -2  -5  -5  548.45   11.50
  -2  -5  -5  546.75   11.80
   2  -5   5  538.25   12.20
  -2  -5  -5  521.95   11.30
   2   5   5  534.25   11.70
  -2   5  -5  528.35   10.00
   2   5   5  533.75   10.70
   2   5   5  513.25   10.50
   2   5   5  551.64   13.40
   2   5   5  544.55   11.20
  -3  -5  -5   18.10    2.50
   3  -5   5   15.50    2.50
  -3  -5  -5   14.80    2.40
  -3   5  -5   16.80    1.50
   3   5   5   16.50    2.20
   3  -6  -5   14.10    1.80
  -3   6   5   12.60    2.20
  -2  -6   5   11.80    2.00
  -2  -6   5    8.70    1.70
   2  -6  -5   10.10    1.70
  -2  -6   5    7.70    1.90
  -2   6   5   11.20    1.90
   2   6  -5   12.50    2.20
   1  -6  -5   38.70    2.70
   1  -6  -5   40.70    3.10
   1  -6  -5   42.00    2.20
  -1  -6   5   41.70    3.50
   1  -6  -5   39.60    2.30
  -1  -6   5   44.50    2.60
   1  -6  -5   40.10    2.50
  -1  -6   5   41.40    2.80
   1   6  -5   39.80    3.20
  -1   6   5   41.30    2.90
   0  -6   5  171.48    5.90
   0  -6  -5  169.48    5.10
   0  -6  -5  176.08    5.30
   0  -6  -5  172.98    4.80
   0  -6   5  178.58    5.10
   0  -6   5  170.98    4.60
   0  -6  -5  165.08    5.10
   0  -6  -5  169.48    5.30
   0  -6  -5  172.48    5.20
   0   6   5  179.18    5.30
   0   6  -5  171.68    5.10
   0   6   5  164.68    5.30
  -1  -6  -5   26.60    2.50
   1  -6   5   25.60    1.50
  -1  -6  -5   24.90    2.40
   1  -6   5   23.90    2.50
  -1  -6  -5   22.10    2.20
   1   6   5   20.10    2.20
   1   6   5   25.80    2.50
   1   6   5   28.30    2.50
   1   6   5   28.80    2.50
  -1   6  -5   24.30    2.20
   1   6   5   23.10    2.20
  -2  -6  -5   51.49    3.70
   2  -6   5   51.89    3.80
  -2  -6  -5   50.29    3.50
   2   6   5   53.29    2.90
   2   6   5   51.39    3.40
  -2   6  -5   52.79    2.70
   2   6   5   52.39    3.60
  -3  -6  -5   83.69    4.80
  -3  -6  -5   80.49    4.80
   3  -6   5   73.89    4.60
   3   6   5   77.29    4.20
  -3   6  -5   72.89    3.10
  -2  -7   5   31.60    2.70
  -2  -7   5   35.90    3.00
   2  -7  -5   28.20    2.50
   2   7  -5   31.20    3.40
  -2   7   5   33.30    3.10
  -1  -7   5   11.80    2.50
  -1  -7   5    9.30    1.90
   1  -7  -5   10.40    1.80
   1   7  -5   10.50    2.20
  -1   7   5   10.70    2.10
   0  -7  -5   27.80    2.70
   0  -7   5   24.20    2.10
   0  -7  -5   21.70    2.20
   0  -7  -5   28.90    2.60
   0  -7   5   30.10    2.80
   0  -7   5   28.30    3.10
   0   7   5   26.70    2.60
   0   7  -5   27.50    2.70
  -1  -7  -5  116.49    4.50
   1  -7   5  112.89    5.10
   1  -7   5  109.79    3.10
   1   7   5  112.79    4.90
  -1   7  -5  113.79    4.40
  -2  -7  -5   15.40    2.50
  -2  -7  -5   10.30    2.40
   2  -7   5   11.10    2.40
   2   7   5   11.40    2.00
  -2   7  -5   14.90    2.00
   2   7   5   12.40    2.20
  -1  -8   5  149.49    5.40
   1  -8  -5  157.08    5.50
  -1  -8   5  157.58    6.70
  -1   8   5  157.68    6.00
   1   8  -5  163.68    6.40
   0  -8   5   19.70    2.90
   0  -8   5   20.40    2.20
   0  -8  -5   14.70    2.10
   0  -8  -5   20.20    2.50
   0   8   5   22.10    2.70
   0   8  -5   16.50    2.70
  -1   8  -5   12.60    2.30
   4   0  -6   11.70    1.80
  -4   0   6   11.30    2.00
  -3   0   6  115.19    3.90
   3   0  -6  116.49    3.40
   3   0  -6  110.49    3.90
   3   0  -6  111.89    3.30
   3   0  -6  116.19    3.90
   3   0  -6  112.89    4.40
  -3   0   6  114.09    3.90
  -2   0   6  138.09    3.90
  -2   0   6  140.39    4.20
  -2   0   6  138.19    4.60
   2   0  -6  139.19    3.80
   2   0  -6  133.99    3.90
  -2   0   6  136.39    4.00
   2   0  -6  138.79    3.90
  -2   0   6  135.69    4.00
   2   0  -6  137.39    4.00
   2   0  -6  142.09    3.90
   2   0  -6  136.79    4.50
   2   0  -6  135.19    3.80
   2   0  -6  141.69    4.10
  -2   0   6  139.69    4.00
  -2   0   6  133.09    3.90
  -2   0   6  136.69    3.80
  -2   0   6  136.99    4.10
  -2   0   6  136.19    3.90
   2   0  -6  138.79    3.90
   1   0  -6  124.49    3.40
  -1   0   6  131.69    3.40
  -1   0   6  134.39    3.60
   1   0  -6  131.89    4.10
   1   0  -6  125.39    3.60
   1   0  -6  131.39    3.40
   1   0  -6  130.59    3.60
   1   0  -6  129.19    3.40
  -1   0   6  130.69    3.50
  -1   0   6  129.29    3.30
   1   0  -6  129.59    3.40
   1   0  -6  129.29    3.50
  -1   0   6  126.29    3.90
  -1   0   6  123.89    3.30
   1   0  -6  126.19    3.40
  -1   0   6  124.99    3.40
  -1   0   6  127.49    3.60
  -1   0   6  133.19    4.00
   1   0  -6  132.39    3.50
  -1   0   6  131.09    3.30
   0   0  -6  515.85    9.30
   0   0  -6  523.35    9.40
   0   0  -6  518.05   10.90
   0   0  -6  530.55   10.10
   0   0   6  523.85    9.80
   0   0  -6  511.15    9.10
   0   0  -6  505.45    9.30
   0   0   6  521.45    8.90
   0   0   6  514.15   10.30
   0   0  -6  538.25   11.00
   0   0   6  525.85    9.10
   0   0   6  526.05   10.10
   0   0   6  518.75    9.80
   0   0  -6  532.75    9.20
   0   0   6  522.05   10.80
   0   0   6  525.05   10.80
   0   0  -6  531.65   10.10
   0   0   6  523.95    9.30
   0   0   6  521.15    9.10
   1   0   6  898.01   14.90
  -1   0  -6  896.71   14.80
  -1   0  -6  907.61   17.60
  -1   0  -6  898.61   15.10
  -1   0  -6  865.31   15.00
   1   0   6  890.01   17.00
  -1   0  -6  917.71   15.10
   1   0   6  926.21   17.10
  -1   0  -6  929.11   14.70
  -1   0  -6  870.01   17.60
   1   0   6  918.01   14.90
  -1   0  -6  885.71   14.90
  -2   0  -6   28.70    1.30
  -2   0  -6   31.30    1.40
  -2   0  -6   28.80    1.30
  -2   0  -6   29.00    1.40
  -3   0  -6  520.85    9.60
  -4   0  -6   22.00    2.00
  -4  -1   6   25.10    2.70
   4  -1  -6   26.00    2.40
  -4   1   6   27.00    2.70
   4   1  -6   24.10    2.40
   3  -1  -6  290.87    6.20
   3  -1  -6  292.37    6.80
   3  -1  -6  286.27    6.90
  -3  -1   6  293.87    7.00
  -3  -1   6  288.87    7.00
   3  -1  -6  283.17    7.60
  -3   1   6  285.87    6.90
   3   1  -6  289.27    6.50
   3   1  -6  291.57    7.20
   3   1  -6  286.47    6.60
   3   1  -6  296.47    7.00
  -3   1   6  284.07    6.70
  -3   1   6  287.67    6.90
   3   1  -6  273.57    7.80
   2  -1  -6  697.63   14.10
  -2  -1   6  708.43   15.60
   2  -1  -6  725.83   13.10
  -2  -1   6  702.13   15.50
   2  -1  -6  712.53   13.00
   2  -1  -6  680.63   13.10
   2  -1  -6  716.73   13.20
   2  -1  -6  708.03   13.20
   2  -1  -6  697.93   15.30
   2  -1  -6  718.33   13.60
  -2  -1   6  712.33   13.80
  -2  -1   6  707.13   13.10
  -2  -1   6  726.03   14.50
   2  -1  -6  721.03   13.50
  -2  -1   6  695.13   13.00
  -2  -1   6  720.33   13.30
  -2  -1   6  706.63   13.10
  -2  -1   6  702.43   13.30
  -2  -1   6  715.03   13.90
  -2  -1   6  718.73   14.40
  -2   1   6  720.73   13.10
  -2   1   6  713.73   15.50
  -2   1   6  718.83   13.20
   2   1  -6  711.03   13.80
   2   1  -6  719.23   13.20
  -2   1   6  719.73   13.60
   2   1  -6  714.83   13.00
   2   1  -6  707.53   13.30
  -2   1   6  704.23   13.80
   2   1  -6  706.43   13.10
   2   1  -6  703.83   15.50
   2   1  -6  720.83   14.40
  -2   1   6  701.43   14.30
  -2   1   6  713.63   13.10
   2   1  -6  694.73   15.50
   2   1  -6  697.03   14.30
  -2   1   6  711.93   13.00
  -2   1   6  723.23   13.30
  -1  -1   6  231.88    5.10
   1  -1  -6  230.88    6.00
  -1  -1   6  235.98    5.00
   1  -1  -6  224.28    5.40
  -1  -1   6  232.58    5.60
   1  -1  -6  236.08    5.30
  -1  -1   6  228.18    5.10
   1  -1  -6  240.18    5.20
  -1  -1   6  235.58    5.10
   1  -1  -6  258.57    5.20
  -1  -1   6  230.98    5.30
  -1  -1   6  227.78    4.90
  -1  -1   6  229.78    5.00
  -1  -1   6  239.68    5.20
   1  -1  -6  233.98    5.00
  -1  -1   6  234.28    6.00
   1  -1  -6  226.28    5.10
  -1  -1   6  237.58    5.00
  -1  -1   6  225.88    5.40
   1  -1  -6  242.08    6.10
   1  -1  -6  229.38    5.10
  -1  -1   6  232.98    5.90
   1  -1  -6  231.48    5.20
   1  -1  -6  233.38    5.50
  -1   1   6  234.78    5.10
   1   1  -6  222.88    5.50
  -1   1   6  230.48    5.40
  -1   1   6  235.68    5.10
   1   1  -6  228.38    5.40
   1   1  -6  234.88    5.30
  -1   1   6  228.88    5.20
  -1   1   6  234.28    6.00
  -1   1   6  234.08    5.50
   1   1  -6  231.68    5.00
   1   1  -6  228.88    5.10
  -1   1   6  227.18    5.20
   1   1  -6  227.38    5.10
  -1   1   6  221.28    4.80
  -1   1   6  230.78    6.00
   1   1  -6  231.38    5.20
  -1   1   6  227.48    5.00
   1   1  -6  225.08    5.10
  -1   1   6  228.98    5.20
  -1   1   6  230.58    5.00
   1   1  -6  231.78    5.10
   0  -1   6    8.90    0.90
   0  -1   6   10.30    0.90
   0  -1  -6    7.50    1.00
   0  -1  -6   10.40    1.10
   0  -1   6    9.50    1.20
   0  -1   6   11.50    1.30
   0  -1   6    8.90    1.00
   0  -1  -6   10.10    1.40
   0  -1   6    9.60    0.90
   0  -1  -6    9.10    1.10
   0  -1  -6    8.10    1.10
   0  -1  -6    6.90    1.00
   0  -1  -6    8.10    1.10
   0  -1  -6    8.90    1.00
   0  -1  -6    8.00    1.10
   0   1   6    7.70    0.90
   0   1   6    8.60    0.90
   0   1   6    9.00    0.90
   0   1  -6    8.80    0.90
   0   1  -6    8.20    0.90
   0   1   6    8.00    1.00
   0   1   6    9.70    1.20
   0   1   6    8.20    1.00
   0   1   6   11.00    1.00
   0   1   6    9.90    1.30
   0   1  -6    8.00    0.90
   0   1   6   11.80    1.30
   0   1  -6    7.40    0.90
   0   1  -6    8.00    0.90
   0   1   6    8.40    1.00
   0   1   6    6.00    0.80
   0   1  -6    9.00    1.10
   0   1   6    8.60    0.90
   0   1   6   11.30    1.00
   0   1   6    8.50    1.00
   0   1  -6   10.10    1.20
   0   1  -6    9.40    0.90
  -1  -1  -6  792.82   15.10
  -1  -1  -6  811.92   13.70
  -1  -1  -6  825.52   14.00
  -1  -1  -6  779.12   16.30
  -1  -1  -6  786.22   13.90
  -1  -1  -6  816.82   14.00
   1  -1   6  820.52   15.60
  -1  -1  -6  807.12   16.30
   1  -1   6  797.72   15.30
  -1  -1  -6  812.42   13.70
   1   1   6  832.32   13.50
   1   1   6  817.22   13.80
   1   1   6  819.72   13.80
   1   1   6  783.22   15.80
  -1   1  -6  795.92   13.20
  -1   1  -6  783.52   13.20
   1   1   6  814.12   13.50
   1   1   6  829.92   15.90
   1   1   6  815.42   13.50
  -2  -1  -6   43.20    1.90
  -2  -1  -6   45.70    1.80
   2  -1   6   42.30    2.60
  -2  -1  -6   47.80    2.30
  -2  -1  -6   45.40    2.00
  -2  -1  -6   46.30    1.90
  -2  -1  -6   45.00    1.70
   2   1   6   45.40    1.50
   2   1   6   46.10    1.70
   2   1   6   48.80    1.50
  -3  -1  -6  589.44   11.10
  -4  -1  -6   43.20    2.90
  -4   1  -6   42.50    2.20
   4  -2  -6   85.09    3.60
  -4  -2   6   85.29    4.40
   4   2  -6   80.69    4.20
  -4   2   6   85.29    4.10
   3  -2  -6    8.70    1.30
  -3  -2   6    5.80    1.30
   3  -2  -6    5.50    1.40
  -3  -2   6    6.50    1.60
   3  -2  -6    9.10    1.40
   3  -2  -6    9.80    1.70
   3   2  -6    6.50    1.50
   3   2  -6   12.70    1.80
  -3   2   6    7.40    1.40
   3   2  -6    8.00    1.70
  -3   2   6    8.20    1.60
   3   2  -6    7.30    1.70
  -2  -2   6   14.30    1.60
  -2  -2   6   18.70    1.80
   2  -2  -6   13.60    1.30
  -2  -2   6   12.30    1.50
   2  -2  -6   11.80    1.30
   2  -2  -6   12.10    1.30
  -2  -2   6   13.20    1.60
   2  -2  -6   14.20    1.50
  -2  -2   6   12.40    1.50
  -2  -2   6   14.10    1.60
  -2  -2   6   12.10    1.50
  -2  -2   6   11.80    1.50
   2  -2  -6   15.20    1.80
  -2  -2   6    9.60    1.50
   2  -2  -6   14.70    1.50
   2  -2  -6   12.90    1.50
   2  -2  -6   12.20    1.40
   2  -2  -6   14.90    1.60
   2  -2  -6   15.30    1.40
  -2   2   6   12.50    1.60
   2   2  -6   15.90    1.80
  -2   2   6   13.30    1.50
  -2   2   6   12.10    1.50
  -2   2   6   10.90    1.30
  -2   2   6   14.00    1.50
  -2   2   6   11.90    1.50
   2   2  -6   16.40    1.80
   2   2  -6   12.80    1.60
   2   2  -6   12.00    1.70
  -2   2   6   12.70    1.40
   2   2  -6   21.00    1.90
   2   2  -6   13.70    1.70
   2   2  -6   13.70    1.60
  -2   2   6   14.00    1.20
   2   2  -6   12.40    1.60
   2   2  -6   15.10    1.60
   2   2  -6   12.00    1.70
  -2   2   6   14.10    1.80
  -1  -2   6  601.14   11.50
   1  -2  -6  599.44   11.10
   1  -2  -6  587.64   12.20
   1  -2  -6  600.54   13.20
   1  -2  -6  606.34   11.80
  -1  -2   6  618.04   13.10
  -1  -2   6  603.04   11.40
  -1  -2   6  628.64   12.10
   1  -2  -6  604.34   11.00
  -1  -2   6  613.24   11.00
   1  -2  -6  621.14   11.10
  -1  -2   6  607.64   11.10
   1  -2  -6  614.64   11.40
  -1  -2   6  611.04   11.00
  -1  -2   6  610.04   13.00
  -1  -2   6  612.14   10.90
  -1  -2   6  602.24   11.20
   1  -2  -6  609.64   12.20
   1  -2  -6  607.54   11.30
   1  -2  -6  614.74   13.20
   1  -2  -6  597.54   11.30
  -1   2   6  598.94   11.80
   1   2  -6  596.94   11.30
   1   2  -6  634.24   11.20
   1   2  -6  595.14   12.20
  -1   2   6  615.24   12.20
  -1   2   6  618.84   11.40
  -1   2   6  592.34   11.10
  -1   2   6  618.34   11.20
  -1   2   6  607.04   12.30
  -1   2   6  610.44   11.60
   1   2  -6  600.54   11.10
  -1   2   6  601.34   13.20
  -1   2   6  599.54   11.20
   1   2  -6  604.14   11.80
   1   2  -6  605.04   11.30
  -1   2   6  614.64   13.30
  -1   2   6  602.64   11.30
   1   2  -6  596.84   11.20
   1   2  -6  619.64   13.30
   1   2  -6  621.54   12.30
   1   2  -6  620.54   13.30
   0  -2   6   64.19    1.80
   0  -2  -6   63.89    2.40
   0  -2   6   68.59    2.00
   0  -2   6   64.89    2.00
   0  -2  -6   68.59    2.80
   0  -2  -6   67.69    2.90
   0  -2   6   69.39    2.00
   0  -2  -6   65.19    2.50
   0  -2  -6   72.79    2.40
   0  -2   6   67.49    2.20
   0  -2   6   69.49    2.80
   0  -2  -6   70.09    2.60
   0  -2  -6   71.19    2.50
   0  -2  -6   68.79    2.30
   0  -2  -6   67.19    2.50
   0  -2   6   70.99    2.00
   0  -2  -6   69.39    2.40
   0  -2   6   82.29    2.30
   0  -2   6   68.19    2.60
   0  -2  -6   67.69    2.40
   0   2   6   67.59    2.70
   0   2   6   66.59    2.30
   0   2   6   71.89    2.50
   0   2   6   67.99    2.40
   0   2  -6   68.79    2.20
   0   2   6   69.29    2.40
   0   2   6   68.39    2.30
   0   2  -6   65.79    2.10
   0   2  -6   68.79    2.20
   0   2   6   66.29    2.30
   0   2   6   66.19    2.80
   0   2   6   68.29    2.30
   0   2  -6   67.79    2.10
   0   2  -6   67.89    2.60
   0   2  -6   66.59    2.20
   0   2   6   71.79    2.50
   0   2  -6   68.19    2.20
  -1  -2  -6  102.89    3.40
  -1  -2  -6   96.69    2.90
  -1  -2  -6   92.49    2.80
   1  -2   6  100.39    3.50
   1  -2   6   97.49    3.10
  -1  -2  -6  100.29    2.80
  -1  -2  -6   97.79    3.00
  -1  -2  -6  101.59    2.90
  -1  -2  -6   96.89    2.80
  -1  -2  -6  100.99    3.50
  -1  -2  -6  104.89    3.00
  -1  -2  -6  100.79    2.80
   1   2   6   96.59    2.60
   1   2   6  103.09    3.00
  -1   2  -6   98.29    2.00
   1   2   6   96.39    2.60
   1   2   6  101.49    3.20
  -1   2  -6  101.39    2.20
   1   2   6  100.19    2.90
   1   2   6   99.99    2.50
   1   2   6   98.19    3.20
   1   2   6  101.39    2.80
  -2  -2  -6   87.89    3.00
  -2  -2  -6   94.89    3.50
  -2  -2  -6   90.59    3.00
   2  -2   6   89.39    3.70
   2   2   6   92.69    2.70
   2   2   6   87.79    2.60
   2   2   6   86.09    2.80
   2   2   6   86.89    2.70
  -3  -2  -6    5.30    1.40
   3   2   6    6.60    1.00
  -4  -2  -6    5.50    1.80
  -4  -3   6   34.40    3.30
   4  -3  -6   27.00    2.40
   4   3  -6   36.00    2.80
  -4   3   6   26.50    2.70
   4   3  -6   31.10    2.90
  -3  -3   6   52.79    3.30
   3  -3  -6   53.39    3.10
  -3  -3   6   50.69    3.10
   3  -3  -6   53.39    2.80
   3   3  -6   57.49    3.40
   3   3  -6   53.69    3.30
  -3   3   6   51.69    3.00
   3   3  -6   57.99    3.30
   2  -3  -6   21.30    1.60
  -2  -3   6   25.40    2.00
   2  -3  -6   24.80    1.80
  -2  -3   6   24.80    2.10
   2  -3  -6   19.90    1.80
   2  -3  -6   19.70    1.80
  -2  -3   6   27.80    2.30
   2  -3  -6   22.70    1.90
  -2  -3   6   24.90    2.20
  -2  -3   6   25.80    2.20
  -2  -3   6   19.80    1.90
   2  -3  -6   32.60    2.70
   2  -3  -6   23.80    1.80
  -2  -3   6   17.60    1.70
   2  -3  -6   24.90    2.30
  -2   3   6   23.40    2.00
   2   3  -6   24.60    2.10
   2   3  -6   18.80    2.00
   2   3  -6   22.60    2.10
   2   3  -6   20.30    2.00
  -2   3   6   20.90    1.80
   2   3  -6   24.50    2.20
   1  -3  -6  596.64   13.50
  -1  -3   6  587.44   11.20
   1  -3  -6  616.04   11.30
  -1  -3   6  619.74   11.20
  -1  -3   6  600.54   11.30
   1  -3  -6  595.34   13.50
  -1  -3   6  614.34   12.30
  -1  -3   6  615.34   11.50
  -1  -3   6  617.14   11.10
  -1  -3   6  617.44   11.10
   1  -3  -6  614.64   11.50
   1  -3  -6  613.94   11.90
  -1  -3   6  623.74   11.60
   1  -3  -6  559.64   11.50
   1  -3  -6  615.84   11.70
  -1  -3   6  625.94   11.50
  -1  -3   6  697.33   13.60
  -1  -3   6  619.84   11.50
  -1  -3   6  615.34   12.20
   1  -3  -6  610.24   11.50
   1  -3  -6  604.84   12.00
   1  -3  -6  596.54   12.40
   1  -3  -6  614.24   12.50
   1  -3  -6  611.84   11.60
  -1   3   6  624.74   11.60
   1   3  -6  615.94   13.70
   1   3  -6  611.14   13.60
   1   3  -6  603.84   12.60
  -1   3   6  621.84   11.70
   1   3  -6  608.24   11.40
  -1   3   6  612.84   13.60
  -1   3   6  612.34   12.60
  -1   3   6  597.34   11.40
   1   3  -6  615.14   11.40
  -1   3   6  610.64   13.70
  -1   3   6  621.94   11.50
  -1   3   6  608.64   12.50
  -1   3   6  589.44   12.00
   1   3  -6  610.74   11.60
   1   3  -6  630.54   11.70
   1   3  -6  602.74   12.00
  -1   3   6  618.94   11.70
   0  -3   6   50.99    2.00
   0  -3  -6   46.00    2.20
   0  -3  -6   44.00    2.60
   0  -3   6   46.90    1.90
   0  -3   6   44.10    1.70
   0  -3  -6   48.00    2.30
   0  -3  -6   49.50    2.30
   0  -3  -6   47.20    2.20
   0  -3  -6   43.70    2.20
   0  -3   6   47.70    1.80
   0  -3  -6   43.90    2.20
   0  -3   6   44.90    1.80
   0  -3  -6   46.50    2.30
   0  -3   6   46.90    1.80
   0  -3   6   44.80    2.30
   0  -3  -6   46.90    2.10
   0  -3   6   45.70    2.60
   0   3   6   47.40    2.20
   0   3   6   43.40    2.10
   0   3  -6   45.90    2.30
   0   3   6   51.39    2.20
   0   3   6   46.40    2.20
   0   3   6   47.10    2.50
   0   3  -6   48.80    2.00
   0   3   6   45.10    2.20
   0   3   6   46.60    2.10
   0   3  -6   45.80    1.90
   0   3  -6   46.80    2.00
   0   3   6   44.40    2.00
   0   3   6   48.10    2.20
   0   3   6   50.89    2.60
   0   3  -6   46.40    1.90
   0   3   6   47.60    2.10
   0   3  -6   50.89    2.30
  -1  -3  -6   23.60    1.70
  -1  -3  -6   18.20    1.60
  -1  -3  -6   20.50    1.70
  -1  -3  -6   16.30    1.50
  -1  -3  -6   24.10    1.80
  -1  -3  -6   18.80    2.00
  -1  -3  -6   21.50    2.10
   1  -3   6   22.00    2.10
  -1  -3  -6   19.10    1.60
  -1  -3  -6   15.10    1.50
   1  -3   6   17.80    1.60
  -1  -3  -6   21.40    1.70
   1   3   6   22.70    1.60
   1   3   6   21.50    2.00
   1   3   6   19.90    1.40
  -1   3  -6   19.30    1.20
   1   3   6   21.10    1.60
   1   3   6   21.00    1.60
   1   3   6   19.80    1.90
   1   3   6   21.90    1.50
   1   3   6   21.30    1.80
   1   3   6   21.30    1.60
  -1   3  -6   18.90    1.20
   1   3   6   19.10    1.50
  -1   3  -6   19.10    1.10
   1   3   6   23.40    1.80
  -2  -3  -6   43.90    2.60
   2  -3   6   40.80    2.90
   2  -3   6   42.00    2.30
  -2  -3  -6   47.30    2.50
   2   3   6   40.20    2.20
   2   3   6   41.20    2.50
   2   3   6   43.00    2.60
  -3  -3  -6   28.60    2.40
   3   3   6   33.10    2.20
  -4  -3  -6    5.80    2.00
  -4  -3  -6    2.50    1.70
   4   3   6    4.00    1.20
  -4  -4   6  104.59    5.10
   4  -4  -6  107.89    4.00
  -4   4   6  101.89    4.80
   4   4  -6  103.19    4.90
   3  -4  -6   14.80    1.80
  -3  -4   6   15.50    2.20
   3   4  -6   16.30    2.20
  -3   4   6   16.60    2.20
   3   4  -6   15.50    2.10
   3   4  -6   26.40    2.80
   3   4  -6   17.40    2.20
   2  -4  -6   27.30    2.50
  -2  -4   6   25.70    2.20
   2  -4  -6   27.30    2.10
  -2  -4   6   28.30    2.50
  -2  -4   6   29.60    2.30
  -2  -4   6   31.60    2.50
  -2  -4   6   31.30    2.40
   2  -4  -6   29.10    2.30
   2  -4  -6   29.10    2.10
   2   4  -6   30.10    2.60
  -2   4   6   26.80    2.10
   2   4  -6   31.10    2.70
   2   4  -6   25.90    2.30
   2   4  -6   28.80    2.50
  -2   4   6   28.60    2.40
   1  -4  -6  406.46    8.60
  -1  -4   6  388.96    8.70
  -1  -4   6  413.56    8.00
   1  -4  -6  415.06    8.50
   1  -4  -6  409.96    9.90
  -1  -4   6  451.25    8.00
   1  -4  -6  394.26    8.60
   1  -4  -6  398.66    8.20
  -1  -4   6  396.76    8.00
  -1  -4   6  391.66    8.10
  -1  -4   6  407.26    8.70
  -1  -4   6  427.86    8.00
  -1  -4   6  402.16    9.70
   1  -4  -6  401.26    8.50
   1  -4  -6  401.86    8.50
   1  -4  -6  397.06    9.10
  -1  -4   6  406.76    8.30
  -1   4   6  390.76    8.50
  -1   4   6  392.96    8.50
  -1   4   6  400.56    8.60
  -1   4   6  393.06    8.60
   1   4  -6  407.16    8.60
   1   4  -6  414.46    8.50
   1   4  -6  404.56    8.60
   1   4  -6  400.96   10.00
  -1   4   6  398.26    9.20
  -1   4   6  379.76    8.40
   0  -4   6  102.19    3.00
   0  -4   6  101.29    3.10
   0  -4   6  101.19    4.10
   0  -4  -6  103.79    3.50
   0  -4  -6  107.29    3.40
   0  -4  -6  101.19    4.20
   0  -4   6  108.29    2.80
   0  -4  -6  105.09    3.60
   0  -4  -6  101.89    4.10
   0  -4  -6  101.49    3.50
   0  -4   6  107.39    3.20
   0  -4  -6   99.89    3.60
   0  -4  -6  104.29    3.60
   0  -4   6  100.39    3.70
   0  -4   6  108.09    2.90
   0  -4  -6  106.19    3.50
   0  -4  -6  103.29    3.70
   0   4   6  107.19    3.50
   0   4  -6  105.29    3.30
   0   4   6  104.09    3.70
   0   4   6  107.19    3.60
   0   4   6  101.39    4.00
   0   4   6  104.69    3.40
   0   4  -6  100.09    2.90
   0   4  -6  101.59    3.50
   0   4   6  111.29    3.60
   0   4   6   98.59    3.60
   0   4   6  106.79    3.40
   0   4  -6  105.59    3.20
   0   4   6  101.79    4.10
   0   4   6  104.09    3.40
   0   4  -6  106.29    3.80
   0   4   6  104.19    3.20
   1  -4   6   66.29    3.40
  -1  -4  -6   61.29    3.00
  -1  -4  -6   62.19    2.80
   1  -4   6   59.49    2.70
  -1  -4  -6   65.09    2.80
  -1  -4  -6   61.89    3.00
  -1  -4  -6   62.69    2.90
  -1  -4  -6   60.39    3.00
   1   4   6   63.09    2.80
   1   4   6   67.99    2.90
  -1   4  -6   61.09    2.00
   1   4   6   63.79    2.80
  -1   4  -6   61.39    2.20
   1   4   6   60.39    2.80
  -1   4  -6   64.09    2.10
   1   4   6   61.19    2.70
   1   4   6   61.99    2.60
   1   4   6   60.09    3.40
   1   4   6   59.99    2.50
  -1   4  -6   62.19    2.30
  -2  -4  -6   46.00    2.80
   2  -4   6   41.20    3.20
  -2  -4  -6   50.79    3.10
   2   4   6   49.50    3.20
   2   4   6   44.10    2.30
  -2   4  -6   45.50    1.70
   2   4   6   49.90    2.70
  -3  -4  -6   46.50    3.40
   3  -4   6   48.50    3.80
   3   4   6   45.30    2.80
   3  -5  -6   79.39    3.40
  -3  -5   6   86.79    4.40
  -3   5   6   80.59    4.10
   2  -5  -6  217.98    5.90
  -2  -5   6  232.48    6.60
   2  -5  -6  240.78    6.90
  -2  -5   6  223.58    6.30
  -2  -5   6  239.78    6.20
  -2  -5   6  242.98    6.20
   2  -5  -6  223.48    5.90
   2   5  -6  235.08    6.60
   2   5  -6  231.58    6.60
   1  -5  -6   71.39    3.70
  -1  -5   6   65.49    3.00
  -1  -5   6   66.89    2.80
   1  -5  -6   62.69    3.10
   1  -5  -6   66.09    2.80
  -1  -5   6   60.19    3.80
   1  -5  -6   67.09    2.90
   1  -5  -6   64.59    3.20
   1  -5  -6   66.19    2.90
  -1  -5   6   65.59    2.80
   1  -5  -6   66.59    3.10
  -1   5   6   66.29    3.20
  -1   5   6   63.99    3.00
   1   5  -6   65.49    3.20
   1   5  -6   63.89    3.30
   0  -5  -6   46.50    2.80
   0  -5   6   49.50    2.30
   0  -5  -6   51.59    2.80
   0  -5  -6   47.50    2.80
   0  -5   6   48.70    2.30
   0  -5   6   50.09    2.90
   0  -5  -6   53.39    3.00
   0  -5   6   49.90    3.40
   0  -5   6   47.70    2.50
   0  -5  -6   47.80    2.80
   0  -5  -6   49.60    2.90
   0   5   6   50.89    2.90
   0   5  -6   50.89    2.70
   0   5   6   48.70    2.90
   0   5   6   47.50    2.70
   0   5   6   50.79    2.80
   0   5   6   50.09    2.80
   0   5   6   50.29    2.90
   0   5  -6   49.10    2.50
   0   5   6   50.79    2.70
   1  -5   6  144.29    4.50
   1  -5   6  151.18    5.40
  -1  -5  -6  155.88    5.10
  -1  -5  -6  157.38    5.00
  -1   5  -6  150.78    4.10
   1   5   6  154.18    4.50
   1   5   6  151.68    4.70
   1   5   6  147.99    4.50
   1   5   6  153.68    4.90
   1   5   6  144.09    4.70
  -2  -5  -6   53.89    3.50
   2  -5   6   58.89    3.80
  -2  -5  -6   55.39    3.50
   2   5   6   57.39    2.90
  -2   5  -6   55.99    2.30
   2   5   6   56.29    3.70
   2   5   6   53.39    3.10
   3  -5   6  276.07    8.40
  -3  -5  -6  285.87    8.00
  -3  -5  -6  285.67    7.90
  -3   5  -6  274.57    5.80
   3   5   6  296.07    7.30
   3  -6  -6   13.80    1.90
  -3   6   6   21.80    2.80
  -2  -6   6   24.90    2.60
   2  -6  -6   30.20    2.40
  -2  -6   6   24.30    2.30
   2   6  -6   25.90    2.90
  -2   6   6   22.80    2.50
  -1  -6   6   46.70    2.90
   1  -6  -6   47.60    2.60
  -1  -6   6   44.70    3.80
   1  -6  -6   46.20    2.80
   1  -6  -6   47.90    2.90
  -1  -6   6   48.70    2.70
   1   6  -6   49.00    3.50
  -1   6   6   48.80    3.10
   0  -6   6   24.90    2.50
   0  -6  -6   19.90    2.00
   0  -6  -6   20.60    2.30
   0  -6   6   19.80    1.80
   0  -6  -6   22.20    2.30
   0  -6  -6   16.70    2.00
   0  -6   6   23.40    2.00
   0  -6  -6   21.50    2.30
   0  -6  -6   17.50    2.00
   0  -6   6   23.20    2.80
   0   6  -6   19.90    2.10
   0   6   6   26.50    2.50
   1  -6   6  259.97    7.70
  -1  -6  -6  250.27    6.80
  -1  -6  -6  246.08    7.00
  -1   6  -6  256.67    6.30
   1   6   6  256.97    6.70
   1   6   6  254.77    6.90
   1   6   6  257.77    6.60
   1   6   6  257.87    7.30
  -2  -6  -6   67.19    3.90
  -2  -6  -6   68.19    4.10
   2  -6   6   67.49    4.40
   2   6   6   66.39    3.70
   2   6   6   68.99    3.00
  -2   6  -6   63.89    2.90
   3  -6   6  191.08    7.20
  -3  -6  -6  209.18    7.10
  -3  -6  -6  202.98    6.90
   3   6   6  194.48    6.30
  -3   6  -6  193.28    5.00
  -2  -7   6   86.79    4.30
  -2  -7   6   87.89    4.10
   2  -7  -6   83.19    3.90
  -2   7   6   95.29    4.60
   2   7  -6   91.79    5.00
   1  -7  -6    4.10    1.60
  -1  -7   6    6.40    2.40
  -1  -7   6    5.60    1.80
   1   7  -6    4.80    2.00
  -1   7   6    3.50    1.80
   0  -7  -6   41.40    3.10
   0  -7   6   45.00    3.80
   0  -7  -6   46.80    3.20
   0  -7  -6   45.70    3.20
   0  -7   6   46.20    2.70
   0  -7   6   42.20    3.30
   0   7   6   44.60    3.30
   0   7  -6   46.40    3.40
   1  -7   6   25.00    3.10
  -1  -7  -6   25.40    2.80
  -1  -7  -6   21.70    2.50
  -1   7  -6   27.60    2.60
   1   7   6   26.00    2.80
  -2  -7  -6    7.70    2.40
   2  -7   6    3.70    2.30
  -2  -7  -6   10.40    2.50
   2   7   6    6.10    1.90
  -2   7  -6    5.70    1.60
   2   7   6    6.50    1.60
  -1  -8   6   40.70    3.30
   1  -8  -6   44.60    3.40
  -1  -8   6   47.00    4.30
   1   8  -6   54.39    4.40
  -1   8   6   42.30    3.80
   0  -8   6   10.70    2.60
   0  -8  -6    8.60    2.10
   0  -8   6   10.50    1.80
   0  -8  -6    6.20    1.80
   0   8   6    9.10    2.30
   0   8  -6    8.50    2.40
  -1  -8  -6   32.90    3.50
  -4   0   7  239.48    6.90
   4   0  -7  240.18    6.60
   3   0  -7   99.69    3.90
  -3   0   7  101.99    4.00
   3   0  -7  102.89    3.50
   3   0  -7  106.69    4.00
  -3   0   7  103.49    3.80
  -3   0   7  103.29    3.90
   3   0  -7  101.99    4.30
   3   0  -7  103.49    3.30
   2   0  -7   16.60    2.00
  -2   0   7   14.10    1.60
   2   0  -7   12.50    1.60
  -2   0   7   15.60    1.60
   2   0  -7   17.40    1.70
  -2   0   7   16.70    1.70
  -2   0   7   15.80    1.50
  -2   0   7   16.10    1.90
   2   0  -7   13.90    1.50
  -2   0   7   18.00    1.80
  -2   0   7   19.00    1.80
  -2   0   7   20.10    2.20
  -2   0   7   17.80    1.80
   2   0  -7   15.30    1.70
   2   0  -7   16.40    1.60
  -2   0   7   13.40    1.50
   2   0  -7   17.90    1.80
   2   0  -7   14.10    1.40
  -2   0   7   18.50    1.70
   2   0  -7   16.10    1.60
   2   0  -7   18.60    1.60
  -1   0   7   14.60    1.30
  -1   0   7   16.20    1.30
   1   0  -7   15.30    1.40
   1   0  -7   15.20    1.30
  -1   0   7   17.00    1.40
   1   0  -7   14.30    1.40
  -1   0   7   15.50    1.40
  -1   0   7   16.70    1.40
  -1   0   7   14.80    1.30
   1   0  -7   15.40    1.50
   1   0  -7   15.00    1.70
  -1   0   7   17.10    1.30
  -1   0   7   15.90    1.50
  -1   0   7   18.30    1.40
  -1   0   7   13.70    1.50
  -1   0   7   16.30    1.60
   1   0  -7   18.60    1.50
  -1   0   7   17.10    1.50
  -1   0   7   16.00    1.40
   1   0  -7   13.60    1.40
   1   0  -7   13.50    1.20
   1   0  -7   14.60    1.30
   1   0  -7   14.60    1.40
   0   0   7 2428.16   38.40
   0   0  -7 2399.46   43.00
   0   0   7 2406.36   38.40
   0   0  -7 2428.56   38.80
   0   0  -7 2340.47   39.10
   0   0   7 2385.46   38.90
   0   0   7 2413.76   42.50
   0   0   7 2441.06   45.80
   0   0  -7 2369.46   39.20
   0   0   7 2408.66   45.80
   0   0  -7 2399.26   46.00
   0   0  -7 2388.56   39.10
   0   0  -7 2336.97   38.40
   0   0   7 2410.16   42.40
   0   0   7 2450.15   42.30
   0   0   7 2348.67   42.50
   0   0   7 2387.76   39.10
   0   0  -7 2363.36   46.00
  -1   0  -7  549.25    9.50
  -1   0  -7  543.95   11.20
   1   0   7  544.65    9.00
   1   0   7  544.65    9.40
  -1   0  -7  548.85   11.20
  -1   0  -7  538.05    9.50
  -1   0  -7  529.75    9.50
  -1   0  -7  543.55   10.20
  -1   0  -7  545.55    9.60
  -1   0  -7  548.95    9.60
   1   0   7  543.75   11.10
   1   0   7  536.95   11.10
   1   0   7  554.54    9.40
  -2   0  -7   73.59    2.20
  -2   0  -7   82.49    2.30
  -2   0  -7   83.39    2.30
  -3   0  -7   27.40    1.80
  -4   0  -7  437.16    8.90
  -4  -1   7   -0.10    1.60
   4  -1  -7    2.00    1.40
   4   1  -7    0.40    1.40
  -4   1   7   -0.60    1.50
   3  -1  -7   45.70    2.20
  -3  -1   7   41.60    2.70
   3  -1  -7   42.00    2.90
   3  -1  -7   48.40    2.90
   3  -1  -7   43.00    2.20
  -3  -1   7   45.30    3.00
  -3   1   7   39.10    2.70
  -3   1   7   40.60    2.50
  -3   1   7   42.00    2.60
   3   1  -7   49.30    3.00
   3   1  -7   47.30    3.00
   3   1  -7   45.40    2.70
  -2  -1   7  159.88    4.40
  -2  -1   7  164.08    4.80
  -2  -1   7  165.08    4.50
  -2  -1   7  158.78    4.60
  -2  -1   7  160.38    4.70
   2  -1  -7  160.48    5.10
  -2  -1   7  165.58    4.40
   2  -1  -7  156.48    4.50
  -2  -1   7  158.28    4.80
   2  -1  -7  166.18    4.50
   2  -1  -7  161.88    4.40
  -2  -1   7  163.28    4.50
   2  -1  -7  164.18    4.40
  -2  -1   7  158.58    5.30
  -2  -1   7  153.18    5.20
  -2  -1   7  153.88    4.30
   2  -1  -7  164.08    4.50
   2  -1  -7  154.48    4.40
   2  -1  -7  158.88    4.20
   2  -1  -7  160.08    4.70
   2   1  -7  157.98    4.50
  -2   1   7  163.08    4.40
   2   1  -7  160.18    4.50
  -2   1   7  167.18    4.80
  -2   1   7  161.88    4.40
   2   1  -7  159.88    4.40
   2   1  -7  166.18    4.50
  -2   1   7  158.38    4.40
   2   1  -7  159.68    4.80
  -2   1   7  150.38    5.10
  -2   1   7  155.48    4.50
  -2   1   7  161.28    4.40
   2   1  -7  159.38    4.70
  -2   1   7  157.88    4.30
   2   1  -7  163.18    4.60
   2   1  -7  160.28    4.50
  -2   1   7  154.78    4.50
  -2   1   7  166.48    4.80
   2   1  -7  157.48    5.20
   1  -1  -7 1114.79   21.10
  -1  -1   7 1108.49   20.80
   1  -1  -7 1100.49   20.40
   1  -1  -7 1120.19   19.00
   1  -1  -7 1122.49   19.40
  -1  -1   7 1098.99   19.10
   1  -1  -7 1088.29   19.40
   1  -1  -7 1112.79   19.30
  -1  -1   7 1114.49   22.60
  -1  -1   7 1112.19   20.90
  -1  -1   7 1101.09   18.90
  -1  -1   7 1101.79   20.10
  -1  -1   7 1104.49   20.20
   1  -1  -7 1104.29   21.10
  -1  -1   7 1134.79   18.90
   1  -1  -7 1097.49   22.60
   1  -1  -7 1126.69   20.50
  -1  -1   7 1097.99   19.30
  -1  -1   7 1108.39   19.20
   1  -1  -7 1112.59   22.70
  -1  -1   7 1131.29   18.80
   1  -1  -7 1116.69   19.10
  -1  -1   7 1103.79   22.50
  -1   1   7 1101.29   19.90
  -1   1   7 1104.99   21.10
   1   1  -7 1089.19   22.60
  -1   1   7 1109.29   19.00
   1   1  -7 1109.29   19.30
   1   1  -7 1134.59   21.10
  -1   1   7 1126.49   19.30
  -1   1   7 1115.79   21.00
   1   1  -7 1117.99   19.10
   1   1  -7 1105.29   21.10
  -1   1   7 1095.49   22.60
  -1   1   7 1135.29   22.70
  -1   1   7 1111.19   20.50
  -1   1   7 1132.89   19.10
  -1   1   7 1132.79   19.40
   1   1  -7 1096.49   19.30
  -1   1   7 1101.89   20.40
   1   1  -7 1122.89   20.40
   1   1  -7 1113.69   19.30
   1   1  -7 1138.09   19.00
  -1   1   7 1110.69   19.20
   0  -1  -7  100.69    2.80
   0  -1   7  100.19    2.90
   0  -1   7   94.79    3.10
   0  -1   7   96.29    2.50
   0  -1  -7   97.99    2.90
   0  -1   7  102.09    2.50
   0  -1  -7   98.69    3.30
   0  -1  -7   98.29    3.00
   0  -1   7  100.39    3.30
   0  -1   7   97.39    2.60
   0  -1  -7   98.69    2.90
   0  -1  -7   96.49    3.40
   0  -1   7  100.79    2.90
   0  -1  -7   99.79    2.80
   0  -1  -7  100.69    3.00
   0   1   7   97.99    2.60
   0   1  -7   94.39    2.70
   0   1   7  102.89    2.70
   0   1   7   99.29    2.70
   0   1  -7   98.99    2.70
   0   1   7   99.39    2.70
   0   1  -7  100.89    2.60
   0   1  -7   98.59    2.80
   0   1   7  105.09    2.90
   0   1   7   98.89    3.20
   0   1  -7   95.29    3.10
   0   1   7  100.39    3.20
   0   1   7   99.69    2.50
   0   1   7   98.79    2.80
   0   1   7  100.59    2.80
   0   1  -7   96.59    3.20
   0   1  -7  101.59    2.70
   0   1   7   98.49    2.80
   0   1   7   97.39    2.80
   0   1  -7   97.59    2.70
   0   1   7  105.69    2.50
   0   1   7   98.49    3.30
  -1  -1  -7   17.30    1.40
  -1  -1  -7   17.70    1.60
  -1  -1  -7   18.80    1.40
  -1  -1  -7   18.50    1.60
  -1  -1  -7   20.10    1.30
  -1  -1  -7   18.40    1.50
   1  -1   7   19.70    1.70
  -1  -1  -7   16.40    1.30
   1  -1   7   14.00    1.50
   1   1   7   21.50    1.20
   1   1   7   18.50    1.30
  -1   1  -7   17.60    1.10
   1   1   7   19.70    1.30
  -1   1  -7   15.80    1.00
   1   1   7   20.00    1.20
   1   1   7   19.80    1.30
  -1   1  -7   18.10    1.00
   1   1   7   17.50    1.30
  -1   1  -7   17.90    1.00
   1   1   7   19.10    1.60
  -1   1  -7   18.10    1.20
   2  -1   7  504.75   11.10
  -2  -1  -7  492.05    9.00
  -2  -1  -7  493.25   10.10
  -2  -1  -7  516.05    9.40
  -2  -1  -7  494.85    9.30
  -2  -1  -7  495.15    9.30
   2   1   7  503.25    9.00
  -3  -1  -7  574.24   10.90
  -3   1  -7  567.64    9.90
  -4  -1  -7  163.48    5.00
  -4   1  -7  171.98    4.20
  -4  -2   7   46.10    3.70
   4  -2  -7   47.70    3.10
  -4   2   7   44.30    3.40
  -3  -2   7   25.50    2.40
  -3  -2   7   33.00    2.60
   3  -2  -7   28.20    2.20
   3  -2  -7   23.90    2.40
   3  -2  -7   29.50    2.30
   3  -2  -7   24.90    2.10
   3   2  -7   28.00    2.40
   3   2  -7   22.90    2.30
  -3   2   7   28.70    2.50
   3   2  -7   28.90    2.60
   3   2  -7   30.80    2.60
  -2  -2   7   25.30    2.00
   2  -2  -7   19.80    1.90
   2  -2  -7   22.10    1.90
  -2  -2   7   25.00    2.20
   2  -2  -7   22.40    1.80
   2  -2  -7   24.80    2.00
  -2  -2   7   21.80    2.00
   2  -2  -7   23.40    1.70
  -2  -2   7   20.10    1.80
  -2  -2   7   24.80    2.00
  -2  -2   7   22.50    1.90
   2  -2  -7   24.30    2.10
   2  -2  -7   24.50    2.30
   2  -2  -7   22.30    2.00
  -2  -2   7   24.80    2.00
  -2   2   7   26.70    2.10
  -2   2   7   21.90    2.00
   2   2  -7   22.30    2.10
  -2   2   7   22.00    1.90
   2   2  -7   18.60    1.90
   2   2  -7   21.00    2.00
  -2   2   7   23.80    2.00
  -2   2   7   23.70    1.70
   2   2  -7   25.60    2.20
  -2   2   7   20.90    1.80
   2   2  -7   25.40    2.20
  -2   2   7   24.70    1.90
   2   2  -7   23.10    2.00
   1  -2  -7   96.49    3.10
  -1  -2   7   96.39    2.90
  -1  -2   7  100.29    2.80
  -1  -2   7   99.29    3.00
   1  -2  -7   97.09    3.20
  -1  -2   7  102.39    3.10
  -1  -2   7   96.49    3.60
  -1  -2   7  101.09    3.10
   1  -2  -7  100.39    3.20
   1  -2  -7   95.19    3.20
   1  -2  -7  100.89    3.20
   1  -2  -7  101.89    3.20
  -1  -2   7  101.29    3.60
  -1  -2   7   98.39    3.10
   1  -2  -7  100.69    3.40
  -1  -2   7   94.79    2.90
  -1  -2   7   95.99    3.50
   1  -2  -7   99.79    3.20
   1  -2  -7   99.59    3.70
   1  -2  -7   97.69    3.80
  -1  -2   7   97.49    3.00
  -1  -2   7  103.19    3.00
   1  -2  -7  100.99    3.00
  -1  -2   7  101.59    2.90
  -1   2   7   98.79    3.70
   1   2  -7   98.59    3.70
   1   2  -7   99.69    3.20
  -1   2   7  101.59    3.20
  -1   2   7   99.19    3.40
  -1   2   7   94.89    3.70
  -1   2   7  100.89    3.20
  -1   2   7   95.29    3.10
  -1   2   7   98.39    3.10
  -1   2   7   98.99    3.10
   1   2  -7  101.89    3.70
  -1   2   7   97.29    3.00
   1   2  -7   90.79    3.20
   1   2  -7   98.19    3.10
  -1   2   7  101.99    3.30
   1   2  -7  100.19    3.20
   1   2  -7   99.39    3.10
   1   2  -7   96.79    3.20
   1   2  -7   99.59    3.10
  -1   2   7  100.49    3.20
   0  -2  -7  245.38    5.50
   0  -2  -7  250.27    5.50
   0  -2   7  251.67    4.80
   0  -2  -7  239.58    5.80
   0  -2   7  248.48    5.00
   0  -2  -7  247.58    5.40
   0  -2  -7  245.58    6.40
   0  -2   7  242.68    5.50
   0  -2  -7  241.78    5.90
   0  -2   7  243.38    6.10
   0  -2   7  237.38    5.00
   0  -2  -7  242.78    5.30
   0  -2  -7  245.08    5.60
   0  -2   7  239.98    5.50
   0  -2   7  247.08    4.90
   0  -2  -7  245.98    6.50
   0  -2   7  248.98    6.00
   0  -2  -7  244.18    5.40
   0   2   7  250.47    5.80
   0   2   7  248.48    5.40
   0   2   7  248.48    5.50
   0   2  -7  238.28    5.10
   0   2   7  255.37    5.40
   0   2   7  247.68    5.40
   0   2   7  252.27    5.30
   0   2  -7  248.98    5.20
   0   2  -7  252.27    6.10
   0   2   7  247.38    5.30
   0   2  -7  243.98    5.50
   0   2   7  248.18    5.90
   0   2  -7  246.78    5.00
   0   2  -7  246.18    5.10
   0   2   7  248.38    5.30
   0   2   7  252.57    6.30
   0   2   7  255.17    6.40
   0   2  -7  247.28    5.20
   0   2   7  249.48    5.50
   1  -2   7   74.29    3.10
  -1  -2  -7   70.69    3.00
  -1  -2  -7   69.89    2.50
  -1  -2  -7   71.99    2.60
  -1  -2  -7   75.09    2.70
   1  -2   7   71.69    2.80
  -1  -2  -7   73.09    2.50
  -1  -2  -7   74.09    2.70
  -1  -2  -7   70.79    3.10
  -1  -2  -7   78.69    2.60
  -1  -2  -7   73.79    2.70
   1   2   7   77.49    2.20
   1   2   7   68.09    2.80
   1   2   7   76.99    2.30
   1   2   7   71.99    2.40
   1   2   7   67.19    2.10
  -1   2  -7   74.09    1.90
  -1   2  -7   72.09    1.80
   1   2   7   75.09    2.80
  -1   2  -7   73.49    2.00
   1   2   7   74.79    2.10
  -1   2  -7   71.49    1.80
  -2  -2  -7  293.87    7.50
   2  -2   7  286.27    7.60
  -2  -2  -7  295.97    6.40
   2  -2   7  279.27    6.90
  -2  -2  -7  291.87    6.50
   2   2   7  285.37    5.80
  -3  -2  -7    5.60    1.40
   3   2   7   10.00    1.10
  -4  -2  -7    3.10    1.60
   4  -3  -7   -0.80    1.30
  -4  -3   7    1.00    1.80
  -4   3   7    2.30    1.80
   4   3  -7   -0.50    1.80
   4   3  -7    0.20    1.60
   3  -3  -7   48.30    2.50
  -3  -3   7   46.70    3.30
   3  -3  -7   50.99    2.90
   3  -3  -7   48.20    3.10
  -3   3   7   43.20    3.10
   3   3  -7   46.40    3.40
   3   3  -7   51.89    3.50
   3   3  -7   48.00    3.30
   3   3  -7   52.09    3.30
  -2  -3   7   34.80    2.50
  -2  -3   7   35.70    2.50
  -2  -3   7   36.50    2.60
   2  -3  -7   34.30    2.70
   2  -3  -7   37.90    2.20
   2  -3  -7   34.50    2.20
  -2  -3   7   35.80    2.60
   2  -3  -7   33.60    2.20
   2  -3  -7   34.10    2.40
  -2  -3   7   35.50    2.40
   2  -3  -7   37.70    2.50
   2  -3  -7   37.20    2.40
  -2  -3   7   31.90    2.50
  -2   3   7   35.70    2.30
   2   3  -7   37.50    2.80
   2   3  -7   36.40    2.80
   2   3  -7   33.90    2.50
  -2   3   7   35.40    2.50
   2   3  -7   38.50    2.70
   1  -3  -7  163.08    5.10
  -1  -3   7  161.08    3.80
  -1  -3   7  164.18    5.10
   1  -3  -7  161.48    4.50
   1  -3  -7  160.48    4.20
   1  -3  -7  165.88    4.50
  -1  -3   7  161.68    4.30
  -1  -3   7  163.88    4.90
   1  -3  -7  159.68    4.70
  -1  -3   7  163.88    4.90
  -1  -3   7  162.88    3.80
   1  -3  -7  161.68    4.50
  -1  -3   7  158.48    4.30
   1  -3  -7  155.38    5.10
  -1  -3   7  159.48    5.00
   1  -3  -7  158.88    4.50
   1  -3  -7  164.48    4.40
  -1  -3   7  171.88    4.00
  -1  -3   7  159.58    4.20
   1  -3  -7  157.68    4.60
  -1  -3   7  157.78    4.20
   1  -3  -7  155.68    4.40
  -1  -3   7  164.78    4.00
  -1  -3   7  158.78    4.10
   1  -3  -7  164.58    4.40
   1   3  -7  159.18    4.40
  -1   3   7  163.08    4.70
   1   3  -7  166.78    5.20
  -1   3   7  161.08    4.70
  -1   3   7  161.38    4.40
   1   3  -7  157.48    4.70
  -1   3   7  164.38    4.40
  -1   3   7  161.78    4.30
  -1   3   7  156.18    4.50
  -1   3   7  160.88    4.40
  -1   3   7  152.68    5.20
  -1   3   7  169.78    5.20
   1   3  -7  157.08    5.10
   1   3  -7  165.58    4.40
   1   3  -7  162.38    4.40
   1   3  -7  166.08    4.50
  -1   3   7  161.08    4.50
   0  -3  -7   80.79    3.00
   0  -3  -7   80.39    2.90
   0  -3   7   82.59    3.40
   0  -3   7   80.69    2.40
   0  -3   7   79.59    2.60
   0  -3  -7   84.19    3.10
   0  -3  -7   81.49    2.90
   0  -3  -7   79.89    3.00
   0  -3   7   79.89    2.40
   0  -3   7   80.59    2.50
   0  -3  -7   82.89    3.60
   0  -3   7   78.89    2.30
   0  -3   7   79.29    3.20
   0  -3  -7   84.59    3.00
   0  -3  -7   78.09    3.00
   0  -3  -7   78.89    2.80
   0  -3  -7   88.39    3.10
   0   3   7   81.99    2.80
   0   3   7   83.49    3.00
   0   3  -7   82.09    2.70
   0   3  -7   82.79    3.20
   0   3   7   81.99    2.90
   0   3  -7   75.19    2.70
   0   3   7   80.79    2.90
   0   3  -7   75.69    2.70
   0   3   7   76.09    2.70
   0   3   7   77.59    2.90
   0   3   7   82.59    3.30
   0   3   7   80.39    2.90
   0   3   7   78.59    3.00
   0   3   7   78.19    3.40
   0   3  -7   83.99    3.20
   0   3  -7   79.89    2.60
  -1  -3  -7   68.49    2.80
  -1  -3  -7   60.99    2.60
   1  -3   7   58.69    2.70
   1  -3   7   70.59    3.30
  -1  -3  -7   58.99    3.10
  -1  -3  -7   61.89    2.60
  -1  -3  -7   62.29    2.90
  -1  -3  -7   56.39    2.70
  -1  -3  -7   63.89    2.60
  -1  -3  -7   63.49    2.60
  -1  -3  -7   61.99    3.10
   1   3   7   61.79    2.40
   1   3   7   62.29    2.40
  -1   3  -7   61.49    2.00
   1   3   7   58.99    2.30
   1   3   7   65.49    2.60
   1   3   7   60.09    3.10
   1   3   7   60.89    2.40
   1   3   7   57.69    2.90
   1   3   7   61.39    2.60
  -1   3  -7   59.09    1.90
   2  -3   7  128.59    4.10
  -2  -3  -7  131.89    4.30
  -2  -3  -7  137.29    4.20
   2  -3   7  132.09    4.90
   2   3   7  131.99    3.80
   2   3   7  128.99    4.20
   2   3   7  132.29    4.30
  -3  -3  -7   15.50    2.00
   3  -3   7   11.50    2.30
   3   3   7   15.40    1.50
  -4  -3  -7   -0.40    1.90
  -4  -3  -7    3.40    1.90
  -4  -4   7   60.59    4.30
   4   4  -7   54.99    4.10
  -4   4   7   61.69    4.10
  -3  -4   7   66.99    3.70
   3  -4  -7   65.99    3.20
   3   4  -7   64.89    3.80
   3   4  -7   69.59    3.90
   3   4  -7   81.89    4.10
  -3   4   7   68.79    3.70
  -2  -4   7   27.40    2.30
   2  -4  -7   29.70    2.30
  -2  -4   7   37.70    2.80
   2  -4  -7   30.00    2.00
  -2  -4   7   33.00    2.70
   2  -4  -7   28.20    2.60
   2  -4  -7   27.60    2.10
  -2  -4   7   31.80    2.50
  -2  -4   7   28.00    2.50
   2  -4  -7   30.60    2.10
   2  -4  -7   29.90    2.30
   2   4  -7   30.80    2.60
   2   4  -7   33.00    2.80
  -2   4   7   30.60    2.30
  -2   4   7   26.90    2.30
  -1  -4   7   61.99    3.30
   1  -4  -7   55.59    2.70
  -1  -4   7   58.79    3.60
   1  -4  -7   57.49    2.90
  -1  -4   7   57.59    2.60
   1  -4  -7   59.99    3.00
   1  -4  -7   58.89    2.80
   1  -4  -7   60.29    3.00
  -1  -4   7   55.89    2.50
   1  -4  -7   58.59    2.90
   1  -4  -7   58.89    3.30
  -1  -4   7   60.09    2.80
   1   4  -7   58.89    2.90
  -1   4   7   58.89    2.90
  -1   4   7   61.99    3.00
  -1   4   7   55.09    2.90
  -1   4   7   56.89    2.70
  -1   4   7   56.29    2.80
   1   4  -7   54.09    3.00
   0  -4   7   31.80    1.80
   0  -4  -7   30.90    2.50
   0  -4   7   31.20    1.90
   0  -4   7   36.20    2.60
   0  -4  -7   30.20    2.30
   0  -4  -7   29.10    2.20
   0  -4   7   29.50    1.70
   0  -4  -7   33.50    2.40
   0  -4  -7   30.90    2.40
   0  -4   7   31.30    2.60
   0  -4  -7   30.30    2.30
   0   4   7   32.90    2.30
   0   4   7   30.40    2.20
   0   4  -7   31.50    2.40
   0   4   7   34.90    2.80
   0   4   7   30.50    2.20
   0   4   7   35.80    2.30
   0   4   7   30.60    2.20
   0   4  -7   29.20    2.00
   0   4   7   29.50    2.20
   0   4   7   29.20    2.20
   0   4  -7   32.20    2.20
   1  -4   7  288.97    7.80
  -1  -4  -7  301.77    7.20
  -1  -4  -7  302.47    7.10
  -1  -4  -7  291.57    6.80
   1  -4   7  293.07    7.10
  -1   4  -7  280.97    5.70
   1   4   7  299.87    7.10
   1   4   7  301.27    6.50
  -1   4  -7  289.87    6.00
   1   4   7  283.67    6.70
  -1   4  -7  286.37    5.90
   1   4   7  293.57    6.60
   1   4   7  284.77    6.50
   1   4   7  300.97    8.10
   1   4   7  285.57    6.40
   2  -4   7  205.88    6.60
   2  -4   7  209.18    5.50
  -2  -4  -7  211.48    5.90
   2   4   7  213.38    6.40
  -2   4  -7  207.78    4.20
   2   4   7  205.48    5.10
   2   4   7  207.18    5.50
  -3  -4  -7    1.20    1.60
   3  -4   7    1.30    1.80
   3   4   7    3.50    1.40
   3  -5  -7    8.30    1.70
  -3   5   7   12.40    2.20
   2  -5  -7   18.90    2.10
  -2  -5   7   14.60    2.00
  -2  -5   7   15.40    2.00
  -2  -5   7   15.40    2.00
   2  -5  -7   17.60    2.30
  -2  -5   7   19.10    2.10
   2  -5  -7   13.90    1.70
   2   5  -7   14.80    2.10
  -2   5   7   16.70    2.20
   2   5  -7   21.90    2.50
  -1  -5   7  253.37    7.50
   1  -5  -7  250.37    6.50
   1  -5  -7  253.07    6.30
   1  -5  -7  240.38    6.70
  -1  -5   7  247.78    5.70
   1  -5  -7  255.47    6.50
   1  -5  -7  251.57    6.20
  -1  -5   7  238.28    6.10
  -1  -5   7  249.18    6.10
  -1   5   7  253.87    6.60
   1   5  -7  252.67    6.70
   1   5  -7  251.97    6.60
   0  -5   7   10.60    1.40
   0  -5  -7   11.20    1.70
   0  -5  -7   14.10    1.90
   0  -5   7   13.40    2.20
   0  -5  -7   15.30    1.90
   0  -5   7   17.40    2.10
   0  -5  -7    9.70    1.80
   0  -5  -7   15.90    2.00
   0  -5  -7   13.90    1.80
   0   5   7   12.10    1.80
   0   5   7   10.50    1.60
   0   5   7   10.90    1.60
   0   5   7   12.80    1.70
   0   5  -7   13.70    1.80
   0   5   7   13.70    1.70
   0   5   7   14.50    1.80
   1  -5   7  135.79    5.30
  -1  -5  -7  136.39    4.80
   1  -5   7  135.99    4.50
  -1  -5  -7  137.19    4.80
   1   5   7  134.79    4.20
   1   5   7  136.59    4.50
   1   5   7  137.49    4.30
   1   5   7  137.09    4.60
  -1   5  -7  131.99    3.90
   2  -5   7  605.34   14.00
  -2  -5  -7  631.64   13.00
   2   5   7  618.44   14.60
   2   5   7  597.34   13.20
  -2   5  -7  592.94   11.10
   2   5   7  627.34   12.50
  -3  -5  -7  146.99    5.70
   3  -5   7  144.39    6.20
  -3  -5  -7  145.79    5.70
   3   5   7  144.59    5.00
   3  -6  -7   55.39    3.40
  -3   6   7   58.29    4.10
  -2  -6   7   11.80    2.00
  -2  -6   7   12.90    2.00
   2  -6  -7   15.80    2.10
   2   6  -7   14.70    2.50
  -1  -6   7   17.30    2.80
   1  -6  -7   16.70    1.90
  -1  -6   7   20.80    2.20
   1  -6  -7   17.60    2.10
   1  -6  -7   17.40    2.10
  -1   6   7   18.60    2.30
   1   6  -7   21.10    2.50
   0  -6   7  124.29    5.30
   0  -6  -7  115.49    4.60
   0  -6   7  121.29    3.70
   0  -6  -7  122.29    4.50
   0  -6   7  119.19    4.70
   0  -6  -7  121.69    4.30
   0  -6  -7  116.59    4.40
   0  -6  -7  121.79    4.70
   0   6  -7  122.89    4.40
   0   6   7  130.09    4.90
   0   6   7  122.69    4.60
  -1  -6  -7   90.79    4.40
  -1  -6  -7   91.89    4.10
   1  -6   7   95.09    4.80
  -1   6  -7   93.49    3.60
   1   6   7   89.89    4.10
   1   6   7   92.59    3.70
   1   6   7   95.79    4.10
   1   6   7   91.49    3.80
  -2  -6  -7   50.29    3.70
  -2  -6  -7   49.60    3.70
   2  -6   7   45.90    3.90
  -2   6  -7   44.20    2.60
   2   6   7   48.70    3.40
  -2  -7   7   55.59    4.90
  -2  -7   7   49.60    3.60
   2  -7  -7   43.80    3.30
   2   7  -7   57.69    4.70
  -1  -7   7   74.99    3.80
   1  -7  -7   70.29    3.80
   1  -7  -7   75.09    3.40
  -1  -7   7   68.89    4.80
  -1   7   7   72.09    4.00
   1   7  -7   76.99    4.50
   0  -7  -7   24.20    2.60
   0  -7   7   25.90    2.10
   0  -7  -7   27.00    2.80
   0  -7   7   26.70    2.90
   0  -7  -7   23.90    2.50
   0  -7  -7   27.90    2.50
   0  -7   7   27.30    3.20
   0   7  -7   32.50    3.00
   0   7   7   21.00    2.60
   1  -7   7   -1.80    1.90
  -1  -7  -7    4.50    1.90
  -1  -7  -7    2.20    1.80
  -1   7  -7    1.60    1.60
   1   7   7    2.40    1.60
  -2  -7  -7   18.20    2.80
  -2  -7  -7   16.60    2.80
   2  -7   7   13.40    2.80
   2   7   7   13.30    2.40
  -2   7  -7   16.60    2.00
   0  -8  -7   18.40    2.50
   0  -8   7   16.40    3.00
   0   8   7   20.10    2.80
   0   8  -7   21.80    2.90
   4   0  -8   32.70    2.80
  -4   0   8   32.00    3.00
  -3   0   8  502.35   11.10
   3   0  -8  510.05   10.60
  -3   0   8  495.35   10.70
   3   0  -8  514.15   10.70
  -3   0   8  494.85   10.70
  -2   0   8  129.69    4.10
   2   0  -8  124.69    4.50
   2   0  -8  127.19    4.10
   2   0  -8  126.49    4.00
   2   0  -8  130.09    4.10
  -2   0   8  126.89    4.10
  -2   0   8  127.69    3.90
  -2   0   8  122.19    4.10
   2   0  -8  124.99    4.20
  -2   0   8  126.19    4.00
  -2   0   8  119.99    4.20
   2   0  -8  126.49    4.10
  -2   0   8  130.59    4.00
  -2   0   8  134.49    4.10
  -2   0   8  128.19    4.70
   2   0  -8  129.19    4.10
   1   0  -8   11.50    1.30
  -1   0   8    9.50    1.20
   1   0  -8    8.30    1.30
  -1   0   8    9.30    1.40
  -1   0   8    9.20    1.10
   1   0  -8    9.00    1.20
  -1   0   8   10.80    1.40
  -1   0   8    8.20    1.20
   1   0  -8    9.90    1.50
  -1   0   8    9.60    1.10
  -1   0   8    9.20    1.30
   1   0  -8    7.50    1.10
  -1   0   8    9.10    1.20
   1   0  -8    6.80    1.20
  -1   0   8   10.20    1.20
  -1   0   8    8.70    1.10
  -1   0   8   10.20    1.20
   1   0  -8    8.00    1.30
   1   0  -8   10.50    1.30
   1   0  -8    8.50    1.20
   0   0   8    0.60    0.60
   0   0   8    1.20    1.00
   0   0  -8    0.80    0.70
   0   0  -8    0.70    0.80
   0   0   8    0.50    0.60
   0   0  -8    0.60    0.70
   0   0   8    1.50    0.60
   0   0  -8    0.10    0.70
   0   0   8    2.10    0.70
   0   0   8    1.40    0.70
   0   0   8   -0.10    0.70
   0   0   8    0.90    0.80
   0   0  -8    0.90    0.70
   0   0  -8    0.10    0.80
   0   0   8   -0.10    0.60
   0   0   8    0.40    0.90
   0   0  -8    1.00    0.70
   0   0  -8    0.50    1.00
   1   0   8  100.39    3.60
   1   0   8  108.19    2.60
  -1   0  -8  104.29    3.20
  -1   0  -8  104.39    2.80
  -1   0  -8  106.89    2.80
  -1   0  -8  101.09    2.70
   1   0   8  109.49    3.60
   1   0   8  104.09    2.30
  -1   0  -8  102.99    2.70
  -1   0  -8  106.19    2.80
  -1   0  -8  104.39    2.80
   1   0   8  103.29    2.30
  -2   0  -8   66.69    2.20
  -2   0  -8   65.99    2.20
  -2   0  -8   67.89    2.20
  -3   0  -8   26.70    1.80
  -4   0  -8    0.90    1.30
  -4  -1   8   15.00    2.40
   4  -1  -8   15.80    2.20
   4   1  -8   15.60    2.30
  -4   1   8   18.30    2.50
   3  -1  -8   11.50    1.70
   3  -1  -8    9.90    1.80
  -3  -1   8   11.10    2.00
   3  -1  -8   12.00    1.60
   3  -1  -8   12.40    1.60
  -3  -1   8   11.90    1.90
   3  -1  -8   10.10    1.80
  -3  -1   8    7.30    1.50
   3   1  -8    9.80    1.70
  -3   1   8   10.20    1.80
   3   1  -8   10.70    1.90
   3   1  -8    6.70    1.90
  -3   1   8    9.00    1.50
   3   1  -8   10.00    2.00
  -3   1   8   11.40    1.70
   2  -1  -8   92.69    3.50
  -2  -1   8   92.99    3.80
  -2  -1   8   93.79    4.10
  -2  -1   8   96.19    3.40
   2  -1  -8   95.19    3.40
   2  -1  -8   94.09    3.50
  -2  -1   8   92.59    3.50
  -2  -1   8   98.99    3.50
   2  -1  -8   95.89    3.50
  -2  -1   8   92.89    3.50
   2  -1  -8   89.59    3.90
  -2  -1   8   97.79    3.40
   2  -1  -8   96.19    3.70
  -2  -1   8   97.39    3.70
  -2  -1   8   98.19    3.50
   2  -1  -8   97.19    3.50
  -2   1   8   96.29    3.40
   2   1  -8   94.49    3.80
   2   1  -8  101.09    3.60
   2   1  -8   91.69    3.60
  -2   1   8   95.19    3.50
   2   1  -8   93.59    3.50
   2   1  -8   91.99    4.00
   2   1  -8  103.09    3.70
  -2   1   8   94.29    3.40
   2   1  -8   91.29    3.60
  -2   1   8   92.09    3.70
  -2   1   8   93.79    3.50
  -2   1   8   94.89    3.40
  -2   1   8   96.69    3.40
  -2   1   8   90.39    3.50
   1  -1  -8  383.96    8.00
   1  -1  -8  396.26    8.10
   1  -1  -8  396.46    8.20
   1  -1  -8  388.06    7.90
  -1  -1   8  394.66    7.90
  -1  -1   8  394.66    7.60
  -1  -1   8  387.96    7.70
  -1  -1   8  389.06    8.40
  -1  -1   8  397.86    7.80
  -1  -1   8  386.96    7.70
   1  -1  -8  381.16    9.40
  -1  -1   8  390.16    7.90
   1  -1  -8  394.96    7.90
  -1  -1   8  395.16    7.90
   1  -1  -8  391.46    8.60
  -1  -1   8  390.66    9.10
   1  -1  -8  404.16    8.70
  -1  -1   8  387.86    7.80
  -1  -1   8  383.06    8.70
   1  -1  -8  392.16    8.30
   1  -1  -8  397.36    8.20
  -1  -1   8  377.66    8.50
  -1  -1   8  393.96    9.20
  -1   1   8  390.96    7.90
  -1   1   8  386.46    9.30
   1   1  -8  382.56    8.60
  -1   1   8  396.66    9.30
  -1   1   8  390.36    7.80
   1   1  -8  383.16    8.00
   1   1  -8  386.06    7.80
   1   1  -8  389.56    8.00
  -1   1   8  393.46    8.10
   1   1  -8  393.56    8.20
  -1   1   8  386.46    8.00
  -1   1   8  383.86    8.40
   1   1  -8  392.96    9.40
  -1   1   8  391.16    8.60
   1   1  -8  386.86    8.00
  -1   1   8  388.46    7.80
   1   1  -8  388.66    7.90
  -1   1   8  384.36    7.80
  -1   1   8  382.66    8.50
  -1   1   8  392.66    8.00
   0  -1  -8  415.36    9.40
   0  -1  -8  409.96    8.10
   0  -1  -8  401.86    8.00
   0  -1  -8  412.66    7.90
   0  -1   8  424.16    7.50
   0  -1  -8  401.76    9.40
   0  -1   8  418.56    8.80
   0  -1   8  400.96    7.80
   0  -1  -8  400.46    7.90
   0  -1  -8  410.36    8.20
   0  -1   8  410.36    8.80
   0  -1   8  405.16    7.70
   0  -1   8  403.26    7.50
   0  -1   8  400.66    8.80
   0  -1  -8  418.66    8.70
   0  -1   8  405.76    8.90
   0   1   8  410.16    7.70
   0   1  -8  409.76    9.20
   0   1  -8  400.36    7.70
   0   1   8  413.16    8.30
   0   1  -8  403.46    7.90
   0   1  -8  412.56    7.90
   0   1   8  398.86    8.80
   0   1  -8  422.26    9.20
   0   1   8  404.16    8.30
   0   1  -8  402.46    8.40
   0   1  -8  415.96    7.70
   0   1   8  416.46    8.10
   0   1   8  421.06    7.70
   0   1   8  416.46    7.90
   0   1   8  397.86    8.30
   0   1   8  418.06    8.00
   0   1   8  406.06    9.20
   0   1  -8  402.56    7.80
   0   1   8  410.36    9.20
   0   1   8  418.66    7.90
  -1  -1  -8   20.90    1.50
   1  -1   8   23.10    2.00
  -1  -1  -8   25.00    1.60
  -1  -1  -8   24.30    1.60
  -1  -1  -8   23.80    1.80
  -1  -1  -8   21.40    1.50
   1  -1   8   22.30    2.00
  -1  -1  -8   21.40    1.80
  -1  -1  -8   23.40    1.70
  -1   1  -8   23.60    1.20
   1   1   8   23.20    1.50
   1   1   8   24.00    1.30
  -1   1  -8   23.40    1.40
   1   1   8   22.30    1.30
  -1   1  -8   22.90    1.30
  -1   1  -8   20.70    1.50
   1   1   8   22.90    1.40
   1   1   8   21.20    1.70
   1   1   8   20.10    1.40
  -1   1  -8   23.50    1.30
   2  -1   8  163.38    5.30
  -2  -1  -8  165.78    4.20
  -2  -1  -8  163.68    4.10
  -3  -1  -8  253.37    5.90
  -4  -1  -8   74.49    3.50
  -4   1  -8   70.99    2.70
   4  -2  -8    8.40    1.80
  -4  -2   8    8.00    2.20
   4   2  -8   10.20    1.90
  -4   2   8    5.10    1.80
   4   2  -8    5.50    1.90
   3  -2  -8   56.59    3.20
  -3  -2   8   60.09    3.50
   3  -2  -8   54.99    3.00
   3  -2  -8   54.49    3.40
   3  -2  -8   59.19    2.40
  -3   2   8   55.59    3.40
   3   2  -8   60.29    3.30
   3   2  -8   61.99    3.40
   3   2  -8   52.49    3.50
   3   2  -8   62.29    3.60
  -2  -2   8  433.26   10.10
   2  -2  -8  425.06    9.20
   2  -2  -8  443.46    9.10
   2  -2  -8  412.56   10.50
   2  -2  -8  431.26    9.20
   2  -2  -8  433.76    8.70
   2  -2  -8  442.36    9.80
  -2  -2   8  429.46    9.10
  -2  -2   8  431.26    9.00
  -2  -2   8  433.56   10.70
  -2  -2   8  430.36    9.90
  -2  -2   8  435.06    9.30
  -2  -2   8  434.36    9.00
  -2  -2   8  430.26    9.20
   2  -2  -8  440.76    9.20
   2   2  -8  413.56    9.20
  -2   2   8  422.26    9.90
  -2   2   8  437.86    9.20
  -2   2   8  419.16    9.20
   2   2  -8  422.06    9.50
  -2   2   8  432.06    9.10
   2   2  -8  438.06   10.10
  -2   2   8  421.16    9.10
  -2   2   8  424.26    9.10
   2   2  -8  437.06    9.30
   2   2  -8  429.66    9.30
   2   2  -8  436.76    9.40
  -2   2   8  426.66    9.00
  -1  -2   8   75.29    3.30
   1  -2  -8   80.99    3.00
  -1  -2   8   78.79    2.80
   1  -2  -8   75.39    2.90
  -1  -2   8   82.79    3.40
  -1  -2   8   77.49    3.20
   1  -2  -8   84.89    3.10
  -1  -2   8   80.69    3.30
  -1  -2   8   77.49    2.80
  -1  -2   8   75.29    2.80
   1  -2  -8   80.59    3.20
  -1  -2   8   78.79    2.50
  -1  -2   8   81.39    2.80
   1  -2  -8   75.69    3.50
   1  -2  -8   79.29    3.00
   1  -2  -8   78.59    2.80
   1  -2  -8   77.69    2.90
  -1  -2   8   76.29    2.70
  -1  -2   8   80.39    2.50
  -1  -2   8   77.49    2.70
   1  -2  -8   78.19    3.00
   1  -2  -8   79.49    3.40
   1  -2  -8   76.39    3.00
   1  -2  -8   83.69    3.10
   1   2  -8   79.79    2.90
   1   2  -8   74.29    3.00
   1   2  -8   72.69    3.00
  -1   2   8   80.59    3.00
   1   2  -8   76.39    2.90
  -1   2   8   83.19    3.00
   1   2  -8   81.89    2.90
  -1   2   8   83.69    3.50
   1   2  -8   75.39    2.90
   1   2  -8   78.99    3.40
   1   2  -8   72.09    2.90
  -1   2   8   78.19    2.90
  -1   2   8   81.69    3.40
  -1   2   8   73.59    2.90
  -1   2   8   92.59    3.20
  -1   2   8   79.69    2.90
  -1   2   8   75.79    2.80
  -1   2   8   77.49    3.00
  -1   2   8   81.49    2.90
   0  -2   8    3.30    0.70
   0  -2  -8    3.20    1.00
   0  -2   8    2.70    0.90
   0  -2  -8    5.50    1.00
   0  -2   8    4.40    0.90
   0  -2   8    5.50    0.80
   0  -2  -8    5.90    1.10
   0  -2   8    6.30    1.30
   0  -2   8    5.20    0.80
   0  -2  -8    6.00    1.10
   0  -2  -8    3.50    1.10
   0  -2  -8    6.90    1.40
   0  -2  -8    5.30    1.40
   0  -2  -8    4.30    1.00
   0  -2   8    3.80    1.20
   0  -2  -8    4.50    1.00
   0   2   8    5.80    1.20
   0   2   8    5.90    1.00
   0   2  -8    5.10    1.00
   0   2   8    6.70    1.00
   0   2  -8    4.00    0.90
   0   2   8    4.40    0.90
   0   2  -8    5.40    0.90
   0   2  -8    4.10    0.90
   0   2  -8    4.30    0.90
   0   2   8    4.50    0.90
   0   2  -8    5.60    1.20
   0   2   8    4.70    1.00
   0   2   8    5.20    0.80
   0   2   8    4.80    1.00
   0   2   8    5.20    1.20
   0   2   8    6.60    1.00
   0   2   8    5.60    1.00
   0   2   8    4.00    0.90
   0   2   8    4.80    1.00
   0   2   8    4.20    1.20
  -1  -2  -8 1000.30   17.70
  -1  -2  -8  997.80   20.70
  -1  -2  -8 1011.10   17.70
   1  -2   8 1010.50   19.60
   1  -2   8  988.50   19.10
  -1  -2  -8  982.50   20.60
  -1  -2  -8  994.90   19.20
  -1  -2  -8  973.40   17.20
  -1  -2  -8 1019.60   17.70
  -1   2  -8  980.50   16.70
  -1   2  -8  968.10   16.70
   1   2   8 1004.00   18.30
   1   2   8  984.40   17.10
   1   2   8 1029.70   20.20
  -1   2  -8 1005.90   16.80
   1   2   8  998.80   20.20
   1   2   8 1013.60   17.20
   1   2   8 1010.10   16.60
  -2  -2  -8  833.22   14.80
   2  -2   8  794.42   16.10
  -2  -2  -8  794.72   14.80
   2  -2   8  791.82   16.80
   2   2   8  815.42   14.00
  -3  -2  -8  131.99    4.30
  -4  -2  -8    9.60    2.00
  -4  -3   8   30.60    3.30
   4  -3  -8   24.50    2.50
   4   3  -8   28.70    3.40
   4   3  -8   29.40    2.80
  -4   3   8   28.30    3.10
   3  -3  -8    3.50    1.20
   3  -3  -8    3.30    1.40
   3  -3  -8    5.70    1.60
  -3  -3   8    2.40    1.60
  -3   3   8    3.30    1.50
   3   3  -8    4.50    1.70
   3   3  -8    2.20    1.60
   3   3  -8    5.00    1.80
  -2  -3   8  203.98    5.40
  -2  -3   8  202.08    5.90
  -2  -3   8  212.18    5.60
   2  -3  -8  201.98    5.20
   2  -3  -8  201.38    5.80
   2  -3  -8  205.78    5.40
  -2  -3   8  201.98    5.50
   2  -3  -8  205.68    5.60
   2  -3  -8  205.88    5.60
  -2  -3   8  205.18    5.60
   2  -3  -8  199.38    6.30
   2   3  -8  205.78    5.90
   2   3  -8  199.58    5.80
  -2   3   8  205.48    5.60
   2   3  -8  208.18    5.80
  -2   3   8  205.78    5.60
  -1  -3   8  151.88    3.80
   1  -3  -8  146.09    4.40
   1  -3  -8  153.78    4.70
  -1  -3   8  142.19    5.00
   1  -3  -8  140.69    4.30
   1  -3  -8  156.28    4.50
  -1  -3   8  144.99    4.10
  -1  -3   8  145.79    4.70
  -1  -3   8  144.19    4.10
   1  -3  -8  142.99    4.20
   1  -3  -8  147.79    4.50
  -1  -3   8  144.59    4.00
  -1  -3   8  153.08    4.80
  -1  -3   8  150.38    3.90
   1  -3  -8  151.68    4.50
   1  -3  -8  149.39    5.10
  -1  -3   8  146.79    4.90
  -1   3   8  145.19    4.10
  -1   3   8  157.58    4.40
  -1   3   8  143.39    5.10
   1   3  -8  149.19    4.40
  -1   3   8  147.69    4.30
  -1   3   8  146.29    4.30
  -1   3   8  148.79    4.20
  -1   3   8  146.89    4.40
   1   3  -8  150.98    4.40
   1   3  -8  150.58    5.10
  -1   3   8  143.19    4.30
  -1   3   8  153.88    4.70
   0  -3   8  361.16    6.80
   0  -3   8  354.46    6.80
   0  -3  -8  359.06    7.90
   0  -3  -8  363.26    7.80
   0  -3   8  353.36    7.00
   0  -3  -8  347.47    7.50
   0  -3  -8  363.76    7.80
   0  -3   8  362.56    8.40
   0  -3  -8  365.56    8.40
   0  -3  -8  366.36    7.60
   0  -3  -8  359.46    7.70
   0  -3   8  365.76    8.70
   0  -3  -8  350.96    9.10
   0   3  -8  359.86    7.30
   0   3   8  356.16    8.90
   0   3   8  351.16    7.60
   0   3   8  354.96    8.10
   0   3   8  349.37    8.90
   0   3  -8  360.16    8.60
   0   3   8  363.76    7.70
   0   3   8  359.76    7.60
   0   3   8  356.46    7.40
   0   3  -8  355.26    7.30
   0   3  -8  361.76    7.90
   0   3   8  361.36    7.50
   0   3   8  358.76    7.60
   0   3  -8  360.86    7.40
  -1  -3  -8  328.17    7.40
  -1  -3  -8  320.27    8.60
  -1  -3  -8  328.87    7.40
   1  -3   8  333.07    7.90
   1  -3   8  333.07    8.30
  -1   3  -8  327.47    6.40
   1   3   8  336.97    8.20
   1   3   8  326.17    7.10
  -1   3  -8  332.17    6.40
   1   3   8  334.17    7.30
   1   3   8  333.07    6.70
   1   3   8  330.37    8.30
   1   3   8  323.57    7.20
  -2  -3  -8   25.40    2.20
   2  -3   8   26.70    2.30
   2  -3   8   24.00    2.50
   2   3   8   29.40    2.10
   2   3   8   28.90    2.30
   2   3   8   26.90    2.10
   3  -3   8   81.49    4.60
  -3  -3  -8   78.29    3.80
   3   3   8   78.59    2.90
   3  -4  -8   41.50    2.90
  -3   4   8   36.80    3.00
   3   4  -8   41.50    3.40
  -2  -4   8  136.99    4.70
   2  -4  -8  149.79    4.40
  -2  -4   8  153.58    4.70
  -2  -4   8  148.89    4.70
   2  -4  -8  147.49    4.80
  -2  -4   8  148.09    4.90
   2  -4  -8  142.39    4.30
   2  -4  -8  136.49    4.70
  -2   4   8  139.29    4.80
   2   4  -8  152.28    5.20
   2   4  -8  147.29    5.10
  -2   4   8  134.09    4.60
  -1  -4   8   31.10    2.10
  -1  -4   8   35.40    3.00
  -1  -4   8   37.80    3.20
   1  -4  -8   34.00    2.60
   1  -4  -8   32.30    2.40
   1  -4  -8   36.00    2.70
  -1  -4   8   39.10    2.40
   1  -4  -8   36.40    2.60
  -1  -4   8   36.20    2.80
  -1  -4   8   36.40    2.70
   1  -4  -8   36.40    2.70
   1  -4  -8   33.80    2.60
  -1  -4   8   37.40    2.20
  -1   4   8   34.00    2.60
   1   4  -8   35.00    2.80
  -1   4   8   33.30    2.60
  -1   4   8   36.90    2.50
   1   4  -8   35.70    2.50
  -1   4   8   32.90    2.40
  -1   4   8   35.20    2.40
  -1   4   8   33.50    2.50
   0  -4  -8   77.39    3.40
   0  -4   8   73.89    3.60
   0  -4  -8   79.09    3.50
   0  -4  -8   72.49    3.20
   0  -4  -8   70.89    3.20
   0  -4  -8   78.29    3.50
   0  -4  -8   74.49    3.30
   0  -4   8   79.79    2.60
   0  -4   8   78.29    3.90
   0   4   8   77.99    3.90
   0   4   8   73.49    3.30
   0   4   8   74.39    3.10
   0   4   8   73.59    3.20
   0   4   8   76.89    3.20
   0   4  -8   74.29    3.10
   0   4  -8   74.29    2.90
   0   4   8   77.89    3.20
   1  -4   8 1096.89   21.20
  -1  -4  -8 1122.29   20.20
   1  -4   8 1109.49   22.10
  -1  -4  -8 1123.69   20.20
  -1   4  -8 1021.00   19.20
   1   4   8 1109.79   19.40
   1   4   8 1135.99   23.40
   1   4   8 1123.19   19.70
   1   4   8 1087.99   21.30
   1   4   8 1108.29   20.20
  -1   4  -8 1132.89   19.00
   1   4   8 1073.99   20.10
   2  -4   8  225.88    7.10
   2  -4   8  233.38    6.20
  -2  -4  -8  245.48    6.50
   2   4   8  230.78    5.40
   2   4   8  227.08    6.70
   2   4   8  226.08    5.90
  -2   4  -8  232.38    4.60
  -3  -4  -8    4.10    1.70
   3  -4   8    5.50    2.10
   3   4   8    6.90    1.50
   3  -5  -8    4.40    1.60
  -3   5   8    4.90    2.00
   3   5  -8    2.60    2.20
  -2  -5   8   44.20    3.00
   2  -5  -8   47.20    2.50
   2  -5  -8   46.10    2.90
  -2  -5   8   50.89    3.10
   2  -5  -8   46.60    3.00
   2  -5  -8   49.99    2.50
  -2  -5   8   45.60    3.10
  -2   5   8   46.20    3.30
   2   5  -8   47.50    3.80
  -1  -5   8   27.20    3.00
  -1  -5   8   26.90    2.90
   1  -5  -8   30.30    2.30
   1  -5  -8   30.70    2.60
   1  -5  -8   28.90    2.50
  -1  -5   8   24.00    2.00
   1  -5  -8   27.30    2.30
  -1  -5   8   26.30    2.20
  -1  -5   8   30.20    2.70
   1  -5  -8   26.60    2.40
  -1   5   8   26.40    2.40
   1   5  -8   25.70    2.50
   0  -5  -8    4.90    1.60
   0  -5  -8    5.90    1.50
   0  -5  -8    3.30    1.50
   0  -5   8    4.20    1.70
   0  -5   8    4.50    1.80
   0  -5   8    4.10    1.20
   0  -5  -8    3.00    1.50
   0   5   8    6.20    1.50
   0   5  -8    4.80    1.50
   0   5   8    2.60    1.20
   0   5   8    5.70    1.50
   0   5   8    4.20    1.40
   0   5   8    5.00    1.40
   1  -5   8   19.60    2.70
  -1  -5  -8   19.60    2.30
  -1  -5  -8   18.50    2.30
   1  -5   8   22.20    2.30
   1   5   8   17.20    1.80
   1   5   8   18.90    2.10
  -1   5  -8   19.40    1.80
   1   5   8   23.30    1.90
   1   5   8   20.20    2.10
   2  -5   8   89.79    4.80
  -2  -5  -8   88.39    4.30
  -2   5  -8   86.89    2.80
   2   5   8   76.79    3.80
  -3  -5  -8   82.19    4.70
  -3  -5  -8   85.49    5.00
   3  -5   8   92.99    5.30
   3   5   8   81.59    3.80
  -2  -6   8   27.30    2.70
   2  -6  -8   26.40    2.60
  -2  -6   8   28.40    2.20
  -2   6   8   31.60    3.10
   2   6  -8   33.30    3.40
  -1  -6   8   17.10    2.80
   1  -6  -8   12.00    2.00
  -1  -6   8   19.20    2.00
   1  -6  -8   15.10    1.90
  -1  -6   8   17.60    2.80
   1  -6  -8   12.60    1.90
   1   6  -8   15.00    2.30
  -1   6   8   16.90    2.30
   0  -6  -8    3.30    1.50
   0  -6  -8    1.20    1.50
   0  -6   8    0.60    1.80
   0  -6   8    2.20    1.10
   0  -6  -8   -0.40    1.40
   0  -6   8    0.90    1.60
   0   6  -8   -0.10    1.50
   0   6   8    1.50    1.40
   0   6   8    0.40    1.40
   0   6   8    3.70    1.50
  -1  -6  -8   52.49    3.60
   1  -6   8   48.60    4.10
  -1   6  -8   52.39    2.90
   1   6   8   50.89    3.30
   1   6   8   49.10    3.20
   1   6   8   46.40    2.90
   2  -6   8    5.70    2.30
  -2  -6  -8    1.90    1.90
  -2  -6  -8    4.40    2.20
  -2   6  -8    7.60    1.40
   2   6   8    7.10    1.80
   2  -7  -8    9.90    2.10
  -2  -7   8    9.20    2.20
  -2  -7   8   13.20    3.20
   2   7  -8   14.30    2.90
  -2   7   8    8.20    2.40
  -1  -7   8   40.70    3.90
  -1  -7   8   28.30    2.70
   1  -7  -8   30.90    2.90
  -1  -7   8   32.10    3.70
   1  -7  -8   30.60    2.50
  -1   7   8   29.50    2.90
   1   7  -8   33.80    3.30
   0  -7   8  165.88    4.70
   0  -7  -8  173.18    5.50
   0  -7   8  173.28    6.20
   0  -7   8  167.88    6.70
   0   7   8  170.98    6.10
   0   7  -8  173.18    5.90
  -1  -7  -8   22.80    2.80
  -1  -7  -8   22.40    2.80
   1  -7   8   28.70    3.50
   1   7   8   24.20    2.70
   1   7   8   22.50    2.40
  -1   7  -8   23.70    2.50
   4   0  -9   19.80    2.40
  -4   0   9   20.80    2.80
   3   0  -9    5.90    1.60
  -3   0   9    4.00    1.70
   3   0  -9    6.20    1.70
   3   0  -9    7.20    1.70
  -3   0   9    4.00    1.60
  -3   0   9    2.30    1.20
  -2   0   9   52.19    2.80
  -2   0   9   49.80    2.70
  -2   0   9   51.39    2.90
   2   0  -9   51.49    2.90
  -2   0   9   52.69    2.70
  -2   0   9   50.29    2.80
   2   0  -9   47.50    2.90
   2   0  -9   53.79    2.90
  -2   0   9   47.90    3.00
  -2   0   9   51.29    3.00
   2   0  -9   54.29    3.10
  -2   0   9   52.39    2.80
   2   0  -9   57.39    3.10
   2   0  -9   48.20    2.80
   1   0  -9  111.59    4.20
   1   0  -9  105.99    3.40
  -1   0   9  105.69    3.40
   1   0  -9  100.09    3.40
  -1   0   9   97.69    3.20
  -1   0   9  107.99    3.20
  -1   0   9  105.09    3.30
   1   0  -9  100.99    3.30
   1   0  -9  101.39    3.40
  -1   0   9  104.59    3.90
   1   0  -9  102.59    3.40
  -1   0   9  105.79    3.20
  -1   0   9  102.79    3.90
  -1   0   9  104.39    3.70
  -1   0   9   96.09    3.30
  -1   0   9  100.09    3.30
   1   0  -9  100.19    3.40
  -1   0   9  103.09    3.40
   1   0  -9  105.09    3.60
   1   0  -9  102.19    3.90
   0   0   9  160.88    3.90
   0   0  -9  160.98    4.10
   0   0  -9  158.88    4.70
   0   0   9  152.98    3.60
   0   0  -9  161.88    4.10
   0   0  -9  165.08    4.90
   0   0  -9  157.78    4.00
   0   0   9  160.48    4.50
   0   0   9  162.38    3.60
   0   0  -9  159.78    4.30
   0   0   9  165.88    4.40
   0   0   9  161.08    3.90
   0   0   9  160.58    4.70
   0   0   9  171.68    4.60
   0   0  -9  161.68    4.10
   0   0   9  164.28    3.50
   1   0   9    0.20    0.50
  -1   0  -9    0.60    0.80
  -1   0  -9   -0.90    0.60
   1   0   9    1.00    1.10
  -1   0  -9    1.00    0.70
  -1   0  -9    1.00    0.80
  -1   0  -9    0.00    0.90
   1   0   9    0.90    1.00
   1   0   9    1.10    0.70
   1   0   9    0.30    0.50
   2   0   9   16.30    2.10
  -2   0  -9   16.60    1.40
  -2   0  -9   15.80    1.30
  -3   0  -9   22.80    1.90
  -4   0  -9    1.70    1.30
   4  -1  -9   96.79    4.50
  -4  -1   9   94.49    4.90
  -4  -1   9  101.19    5.10
  -4   1   9  108.79    4.90
   4   1  -9  105.39    3.80
   4   1  -9  101.79    4.70
   3  -1  -9   27.20    2.50
  -3  -1   9   26.10    2.50
   3  -1  -9   31.00    2.70
   3  -1  -9   26.90    2.20
  -3  -1   9   30.20    2.90
   3   1  -9   30.90    2.80
  -3   1   9   27.50    2.60
  -3   1   9   27.80    2.50
  -3   1   9   25.80    2.40
   3   1  -9   27.70    2.80
   3   1  -9   30.80    2.60
   2  -1  -9   55.99    3.10
  -2  -1   9   52.09    2.90
   2  -1  -9   50.39    2.90
  -2  -1   9   51.79    3.20
  -2  -1   9   51.09    2.90
  -2  -1   9   52.69    2.90
   2  -1  -9   56.79    3.00
  -2  -1   9   54.09    2.70
  -2  -1   9   58.39    2.90
   2  -1  -9   54.29    3.10
  -2  -1   9   55.69    3.00
   2  -1  -9   49.50    2.80
   2   1  -9   54.29    3.00
  -2   1   9   51.49    2.90
  -2   1   9   49.80    2.80
  -2   1   9   57.09    3.00
   2   1  -9   52.59    3.00
  -2   1   9   57.59    2.90
  -2   1   9   53.89    2.80
   2   1  -9   56.79    3.10
   2   1  -9   52.29    2.90
   2   1  -9   51.59    3.00
   2   1  -9   54.49    3.20
  -2   1   9   52.89    2.80
  -2   1   9   52.29    2.90
  -2   1   9   51.69    3.00
  -1  -1   9   55.49    2.30
   1  -1  -9   50.99    2.50
   1  -1  -9   51.39    2.60
  -1  -1   9   51.69    2.80
  -1  -1   9   50.49    2.30
   1  -1  -9   50.89    2.60
  -1  -1   9   49.20    2.30
   1  -1  -9   52.79    2.60
  -1  -1   9   52.49    2.40
  -1  -1   9   52.79    2.80
  -1  -1   9   53.29    2.40
   1  -1  -9   49.99    2.60
  -1  -1   9   51.39    2.30
   1  -1  -9   51.39    2.60
  -1  -1   9   52.79    2.80
   1  -1  -9   49.80    2.50
   1  -1  -9   47.20    2.50
  -1  -1   9   49.10    2.80
  -1  -1   9   52.89    2.20
   1  -1  -9   50.09    3.00
  -1   1   9   49.20    2.40
   1   1  -9   46.70    2.40
  -1   1   9   48.90    2.40
  -1   1   9   49.80    2.40
  -1   1   9   48.80    2.40
  -1   1   9   49.50    2.50
  -1   1   9   50.99    2.90
  -1   1   9   53.69    2.50
   1   1  -9   52.69    2.90
   1   1  -9   50.99    2.70
   1   1  -9   54.19    2.50
  -1   1   9   49.40    2.40
   1   1  -9   53.09    2.60
  -1   1   9   53.19    2.80
   1   1  -9   52.49    2.50
  -1   1   9   51.09    2.10
  -1   1   9   51.59    2.40
   1   1  -9   51.39    2.50
   1   1  -9   51.09    2.60
  -1   1   9   51.09    2.60
   0  -1  -9  206.18    5.40
   0  -1   9  213.48    5.80
   0  -1  -9  211.28    5.00
   0  -1  -9  207.48    5.00
   0  -1  -9  214.48    5.90
   0  -1   9  213.48    4.60
   0  -1   9  206.38    4.60
   0  -1  -9  212.08    5.20
   0  -1   9  232.68    5.30
   0  -1   9  216.78    4.70
   0  -1  -9  214.18    5.10
   0  -1  -9  205.88    5.80
   0  -1   9  216.38    5.70
   0  -1   9  210.48    5.20
   0  -1  -9  216.08    5.10
   0   1  -9  207.48    4.80
   0   1  -9  216.08    5.70
   0   1  -9  212.38    5.20
   0   1   9  220.48    5.00
   0   1   9  214.28    4.70
   0   1   9  220.78    4.60
   0   1  -9  205.28    4.90
   0   1   9  213.28    5.10
   0   1   9  214.58    5.60
   0   1   9  217.48    5.00
   0   1  -9  217.98    5.80
   0   1   9  214.38    5.00
   0   1  -9  207.68    4.90
   0   1   9  213.88    5.70
   0   1  -9  210.38    4.90
   0   1   9  211.08    4.90
   0   1   9  214.88    5.70
  -1  -1  -9   30.40    2.20
  -1  -1  -9   31.40    1.90
   1  -1   9   33.00    2.40
  -1  -1  -9   33.60    1.90
   1  -1   9   26.30    2.30
  -1  -1  -9   29.90    2.00
  -1   1  -9   28.20    1.60
  -1   1  -9   30.80    1.70
  -1   1  -9   29.00    1.60
   1   1   9   25.50    2.00
   1   1   9   29.60    1.60
   1   1   9   31.20    1.80
   1   1   9   29.60    1.60
   2  -1   9   11.70    1.90
  -2  -1  -9   15.20    1.60
  -2   1  -9   13.30    1.00
  -3  -1  -9   99.19    3.50
  -3   1  -9   97.99    2.70
  -4  -1  -9   12.00    1.90
  -4  -2   9   12.20    2.40
  -4  -2   9    9.70    2.70
   4  -2  -9   12.40    2.20
   4   2  -9   12.10    2.20
  -4   2   9   14.40    2.50
   4   2  -9   19.70    2.80
   3  -2  -9   16.00    2.10
  -3  -2   9   22.50    2.80
   3  -2  -9   24.00    2.00
  -3  -2   9   22.10    2.50
   3  -2  -9   21.80    2.20
   3   2  -9   19.60    2.30
   3   2  -9   19.60    2.30
  -3   2   9   17.50    2.30
   3   2  -9   26.80    2.80
   3   2  -9   22.90    2.50
  -2  -2   9  207.38    5.50
   2  -2  -9  200.38    5.60
   2  -2  -9  205.88    5.60
  -2  -2   9  207.08    6.30
  -2  -2   9  203.18    5.90
   2  -2  -9  203.68    5.60
   2  -2  -9  203.58    5.30
  -2  -2   9  209.28    5.60
  -2  -2   9  205.88    5.40
  -2  -2   9  206.28    5.50
   2  -2  -9  208.08    6.00
  -2   2   9  206.28    6.00
  -2   2   9  202.08    5.60
   2   2  -9  218.88    5.90
  -2   2   9  202.58    5.60
   2   2  -9  199.08    5.70
  -2   2   9  204.38    5.40
  -2   2   9  210.58    5.70
   2   2  -9  211.18    5.80
   2   2  -9  199.28    6.10
   1  -2  -9   32.60    2.20
  -1  -2   9   33.90    2.00
  -1  -2   9   32.10    1.90
  -1  -2   9   33.60    2.60
  -1  -2   9   40.00    2.70
   1  -2  -9   33.00    2.40
   1  -2  -9   35.50    2.40
   1  -2  -9   29.70    2.50
   1  -2  -9   31.40    2.40
   1  -2  -9   30.50    2.40
   1  -2  -9   33.10    2.10
   1  -2  -9   35.60    2.30
   1  -2  -9   33.20    2.30
   1  -2  -9   34.10    2.30
  -1  -2   9   31.10    2.40
  -1  -2   9   29.90    2.00
  -1  -2   9   33.40    2.00
  -1  -2   9   35.30    2.00
  -1  -2   9   34.80    2.50
  -1  -2   9   33.10    2.10
  -1   2   9   32.90    1.40
   1   2  -9   32.90    2.30
  -1   2   9   29.20    2.30
  -1   2   9   34.30    2.70
  -1   2   9   32.90    2.30
  -1   2   9   30.10    2.10
  -1   2   9   29.40    2.10
   1   2  -9   30.80    2.20
  -1   2   9   32.80    2.30
   1   2  -9   37.30    2.30
  -1   2   9   31.40    2.10
  -1   2   9   31.40    2.20
  -1   2   9   33.20    2.30
   1   2  -9   31.80    2.40
   1   2  -9   35.70    2.20
   0  -2  -9   34.20    2.20
   0  -2   9   30.90    1.70
   0  -2  -9   35.50    2.10
   0  -2   9   32.20    1.70
   0  -2   9   32.30    2.50
   0  -2  -9   30.80    2.00
   0  -2  -9   30.10    2.20
   0  -2   9   33.10    2.50
   0  -2   9   36.30    1.80
   0  -2  -9   32.30    2.20
   0  -2  -9   34.50    2.10
   0  -2  -9   32.50    2.40
   0  -2  -9   31.00    2.50
   0  -2   9   32.00    1.60
   0  -2  -9   33.90    2.30
   0   2   9   31.60    2.00
   0   2   9   31.40    1.90
   0   2  -9   33.50    1.90
   0   2   9   34.60    1.70
   0   2   9   29.20    1.90
   0   2  -9   31.80    1.90
   0   2  -9   34.70    1.90
   0   2   9   31.70    1.80
   0   2   9   35.30    2.00
   0   2  -9   32.80    2.00
   0   2  -9   34.10    2.20
   0   2   9   32.10    2.30
   0   2   9   34.70    2.00
   0   2   9   29.70    1.80
   0   2   9   34.30    2.00
   0   2   9   34.30    2.40
   0   2   9   32.70    2.30
  -1  -2  -9  181.18    5.80
  -1  -2  -9  178.98    4.80
   1  -2   9  181.48    5.60
   1  -2   9  182.78    5.40
  -1  -2  -9  187.68    4.90
  -1   2  -9  184.78    4.00
  -1   2  -9  178.08    4.00
   1   2   9  191.48    4.50
   1   2   9  180.08    5.10
   1   2   9  179.48    5.00
   2  -2   9  713.23   14.90
  -2  -2  -9  729.53   13.60
   2  -2   9  724.93   15.60
   2   2   9  716.43   12.60
  -3  -2  -9  123.89    4.30
   4  -3  -9   31.80    2.90
  -4  -3   9   31.60    3.30
  -4   3   9   30.20    3.20
  -3  -3   9   15.50    2.20
   3  -3  -9   17.20    2.10
  -3   3   9   17.90    2.30
   3   3  -9   19.60    2.50
   2  -3  -9    6.50    1.50
  -2  -3   9    6.20    2.00
   2  -3  -9    5.30    1.40
  -2  -3   9    7.80    1.60
  -2  -3   9    8.80    1.70
   2  -3  -9    6.60    1.60
   2  -3  -9   10.20    1.80
  -2  -3   9    6.30    1.50
   2  -3  -9    8.00    1.60
  -2  -3   9    8.60    1.70
  -2   3   9    6.90    1.60
   2   3  -9    4.30    1.60
  -2   3   9    7.60    1.40
   2   3  -9    9.20    2.00
  -1  -3   9   63.49    2.60
   1  -3  -9   68.09    3.30
   1  -3  -9   61.09    3.10
   1  -3  -9   61.29    3.00
  -1  -3   9   67.69    2.70
  -1  -3   9   65.79    3.60
   1  -3  -9   56.59    3.10
  -1  -3   9   55.19    3.30
   1  -3  -9   63.39    3.10
  -1  -3   9   57.99    2.70
  -1  -3   9   56.79    3.10
  -1  -3   9   57.49    2.60
   1  -3  -9   62.69    3.20
   1  -3  -9   61.79    2.80
  -1  -3   9   57.49    3.10
  -1   3   9   59.39    2.90
  -1   3   9   61.89    3.10
   1   3  -9   61.09    3.20
   1   3  -9   58.49    2.90
  -1   3   9   64.59    2.90
  -1   3   9   60.69    3.10
  -1   3   9   63.19    3.00
  -1   3   9   59.09    3.00
  -1   3   9   63.59    3.00
  -1   3   9   60.59    2.80
   0  -3  -9 1836.02   33.90
   0  -3   9 1786.42   29.30
   0  -3   9 1817.52   33.40
   0  -3  -9 1810.12   31.10
   0  -3  -9 1832.02   31.00
   0  -3   9 1798.52   33.60
   0  -3  -9 1770.52   30.40
   0  -3  -9 1809.72   30.60
   0  -3   9 1768.12   29.40
   0   3   9 1764.82   33.60
   0   3  -9 1810.52   30.50
   0   3  -9 1837.12   35.80
   0   3  -9 1794.12   30.40
   0   3   9 1827.32   31.20
   0   3   9 1823.42   32.40
   0   3   9 1834.22   30.40
   0   3   9 1801.02   32.30
   0   3   9 1761.52   36.10
   0   3   9 1805.12   30.70
   0   3   9 1802.12   30.30
  -1  -3  -9  163.58    4.80
   1  -3   9  159.98    5.10
   1  -3   9  172.38    5.60
  -1  -3  -9  162.98    4.90
   1   3   9  165.48    4.50
   1   3   9  152.78    4.20
  -1   3  -9  158.48    3.90
  -1   3  -9  168.68    3.90
   1   3   9  167.98    5.30
   1   3   9  166.18    4.30
   1   3   9  160.68    5.10
   1   3   9  166.08    4.10
  -2  -3  -9   62.89    3.30
   2  -3   9   64.89    3.90
   2  -3   9   61.99    3.20
   2   3   9   60.99    2.70
   2   3   9   62.69    2.80
  -3  -3  -9   55.69    3.50
   3  -3   9   58.09    4.20
   3   3   9   60.29    2.60
  -3  -4   9   36.50    3.30
   3  -4  -9   25.10    2.50
   3   4  -9   21.80    2.80
  -3   4   9   22.30    2.60
  -2  -4   9   61.49    3.20
   2  -4  -9   53.29    3.30
   2  -4  -9   50.49    3.00
   2  -4  -9   53.39    2.90
  -2  -4   9   52.19    3.20
   2  -4  -9   60.09    3.20
  -2  -4   9   58.79    3.20
  -2  -4   9   53.49    3.20
  -2  -4   9   57.39    4.10
  -2   4   9   56.89    3.40
   2   4  -9   58.79    3.40
  -2   4   9   50.89    3.00
   2   4  -9   63.69    3.90
   1  -4  -9   12.50    1.70
   1  -4  -9   15.60    1.90
  -1  -4   9   12.30    2.20
  -1  -4   9   11.00    1.30
  -1  -4   9   16.10    2.30
  -1  -4   9   13.00    1.50
   1  -4  -9   13.80    1.90
   1  -4  -9   18.50    2.10
  -1  -4   9   14.00    1.70
  -1  -4   9   13.00    1.90
   1  -4  -9   15.50    1.80
  -1   4   9   15.20    1.90
  -1   4   9   11.10    1.80
  -1   4   9   14.20    1.80
  -1   4   9   15.40    1.90
   1   4  -9   12.90    1.70
  -1   4   9   15.10    1.90
   1   4  -9   16.70    2.10
   0  -4  -9  130.19    4.50
   0  -4  -9  138.29    4.60
   0  -4   9  135.29    3.60
   0  -4   9  131.79    5.10
   0  -4  -9  135.29    4.50
   0  -4   9  138.09    4.80
   0   4   9  131.09    4.50
   0   4   9  137.09    4.40
   0   4  -9  132.59    4.20
   0   4   9  133.59    4.20
   0   4   9  133.49    4.20
   0   4   9  134.69    4.40
   1  -4   9  296.77    7.70
  -1  -4  -9  307.47    7.50
   1  -4   9  307.57    8.40
  -1  -4  -9  296.27    7.40
   1   4   9  301.47    8.40
   1   4   9  303.27    6.70
   1   4   9  304.07    7.10
   1   4   9  296.57    7.20
  -1   4  -9  298.37    6.40
   2  -4   9  416.66    9.70
  -2  -4  -9  422.16    9.70
   2  -4   9  427.66   10.90
   2   4   9  422.46    9.00
  -2   4  -9  423.76    7.70
   3  -4   9   34.60    3.60
  -3  -4  -9   30.40    2.90
   3   4   9   30.70    2.40
   3  -5  -9    2.00    1.60
  -3  -5   9    1.00    2.00
  -3   5   9   -0.90    1.80
   3   5  -9    1.60    2.10
  -2  -5   9   42.40    3.10
  -2  -5   9   37.90    2.90
   2  -5  -9   40.20    2.70
   2  -5  -9   39.60    3.00
   2   5  -9   43.20    3.50
  -2   5   9   41.80    3.30
   1  -5  -9   27.50    2.50
   1  -5  -9   31.30    2.50
  -1  -5   9   26.90    1.90
   1  -5  -9   31.00    2.70
  -1  -5   9   31.00    3.20
  -1  -5   9   37.50    3.40
   1  -5  -9   28.00    2.60
  -1  -5   9   28.80    2.60
   1  -5  -9   25.10    2.40
  -1  -5   9   25.60    2.20
   1   5  -9   29.80    2.70
  -1   5   9   28.10    2.60
   0  -5   9   30.30    2.90
   0  -5  -9   27.90    2.60
   0  -5   9   26.10    2.90
   0  -5   9   24.40    1.80
   0   5  -9   30.70    2.50
   0   5   9   28.10    2.50
   0   5   9   21.00    2.00
   0   5   9   28.80    2.40
   0   5   9   28.70    2.60
  -1  -5  -9   10.50    2.00
   1  -5   9   11.10    2.30
   1  -5   9   11.20    2.00
   1   5   9   10.20    1.70
  -1   5  -9   10.50    1.60
   1   5   9   10.00    1.60
   1   5   9   10.80    1.50
   2  -5   9   17.10    2.60
  -2  -5  -9   24.40    2.80
  -2   5  -9   23.10    1.80
   2   5   9   20.30    2.30
   3  -5   9   22.80    3.20
  -3  -5  -9   23.50    3.00
   2  -6  -9   21.30    2.50
  -2  -6   9   23.20    3.50
  -2  -6   9   19.60    2.50
  -2   6   9   21.80    2.80
   2   6  -9   25.70    3.10
   1  -6  -9   22.00    2.40
   1  -6  -9   22.50    2.30
  -1  -6   9   25.90    2.40
  -1  -6   9   31.20    3.50
  -1  -6   9   29.60    3.50
   1  -6  -9   25.10    2.60
   1   6  -9   23.80    2.80
   0  -6   9   24.90    3.10
   0  -6  -9   26.00    2.70
   0  -6   9   26.50    2.00
   0  -6   9   24.30    2.80
   0   6  -9   24.90    2.60
   0   6   9   23.90    2.50
   0   6   9   23.40    2.60
   1  -6   9   57.09    4.40
  -1  -6  -9   51.19    3.80
  -1   6  -9   53.69    3.10
   1   6   9   53.79    3.00
   1   6   9   52.49    3.50
   2  -6   9   21.10    3.20
  -2  -6  -9   23.70    3.00
   2   6   9   19.90    2.50
  -2   6  -9   30.50    2.40
  -1  -7   9    4.00    2.50
  -1  -7   9    2.80    1.70
  -1  -7   9    4.40    2.40
   1  -7  -9    5.10    1.90
   1  -7  -9    2.80    1.80
   1   7  -9    7.50    2.30
   0  -7  -9   54.19    3.60
   0  -7   9   43.20    4.00
   0  -7   9   49.50    2.70
   0  -7   9   48.30    3.90
   0   7  -9   55.29    3.90
  -1  -7  -9   22.90    2.90
   1  -7   9   20.90    3.20
  -1  -7  -9   21.10    2.90
  -1   7  -9   21.60    2.40
   1   7   9   18.90    2.40
   1   7   9   22.90    2.80
   4   0 -10    5.60    2.00
  -4   0  10    2.10    2.00
   3   0 -10    4.30    1.70
  -3   0  10    4.30    1.70
   3   0 -10    1.40    1.50
  -3   0  10    2.60    1.70
   3   0 -10    2.20    1.60
  -2   0  10    0.90    1.30
   2   0 -10   -0.90    1.20
  -2   0  10    1.60    1.20
   2   0 -10    1.60    1.30
   2   0 -10    1.00    1.40
  -2   0  10   -2.50    0.90
  -2   0  10   -0.10    1.20
   2   0 -10    0.80    1.20
  -2   0  10    0.40    1.50
   2   0 -10   -1.00    1.10
  -2   0  10    0.30    1.30
  -2   0  10    1.10    1.30
  -1   0  10   61.29    2.60
   1   0 -10   66.19    3.10
  -1   0  10   60.99    2.80
  -1   0  10   68.39    2.90
  -1   0  10   60.59    2.70
  -1   0  10   65.09    2.80
  -1   0  10   67.09    2.70
   1   0 -10   63.89    2.80
  -1   0  10   63.99    3.30
   1   0 -10   68.99    2.90
   1   0 -10   67.69    3.00
   1   0 -10   61.79    3.50
   1   0 -10   63.59    2.90
  -1   0  10   65.59    3.20
  -1   0  10   63.79    2.70
  -1   0  10   59.39    3.20
   1   0 -10   61.69    3.00
   0   0  10   75.29    3.00
   0   0 -10   74.19    2.80
   0   0  10   75.99    3.00
   0   0  10   74.29    3.30
   0   0  10   79.19    3.10
   0   0 -10   74.99    3.20
   0   0 -10   76.29    3.40
   0   0 -10   70.99    2.90
   0   0 -10   73.39    2.80
   0   0  10   74.99    2.10
   0   0  10   76.59    2.60
  -1   0 -10   10.80    1.50
   1   0  10   10.40    0.90
   1   0  10   13.20    1.90
  -1   0 -10   12.20    1.40
   1   0  10   12.20    1.00
  -1   0 -10   13.30    1.40
   1   0  10    9.80    1.60
  -2   0 -10   49.90    2.30
   2   0  10   52.89    3.40
  -3   0 -10    2.50    1.10
   4  -1 -10   32.10    3.00
  -4  -1  10   30.50    3.60
  -4  -1  10   40.80    3.70
   4   1 -10   31.00    3.10
  -4   1  10   42.30    3.60
   3  -1 -10   26.80    2.60
   3  -1 -10   30.70    2.60
  -3  -1  10   29.20    2.80
  -3  -1  10   30.70    3.00
   3  -1 -10   26.60    2.40
   3   1 -10   29.90    2.80
   3   1 -10   28.40    2.80
  -3   1  10   25.20    2.60
   3   1 -10   26.70    2.50
   3   1 -10   29.20    3.00
  -2  -1  10   41.10    2.80
   2  -1 -10   40.00    2.80
  -2  -1  10   40.70    2.80
  -2  -1  10   35.80    3.00
   2  -1 -10   39.50    2.90
  -2  -1  10   42.10    2.70
   2  -1 -10   37.10    2.90
   2  -1 -10   36.00    2.80
   2  -1 -10   36.50    2.70
  -2  -1  10   39.40    2.70
  -2  -1  10   42.50    2.80
   2   1 -10   39.80    2.90
   2   1 -10   35.80    2.80
  -2   1  10   37.80    2.70
  -2   1  10   36.90    2.70
   2   1 -10   38.90    3.10
  -2   1  10   35.40    2.80
  -2   1  10   33.50    2.50
  -2   1  10   35.50    2.60
  -2   1  10   40.60    2.70
   2   1 -10   39.80    2.80
  -2   1  10   38.30    2.50
  -2   1  10   40.00    2.70
   1  -1 -10   97.29    3.60
  -1  -1  10   95.99    3.90
  -1  -1  10  102.89    3.20
   1  -1 -10  101.19    3.60
  -1  -1  10   96.39    4.10
  -1  -1  10   97.69    3.40
   1  -1 -10   99.39    3.50
   1  -1 -10   97.99    3.80
  -1  -1  10  103.19    3.80
  -1  -1  10   96.09    2.90
   1  -1 -10  105.89    3.80
   1  -1 -10  103.09    3.70
  -1  -1  10  101.29    3.40
  -1  -1  10   99.59    4.00
  -1  -1  10  101.49    3.30
  -1   1  10  101.49    4.20
  -1   1  10   94.89    3.70
  -1   1  10   99.19    3.40
  -1   1  10   97.09    3.40
   1   1 -10   98.79    3.60
  -1   1  10  100.39    3.40
  -1   1  10   99.59    3.60
  -1   1  10  101.69    3.50
  -1   1  10   95.59    3.50
   1   1 -10  104.29    3.70
   1   1 -10  102.99    3.60
  -1   1  10   97.19    3.10
  -1   1  10  102.59    3.40
   0  -1 -10   82.39    3.20
   0  -1  10   90.19    2.80
   0  -1 -10   86.19    3.90
   0  -1 -10   89.29    3.30
   0  -1  10   89.59    3.00
   0  -1  10   86.79    2.70
   0  -1  10   87.79    3.60
   0  -1 -10   84.69    3.60
   0  -1  10   93.29    3.10
   0  -1 -10   87.99    3.50
   0  -1  10   87.79    3.70
   0   1  10   92.29    3.60
   0   1  10   83.59    2.70
   0   1  10   95.99    3.40
   0   1  10   89.09    3.00
   0   1  10   89.89    3.30
   0   1 -10   83.89    3.00
   0   1  10   88.09    3.00
   0   1  10   91.19    3.50
   0   1 -10   89.39    3.10
   0   1  10   91.59    2.70
   0   1  10   89.29    2.80
   0   1 -10   90.69    3.50
  -1  -1 -10   23.80    1.90
  -1  -1 -10   26.40    2.30
   1  -1  10   27.40    2.50
   1  -1  10   24.30    2.30
  -1  -1 -10   23.50    1.90
  -1   1 -10   29.60    1.80
   1   1  10   26.40    2.20
   1   1  10   26.20    1.60
   1   1  10   30.80    2.60
  -1   1 -10   25.10    1.70
  -2  -1 -10   67.29    2.90
   2  -1  10   63.79    3.70
  -2   1 -10   65.29    2.20
  -3  -1 -10    3.50    1.30
  -3   1 -10    5.80    1.00
  -4  -2  10   30.80    3.60
   4  -2 -10   23.60    2.80
  -4  -2  10   27.20    3.30
   4   2 -10   25.90    3.00
  -4   2  10   24.40    3.00
  -3  -2  10   44.40    3.40
   3  -2 -10   39.00    3.00
  -3  -2  10   43.30    3.70
   3  -2 -10   43.80    3.30
   3  -2 -10   46.60    2.90
   3   2 -10   48.00    3.40
  -3   2  10   44.20    3.40
   3   2 -10   43.60    3.50
   3   2 -10   44.50    3.60
   2  -2 -10   32.80    2.40
  -2  -2  10   33.70    2.70
  -2  -2  10   38.30    3.30
  -2  -2  10   34.40    2.70
  -2  -2  10   29.70    2.40
  -2  -2  10   34.90    2.70
   2  -2 -10   37.90    2.90
   2  -2 -10   37.40    2.90
  -2  -2  10   34.40    2.60
   2  -2 -10   27.90    2.40
   2  -2 -10   28.80    2.40
  -2   2  10   30.40    2.40
   2   2 -10   36.00    2.80
   2   2 -10   32.20    2.70
  -2   2  10   32.50    2.40
  -2   2  10   31.20    2.70
  -2   2  10   36.60    2.70
  -2   2  10   28.10    2.40
   1  -2 -10  979.10   18.20
   1  -2 -10  985.10   17.90
  -1  -2  10  978.20   17.60
  -1  -2  10 1026.00   17.30
  -1  -2  10  984.70   20.70
  -1  -2  10  985.50   19.80
  -1  -2  10  955.60   18.90
   1  -2 -10  982.90   19.80
   1  -2 -10  996.00   18.20
  -1  -2  10  981.50   19.60
   1  -2 -10 1006.40   18.30
  -1  -2  10 1023.80   20.90
   1   2 -10  986.20   18.20
  -1   2  10 1004.30   18.00
  -1   2  10  986.80   19.70
  -1   2  10  992.00   18.90
  -1   2  10  979.30   18.20
  -1   2  10  980.60   21.20
  -1   2  10 1003.70   19.20
   1   2 -10  996.60   18.20
  -1   2  10 1010.20   18.00
  -1   2  10 1003.30   17.80
   0  -2  10  147.39    4.90
   0  -2 -10  143.59    5.10
   0  -2  10  145.39    3.70
   0  -2  10  156.28    5.10
   0  -2 -10  148.39    4.50
   0  -2 -10  149.99    4.50
   0   2  10  143.89    4.80
   0   2  10  145.99    4.20
   0   2 -10  141.99    4.10
   0   2 -10  155.08    4.80
   0   2  10  149.39    4.90
   0   2  10  145.19    3.90
   0   2  10  149.59    3.90
   0   2  10  140.89    3.60
   0   2 -10  145.99    4.10
   0   2  10  143.49    4.20
   0   2  10  144.69    4.80
  -1  -2 -10   54.99    2.90
  -1  -2 -10   52.49    2.80
   1  -2  10   55.49    3.30
   1  -2  10   51.19    3.10
  -1   2 -10   53.89    2.30
  -1   2 -10   57.09    2.20
   1   2  10   55.59    2.60
   1   2  10   57.99    2.50
   1   2  10   49.90    2.70
   2  -2  10  229.18    7.00
  -2  -2 -10  219.88    5.80
   2  -2  10  216.78    6.40
  -2   2 -10  216.18    4.40
   2   2  10  226.88    4.90
  -3  -2 -10  152.18    4.80
  -3  -3  10  196.28    7.10
   3  -3 -10  192.18    5.20
   3  -3 -10  185.08    6.00
  -3  -3  10  193.38    6.60
   3   3 -10  201.08    6.60
  -3   3  10  194.08    6.20
  -2  -3  10   38.70    2.80
  -2  -3  10   34.70    2.90
   2  -3 -10   36.50    2.50
  -2  -3  10   36.70    2.80
   2  -3 -10   39.80    3.00
  -2  -3  10   39.10    3.50
   2  -3 -10   35.00    2.80
  -2  -3  10   29.90    2.70
   2  -3 -10   35.30    2.80
   2  -3 -10   32.10    2.80
   2   3 -10   34.70    2.90
   2   3 -10   36.20    3.00
  -2   3  10   37.10    2.60
  -2   3  10   31.80    2.60
  -1  -3  10  193.48    5.00
  -1  -3  10  205.58    4.70
  -1  -3  10  189.08    5.10
   1  -3 -10  204.88    6.00
   1  -3 -10  202.98    5.60
  -1  -3  10  197.68    6.20
  -1  -3  10  198.48    6.30
  -1  -3  10  194.88    5.90
  -1  -3  10  187.68    5.80
   1  -3 -10  198.78    5.70
   1  -3 -10  198.78    5.70
  -1   3  10  199.08    5.60
  -1   3  10  191.68    5.50
  -1   3  10  201.68    5.50
  -1   3  10  199.88    5.50
   1   3 -10  203.38    5.60
   1   3 -10  203.88    5.60
  -1   3  10  190.48    5.80
  -1   3  10  206.38    5.50
   0  -3  10  755.62   13.50
   0  -3 -10  765.32   14.80
   0  -3  10  762.32   16.10
   0  -3  10  778.42   16.10
   0  -3 -10  771.02   14.90
   0   3 -10  783.52   14.30
   0   3  10  773.22   14.50
   0   3  10  769.52   14.70
   0   3  10  765.02   15.60
   0   3  10  779.62   17.10
   0   3 -10  784.52   14.40
   0   3  10  790.92   14.20
   0   3  10  767.72   14.70
   1  -3  10 1989.80   37.30
   1  -3  10 1998.90   36.70
  -1  -3 -10 2030.70   34.30
  -1  -3 -10 2001.70   34.10
   1   3  10 1961.80   39.20
   1   3  10 1911.81   36.00
   1   3  10 2020.70   39.30
  -1   3 -10 1953.60   32.90
   1   3  10 2023.70   32.70
   1   3  10 1954.30   33.10
  -2  -3 -10   66.79    3.50
   2  -3  10   66.29    3.50
   2  -3  10   64.19    4.10
  -2   3 -10   63.69    2.10
   2   3  10   57.89    2.70
   2   3  10   66.39    2.80
  -3  -3 -10   15.50    2.20
   3  -3  10   16.50    2.80
   3   3  10   16.40    1.50
  -3  -4  10   14.90    2.60
   3  -4 -10   11.00    2.00
  -3  -4  10   19.60    2.70
  -3  -4  10   14.20    3.20
   3   4 -10   17.30    2.70
  -3   4  10   13.00    2.30
   2  -4 -10    8.10    1.80
  -2  -4  10    5.90    1.60
   2  -4 -10    9.00    1.80
   2  -4 -10    8.00    1.70
  -2  -4  10    6.30    1.70
  -2  -4  10    6.50    2.30
   2  -4 -10    7.70    1.60
  -2  -4  10    5.00    2.20
   2   4 -10    7.30    2.10
  -2   4  10    8.40    1.80
  -1  -4  10  131.29    5.30
   1  -4 -10  134.79    4.70
  -1  -4  10  125.29    3.60
  -1  -4  10  129.49    4.60
  -1  -4  10  134.69    4.20
   1  -4 -10  128.29    4.80
  -1  -4  10  126.49    5.40
   1  -4 -10  131.89    4.80
  -1   4  10  129.89    4.50
  -1   4  10  127.39    4.50
  -1   4  10  133.59    4.60
   1   4 -10  134.59    4.80
  -1   4  10  136.99    4.90
   0  -4  10  253.37    7.20
   0  -4 -10  242.18    6.60
   0  -4 -10  247.28    6.70
   0  -4  10  253.87    5.40
   0  -4  10  232.58    7.20
   0   4  10  252.57    6.20
   0   4  10  245.88    6.10
   0   4  10  249.88    6.50
   0   4 -10  254.17    6.20
   0   4  10  236.18    6.60
  -1  -4 -10   16.30    2.10
   1  -4  10   20.30    2.70
   1  -4  10   18.70    2.30
   1   4  10   22.20    2.10
   1   4  10   16.60    2.40
  -1   4 -10   22.50    1.80
   1   4  10   19.80    1.80
  -2  -4 -10   23.30    2.60
   2  -4  10   20.50    2.70
   2  -4  10   28.80    2.70
   2   4  10   28.40    2.30
  -2   4 -10   24.10    1.70
  -3  -4 -10   18.40    2.50
   3  -4  10   18.20    3.00
   3   4  10   23.70    2.20
  -3  -5  10   15.30    2.60
  -3  -5  10    9.70    2.30
   3  -5 -10   11.80    2.20
  -3   5  10   13.60    2.60
   3   5 -10   16.20    2.90
   2  -5 -10    9.60    1.80
  -2  -5  10    8.90    2.60
  -2  -5  10   12.30    2.10
   2  -5 -10    7.80    1.80
  -2  -5  10    5.00    2.50
  -2   5  10    8.80    2.00
   2   5 -10    6.80    2.20
  -1  -5  10   10.40    2.40
  -1  -5  10   15.30    1.90
   1  -5 -10   15.70    2.30
   1  -5 -10   16.70    2.20
   1  -5 -10   16.60    2.20
  -1  -5  10   18.10    2.80
  -1   5  10   15.70    2.20
   1   5 -10   16.60    2.30
   0  -5  10   64.49    4.20
   0  -5  10   70.49    3.90
   0  -5  10   64.79    2.60
   0  -5 -10   71.99    3.90
   0   5  10   68.79    3.50
   0   5  10   67.99    3.60
   0   5  10   65.29    3.40
   0   5  10   71.19    3.40
   0   5 -10   67.39    3.50
   1  -5  10   51.09    4.00
  -1  -5 -10   51.19    3.70
   1  -5  10   47.90    3.30
  -1   5 -10   53.29    2.90
   1   5  10   50.99    2.60
   1   5  10   46.00    3.10
   2  -5  10   14.30    2.70
  -2  -5 -10    8.50    2.20
  -2   5 -10   14.30    1.60
   2   5  10   12.50    2.00
   2  -6 -10    1.80    1.80
  -2  -6  10    4.60    2.70
  -2  -6  10    4.50    2.80
  -2  -6  10    4.90    1.90
  -2   6  10    1.80    1.90
   2   6 -10    4.40    2.20
  -1  -6  10   -0.70    2.10
   1  -6 -10    0.90    1.60
   1  -6 -10    0.00    1.50
  -1  -6  10    2.20    2.10
  -1  -6  10    2.40    1.40
  -1   6  10    1.40    1.70
   1   6 -10   -0.60    1.90
   0  -6  10   17.30    2.80
   0  -6 -10   15.60    2.40
   0  -6  10   22.50    2.90
   0  -6  10   18.80    1.70
   0   6  10   18.20    2.30
   0   6 -10   23.30    2.60
   0   6  10   17.60    2.30
   0   6  10   15.60    2.10
  -1  -6 -10    6.00    2.10
   1  -6  10    4.50    2.20
   1   6  10    7.90    1.80
   1   6  10    7.50    1.60
  -1   6 -10    7.00    1.70
  -2  -6 -10    0.80    2.00
   2  -6  10    2.80    2.30
  -2   6 -10    2.50    1.40
   2   6  10   -0.60    1.50
  -1  -7  10   25.20    3.50
   1  -7 -10   24.20    3.10
   1  -7 -10   27.70    2.80
  -1  -7  10   22.80    3.50
   1   7 -10   27.10    3.20
  -1   7  10   25.00    3.00
   0  -7 -10    9.40    2.20
   0  -7  10    7.00    2.60
   0  -7  10    8.20    2.40
   0  -7  10    8.00    1.50
   0   7 -10    9.70    2.30
  -4   0  11   21.30    2.90
   4   0 -11   16.50    2.60
  -3   0  11   93.19    4.40
  -3   0  11  102.99    4.40
   3   0 -11   95.19    4.40
   3   0 -11   99.39    4.20
   3   0 -11  100.29    4.60
   2   0 -11   60.49    3.70
  -2   0  11   60.29    3.20
  -2   0  11   58.79    3.30
  -2   0  11   55.79    3.10
  -2   0  11   60.19    3.20
   2   0 -11   66.59    3.40
  -2   0  11   64.39    3.30
  -2   0  11   60.59    3.50
   2   0 -11   65.49    3.60
   2   0 -11   59.69    3.30
  -2   0  11   61.69    3.30
  -1   0  11    0.80    1.00
   1   0 -11    2.40    1.40
  -1   0  11    2.00    1.10
  -1   0  11    3.70    1.60
  -1   0  11    0.40    1.20
  -1   0  11    0.60    1.00
  -1   0  11   -0.10    1.40
  -1   0  11    0.00    1.10
  -1   0  11   -0.20    1.10
   1   0 -11    0.50    1.10
   0   0 -11    1.30    1.10
   0   0  11    0.60    1.10
   0   0 -11    0.80    1.10
   0   0  11    0.00    1.00
   0   0  11    1.60    1.40
   0   0  11   -1.10    1.10
   0   0  11   -0.10    0.90
   1   0  11   56.59    1.90
   1   0  11   57.79    1.90
  -1   0 -11   55.19    2.70
   1   0  11   57.09    3.30
  -1   0 -11   58.69    2.60
   1   0  11   59.79    3.20
  -2   0 -11   32.90    2.20
   2   0  11   35.30    3.10
  -3   0 -11   11.70    1.50
   4  -1 -11    3.70    2.00
   4   1 -11    3.40    2.10
  -3  -1  11   69.09    4.00
   3  -1 -11   73.09    3.70
   3  -1 -11   68.39    3.90
  -3  -1  11   67.09    4.20
   3  -1 -11   65.59    3.90
   3   1 -11   65.19    4.00
   3   1 -11   65.99    4.10
  -3   1  11   64.39    3.90
   2  -1 -11  276.57    7.10
  -2  -1  11  275.17    7.40
  -2  -1  11  283.37    7.00
   2  -1 -11  256.97    7.80
  -2  -1  11  272.87    7.00
  -2  -1  11  275.37    7.40
  -2  -1  11  271.47    7.60
   2  -1 -11  272.37    7.60
  -2  -1  11  291.37    6.90
  -2  -1  11  269.77    6.70
   2  -1 -11  278.07    7.20
  -2   1  11  269.37    7.10
  -2   1  11  272.87    6.80
   2   1 -11  280.07    7.20
  -2   1  11  280.17    7.10
  -2   1  11  259.87    7.40
   2   1 -11  279.37    7.30
  -2   1  11  283.77    7.30
  -2   1  11  280.17    6.90
   1  -1 -11   64.09    3.20
  -1  -1  11   68.29    3.60
   1  -1 -11   67.69    3.40
  -1  -1  11   67.59    3.50
  -1  -1  11   65.69    2.90
  -1  -1  11   63.79    3.30
  -1  -1  11   61.29    2.80
  -1  -1  11   70.99    2.80
  -1   1  11   65.19    3.00
  -1   1  11   67.99    2.70
  -1   1  11   66.19    3.00
  -1   1  11   61.59    3.00
  -1   1  11   63.09    3.60
   1   1 -11   67.29    3.30
  -1   1  11   67.29    3.40
  -1   1  11   63.69    3.00
  -1   1  11   66.19    3.00
  -1   1  11   61.49    2.80
   1   1 -11   65.69    3.10
   0  -1 -11   74.89    3.80
   0  -1  11   73.89    2.80
   0  -1 -11   73.69    3.20
   0  -1  11   78.59    2.90
   0  -1  11   73.19    3.60
   0  -1 -11   71.29    3.20
   0  -1  11   78.79    3.60
   0  -1  11   70.39    2.60
   0   1  11   73.39    3.40
   0   1  11   70.19    2.50
   0   1  11   76.69    3.60
   0   1  11   68.39    2.50
   0   1 -11   71.09    3.00
   0   1 -11   72.29    3.10
   0   1  11   75.19    3.20
   0   1  11   76.19    2.90
   0   1  11   75.09    2.60
   0   1  11   71.49    2.90
   1  -1  11  213.68    6.30
  -1  -1 -11  211.78    5.40
   1  -1  11  206.08    6.30
  -1   1 -11  211.58    5.00
   1   1  11  203.88    5.80
   1   1  11  211.28    4.80
   1   1  11  216.18    6.40
   2  -1  11   79.29    4.10
  -2  -1 -11   77.89    3.20
  -2   1 -11   76.59    2.70
  -3  -1 -11    3.20    1.40
  -3   1 -11    1.90    1.00
  -3  -2  11    3.00    2.20
   3  -2 -11    5.30    1.70
  -3  -2  11    4.00    1.90
   3  -2 -11    4.80    1.80
   3   2 -11    0.80    1.80
  -3   2  11    3.30    1.80
   2  -2 -11  256.87    7.30
  -2  -2  11  262.97    6.50
  -2  -2  11  259.77    7.70
  -2  -2  11  250.17    6.70
  -2  -2  11  261.37    7.10
  -2  -2  11  257.47    7.50
   2  -2 -11  261.17    6.90
  -2  -2  11  255.17    6.40
   2  -2 -11  258.17    6.90
  -2   2  11  243.68    6.80
   2   2 -11  266.57    7.10
  -2   2  11  247.68    6.70
  -2   2  11  244.28    6.60
  -2   2  11  237.28    7.10
   2   2 -11  257.67    7.10
   1  -2 -11  584.74   12.10
  -1  -2  11  590.84   13.20
  -1  -2  11  587.94   11.40
  -1  -2  11  587.54   10.80
  -1  -2  11  589.54   13.80
   1  -2 -11  567.54   11.90
  -1  -2  11  585.04   13.00
  -1  -2  11  572.74   11.80
  -1  -2  11  585.74   12.90
  -1   2  11  591.24   11.70
  -1   2  11  586.24   12.70
  -1   2  11  587.74   12.50
  -1   2  11  587.14   11.90
  -1   2  11  583.44   11.70
   1   2 -11  590.34   11.90
  -1   2  11  587.74   11.50
   1   2 -11  573.04   11.80
   0  -2 -11  355.56    8.10
   0  -2 -11  349.17    8.00
   0  -2  11  346.57    8.80
   0  -2  11  340.97    7.00
   0  -2  11  353.16    8.90
   0   2  11  353.76    7.70
   0   2  11  354.36    7.60
   0   2 -11  350.16    7.60
   0   2  11  353.46    7.90
   0   2 -11  361.06    7.70
   0   2  11  347.47    8.90
   0   2  11  352.26    7.30
   0   2  11  353.36    8.70
  -1  -2 -11    2.10    1.40
   1  -2  11    5.10    1.70
   1  -2  11    4.50    1.70
   1   2  11    6.50    1.30
  -1   2 -11    6.90    1.30
   1   2  11    5.70    1.20
   1   2  11    3.50    1.30
  -2  -2 -11   40.30    2.80
   2  -2  11   36.80    3.20
   2  -2  11   31.90    3.00
  -2   2 -11   37.20    1.80
   2   2  11   34.20    1.90
  -3  -2 -11   62.19    3.50
  -3  -3  11    8.10    2.00
  -3  -3  11    1.80    2.30
   3  -3 -11    4.40    1.80
  -3  -3  11    8.10    2.20
   3  -3 -11    7.40    1.70
  -3   3  11    2.90    1.80
   3   3 -11    8.30    2.40
  -2  -3  11   34.60    2.80
  -2  -3  11   23.90    2.90
   2  -3 -11   35.50    3.00
   2  -3 -11   38.90    3.00
  -2  -3  11   45.10    3.80
   2  -3 -11   35.50    2.90
   2  -3 -11   31.10    2.70
  -2  -3  11   34.60    2.80
  -2  -3  11   43.40    2.90
  -2   3  11   31.50    2.70
   2   3 -11   31.60    3.00
  -1  -3  11   31.60    3.10
   1  -3 -11   24.70    2.50
   1  -3 -11   22.30    2.30
  -1  -3  11   22.40    2.00
  -1  -3  11   23.50    2.40
  -1  -3  11   18.70    2.40
  -1  -3  11   21.90    1.80
  -1   3  11   21.50    2.20
  -1   3  11   25.90    2.30
  -1   3  11   24.40    2.40
  -1   3  11   22.10    2.20
  -1   3  11   27.40    2.50
   1   3 -11   26.20    2.40
  -1   3  11   21.20    2.00
   0  -3  11  306.27    8.40
   0  -3  11  296.97    6.30
   0  -3 -11  314.37    7.60
   0  -3 -11  310.87    7.60
   0  -3  11  314.77    8.30
   0   3  11  310.07    6.70
   0   3  11  300.97    7.40
   0   3  11  313.97    6.90
   0   3  11  309.07    8.50
   0   3 -11  302.97    7.10
   0   3  11  297.67    6.60
   0   3  11  312.77    7.30
   1  -3  11  199.78    6.70
   1  -3  11  206.48    6.30
  -1  -3 -11  198.48    5.80
   1   3  11  190.68    5.20
   1   3  11  206.88    6.20
  -1   3 -11  190.68    4.80
  -2  -3 -11   78.69    3.90
   2  -3  11   73.69    4.50
   2  -3  11   74.79    4.00
   2   3  11   72.69    3.00
  -2   3 -11   73.09    2.50
  -3  -3 -11   19.10    2.50
   3  -3  11   25.80    3.30
   3  -4 -11   16.30    2.40
  -3  -4  11   22.20    3.50
  -3  -4  11   18.70    2.60
  -3  -4  11   23.30    2.90
  -3   4  11   18.00    2.80
   3   4 -11   17.50    2.90
  -2  -4  11   56.19    4.40
  -2  -4  11   49.60    3.30
   2  -4 -11   50.09    3.30
   2  -4 -11   53.09    3.50
  -2  -4  11   56.99    4.40
   2  -4 -11   52.49    3.50
  -2   4  11   54.39    3.60
   2   4 -11   65.89    4.10
  -1  -4  11  449.06    9.50
  -1  -4  11  448.16   11.30
  -1  -4  11  451.65   11.40
   1  -4 -11  478.05   10.50
  -1   4  11  448.06   10.20
   1   4 -11  463.75   10.30
  -1   4  11  454.55   10.00
  -1   4  11  432.56   10.70
  -1   4  11  454.65   10.20
   0  -4  11  393.76    7.80
   0  -4 -11  406.76    9.40
   0  -4  11  421.46   10.30
   0  -4 -11  403.96    9.40
   0  -4  11  400.86   10.40
   0   4  11  396.76    9.50
   0   4  11  385.86    8.70
   0   4  11  397.66    8.70
   0   4 -11  401.06    8.80
   0   4  11  394.46    9.00
   1  -4  11   50.89    3.50
  -1  -4 -11   50.69    3.50
   1  -4  11   52.69    3.90
   1   4  11   44.90    2.90
   1   4  11   49.10    3.70
  -1   4 -11   49.99    2.80
   2  -4  11   24.10    3.10
   2  -4  11   29.70    2.80
  -2  -4 -11   28.10    2.80
   2   4  11   27.60    2.40
  -2   4 -11   31.30    2.00
  -2  -5  11   53.59    3.60
   2  -5 -11   50.89    3.40
  -2  -5  11   48.70    4.40
  -2  -5  11   63.69    4.90
   2  -5 -11   45.20    3.60
  -2   5  11   49.50    3.80
   2   5 -11   58.49    4.40
  -1  -5  11   94.29    5.00
   1  -5 -11   92.09    4.40
  -1  -5  11   97.39    5.30
  -1  -5  11   92.69    3.80
   1   5 -11   92.79    4.50
  -1   5  11   94.39    4.30
   0  -5  11   17.90    1.60
   0  -5 -11   16.90    2.40
   0  -5  11   20.70    2.70
   0  -5  11   12.50    2.40
   0   5  11   18.70    2.20
   0   5  11   15.60    2.20
   0   5  11   18.00    2.10
   0   5 -11   17.30    2.20
   1  -5  11   75.99    4.80
  -1  -5 -11   83.09    4.40
   1  -5  11   82.39    4.30
  -1   5 -11   80.19    3.50
   1   5  11   74.99    3.70
  -2  -5 -11   52.99    4.20
   2  -5  11   54.79    4.60
   2   5  11   57.19    3.40
  -2   5 -11   56.69    2.70
   2  -6 -11   57.79    4.00
  -2  -6  11   70.49    5.50
  -2  -6  11   57.09    3.80
  -1  -6  11   -0.10    1.50
  -1  -6  11   -1.80    2.20
  -1  -6  11    1.20    2.10
   1   6 -11   -0.90    2.00
   0  -6  11   22.50    3.20
   0  -6  11   31.40    3.50
   0  -6  11   31.50    2.10
   0  -6 -11   31.20    3.00
   0   6  11   28.00    3.00
   0   6  11   31.40    2.70
   0   6 -11   36.20    3.20
   1  -6  11   12.80    2.80
  -1  -6 -11   14.70    2.70
  -1   6 -11   12.20    2.10
   1   6  11   12.90    2.20
   3   0 -12   16.60    2.50
  -3   0  12   17.30    2.60
  -3   0  12   15.80    2.30
  -2   0  12    1.40    1.50
  -2   0  12   -0.50    1.50
   2   0 -12    3.30    1.80
   2   0 -12   -0.50    1.30
  -2   0  12    2.80    1.50
  -2   0  12    2.40    1.70
  -2   0  12    1.40    1.50
  -2   0  12    0.30    1.30
  -1   0  12  168.38    5.60
  -1   0  12  155.28    4.80
   1   0 -12  160.68    5.00
  -1   0  12  158.28    4.80
   1   0 -12  165.18    5.10
  -1   0  12  159.58    5.50
  -1   0  12  146.49    4.60
  -1   0  12  166.38    4.50
   0   0  12  142.09    4.40
   0   0  12  136.39    5.00
   0   0  12  141.59    4.60
   0   0 -12  133.99    4.30
   0   0  12  141.29    4.40
   0   0 -12  130.59    4.30
   0   0  12  135.09    3.90
   1   0  12    8.00    1.00
   1   0  12    8.20    1.90
   1   0  12    8.40    1.70
  -1   0 -12    7.90    1.50
   2   0  12    3.30    1.80
  -2   0 -12    5.10    1.30
  -3   0 -12    5.00    1.40
   3  -1 -12  184.38    5.80
   3  -1 -12  179.38    6.20
  -3  -1  12  178.58    6.60
   3  -1 -12  183.58    6.40
  -3   1  12  176.58    6.00
  -2  -1  12  317.97    8.30
  -2  -1  12  307.97    8.30
  -2  -1  12  320.27    7.70
  -2  -1  12  317.17    7.90
   2  -1 -12  331.77    8.20
  -2  -1  12  326.27    8.80
  -2  -1  12  325.07    7.60
  -2   1  12  319.87    8.00
   2   1 -12  335.47    8.30
  -2   1  12  320.27    7.90
  -2   1  12  333.07    8.10
   2   1 -12  327.07    8.20
  -2   1  12  317.17    7.70
  -2   1  12  324.57    8.40
  -2   1  12  316.87    8.40
   1  -1 -12  166.78    5.20
  -1  -1  12  169.98    4.40
  -1  -1  12  154.08    5.20
   1  -1 -12  168.98    5.30
  -1  -1  12  158.38    4.60
  -1  -1  12  166.48    5.50
  -1  -1  12  154.38    4.70
  -1  -1  12  164.08    5.70
  -1   1  12  161.48    4.50
  -1   1  12  164.28    5.80
   1   1 -12  159.28    5.10
   1   1 -12  156.98    5.00
  -1   1  12  162.28    4.90
  -1   1  12  173.48    5.50
  -1   1  12  158.68    4.90
  -1   1  12  160.98    4.40
  -1   1  12  168.08    4.70
   0  -1  12   20.60    1.70
   0  -1  12   21.20    1.90
   0  -1  12   23.80    2.60
   0  -1  12   25.60    2.00
   0  -1 -12   18.20    2.00
   0  -1  12   24.00    2.40
   0  -1 -12   20.70    2.00
   0   1  12   25.90    2.60
   0   1  12   23.90    2.20
   0   1  12   25.40    2.10
   0   1 -12   23.10    2.10
   0   1  12   22.30    1.90
   0   1  12   23.00    1.60
   0   1  12   22.80    1.80
   0   1  12   23.70    2.20
   0   1  12   23.20    1.60
   1  -1  12   46.60    3.30
   1  -1  12   51.49    3.30
  -1  -1 -12   49.40    2.90
   1   1  12   47.20    3.40
   1   1  12   50.19    2.20
   1   1  12   49.30    2.90
  -1   1 -12   45.30    2.60
   2  -1  12   82.29    4.40
  -2  -1 -12   79.79    3.40
  -2   1 -12   77.89    2.90
  -3  -1 -12  100.19    4.00
  -3   1 -12  102.89    3.20
  -3  -2  12    1.80    2.20
   3  -2 -12    1.70    1.60
   3  -2 -12    2.10    1.80
   3   2 -12   -0.90    2.00
  -3   2  12   -0.80    1.60
  -2  -2  12   55.09    3.90
  -2  -2  12   60.09    3.30
   2  -2 -12   62.19    3.80
  -2  -2  12   57.59    3.20
  -2  -2  12   58.39    3.30
  -2  -2  12   57.89    4.10
  -2   2  12   54.69    3.40
   2   2 -12   57.99    3.90
  -2   2  12   52.09    3.40
  -2   2  12   61.49    3.40
  -2   2  12   55.99    3.30
  -1  -2  12  293.17    7.00
  -1  -2  12  304.47    8.40
  -1  -2  12  301.57    8.10
   1  -2 -12  306.17    7.60
   1  -2 -12  308.27    7.70
  -1  -2  12  301.67    8.00
  -1  -2  12  287.97    6.80
  -1   2  12  312.47    7.20
  -1   2  12  296.87    7.30
  -1   2  12  299.77    7.80
  -1   2  12  292.07    7.70
  -1   2  12  306.67    7.20
   1   2 -12  313.47    7.60
   0  -2 -12  358.06    8.40
   0  -2 -12  340.07    8.70
   0  -2  12  362.26    9.20
   0  -2  12  344.37    7.20
   0  -2  12  368.96    9.30
   0   2  12  378.06    9.20
   0   2  12  350.96    8.00
   0   2 -12  367.06    8.00
   0   2  12  361.76    7.40
   0   2  12  367.16    9.20
   0   2  12  354.06    7.90
   1  -2  12   19.70    2.50
  -1  -2 -12   24.30    2.30
   1  -2  12   27.60    2.80
  -1   2 -12   31.20    2.40
   1   2  12   26.50    2.20
   1   2  12   22.60    1.90
   2  -2  12   18.10    2.50
  -2  -2 -12   12.10    1.90
   2  -2  12   16.80    2.60
  -2   2 -12   15.30    1.40
   2   2  12   14.00    1.30
  -3  -2 -12   26.40    2.70
  -3  -3  12   18.50    3.30
  -3  -3  12   17.20    2.50
   3  -3 -12    9.30    2.10
  -3  -3  12   15.10    2.50
   3   3 -12   12.70    2.70
  -3   3  12   15.70    2.50
  -2  -3  12   23.30    2.40
  -2  -3  12   24.30    2.90
   2  -3 -12   28.10    2.90
  -2  -3  12   23.50    2.00
   2  -3 -12   23.90    2.60
   2  -3 -12   25.00    2.60
  -2  -3  12   27.00    3.20
  -2   3  12   23.40    2.60
   2   3 -12   24.40    2.80
  -1  -3  12    2.00    1.80
   1  -3 -12    1.30    1.50
  -1  -3  12    0.70    1.80
   1  -3 -12    0.50    1.60
  -1  -3  12    2.10    1.60
  -1  -3  12    1.00    1.30
  -1   3  12    0.30    1.50
  -1   3  12    3.10    1.40
  -1   3  12    0.90    1.50
  -1   3  12   -1.20    1.20
  -1   3  12    1.00    1.30
   1   3 -12    0.90    1.50
   0  -3 -12    9.90    2.00
   0  -3  12    9.20    1.30
   0  -3  12   11.60    2.20
   0  -3  12    8.00    2.00
   0   3  12   10.50    1.60
   0   3  12    8.00    1.60
   0   3  12    8.80    2.10
   0   3 -12   12.30    1.90
   1  -3  12   23.50    2.80
  -1  -3 -12   20.30    2.30
   1  -3  12   23.60    2.80
  -1   3 -12   25.40    2.00
   1   3  12   18.50    1.90
   2  -3  12   23.10    2.80
   2  -3  12   16.00    2.60
  -2  -3 -12   22.10    2.50
   2   3  12   21.40    1.90
  -2   3 -12   20.90    1.60
   3  -4 -12    0.20    1.80
  -3  -4  12   -1.50    1.70
  -3  -4  12   -1.00    2.50
   3   4 -12   -0.60    2.10
   2  -4 -12   14.30    2.30
   2  -4 -12   18.80    2.50
   2  -4 -12   14.50    2.20
  -2  -4  12   17.60    3.10
  -2  -4  12   17.90    2.40
  -2  -4  12   14.50    2.80
  -2   4  12   13.80    2.30
   2   4 -12   12.10    2.50
  -1  -4  12   44.60    2.80
  -1  -4  12   40.50    3.70
   1  -4 -12   45.10    3.50
  -1  -4  12   49.50    3.90
  -1   4  12   47.50    3.30
   1   4 -12   43.00    3.30
  -1   4  12   41.30    3.20
  -1   4  12   46.20    3.20
   0  -4  12  432.06    8.20
   0  -4 -12  435.86   10.10
   0  -4  12  423.66   11.10
   0  -4  12  426.16   10.90
   0   4  12  413.36   10.00
   0   4  12  423.96    9.10
   0   4 -12  435.56    9.50
   0   4  12  426.96    9.70
   1  -4  12  119.79    5.10
  -1  -4 -12  117.29    4.80
   1  -4  12  108.39    5.30
  -1   4 -12  112.89    3.90
   1   4  12  111.69    4.20
   2  -4  12   40.40    3.50
  -2  -4 -12   36.10    3.20
   2  -4  12   33.00    3.70
  -2   4 -12   39.50    2.40
   2   4  12   41.60    2.80
  -2  -5  12  159.38    7.00
  -2  -5  12  141.19    5.40
   2  -5 -12  141.99    5.30
  -2  -5  12  142.69    6.70
   2  -5 -12  139.39    5.60
  -2   5  12  148.19    5.90
   2   5 -12  154.38    6.20
  -1  -5  12  120.49    5.90
   1  -5 -12  119.39    5.50
  -1  -5  12  115.69    4.30
  -1  -5  12  139.89    6.10
   1   5 -12  126.19    5.30
   0  -5  12    7.40    2.30
   0  -5  12   14.50    2.60
   0  -5 -12   10.90    2.30
   0  -5  12   11.90    1.40
   0   5 -12   13.60    2.30
   0   5  12   11.50    2.00
   0   5  12   16.90    2.30
  -1  -5 -12   24.50    2.90
   1  -5  12   26.20    3.10
   1  -5  12   23.00    3.30
   1   5  12   20.10    2.40
  -1   5 -12   26.50    2.40
   2  -5  12   11.00    2.90
  -2  -5 -12    3.70    2.20
  -2   5 -12   10.00    1.60
  -1  -6  12   60.19    4.80
  -1  -6  12   53.19    3.50
  -1  -6  12   53.69    4.70
   1   6 -12   58.19    4.40
   0  -6  12  101.29    5.80
   0  -6  12  108.89    5.60
   0  -6 -12  109.89    5.30
   0   6 -12  106.29    4.90
   0   6  12  100.19    4.80
   0   6  12  102.09    4.50
   1   6  12    9.30    2.20
  -3   0  13  355.66    9.70
  -2   0  13  152.78    5.00
  -2   0  13  161.28    5.80
  -2   0  13  154.78    5.30
   2   0 -13  157.78    5.70
  -2   0  13  144.49    5.20
  -1   0  13  216.68    6.70
  -1   0  13  210.88    5.70
  -1   0  13  202.68    6.50
  -1   0  13  192.88    5.50
   1   0 -13  205.98    6.10
  -1   0  13  206.98    5.90
   0   0  13   39.50    3.40
   0   0  13   42.70    2.40
   0   0 -13   41.70    2.90
   0   0  13   45.80    2.90
   0   0  13   43.30    2.60
   0   0  13   41.10    2.60
   1   0  13  448.86   10.60
   1   0  13  437.76    8.10
  -1   0 -13  441.96    9.40
   1   0  13  448.06   11.10
   2   0  13   29.40    3.00
  -2   0 -13   30.90    2.30
  -3   0 -13    0.00    1.40
  -3  -1  13   58.29    4.40
  -2  -1  13  328.37    8.30
  -2  -1  13  337.87    9.30
  -2  -1  13  339.87    8.80
  -2  -1  13  338.47    7.80
  -2  -1  13  320.47    8.50
   2  -1 -13  353.46    8.70
  -2   1  13  344.57    8.90
  -2   1  13  342.97    8.10
  -2   1  13  334.67    8.40
  -2   1  13  326.27    8.30
  -2   1  13  312.07    8.70
   2   1 -13  340.87    8.70
  -1  -1  13  211.58    5.60
  -1  -1  13  235.98    7.10
   1  -1 -13  226.68    6.40
  -1  -1  13  218.08    6.30
  -1  -1  13  223.58    5.90
  -1  -1  13  232.08    6.80
  -1   1  13  214.78    6.00
  -1   1  13  207.98    6.00
  -1   1  13  221.68    6.80
   1   1 -13  227.78    6.40
  -1   1  13  220.58    5.30
  -1   1  13  214.98    7.00
  -1   1  13  218.68    5.20
   0  -1  13   41.60    3.40
   0  -1  13   43.90    3.20
   0  -1  13   41.30    2.30
   0  -1 -13   42.90    3.00
   0   1  13   42.40    2.60
   0   1 -13   41.40    3.00
   0   1  13   39.40    2.80
   0   1  13   44.30    3.40
   0   1  13   46.10    2.90
   0   1  13   37.20    2.40
  -1  -1 -13   22.00    2.20
   1  -1  13   22.00    2.60
   1  -1  13   23.30    2.80
   1   1  13   18.30    2.10
   1   1  13   23.70    2.90
  -1   1 -13   18.50    1.90
   1   1  13   16.80    1.60
   2  -1  13   84.19    4.60
  -2  -1 -13   89.39    3.80
  -2   1 -13   86.39    3.20
  -3  -1 -13   49.50    3.30
  -3   1 -13   48.40    2.70
  -3  -2  13    1.60    2.40
  -3  -2  13    8.00    2.70
  -3  -2  13    0.30    1.90
   3  -2 -13    1.30    1.80
  -3   2  13    2.80    1.90
   3   2 -13    0.20    2.10
  -2  -2  13    7.50    2.40
   2  -2 -13    5.30    2.00
  -2  -2  13    3.10    1.50
  -2  -2  13    4.80    1.70
  -2  -2  13    4.80    2.10
  -2   2  13    2.70    1.80
  -2   2  13    4.50    1.80
  -2   2  13    8.10    2.10
   2   2 -13    3.60    2.00
  -2   2  13    3.70    1.80
  -1  -2  13   32.20    3.20
  -1  -2  13   31.30    2.50
  -1  -2  13   30.90    2.90
   1  -2 -13   27.80    2.70
  -1  -2  13   28.20    1.90
  -1   2  13   23.80    2.50
  -1   2  13   24.20    2.30
   1   2 -13   24.40    2.60
  -1   2  13   30.60    2.70
  -1   2  13   28.80    2.80
   0  -2  13    0.40    1.50
   0  -2  13    1.40    1.80
   0  -2  13    1.20    1.10
   0  -2 -13    3.60    1.70
   0   2  13   -0.40    1.50
   0   2  13    0.70    1.00
   0   2 -13    4.60    1.60
   0   2  13   -0.20    1.50
   0   2  13    1.20    1.20
  -1  -2 -13   38.80    3.10
   1  -2  13   32.90    3.10
   1  -2  13   37.50    3.40
  -1   2 -13   30.60    2.30
   1   2  13   35.60    2.30
   2  -2  13  106.69    5.20
  -2  -2 -13  101.39    4.30
   2  -2  13   99.39    5.00
  -2   2 -13  106.49    3.40
  -3  -3  13    3.80    2.70
   3  -3 -13    3.30    1.90
   3  -3 -13    2.20    1.90
  -3  -3  13    0.90    1.90
  -3  -3  13    0.30    2.50
  -3   3  13    1.90    1.90
   3   3 -13    0.50    2.20
  -2  -3  13   21.00    2.50
  -2  -3  13   18.10    2.80
  -2  -3  13   28.90    3.60
   2   3 -13   20.70    2.80
  -1  -3  13   43.80    2.80
  -1  -3  13   46.30    3.80
  -1  -3  13   50.59    4.10
   1  -3 -13   49.00    3.60
   1   3 -13   50.49    3.70
  -1   3  13   46.60    3.10
  -1   3  13   43.40    3.10
  -1   3  13   49.40    3.40
  -1   3  13   44.20    3.10
   0  -3  13   57.69    4.00
   0  -3  13   49.10    3.80
   0  -3 -13   54.49    3.60
   0  -3  13   48.90    2.30
   0   3  13   55.99    3.10
   0   3  13   56.49    3.80
   0   3 -13   51.39    3.40
   1  -3  13    7.80    2.10
   1  -3  13    1.90    1.80
  -1  -3 -13    4.10    1.80
  -1   3 -13    4.30    1.50
   1   3  13    3.50    1.30
   2  -3  13   92.09    4.80
   2  -3  13   82.49    5.00
  -2  -3 -13  101.99    4.70
  -2   3 -13   89.19    3.20
   2   3  13   87.09    3.30
  -2  -4  13    2.20    2.40
  -2  -4  13    5.00    1.90
  -2  -4  13    6.20    2.80
   2   4 -13    7.60    2.50
  -1  -4  13   56.29    4.40
  -1  -4  13   56.49    3.20
   1  -4 -13   67.49    4.20
  -1  -4  13   57.59    4.40
  -1   4  13   57.39    3.50
  -1   4  13   61.59    3.70
   1   4 -13   64.79    4.20
   0  -4  13   37.70    3.50
   0  -4  13   30.60    2.00
   0  -4  13   32.30    3.50
   0  -4 -13   30.90    2.90
   0   4 -13   37.40    2.90
   0   4  13   31.80    2.70
  -1  -4 -13   14.70    2.40
   1  -4  13   17.90    2.70
   1  -4  13   17.00    2.70
  -1   4 -13   12.60    1.90
   1   4  13   13.30    2.10
   2  -4  13   38.00    3.50
   2  -4  13   38.80    4.10
  -2  -4 -13   37.80    3.50
  -2   4 -13   42.60    2.70
   2   4  13   38.60    2.90
  -1  -5  13  322.27    9.70
  -1  -5  13  304.17    7.50
  -1  -5  13  299.57    9.60
   1   5 -13  312.47    8.60
   0  -5 -13   65.19    4.40
   0  -5  13   68.79    4.60
   0  -5  13   66.89    4.90
   0   5  13   69.29    3.50
   0   5  13   68.29    3.90
   0   5 -13   75.19    4.30
   1  -5  13   25.80    3.20
  -1  -5 -13   26.30    3.10
   1  -5  13   25.90    3.60
  -1   5 -13   28.70    2.60
   1   5  13   24.90    2.60
  -3   0  14  291.77    8.80
   2   0 -14   81.59    4.60
  -2   0  14   82.09    3.80
  -2   0  14   86.49    4.70
  -2   0  14   78.39    4.10
  -1   0  14    2.30    1.40
  -1   0  14    2.40    1.90
   1   0 -14   -0.70    1.60
  -1   0  14    1.50    1.70
  -1   0  14    0.90    1.40
   0   0  14  147.49    4.80
   0   0 -14  166.18    5.30
   0   0  14  154.58    6.00
   0   0  14  162.98    5.30
   0   0  14  155.28    4.50
  -1   0 -14   11.90    1.90
   1   0  14   10.10    2.30
   1   0  14   14.10    2.20
  -2   0 -14   39.60    2.90
   2   0  14   36.90    3.60
  -3  -1  14   15.40    3.10
  -3  -1  14   11.00    2.50
  -2  -1  14  159.88    5.90
  -2  -1  14  173.28    6.60
  -2  -1  14  167.38    4.90
   2  -1 -14  169.18    6.00
  -2  -1  14  158.68    5.60
  -2   1  14  154.48    5.60
   2   1 -14  169.98    6.20
  -2   1  14  168.28    6.10
  -2   1  14  168.18    5.40
   1  -1 -14   73.79    4.20
  -1  -1  14   76.69    4.60
  -1  -1  14   69.39    3.40
  -1  -1  14   61.99    3.80
  -1   1  14   71.59    4.10
   1   1 -14   71.29    4.00
  -1   1  14   72.79    3.60
   0  -1 -14  133.89    4.90
   0  -1  14  136.69    5.20
   0  -1  14  123.29    3.90
   0  -1  14  128.99    5.50
   0   1  14  124.59    4.20
   0   1 -14  130.89    4.80
   0   1  14  128.99    5.40
   1  -1  14    4.40    1.80
  -1  -1 -14    3.70    1.60
   1  -1  14    8.60    2.30
   1   1  14    4.90    1.60
   1   1  14    5.20    1.20
  -1   1 -14    5.80    1.60
  -2  -1 -14    9.40    1.90
   2  -1  14    4.80    2.10
  -2   1 -14    9.10    1.70
   2  -2 -14   17.80    2.70
  -2  -2  14   22.00    3.30
  -2  -2  14   19.30    2.70
  -2  -2  14   20.50    2.40
  -2   2  14   18.60    2.50
   2   2 -14   21.40    2.90
  -2   2  14   19.80    2.60
  -2   2  14   22.80    2.80
  -1  -2  14   17.40    2.40
   1  -2 -14   21.60    2.70
  -1  -2  14   20.20    2.80
  -1  -2  14   18.00    2.00
  -1   2  14   21.70    2.70
  -1   2  14   15.70    2.10
   1   2 -14   18.60    2.60
  -1   2  14   17.80    1.90
   0  -2  14    7.60    2.00
   0  -2 -14    8.10    2.10
   0  -2  14    5.60    1.20
   0  -2  14    9.90    2.20
   0   2 -14    6.60    1.90
   0   2  14    6.40    1.60
   0   2  14    9.40    2.20
  -1  -2 -14   23.10    2.50
   1  -2  14   21.90    2.90
   1  -2  14   23.80    2.80
  -1   2 -14   22.10    2.20
   1   2  14   25.70    2.10
   2  -2  14   52.89    4.40
   2  -2  14   53.69    4.20
  -2  -2 -14   45.10    3.60
  -2   2 -14   52.29    2.90
  -2  -3  14   16.70    3.20
  -2  -3  14   15.30    2.70
  -2  -3  14   16.30    2.40
   2   3 -14   17.50    2.90
  -1  -3  14    7.10    2.10
   1  -3 -14    6.20    2.10
  -1  -3  14    5.40    2.40
  -1  -3  14    5.40    1.60
  -1   3  14    6.30    1.90
   1   3 -14    4.10    2.00
  -1   3  14    6.20    1.80
  -1   3  14    5.80    1.90
   0  -3  14    7.90    2.10
   0  -3 -14   12.00    2.30
   0  -3  14   19.40    2.90
   0  -3  14    9.00    1.30
   0   3 -14    9.70    2.10
   0   3  14    6.60    1.70
  -1  -3 -14   31.30    3.00
   1  -3  14   35.90    3.70
   1  -3  14   41.90    3.90
   1   3  14   37.20    2.70
  -1   3 -14   39.60    3.00
   2  -3  14   10.50    2.60
  -2  -3 -14   11.80    2.40
   2  -3  14   17.50    2.90
  -2   3 -14   15.30    1.90
   2   3  14   13.80    1.80
  -2  -4  14   20.00    2.60
  -2  -4  14   17.10    3.20
  -2  -4  14   20.70    3.60
   2   4 -14   20.70    3.20
  -1  -4  14   12.60    1.90
  -1  -4  14   13.50    2.90
   1  -4 -14   10.10    2.40
  -1  -4  14   12.80    2.80
  -1   4  14   14.50    2.40
  -1   4  14   10.60    2.10
   1   4 -14    9.40    2.40
   0  -4  14   13.40    2.70
   0  -4 -14    6.60    2.30
   0  -4  14    6.70    2.30
   0   4  14   13.20    2.20
   0   4 -14   10.10    2.20
   1  -4  14   26.00    3.20
  -1  -4 -14   26.40    2.90
   1  -4  14   18.60    2.80
  -1   4 -14   28.30    2.60
   1   4  14   21.80    2.40
  -1  -5  14   66.09    5.40
  -1  -5  14   75.79    5.30
   1   5 -14   74.69    4.90
  -1   5  14   72.39    4.30
   0  -5  14   52.89    4.60
   0  -5 -14   47.40    4.00
   0  -5  14   40.80    4.20
   0   5 -14   44.60    3.60
   0   5  14   36.80    3.20
  -2   0  15  100.39    5.40
  -2   0  15  104.49    4.70
  -2   0  15  105.89    4.10
   2   0 -15  107.49    5.30
  -1   0  15    0.50    1.40
  -1   0  15    2.90    2.00
   1   0 -15    1.40    1.90
   0   0  15    1.90    1.30
   0   0  15    0.10    1.40
   0   0 -15    0.30    1.70
   0   0  15    3.80    2.00
   1   0  15   26.60    3.30
   1   0  15   23.80    2.70
  -1   0 -15   23.60    2.40
  -2   0 -15    3.90    1.70
  -2  -1  15   18.70    3.20
   2  -1 -15   17.00    2.80
  -2  -1  15   18.10    2.50
  -2   1  15   18.20    2.80
  -2   1  15   20.40    2.60
  -2   1  15   20.20    2.40
   2   1 -15   18.60    3.00
  -1  -1  15   81.79    5.00
  -1  -1  15   79.89    4.30
  -1  -1  15   81.49    3.70
   1  -1 -15   89.39    4.70
  -1   1  15   71.89    3.80
   1   1 -15   83.59    4.50
  -1   1  15   80.79    4.50
   0  -1 -15   91.79    4.50
   0  -1  15   97.59    5.20
   0  -1  15   97.49    4.60
   0  -1  15   91.29    3.40
   0   1  15  101.29    5.00
   0   1  15   97.09    3.80
   0   1 -15   88.39    4.30
   1  -1  15   70.49    4.60
  -1  -1 -15   70.89    4.00
   1  -1  15   69.59    4.30
   1   1  15   69.59    4.10
   1   1  15   65.59    2.80
  -1   1 -15   81.39    3.80
  -2  -1 -15    5.40    1.90
   2  -1  15    5.50    2.10
  -2   1 -15    7.00    1.80
  -2  -2  15   11.30    2.20
  -2  -2  15   12.80    2.60
  -2  -2  15   17.40    3.20
   2  -2 -15   17.10    3.00
  -2   2  15   12.40    2.30
   2   2 -15   15.70    2.80
  -2   2  15   14.00    2.40
  -2   2  15   16.20    2.70
  -1  -2  15   28.20    2.50
  -1  -2  15   24.50    2.90
   1  -2 -15   32.70    3.20
  -1  -2  15   33.80    3.70
  -1   2  15   34.30    3.30
   1   2 -15   34.70    3.10
  -1   2  15   33.10    2.90
   0  -2  15   34.20    3.30
   0  -2  15   41.70    3.90
   0  -2 -15   34.60    3.30
   0  -2  15   40.20    2.40
   0   2 -15   32.50    2.90
   0   2  15   38.70    3.90
   0   2  15   39.30    2.90
   1  -2  15   77.99    4.80
  -1  -2 -15   70.89    4.20
   1  -2  15   73.49    4.60
   1   2  15   69.09    3.20
  -1   2 -15   79.59    3.90
   2  -2  15   35.90    3.90
  -2  -2 -15   32.00    3.10
   2  -2  15   37.70    4.00
  -2   2 -15   45.50    3.10
  -2  -3  15    1.70    2.30
  -2  -3  15    6.40    2.70
  -2  -3  15    7.90    2.10
   2   3 -15    2.50    2.40
  -2   3  15    6.80    2.40
  -1  -3  15    4.00    2.00
   1  -3 -15    2.80    2.10
  -1  -3  15    2.90    2.40
  -1  -3  15    3.90    1.70
  -1   3  15    4.50    1.90
   1   3 -15    4.60    2.20
  -1   3  15    1.60    1.70
  -1   3  15    3.90    2.00
   0  -3  15   36.30    3.60
   0  -3  15   39.90    2.30
   0  -3  15   49.10    4.30
   0  -3 -15   36.20    3.30
   0   3 -15   36.60    3.20
   0   3  15   42.30    3.10
   1  -3  15  179.88    7.20
  -1  -3 -15  189.28    6.40
   1  -3  15  186.28    7.10
  -1   3 -15  197.98    5.80
   1   3  15  176.48    5.40
   1  -4 -15   22.90    3.10
  -1  -4  15    9.30    2.60
  -1  -4  15   21.90    3.50
  -1  -4  15   16.90    2.40
  -1   4  15   15.30    2.40
   1   4 -15   20.20    2.90
   0  -4 -15   19.40    2.90
   0  -4  15    8.20    2.60
   0  -4  15   17.10    3.10
   0   4 -15    9.40    2.40
   0   4  15   11.70    2.10
  -2   0  16    7.40    2.10
  -2   0  16    4.40    2.40
   2   0 -16    6.00    2.50
  -1   0  16   38.40    4.00
   1   0 -16   33.00    3.40
  -1   0  16   41.40    3.10
   0   0  16   81.19    5.00
   0   0 -16   78.39    4.50
   0   0  16   72.69    3.40
   1   0  16   28.30    3.50
  -1   0 -16   45.40    3.70
   1   0  16   30.20    3.10
  -2  -1  16   16.50    3.20
  -2  -1  16   11.20    2.40
   2  -1 -16   13.00    2.90
  -2   1  16    8.90    2.20
   2   1 -16   18.90    3.00
  -2   1  16   16.00    2.80
   1  -1 -16   32.80    3.40
  -1  -1  16   29.90    2.80
  -1  -1  16   27.00    3.40
  -1   1  16   38.60    3.80
  -1   1  16   29.80    2.80
   1   1 -16   34.80    3.40
   0  -1  16   17.40    2.60
   0  -1  16   13.20    2.70
   0  -1  16   14.00    1.80
   0  -1 -16   13.90    2.50
   0   1 -16   12.70    2.40
   0   1  16   18.00    3.00
   0   1  16   17.00    2.10
   1  -1  16   13.20    2.70
  -1  -1 -16   11.90    2.30
   1  -1  16    8.10    2.30
  -1   1 -16   13.10    2.30
   1   1  16   11.30    1.50
  -1  -2  16  151.38    6.80
   1  -2 -16  156.28    6.20
  -1  -2  16  146.59    6.10
  -1  -2  16  138.59    5.00
  -1   2  16  155.78    6.20
  -1   2  16  149.39    5.50
   1   2 -16  156.38    6.10
   0  -2 -16    1.20    2.10
   0  -2  16    1.10    1.20
   0  -2  16    0.90    1.90
   0  -2  16    5.90    2.40
   0   2  16    0.70    1.50
   0   2  16    2.50    2.20
   0   2 -16   -0.10    1.90
   1  -2  16   12.50    2.90
   1  -2  16    6.70    2.20
  -1  -2 -16    7.20    2.30
   1   2  16    9.40    1.70
  -1   2 -16    6.40    2.10
  -1  -3  16   -0.50    2.10
  -1  -3  16    4.10    2.70
   1  -3 -16    4.20    2.40
   1   3 -16    4.30    2.40
  -1   3  16    1.60    1.80
   0  -3  16   60.39    4.90
   0  -3 -16   59.99    4.60
   0  -3  16   54.09    4.50
   0   3  16   57.19    3.70
   0   3 -16   56.59    4.30
  -1   0  17   10.40    2.80
   1   0 -17   15.50    3.00
  -1   0  17   14.20    2.30
   0   0  17    5.00    1.70
   0   0 -17    4.60    2.20
   0   0  17    5.60    2.50
   1  -1 -17   11.40    2.70
  -1  -1  17   12.70    3.00
   1   1 -17   14.50    2.80
  -1   1  17   10.80    2.70
  -1   1  17   14.40    2.30
   0  -1  17   18.50    3.30
   0  -1  17    8.40    1.60
   0  -1 -17   14.30    2.70
   0  -1  17    9.90    2.40
   0   1  17   12.00    2.10
   0   1  17   21.50    3.50
   0   1 -17   13.40    2.60
_computing_structure_solution     'SHELXT 2014/4 (Sheldrick, 2014)'
;
_shelx_hkl_checksum              87835
_shelx_res_file
;
TITL VK001_0m_a.res in P2(1)
REM Old TITL VK001_0m in P2(1)/m
REM SHELXT solution in P2(1)
REM R1 0.083, Rweak 0.023, Alpha 0.001, Orientation as input
REM Flack x = -0.001 ( 0.220 ) from Parsons' quotients
REM Formula found by SHELXT: C7 N2 O2
CELL 0.71073 3.8872 6.8386 13.6279 90 93.303 90
ZERR 2 0.0001 0.0003 0.0005 0 0.002 0
LATT -1
SYMM -X,0.5+Y,-Z
SFAC C H N O
UNIT 14 16 4 4
L.S. 10
PLAN  20
TEMP -123.15
BOND $H
HTAB
WPDB-2
LIST 6
fmap 2
ACTA
OMIT 0 0 1
REM <olex2.extras>
REM <HklSrc "%.\\VK001_0m_a.hkl">
REM </olex2.extras>
WGHT    0.050400    0.032800
FVAR       1.79350
O2    4    0.276619    0.747680    0.590485    11.00000    0.02865    0.02104 =
         0.02058    0.00251   -0.00048   -0.00531
O1    4    0.593441    0.874159    0.717642    11.00000    0.04608    0.02428 =
         0.02991    0.00298   -0.00874   -0.01597
N2    3    0.352829    0.402500    0.892933    11.00000    0.02412    0.02267 =
         0.01971   -0.00109   -0.00083   -0.00111
N1    3    0.141411    0.424586    0.693100    11.00000    0.02399    0.01910 =
         0.02005   -0.00121   -0.00062   -0.00383
C6    1    0.412513    0.746934    0.681981    11.00000    0.02185    0.01765 =
         0.02149    0.00053    0.00045    0.00001
C4    1    0.319243    0.569152    0.738817    11.00000    0.01779    0.01624 =
         0.02065   -0.00112    0.00118   -0.00015
C3    1    0.072232    0.270152    0.748187    11.00000    0.02424    0.01844 =
         0.02205   -0.00176   -0.00034   -0.00501
AFIX  43
H3    2   -0.052518    0.164207    0.718368    11.00000   -1.20000
AFIX   0
C2    1    0.175442    0.257162    0.848190    11.00000    0.01652    0.01937 =
         0.02247    0.00089    0.00185    0.00020
C1    1    0.087954    0.083587    0.908476    11.00000    0.02859    0.02580 =
         0.02529    0.00792   -0.00174   -0.00473
AFIX 137
H1A   2    0.299594    0.028251    0.939667    11.00000   -1.50000
H1B   2   -0.027146   -0.015109    0.866038    11.00000   -1.50000
H1C   2   -0.065977    0.123756    0.959271    11.00000   -1.50000
AFIX   0
C5    1    0.422176    0.557631    0.837690    11.00000    0.02490    0.01874 =
         0.02249   -0.00295   -0.00178   -0.00230
AFIX  43
H5    2    0.546619    0.663867    0.867334    11.00000   -1.20000
AFIX   0
C7    1    0.367113    0.915902    0.532379    11.00000    0.03432    0.02570 =
         0.02635    0.00852    0.00160   -0.00396
AFIX 137
H7A   2    0.238277    0.911528    0.468453    11.00000   -1.50000
H7B   2    0.614819    0.913642    0.522510    11.00000   -1.50000
H7C   2    0.309348    1.036127    0.566940    11.00000   -1.50000
AFIX   0
HKLF 4
REM  VK001_0m_a.res in P2(1)
REM R1 =  0.0290 for    1495 Fo > 4sig(Fo)  and  0.0303 for all    1556 data
REM    102 parameters refined using      1 restraints
END
WGHT      0.0504      0.0328
REM Instructions for potential hydrogen bonds
EQIV $1 x-1, y-1, z
HTAB C3 O1_$1
HTAB C1 O1_$1
EQIV $2 -x, y+1/2, -z+1
HTAB C7 N1_$2
REM Highest difference peak  0.195,  deepest hole -0.173,  1-sigma level  0.040
Q1    1   0.1469  0.2526  0.7957  11.00000  0.05    0.19
Q2    1   0.3325  0.6628  0.7142  11.00000  0.05    0.19
Q3    1   0.1338  0.1677  0.8774  11.00000  0.05    0.16
Q4    1   0.4371  0.5487  0.7810  11.00000  0.05    0.15
Q5    1   0.1227  0.4168  0.6366  11.00000  0.05    0.14
Q6    1   0.3724  0.4024  0.9539  11.00000  0.05    0.14
Q7    1   0.2740  0.5857  0.7958  11.00000  0.05    0.14
Q8    1   0.6024  0.8770  0.7809  11.00000  0.05    0.13
Q9    1  -0.1527  0.0304  0.8827  11.00000  0.05    0.13
Q10   1   0.2753  0.7646  0.6409  11.00000  0.05    0.12
Q11   1   0.3972  0.8622  0.7061  11.00000  0.05    0.11
Q12   1   0.8324  0.9200  0.6785  11.00000  0.05    0.11
Q13   1  -0.2742  0.2103  0.6408  11.00000  0.05    0.10
Q14   1  -0.0739  0.8720  0.6219  11.00000  0.05    0.10
Q15   1   0.1824  0.0893  0.9725  11.00000  0.05    0.10
Q16   1  -0.2918  0.0714  0.8168  11.00000  0.05    0.10
Q17   1   0.3350  0.8807  0.4730  11.00000  0.05    0.10
Q18   1   0.1032  0.1537  0.7195  11.00000  0.05    0.10
Q19   1  -0.1304  0.0768  0.6762  11.00000  0.05    0.09
Q20   1   0.8620  0.9592  0.7403  11.00000  0.05    0.09
;
_shelx_res_checksum              97136
_shelxl_version_number           .2013
loop_
_space_group_symop_operation_xyz
'x, y, z'
'-x, y+1/2, -z'
loop_
_atom_site_type_symbol
_atom_site_label
_atom_site_fract_x
_atom_site_fract_y
_atom_site_fract_z
_atom_site_U_iso_or_equiv
_atom_site_adp_type
_atom_site_calc_flag
_atom_site_occupancy
O O2 0.2766(3) 0.74768(19) 0.59049(8) 0.0235(3) Uani d 1
O O1 0.5934(4) 0.8742(2) 0.71764(10) 0.0338(4) Uani d 1
N N2 0.3528(4) 0.4025(2) 0.89293(10) 0.0223(3) Uani d 1
N N1 0.1414(4) 0.4246(2) 0.69310(10) 0.0211(3) Uani d 1
C C6 0.4125(4) 0.7469(3) 0.68198(12) 0.0204(4) Uani d 1
C C4 0.3192(4) 0.5692(2) 0.73882(12) 0.0182(4) Uani d 1
C C3 0.0722(4) 0.2702(3) 0.74819(12) 0.0216(4) Uani d 1
H H3 -0.0525 0.1642 0.7184 0.026 Uiso calc 1
C C2 0.1754(4) 0.2572(2) 0.84819(12) 0.0194(4) Uani d 1
C C1 0.0880(5) 0.0836(3) 0.90848(13) 0.0267(4) Uani d 1
H H1A 0.2996 0.0283 0.9397 0.040 Uiso calc 1
H H1B -0.0271 -0.0151 0.8660 0.040 Uiso calc 1
H H1C -0.0660 0.1238 0.9593 0.040 Uiso calc 1
C C5 0.4222(5) 0.5576(3) 0.83769(12) 0.0222(4) Uani d 1
H H5 0.5466 0.6639 0.8673 0.027 Uiso calc 1
C C7 0.3671(5) 0.9159(3) 0.53238(13) 0.0288(4) Uani d 1
H H7A 0.2383 0.9115 0.4685 0.043 Uiso calc 1
H H7B 0.6148 0.9136 0.5225 0.043 Uiso calc 1
H H7C 0.3093 1.0361 0.5669 0.043 Uiso calc 1
loop_
_atom_site_aniso_label
_atom_site_aniso_U_11
_atom_site_aniso_U_22
_atom_site_aniso_U_33
_atom_site_aniso_U_12
_atom_site_aniso_U_13
_atom_site_aniso_U_23
O2 0.0286(6) 0.0210(6) 0.0206(6) -0.0053(5) -0.0005(5) 0.0025(5)
O1 0.0461(9) 0.0243(7) 0.0299(7) -0.0160(7) -0.0087(6) 0.0030(6)
N2 0.0241(7) 0.0227(7) 0.0197(6) -0.0011(7) -0.0008(5) -0.0011(6)
N1 0.0240(7) 0.0191(7) 0.0200(7) -0.0038(6) -0.0006(6) -0.0012(6)
C6 0.0219(8) 0.0176(8) 0.0215(8) 0.0000(7) 0.0004(6) 0.0005(7)
C4 0.0178(8) 0.0162(8) 0.0207(8) -0.0001(6) 0.0012(6) -0.0011(6)
C3 0.0242(9) 0.0184(8) 0.0220(8) -0.0050(7) -0.0003(6) -0.0018(7)
C2 0.0165(8) 0.0194(8) 0.0225(8) 0.0002(7) 0.0018(6) 0.0009(7)
C1 0.0286(10) 0.0258(10) 0.0253(9) -0.0047(8) -0.0017(7) 0.0079(7)
C5 0.0249(9) 0.0187(8) 0.0225(8) -0.0023(7) -0.0018(7) -0.0029(7)
C7 0.0343(10) 0.0257(9) 0.0264(9) -0.0040(9) 0.0016(7) 0.0085(8)
loop_
_atom_type_symbol
_atom_type_description
_atom_type_scat_dispersion_real
_atom_type_scat_dispersion_imag
_atom_type_scat_source
C C 0.0033 0.0016 'International Tables Vol C Tables 4.2.6.8 and 6.1.1.4'
H H 0.0000 0.0000 'International Tables Vol C Tables 4.2.6.8 and 6.1.1.4'
N N 0.0061 0.0033 'International Tables Vol C Tables 4.2.6.8 and 6.1.1.4'
O O 0.0106 0.0060 'International Tables Vol C Tables 4.2.6.8 and 6.1.1.4'
loop_
_geom_angle_atom_site_label_1
_geom_angle_atom_site_label_2
_geom_angle_atom_site_label_3
_geom_angle
C6 O2 C7 114.85(14)
C2 N2 C5 116.65(14)
C3 N1 C4 116.01(13)
O2 C6 C4 113.23(14)
O1 C6 O2 124.67(16)
O1 C6 C4 122.10(15)
N1 C4 C6 119.51(14)
N1 C4 C5 121.52(15)
C5 C4 C6 118.97(14)
N1 C3 H3 118.6
N1 C3 C2 122.86(15)
C2 C3 H3 118.6
N2 C2 C3 120.52(15)
N2 C2 C1 117.89(14)
C3 C2 C1 121.59(15)
C2 C1 H1A 109.5
C2 C1 H1B 109.5
C2 C1 H1C 109.5
H1A C1 H1B 109.5
H1A C1 H1C 109.5
H1B C1 H1C 109.5
N2 C5 C4 122.43(16)
N2 C5 H5 118.8
C4 C5 H5 118.8
O2 C7 H7A 109.5
O2 C7 H7B 109.5
O2 C7 H7C 109.5
H7A C7 H7B 109.5
H7A C7 H7C 109.5
H7B C7 H7C 109.5
loop_
_geom_bond_atom_site_label_1
_geom_bond_atom_site_label_2
_geom_bond_distance
O2 C6 1.3259(19)
O2 C7 1.451(2)
O1 C6 1.203(2)
N2 C2 1.337(2)
N2 C5 1.337(2)
N1 C4 1.339(2)
N1 C3 1.332(2)
C6 C4 1.497(2)
C4 C5 1.386(2)
C3 H3 0.9500
C3 C2 1.401(2)
C2 C1 1.494(2)
C1 H1A 0.9800
C1 H1B 0.9800
C1 H1C 0.9800
C5 H5 0.9500
C7 H7A 0.9800
C7 H7B 0.9800
C7 H7C 0.9800
loop_
_geom_hbond_atom_site_label_D
_geom_hbond_atom_site_label_H
_geom_hbond_atom_site_label_A
_geom_hbond_site_symmetry_D
_geom_hbond_site_symmetry_H
_geom_hbond_site_symmetry_A
_geom_hbond_distance_DH
_geom_hbond_distance_HA
_geom_hbond_distance_DA
_geom_hbond_angle_DHA
_geom_hbond_publ_flag
C1 H1A N2 2_555 2_555 2_555 0.980 2.723 3.592 148.13 yes
C1 H1B O1 2_555 2_555 2_555 0.980 2.548 3.455 153.73 yes
C3 H3 O1 2_555 2_555 2_555 0.950 2.414 3.299 154.90 yes

_cod_database_fobs_code 1546672
