#------------------------------------------------------------------------------
#$Date: 2017-07-25 13:18:10 +0300 (Tue, 25 Jul 2017) $
#$Revision: 199227 $
#$URL: file:///home/coder/svn-repositories/cod/cif/1/54/66/1546633.cif $
#------------------------------------------------------------------------------
#
# This file is available in the Crystallography Open Database (COD),
# http://www.crystallography.net/. The original data for this entry
# were provided by IUCr Journals, http://journals.iucr.org/.
#
# The file may be used within the scientific community so long as
# proper attribution is given to the journal article from which the
# data were obtained.
#
data_1546633
loop_
_publ_author_name
'Olszowy, Aleksandra'
'Siod\/lak, Dawid'
'Zarychta, Bartosz'
_publ_section_title
;
 3,5-Bis(trifluoromethyl)phenyl 4-methylbenzenesulfonate
;
_journal_coeditor_code           BT4055
_journal_issue                   7
_journal_name_full               IUCrData
_journal_page_first              x170981
_journal_paper_doi               10.1107/S2414314617009816
_journal_volume                  2
_journal_year                    2017
_chemical_formula_iupac          'C15 H10 F6 O3 S'
_chemical_formula_moiety         'C15 H10 F6 O3 S'
_chemical_formula_sum            'C15 H10 F6 O3 S'
_chemical_formula_weight         384.29
_chemical_name_systematic
;
3,5-Bis(trifluoromethyl)phenyl 4-methylbenzenesulfonate
;
_space_group_crystal_system      triclinic
_space_group_IT_number           2
_space_group_name_Hall           '-P 1'
_space_group_name_H-M_alt        'P -1'
_symmetry_space_group_name_Hall  '-P 1'
_symmetry_space_group_name_H-M   'P -1'
_atom_sites_solution_hydrogens   geom
_audit_creation_method           SHELXL-2013
_cell_angle_alpha                103.519(3)
_cell_angle_beta                 99.935(3)
_cell_angle_gamma                105.188(3)
_cell_formula_units_Z            2
_cell_length_a                   8.2805(3)
_cell_length_b                   8.6053(3)
_cell_length_c                   12.2396(4)
_cell_measurement_reflns_used    5437
_cell_measurement_temperature    100.0
_cell_measurement_theta_max      25.987
_cell_measurement_theta_min      3.469
_cell_volume                     792.56(5)
_computing_cell_refinement
;
CrysAlis CCD (Oxford Diffraction, 2008)
;
_computing_data_collection
;
CrysAlis CCD (Oxford Diffraction, 2008)
;
_computing_data_reduction
;
CrysAlis RED (Oxford Diffraction, 2008)
;
_computing_molecular_graphics
;
SHELXTL (Sheldrick, 2008)
;
_computing_publication_material
;
SHELXL2014 (Sheldrick, 2015)
;
_computing_structure_refinement
;
SHELXL2014 (Sheldrick, 2015)
;
_computing_structure_solution
;
SHELXS2014 (Sheldrick, 2008)
;
_diffrn_ambient_temperature      100.00(10)
_diffrn_detector_area_resol_mean '1024 x 1024 with blocks 2 x 2'
_diffrn_measured_fraction_theta_full 0.985
_diffrn_measured_fraction_theta_max 0.983
_diffrn_measurement_device_type  'Oxford Diffraction Xcalibur'
_diffrn_measurement_method       \w-scan
_diffrn_radiation_type           MoK\a
_diffrn_radiation_wavelength     0.71073
_diffrn_reflns_av_R_equivalents  0.0125
_diffrn_reflns_limit_h_max       10
_diffrn_reflns_limit_h_min       -10
_diffrn_reflns_limit_k_max       10
_diffrn_reflns_limit_k_min       -6
_diffrn_reflns_limit_l_max       15
_diffrn_reflns_limit_l_min       -15
_diffrn_reflns_number            5437
_diffrn_reflns_theta_full        25.242
_diffrn_reflns_theta_max         25.987
_diffrn_reflns_theta_min         3.469
_diffrn_standards_decay_%        0
_diffrn_standards_interval_count 0
_diffrn_standards_interval_time  0
_diffrn_standards_number         0
_exptl_absorpt_coefficient_mu    0.282
_exptl_absorpt_correction_type   none
_exptl_crystal_colour            colourless
_exptl_crystal_density_diffrn    1.610
_exptl_crystal_density_method    'not measured'
_exptl_crystal_description       irregular
_exptl_crystal_F_000             388
_exptl_crystal_size_max          0.4
_exptl_crystal_size_mid          0.25
_exptl_crystal_size_min          0.24
_refine_diff_density_max         0.272
_refine_diff_density_min         -0.370
_refine_ls_extinction_method     none
_refine_ls_goodness_of_fit_ref   1.064
_refine_ls_hydrogen_treatment    constr
_refine_ls_matrix_type           full
_refine_ls_number_parameters     254
_refine_ls_number_reflns         3070
_refine_ls_number_restraints     36
_refine_ls_restrained_S_all      1.094
_refine_ls_R_factor_all          0.0361
_refine_ls_R_factor_gt           0.0298
_refine_ls_shift/su_max          0.002
_refine_ls_shift/su_mean         0.000
_refine_ls_structure_factor_coef Fsqd
_refine_ls_weighting_details
'w=1/[\s^2^(Fo^2^)+(0.0445P)^2^+0.1137P] where P=(Fo^2^+2Fc^2^)/3'
_refine_ls_weighting_scheme      calc
_refine_ls_wR_factor_gt          0.0781
_refine_ls_wR_factor_ref         0.0802
_reflns_number_gt                2614
_reflns_number_total             3070
_reflns_threshold_expression     'I > 2\s(I)'
_cod_data_source_file            bt4055sup1.cif
_cod_data_source_block           I
_cod_database_code               1546633
_shelx_space_group_comment
;
The symmetry employed for this shelxl refinement is uniquely defined
by the following loop, which should always be used as a source of
symmetry information in preference to the above space-group names.
They are only intended as comments.
;
_shelx_hkl_file
;
   0   0  -2 7126.11   21.14
   0   0   2 7038.27   20.62
   0   0  -3  216.21    4.77
   0   0   3  211.92    4.59
   0   0   4    1.89    1.69
   0   0  -4    1.84    1.49
   0   0   5  124.32    4.65
   0   0  -5  135.13    4.99
   0   0  -6   99.23    4.88
   0   0   6   99.03    4.67
   0   0  -7 1935.95   21.49
   0   0   7 1924.36   20.74
   0   0   8    1.66    2.66
   0   0  -8    1.83    2.78
   0   0   9  552.47   13.00
   0   0  -9  538.73   13.28
   0   0  10  240.35    9.44
   0   0 -10  225.25    9.39
   0   0 -11   26.47    4.39
   0   0  11   21.95    3.95
   0   0 -12   65.20    6.43
   0   0  12   66.78    6.14
   0   0  13    2.15    4.18
   0   0 -13    2.99    4.38
   0   0 -14   87.50    7.65
   0   0  14   73.63    6.71
   0   0  15   18.00    5.57
   0   0 -15    2.09    5.71
   0  -1  16   67.12    6.95
   0   1 -15   13.38    5.56
   0  -1  15    6.59    5.32
   0  -1  14    3.69    4.12
   0   1 -14    0.63    4.35
   0   1 -13   30.75    4.91
   0  -1  13   42.01    5.06
   0  -1  12   91.24    6.72
   0   1 -12   83.37    6.95
   0  -1  11  209.44    9.16
   0   1 -11  210.26    9.78
   0   1 -10  645.12   15.44
   0  -1  10  648.76   14.45
   0  -1   9  633.32   13.48
   0   1  -9  636.45   14.31
   0  -1   8  296.29    8.71
   0   1  -8  281.26    9.18
   0  -1   7    4.74    2.28
   0   1  -7    7.59    2.63
   0   1  -6  100.47    4.77
   0  -1   6   97.56    4.39
   0  -1   5 3164.77   20.86
   0   1  -5 3156.77   22.94
   0   1  -4   79.89    3.57
   0   1  -3  540.78    7.19
   0   1  -3  542.71    7.52
   0   1  -2 2255.18   12.64
   0   1  -2 2260.88   12.75
   0   1   1 1131.85    8.61
   0   1   1 1159.72    8.61
   0   1   2   25.24    1.20
   0   1   2   25.08    2.08
   0   1   3  222.49    5.31
   0   1   4    5.40    1.83
   0  -1  -5 1087.65   13.92
   0   1   5 1069.05   13.96
   0   1   6   43.25    3.77
   0  -1  -6   36.53    3.44
   0   1   7  581.70   12.27
   0  -1  -7  542.14   11.66
   0   1   8   40.54    4.47
   0  -1  -8   42.64    4.17
   0  -1  -9 1812.54   24.31
   0   1   9 1793.25   24.43
   0   1  10    4.68    3.63
   0  -1 -10    3.40    3.72
   0  -1 -11  344.61   12.24
   0   1  11  348.22   12.37
   0   1  12    2.91    3.79
   0  -1 -12    2.73    4.01
   0   1  13    4.46    4.04
   0  -1 -13   19.36    4.27
   0   1  14   -0.53    5.38
   0  -1 -14    3.99    5.33
   0   1  15  272.40   13.30
   0   2 -16   23.33    5.55
   0   2 -15    3.05    4.75
   0  -2  15    0.84    4.96
   0  -2  14   27.75    4.30
   0   2 -14   16.30    4.13
   0  -2  13    7.19    4.27
   0   2 -13    3.31    4.10
   0  -2  12  239.06    9.91
   0   2 -12  228.66   10.89
   0   2 -11    0.21    3.78
   0  -2  11    2.22    2.88
   0   2 -10  133.36    7.65
   0  -2  10  132.18    6.94
   0  -2   9  186.23    7.44
   0   2  -9  181.03    8.16
   0   2  -8  412.64   11.08
   0   2  -8  444.10    7.09
   0  -2   8  417.75    9.89
   0   2  -7    5.65    1.16
   0   2  -7    2.96    2.47
   0   2  -6  869.83   13.62
   0   2  -6  902.30    8.21
   0   2  -5 1025.38   13.51
   0   2  -5 1046.55    7.87
   0   2  -4  149.67    2.80
   0   2  -4  132.92    4.63
   0   2  -4  135.91    4.62
   0   2  -3 1845.00   14.94
   0   2  -3 1852.76    9.70
   0   2  -3 1801.00   14.96
   0   2  -2  180.53    4.45
   0   2  -2  192.46    3.47
   0   2  -2  182.86    4.45
   0   2  -1 8899.54   26.74
   0   2  -1 8824.70   25.98
   0   2  -1 8818.49   25.76
   0   2  -1 8862.81   27.59
   0   2   0 1478.69   11.48
   0   2   0 1486.30   10.69
   0   2   0 1483.14   11.81
   0   2   0 1496.97   10.40
   0   2   1  474.74    7.41
   0   2   1  489.36    5.67
   0   2   1  475.67    7.27
   0   2   2 7299.14   20.93
   0   2   2 7330.87   30.65
   0   2   2 7235.44   31.17
   0   2   3 2250.99   12.15
   0   2   3 2217.36   18.65
   0   2   4 1259.03    9.95
   0   2   4 1220.23   15.15
   0   2   5   15.81    1.55
   0   2   5   15.58    2.65
   0  -2  -6   14.81    2.83
   0   2   6    9.43    1.49
   0   2   6    8.64    2.67
   0   2   7  278.34    9.43
   0  -2  -7  296.29    9.28
   0  -2  -8  263.10    9.29
   0   2   8  252.15    9.56
   0   2   9  243.94   10.19
   0  -2  -9  253.40    9.62
   0  -2 -10  112.21    7.05
   0   2  10   99.08    7.33
   0   2  11   75.81    6.95
   0  -2 -11   73.90    6.34
   0   2  12   48.82    6.06
   0  -2 -12   55.95    6.08
   0   2  13   66.84    7.36
   0   2  14  155.85   10.52
   0   3 -15    0.74    4.84
   0  -3  14   49.09    5.63
   0   3 -14   42.89    5.76
   0  -3  13  460.85   13.99
   0   3 -13  433.66   15.36
   0   3 -12  258.93   11.59
   0  -3  12  286.11   10.64
   0   3 -11  477.82   14.56
   0  -3  11  511.71   13.16
   0   3 -10  214.10    9.49
   0  -3  10  222.27    8.40
   0   3  -9  372.39   11.57
   0   3  -8  107.17    6.29
   0   3  -7  352.92    5.29
   0   3  -7  350.70    9.85
   0   3  -6  123.51    5.69
   0   3  -6  126.06    5.70
   0   3  -6  135.80    3.21
   0   3  -5    1.32    1.78
   0   3  -5    0.42    1.74
   0   3  -5    2.06    0.79
   0   3  -4 1927.59   18.18
   0   3  -4 1955.16   12.54
   0   3  -4 1904.59   18.50
   0   3  -3 3158.48   21.65
   0   3  -3 3144.32   22.39
   0   3  -3 3185.03   16.95
   0   3  -2  828.42   10.82
   0   3  -2  853.68   10.62
   0   3  -2  858.95   10.03
   0   3  -2  858.70    9.54
   0   3  -1 1517.27   13.65
   0   3  -1 1536.37   13.64
   0   3  -1 1549.56   13.77
   0   3  -1 1546.21   13.47
   0   3   0  439.25    6.99
   0   3   0  430.39    7.70
   0   3   0  447.88    8.04
   0   3   0  441.63    7.22
   0   3   1 1690.36   16.59
   0   3   1 1683.02   16.04
   0   3   1 1693.31   13.02
   0   3   2 1219.53   10.96
   0   3   2 1236.92   15.13
   0   3   2 1232.02   14.75
   0   3   3 1016.01   14.37
   0   3   3 1023.59   14.80
   0   3   3 1058.85    9.81
   0   3   4 2204.18   14.26
   0   3   4 2163.98   22.31
   0   3   5   59.93    2.60
   0   3   5   70.30    4.78
   0   3   6  547.51   12.99
   0  -3  -7   92.37    5.65
   0   3   7   83.20    6.02
   0   3   8  443.12   13.25
   0  -3  -8  445.74   12.37
   0  -3  -9  888.75   17.94
   0   3   9  877.40   19.38
   0  -3 -10  818.69   18.34
   0   3  10  765.23   19.07
   0   3  11   22.68    5.33
   0   3  12  151.26    9.74
   0   3  13   46.88    6.27
   0   4 -15    6.18    5.66
   0   4 -14   48.52    6.45
   0  -4  13    2.43    3.45
   0   4 -13    1.00    3.83
   0   4 -12   25.95    4.73
   0  -4  12   31.18    4.15
   0   4 -11   66.56    6.30
   0  -4  11   74.40    5.59
   0   4 -10  494.25   14.34
   0   4  -9  267.74   10.23
   0   4  -8    1.59    3.01
   0   4  -7    2.66    0.99
   0   4  -7    1.71    2.83
   0   4  -7    2.67    2.51
   0   4  -6  323.40    5.76
   0   4  -6  308.72    9.27
   0   4  -6  305.40    9.06
   0   4  -5   21.76    1.73
   0   4  -5   20.82    2.87
   0   4  -4  325.34    8.57
   0   4  -4  345.89    6.57
   0   4  -4  324.53    8.29
   0   4  -3 1601.10   17.29
   0   4  -3 1659.37   14.99
   0   4  -3 1626.44   16.09
   0   4  -3 1594.43   17.71
   0   4  -2 5062.15   27.99
   0   4  -2 5095.67   29.16
   0   4  -2 5050.49   28.51
   0   4  -2 5108.46   30.16
   0   4  -1 1101.98   13.64
   0   4  -1 1136.57   14.01
   0   4  -1 1099.68   13.38
   0   4  -1 1086.83   13.25
   0   4   0  929.07   12.16
   0   4   0  917.43   12.97
   0   4   0  935.37   13.43
   0   4   0  916.85   11.70
   0   4   1 1631.43   18.20
   0   4   1 1676.16   15.11
   0   4   1 1648.36   18.90
   0   4   2  124.40    5.65
   0   4   2  122.10    5.71
   0   4   2  126.25    4.18
   0   4   3 1245.67   12.33
   0   4   3 1200.73   17.86
   0   4   3 1209.51   17.42
   0   4   4  652.17    8.92
   0   4   4  635.97   13.56
   0   4   5  755.75   15.69
   0   4   6   51.96    5.16
   0   4   7  189.95    9.02
   0  -4  -8  317.78   10.89
   0   4   8  296.78   11.77
   0   4   9  250.78   11.43
   0   4  10    7.94    4.35
   0   4  11  193.62   11.18
   0   4  12   53.60    7.25
   0   5 -15   -1.20    5.68
   0   5 -14  161.35   10.34
   0   5 -13   47.96    6.10
   0   5 -12  242.99   11.53
   0   5 -11  113.22    8.04
   0   5 -10 1171.43   22.38
   0   5  -9   52.38    5.69
   0   5  -8   51.86    5.16
   0   5  -7   13.25    3.50
   0   5  -7   12.14    3.46
   0   5  -6   18.21    3.57
   0   5  -6   17.73    2.03
   0   5  -6   20.74    3.58
   0   5  -5   91.46    3.98
   0   5  -5   92.78    5.60
   0   5  -5   93.58    5.42
   0   5  -4   17.76    3.00
   0   5  -4   12.21    1.97
   0   5  -4   16.39    3.07
   0   5  -3   62.78    3.87
   0   5  -3   61.39    4.23
   0   5  -3   61.09    4.34
   0   5  -3   71.01    4.22
   0   5  -2   10.22    2.39
   0   5  -2    9.41    2.46
   0   5  -2   11.40    2.12
   0   5  -2   10.02    2.40
   0   5  -1   16.81    2.73
   0   5  -1   16.11    2.65
   0   5  -1   17.05    2.72
   0   5  -1   20.13    2.99
   0   5   0  230.13    7.67
   0   5   0  233.47    7.87
   0   5   0  235.79    6.83
   0   5   1   23.00    3.41
   0   5   1   25.26    2.69
   0   5   1   21.74    3.23
   0   5   2   -0.23    1.45
   0   5   2    0.65    2.83
   0   5   2   -0.52    2.58
   0   5   3    0.80    2.92
   0   5   4   64.21    5.46
   0   5   5   28.92    4.46
   0   5   6   63.90    5.93
   0   5   7  102.71    7.64
   0   5   8  132.74    8.65
   0   5   9   79.61    7.26
   0   5  10  148.42   10.18
   0   5  11   -2.33    5.73
   0   6 -15  153.73   10.73
   0   6 -14   11.96    5.53
   0   6 -13    9.24    4.99
   0   6 -12    7.27    5.10
   0   6 -11    4.43    4.37
   0   6 -10   50.89    5.86
   0   6  -9  453.01   14.13
   0   6  -8   28.64    4.28
   0   6  -8   32.02    4.80
   0   6  -7    8.25    3.60
   0   6  -7    9.48    3.68
   0   6  -6    6.57    3.42
   0   6  -6    2.55    2.94
   0   6  -6    3.38    1.68
   0   6  -5  865.45   13.42
   0   6  -5  852.28   16.70
   0   6  -5  834.16   16.06
   0   6  -4  132.02    6.33
   0   6  -4  148.84    7.15
   0   6  -4  144.68    6.84
   0   6  -4  147.53    6.08
   0   6  -3 1857.18   21.31
   0   6  -3 1805.48   21.43
   0   6  -3 1820.75   22.84
   0   6  -3 1830.35   22.00
   0   6  -2  339.54    9.79
   0   6  -2  353.86    9.96
   0   6  -2  353.27    9.77
   0   6  -2  338.46    9.66
   0   6  -1  325.85    9.75
   0   6  -1  334.61    9.30
   0   6  -1  338.50    9.41
   0   6  -1  337.44   10.10
   0   6   0   22.83    4.05
   0   6   0   31.10    3.21
   0   6   0   30.82    3.86
   0   6   1    1.57    1.88
   0   6   1    1.05    3.08
   0   6   1    1.95    2.84
   0   6   2   39.23    4.85
   0   6   2   44.02    4.92
   0   6   3   51.48    5.25
   0   6   4  243.36   10.29
   0   6   5  639.28   16.73
   0   6   6    4.60    3.70
   0   6   7   77.46    7.61
   0   6   8    5.77    4.53
   0   6   9    9.70    4.64
   0   6  10  126.21    9.43
   0   7 -14  197.16   12.41
   0   7 -13  283.94   13.73
   0   7 -12  278.25   12.95
   0   7 -11  486.41   16.39
   0   7 -10   23.35    5.48
   0   7  -9  449.62   14.79
   0   7  -8    2.13    3.82
   0   7  -8    1.36    3.85
   0   7  -7    6.65    3.14
   0   7  -7    5.28    3.66
   0   7  -6  143.75    8.33
   0   7  -6  148.83    7.93
   0   7  -5  518.58   14.10
   0   7  -5  541.73   11.94
   0   7  -5  531.74   13.73
   0   7  -4  759.83   15.30
   0   7  -4  751.96   16.36
   0   7  -4  743.62   15.67
   0   7  -4  756.49   14.65
   0   7  -3  129.04    6.64
   0   7  -3  144.87    7.06
   0   7  -3  131.31    7.09
   0   7  -3  132.51    6.97
   0   7  -2   31.99    4.23
   0   7  -2   23.14    3.97
   0   7  -2   24.33    3.63
   0   7  -2   29.17    3.84
   0   7  -1    2.79    3.41
   0   7  -1    4.87    2.92
   0   7  -1    3.32    3.48
   0   7   0 1785.35   25.10
   0   7   0 1849.20   22.63
   0   7   0 1829.57   26.08
   0   7   1   54.18    5.61
   0   7   1   51.57    5.59
   0   7   2  127.80    7.81
   0   7   3   32.62    4.90
   0   7   4    1.19    3.93
   0   7   5    0.72    4.15
   0   7   6   27.70    5.85
   0   7   7   -0.87    4.38
   0   7   8  196.61   11.95
   0   8 -13   22.76    5.65
   0   8 -12    2.45    4.76
   0   8 -11    6.34    4.17
   0   8 -10  127.26    9.06
   0   8  -9   10.10    4.51
   0   8  -8  209.43   11.01
   0   8  -8  196.64   10.26
   0   8  -7  109.29    8.16
   0   8  -7  113.70    7.67
   0   8  -6   64.19    5.88
   0   8  -6   52.09    5.97
   0   8  -5   14.05    2.85
   0   8  -5   18.65    4.46
   0   8  -5   17.25    3.70
   0   8  -4  302.22   11.30
   0   8  -4  306.21   11.15
   0   8  -4  313.84   10.61
   0   8  -4  286.52   10.51
   0   8  -3  263.99   10.28
   0   8  -3  249.82   10.05
   0   8  -3  274.33   10.28
   0   8  -3  246.20    9.79
   0   8  -2  197.56    9.16
   0   8  -2  198.81    9.05
   0   8  -2  205.39    8.96
   0   8  -2  201.18    8.70
   0   8  -1  311.33   11.87
   0   8  -1  318.09   11.74
   0   8  -1  325.82   10.82
   0   8   0  151.69    8.58
   0   8   1  179.92    9.37
   0   8   2    0.38    3.67
   0   8   3   32.45    5.13
   0   8   4  118.31    8.68
   0   8   5   23.38    5.81
   0   8   6  219.14   12.50
   0   9 -12  649.41   21.07
   0   9 -11   30.01    6.45
   0   9 -10  235.55   12.27
   0   9  -9   31.45    5.45
   0   9  -8    6.16    4.28
   0   9  -8    8.88    4.23
   0   9  -7   11.02    4.37
   0   9  -7   11.03    4.21
   0   9  -6    2.78    3.70
   0   9  -6    5.28    3.53
   0   9  -5   19.65    4.26
   0   9  -5   27.40    4.50
   0   9  -4   31.03    4.90
   0   9  -4   29.98    5.14
   0   9  -4   26.10    4.83
   0   9  -4   31.95    4.51
   0   9  -3  137.95    8.48
   0   9  -3  142.89    8.23
   0   9  -3  140.03    8.19
   0   9  -3  134.19    8.04
   0   9  -2   59.13    6.48
   0   9  -2   67.73    6.23
   0   9  -1  330.21   12.92
   0   9   0  106.77    8.15
   0   9   1  340.17   13.57
   0   9   2  128.72    9.48
   0   9   3    5.70    4.78
   0   9   4   93.56    8.54
   0   9   5    1.22    5.92
   0  10 -11  123.44    9.72
   0  10 -10   -7.21    6.04
   0  10  -9   -4.16    5.24
   0  10  -8    2.53    5.35
   0  10  -7   22.22    5.17
   0  10  -7   23.75    4.98
   0  10  -6   82.08    7.93
   0  10  -6   87.19    7.33
   0  10  -5  136.77    8.98
   0  10  -4  102.44    7.95
   0  10  -4  109.44    7.86
   0  10  -3  460.66   15.59
   0  10  -2   23.56    5.39
   0  10  -1    7.22    5.06
   0  10   0   34.35    5.39
   0  10   1    4.70    5.09
   0  10   2   68.77    8.17
   0  11  -9   24.46    6.06
   0  11  -2  129.11    8.92
   0  11  -1    7.03    6.04
  -1  11   1   72.24    7.33
  -1  11  -2  206.55   11.53
  -1  11  -3  133.14    9.38
  -1  11  -5   39.93    5.70
  -1  11  -6   38.58    6.16
  -1  11  -7   65.71    7.30
  -1  11  -8   13.10    5.95
  -1  11  -9   17.03    5.93
  -1  10   3    0.91    6.09
  -1  10   2    5.75    5.25
  -1  10   1  144.42    9.58
  -1  10   0  265.62   12.12
  -1  10   0  266.59   12.98
  -1  10  -1  343.32   13.35
  -1  10  -1  324.72   13.99
  -1  10  -2  240.23   11.18
  -1  10  -2  235.67   11.48
  -1  10  -3  256.67   11.71
  -1  10  -4   -1.80    4.49
  -1  10  -4    1.35    4.23
  -1  10  -5   43.13    5.88
  -1  10  -6    7.11    4.76
  -1  10  -7   14.15    5.06
  -1  10  -8    0.52    4.45
  -1  10  -9    1.46    4.79
  -1  10 -10   28.88    6.74
  -1  10 -11    6.65    6.38
  -1   9   5  284.89   13.95
  -1   9   4  147.47    9.83
  -1   9   3    3.09    4.37
  -1   9   2   66.09    7.09
  -1   9   2   64.71    6.84
  -1   9   1  121.14    8.25
  -1   9   1  110.12    8.09
  -1   9   0   92.30    7.65
  -1   9   0   93.27    6.95
  -1   9  -1  153.30    8.75
  -1   9  -1  147.28    8.99
  -1   9  -2  358.75   13.09
  -1   9  -2  360.25   12.49
  -1   9  -3  113.41    7.53
  -1   9  -3   97.63    6.72
  -1   9  -3  111.49    7.40
  -1   9  -3  117.50    7.68
  -1   9  -4   33.96    5.38
  -1   9  -4   32.19    4.61
  -1   9  -4   33.65    4.75
  -1   9  -4   35.00    5.08
  -1   9  -5  173.55    8.61
  -1   9  -5  173.80    9.56
  -1   9  -6  190.53   10.17
  -1   9  -7   -0.69    3.72
  -1   9  -8  254.81   12.05
  -1   9  -9   74.78    7.49
  -1   9 -10   -1.23    4.44
  -1   9 -11  180.56   11.50
  -1   9 -12   50.12    7.58
  -1   8   7   10.60    5.06
  -1   8   6    2.49    4.99
  -1   8   5    1.84    4.31
  -1   8   4    1.52    3.96
  -1   8   3   86.60    7.66
  -1   8   3   84.73    6.95
  -1   8   2    0.48    3.32
  -1   8   2    0.51    3.85
  -1   8   1   57.88    5.78
  -1   8   1   57.68    6.15
  -1   8   0  594.14   15.03
  -1   8   0  626.07   16.57
  -1   8  -1  317.64   10.20
  -1   8  -1  316.29   11.61
  -1   8  -1  335.41   11.22
  -1   8  -2  107.43    6.92
  -1   8  -2   94.55    6.65
  -1   8  -2  108.69    6.52
  -1   8  -2   99.43    6.29
  -1   8  -3   82.97    6.04
  -1   8  -3   88.29    6.25
  -1   8  -3   87.52    5.78
  -1   8  -3   84.30    6.29
  -1   8  -4    1.08    3.02
  -1   8  -4   -2.19    3.61
  -1   8  -4    0.11    3.01
  -1   8  -4   -1.55    2.78
  -1   8  -5  164.81    8.78
  -1   8  -5  165.63    7.67
  -1   8  -6   21.33    4.23
  -1   8  -7    9.87    3.94
  -1   8  -8   28.63    4.91
  -1   8  -9   28.49    5.48
  -1   8 -10   49.24    6.35
  -1   8 -11    4.61    4.24
  -1   8 -12   83.19    8.34
  -1   8 -13   17.59    6.50
  -1   7   9   48.97    7.28
  -1   7   8  242.81   12.68
  -1   7   7    0.75    3.91
  -1   7   6   14.18    5.13
  -1   7   5  211.83   10.45
  -1   7   4   26.84    4.75
  -1   7   4   27.42    4.69
  -1   7   3  246.02   10.35
  -1   7   3  242.94   10.76
  -1   7   2   14.13    3.98
  -1   7   2   10.86    4.02
  -1   7   1   15.23    3.58
  -1   7   1   11.10    3.88
  -1   7   0  902.40   16.86
  -1   7   0  912.41   18.32
  -1   7   0  924.26   15.20
  -1   7  -1    2.56    2.87
  -1   7  -1    0.04    2.93
  -1   7  -1    3.93    2.67
  -1   7  -2   14.23    3.51
  -1   7  -2   12.35    3.03
  -1   7  -2   13.17    3.58
  -1   7  -2   13.33    3.32
  -1   7  -3   96.44    5.59
  -1   7  -3   96.27    6.11
  -1   7  -3   98.05    5.93
  -1   7  -3   94.37    6.26
  -1   7  -4  596.68   14.40
  -1   7  -4  614.69   13.36
  -1   7  -4  613.97   14.69
  -1   7  -4  618.62   12.91
  -1   7  -5 1192.32   17.92
  -1   7  -5 1173.23   20.62
  -1   7  -5 1138.54   20.47
  -1   7  -6   56.34    4.11
  -1   7  -6   54.63    5.44
  -1   7  -7  210.00    9.79
  -1   7  -8  102.78    7.42
  -1   7  -9   71.20    6.63
  -1   7 -10  950.05   22.06
  -1   7 -11   65.10    7.21
  -1   7 -12   51.27    7.07
  -1   7 -13   -2.81    4.67
  -1   7 -14   -2.96    5.73
  -1   6  10    2.75    5.47
  -1   6   9   -0.21    4.78
  -1   6   8  149.60    9.61
  -1   6   7  330.51   13.06
  -1   6   6  121.04    8.16
  -1   6   5  144.33    8.02
  -1   6   4   11.87    3.65
  -1   6   4   11.20    3.45
  -1   6   3   61.82    5.55
  -1   6   3   56.38    5.44
  -1   6   2   25.34    4.03
  -1   6   2   29.44    3.98
  -1   6   1  600.71   13.05
  -1   6   1  616.75   10.77
  -1   6   1  586.08   13.86
  -1   6   0 1423.38   20.70
  -1   6   0 1484.96   17.56
  -1   6   0 1464.84   19.36
  -1   6  -1 2066.63   21.99
  -1   6  -1 2068.92   23.93
  -1   6  -1 2094.08   21.71
  -1   6  -1 2044.75   23.43
  -1   6  -2  372.75    9.36
  -1   6  -2  377.10    9.96
  -1   6  -2  379.00   10.52
  -1   6  -2  360.44    9.89
  -1   6  -3  152.62    6.04
  -1   6  -3  150.78    6.94
  -1   6  -3  154.01    6.51
  -1   6  -3  144.59    6.77
  -1   6  -4   11.42    3.36
  -1   6  -4   13.09    2.75
  -1   6  -4   10.54    3.12
  -1   6  -5  177.95    7.99
  -1   6  -5  173.13    6.37
  -1   6  -6   61.29    5.34
  -1   6  -6   58.34    3.87
  -1   6  -7  160.25    8.11
  -1   6  -8  129.80    7.94
  -1   6  -9   -0.08    4.13
  -1   6 -10  417.14   14.33
  -1   6 -11  100.98    7.99
  -1   6 -12  199.19   11.08
  -1   6 -13   37.12    6.02
  -1   6 -14  114.10    9.06
  -1   6 -15   69.80    7.91
  -1   5  11  166.28   10.67
  -1   5  10   22.73    5.63
  -1   5   9  135.75    9.48
  -1   5   8  136.56    8.80
  -1   5   7   24.14    4.52
  -1   5   6   23.76    4.60
  -1   5   5   -0.24    3.13
  -1   5   5    1.01    3.36
  -1   5   4   47.72    4.85
  -1   5   4   48.20    4.81
  -1   5   3  247.75    9.03
  -1   5   3  257.30    8.80
  -1   5   2  421.63   10.46
  -1   5   2  419.86   11.09
  -1   5   2  423.62    7.46
  -1   5   1  565.05   11.42
  -1   5   1  570.50    9.21
  -1   5   1  577.79   12.39
  -1   5   0   58.36    4.25
  -1   5   0   58.45    3.37
  -1   5   0   57.92    3.96
  -1   5  -1  492.47    9.65
  -1   5  -1  471.65    9.38
  -1   5  -1  498.91   10.63
  -1   5  -1  483.02   10.53
  -1   5  -2  101.49    4.88
  -1   5  -2  109.06    4.62
  -1   5  -2  115.61    5.48
  -1   5  -2  108.97    5.03
  -1   5  -3    8.17    1.88
  -1   5  -3    7.08    2.47
  -1   5  -3    7.61    2.37
  -1   5  -3    6.16    2.03
  -1   5  -4  921.72   15.34
  -1   5  -4  937.29   13.11
  -1   5  -4  913.44   15.34
  -1   5  -5  328.87    9.73
  -1   5  -5  345.86    7.88
  -1   5  -6  306.34    9.89
  -1   5  -6  327.20    7.53
  -1   5  -7  357.89    7.74
  -1   5  -7  346.17   10.97
  -1   5  -8  944.83   18.52
  -1   5  -9 1554.85   24.72
  -1   5 -10   63.67    6.15
  -1   5 -11   70.77    6.52
  -1   5 -12   37.57    5.60
  -1   5 -13    3.76    3.76
  -1   5 -14    7.78    4.54
  -1   5 -15    8.96    6.12
  -1   4  12  302.66   13.73
  -1   4  11   87.78    8.11
   1  -4 -11   91.82    7.63
   1  -4 -10    5.15    3.68
  -1   4  10    6.34    4.31
  -1   4   9   23.17    4.19
   1  -4  -9   12.93    4.20
  -1   4   8  407.46   13.26
  -1   4   7    2.19    3.65
  -1   4   6   39.58    4.59
  -1   4   5   48.54    4.43
  -1   4   5   53.04    4.85
  -1   4   4    8.46    2.89
  -1   4   4    7.14    2.74
  -1   4   3  394.40    9.69
  -1   4   3  401.14   10.12
  -1   4   3  415.40    5.55
  -1   4   2  131.03    3.58
  -1   4   2  127.08    5.35
  -1   4   2  128.15    5.66
  -1   4   1 1222.48   15.70
  -1   4   1 1199.74   14.40
  -1   4   1 1214.43   11.56
  -1   4   0  183.71    6.06
  -1   4   0  188.42    6.04
  -1   4   0  191.32    5.55
  -1   4   0  195.43    5.12
  -1   4  -1 3036.44   22.78
  -1   4  -1 3090.99   21.42
  -1   4  -1 3110.14   20.31
  -1   4  -1 3049.03   23.43
  -1   4  -2  104.82    4.60
  -1   4  -2  105.96    4.38
  -1   4  -2  110.84    3.91
  -1   4  -2  112.65    4.90
  -1   4  -3   46.73    3.55
  -1   4  -3   47.51    2.94
  -1   4  -3   40.86    3.49
  -1   4  -4  350.30    7.09
  -1   4  -4  321.18    8.50
  -1   4  -5   46.47    4.00
  -1   4  -5   47.03    2.80
  -1   4  -6   47.04    2.82
  -1   4  -6   46.58    4.20
  -1   4  -7   15.88    1.99
  -1   4  -7   14.83    3.35
  -1   4  -8  134.71    4.64
  -1   4  -8  131.03    7.14
  -1   4  -9   27.51    4.38
  -1   4 -10  176.57    8.86
   1  -4  10  176.77    7.25
  -1   4 -11   11.00    4.06
  -1   4 -12  198.05   10.35
  -1   4 -13  112.37    8.32
  -1   4 -14  505.67   17.68
  -1   4 -15  173.22   10.67
   1  -3 -13  156.57    9.71
  -1   3  13  157.34   10.35
  -1   3  12  475.51   16.60
   1  -3 -12  479.66   15.86
   1  -3 -11  112.14    7.81
  -1   3  11   98.81    8.08
  -1   3  10  644.53   17.26
   1  -3 -10  617.13   16.52
   1  -3  -9  213.96    9.70
  -1   3   9  220.00   10.00
  -1   3   8  246.03    9.96
  -1   3   7   70.59    5.59
  -1   3   6  119.15    6.43
  -1   3   5 1229.47   17.12
  -1   3   5 1251.44   17.71
  -1   3   4   10.76    2.63
  -1   3   4   12.01    2.55
  -1   3   3 2109.88   20.11
  -1   3   3 2150.95   19.82
  -1   3   3 2113.06    9.03
  -1   3   2  110.96    4.57
  -1   3   2  107.44    4.29
  -1   3   2  112.43    2.58
  -1   3   1   80.32    3.73
  -1   3   1   80.29    3.40
  -1   3   1   80.20    2.63
  -1   3   0 1969.04   16.42
  -1   3   0 1953.35   16.37
  -1   3   0 1933.31   14.26
  -1   3   0 1895.01   13.65
  -1   3  -1  247.69    5.70
  -1   3  -1  250.18    5.52
  -1   3  -1  232.35    5.85
  -1   3  -1  244.75    4.71
  -1   3  -2   35.01    1.91
  -1   3  -2   36.19    2.38
  -1   3  -2   36.73    2.79
  -1   3  -3 2010.85   18.09
  -1   3  -3 2070.95   15.11
  -1   3  -4   22.75    1.86
  -1   3  -4   20.76    2.56
  -1   3  -5  285.89    7.85
  -1   3  -5  318.78    6.12
  -1   3  -6  926.68   10.68
  -1   3  -6  925.21   14.82
  -1   3  -7 1714.10   15.21
  -1   3  -7 1628.54   20.99
   1  -3   8  984.31   14.15
  -1   3  -8  965.43   17.26
  -1   3  -8  998.67   12.22
   1  -3   9   93.01    5.27
  -1   3  -9   82.26    5.96
  -1   3 -10  377.25   12.35
   1  -3  10  395.39   10.62
  -1   3 -11  399.35   13.25
   1  -3  11  418.65   11.56
  -1   3 -12  116.84    8.04
  -1   3 -13  121.11    8.24
  -1   3 -14   92.28    8.07
  -1   3 -15   46.01    6.62
   1  -2 -15    8.80    6.08
   1  -2 -14   15.79    4.99
  -1   2  14    4.15    4.84
  -1   2  13    5.30    4.80
   1  -2 -13    9.03    4.49
  -1   2  12    9.57    4.47
   1  -2 -12    3.74    3.87
   1  -2 -11   18.10    4.34
  -1   2  11   18.39    4.63
  -1   2  10   91.25    7.07
   1  -2 -10   82.56    6.43
  -1   2   9 2104.29   27.71
   1  -2  -9 2153.31   28.03
   1  -2  -8    0.80    3.14
  -1   2   8    2.55    3.41
  -1   2   7  258.36    8.83
  -1   2   6   69.40    4.67
  -1   2   6   72.10    2.16
  -1   2   5  151.66    5.40
  -1   2   5  146.60    5.85
  -1   2   5  148.32    2.45
  -1   2   4   34.22    2.99
  -1   2   4   34.14    2.72
  -1   2   3    0.73    1.50
  -1   2   3    1.06    1.55
  -1   2   2    2.13    1.40
  -1   2   2    1.95    1.55
  -1   2   1 1513.38   11.45
  -1   2   1 1521.52   12.59
  -1   2   0  206.37    4.61
  -1   2   0  201.34    3.63
  -1   2   0  204.22    4.59
  -1   2  -1 2391.39   15.41
  -1   2  -1 2429.64   10.09
  -1   2  -1 2388.23   14.31
  -1   2  -2 2800.52   17.59
  -1   2  -2 2834.34   15.26
  -1   2  -3  503.20    6.67
  -1   2  -3  489.08    8.05
  -1   2  -4 1357.81   11.50
  -1   2  -4 1317.66   14.31
   1  -2   5  302.97    6.00
  -1   2  -5  298.80    7.54
  -1   2  -5  312.60    5.97
   1  -2   6  372.06    7.51
  -1   2  -6  365.18    7.01
  -1   2  -6  356.04    8.89
  -1   2  -7    3.83    2.59
   1  -2   7    1.17    1.97
  -1   2  -7    0.72    1.51
  -1   2  -8  160.20    5.47
   1  -2   8  167.91    6.26
  -1   2  -8  166.27    7.31
  -1   2  -9   81.41    5.85
   1  -2   9   83.37    5.14
  -1   2 -10    1.85    3.30
   1  -2  10    1.19    2.72
  -1   2 -11  274.43   10.86
   1  -2  11  288.55    9.94
  -1   2 -12    4.39    3.62
   1  -2  12    3.91    3.28
  -1   2 -13   16.67    4.24
   1  -2  13   12.14    3.56
  -1   2 -14   14.03    4.77
  -1   2 -15    6.84    5.70
   1  -1 -15    4.80    5.30
  -1   1  15    7.99    5.97
   1  -1 -14   65.19    6.86
  -1   1  14   63.95    7.14
  -1   1  13   39.59    5.60
   1  -1 -13   47.35    6.71
   1  -1 -12  116.22    8.19
  -1   1  12  131.39    8.59
   1  -1 -11   76.50    6.63
  -1   1  11   84.26    7.06
  -1   1  10  782.01   17.21
   1  -1 -10  792.58   17.66
   1  -1  -9  438.83   12.48
  -1   1   9  432.05   12.17
  -1   1   8   35.98    4.31
   1  -1  -8   39.55    4.55
  -1   1   7  522.82   11.69
   1  -1  -7  551.54   12.26
  -1   1   6    7.76    2.54
   1  -1  -6    6.62    2.41
  -1   1   5    9.17    2.11
  -1   1   5    0.72    1.27
  -1   1   4   71.16    3.06
  -1   1   4   66.54    3.47
  -1   1   3 1714.60   12.52
  -1   1   3 1701.66   14.00
  -1   1   2 5973.99   21.05
  -1   1   2 5920.24   22.15
  -1   1   1  278.82    4.20
  -1   1   1  275.46    3.89
  -1   1   0 1593.35    9.47
  -1   1  -1 4619.75   16.63
  -1   1  -1 4566.41   16.80
  -1   1  -2 5756.11   21.20
  -1   1  -2 5675.50   20.34
   1  -1   2 5745.83   14.44
  -1   1  -3    0.36    1.33
   1  -1   3    2.32    1.07
  -1   1  -4  420.54    7.57
   1  -1   4  423.22    6.48
  -1   1  -5 2552.37   20.48
   1  -1   5 2587.85   18.15
   1  -1   6 2759.76   21.12
  -1   1  -6 2758.25   23.37
   1  -1   7  770.55   12.42
  -1   1  -7  779.40   13.62
  -1   1  -8   68.72    4.92
   1  -1   8   65.57    4.51
  -1   1  -9  126.52    6.72
   1  -1   9  116.72    6.05
  -1   1 -10   86.38    6.14
   1  -1  10   92.66    5.89
  -1   1 -11    1.97    3.40
   1  -1  11    3.46    2.74
   1  -1  12   41.88    4.79
  -1   1 -12   28.39    4.89
   1  -1  13   23.62    4.63
  -1   1 -13   20.82    4.07
  -1   1 -14   82.97    7.51
   1  -1  14   87.77    7.24
  -1   1 -15   31.84    6.00
   1   0 -15   51.94    6.85
  -1   0  15   55.89    7.57
   1   0 -14   55.86    6.81
  -1   0  14   48.18    6.17
  -1   0  13    2.96    3.42
   1   0 -13    5.13    3.79
   1   0 -12   19.13    4.54
  -1   0  12   26.80    5.16
   1   0 -11  250.04   10.72
  -1   0  11  253.89   10.30
   1   0 -10  523.48   14.35
  -1   0  10  528.65   13.75
   1   0  -9  190.34    8.49
  -1   0   9  205.55    8.35
  -1   0   8 1279.73   18.64
   1   0  -8 1254.34   19.06
   1   0  -7  150.25    6.45
  -1   0   7  145.13    6.24
  -1   0   6    1.43    2.11
   1   0  -6   -0.78    2.24
  -1   0   5  485.62    8.98
   1   0  -5  480.81    9.32
   1   0  -4 5199.10   20.32
  -1   0   4 5213.12   17.94
   1   0  -4 5123.58   27.03
   1   0  -3 9095.97   31.32
   1   0  -3 9115.43   23.96
  -1   0   3 9159.19   20.01
   1   0  -2  315.15    3.98
   1   0   1 3326.50   12.15
  -1   0  -2   66.00    2.14
   1   0   2   59.56    2.25
  -1   0  -3    0.83    1.07
   1   0   3    0.76    1.21
   1   0   4 4567.22   23.82
  -1   0  -4 4541.91   23.46
   1   0   5  775.05   11.12
  -1   0  -5  784.55   11.10
   1   0   6 3775.01   26.81
  -1   0  -6 3837.93   26.95
  -1   0  -7    5.02    2.40
   1   0   7    6.45    2.61
   1   0   8  231.67    8.14
  -1   0  -8  221.34    8.06
   1   0   9   31.39    3.96
  -1   0  -9   38.25    4.42
   1   0  10  557.27   13.95
  -1   0 -10  554.98   14.12
   1   0  11    3.52    3.01
  -1   0 -11    5.04    3.15
  -1   0 -12   91.55    6.93
   1   0  12   86.06    6.39
  -1   0 -13   19.70    4.38
   1   0  13   16.97    4.31
   1   0  14  145.97    9.42
  -1  -1  16   -3.35    5.19
   1   1 -15   -2.54    5.41
  -1  -1  15    4.88    5.10
  -1  -1  14   77.42    7.00
   1   1 -14   59.43    7.04
   1   1 -13   94.36    7.70
  -1  -1  13  107.69    7.80
   1   1 -12  307.11   12.31
  -1  -1  12  307.16   11.63
   1   1 -11  202.05    9.77
  -1  -1  11  206.19    9.21
  -1  -1  10  237.63    9.28
   1   1 -10  238.93    9.85
  -1  -1   9  158.49    7.32
   1   1  -9  162.85    7.74
   1   1  -8  595.24   13.13
  -1  -1   8  602.88   12.47
   1   1  -7  299.95    8.77
   1   1  -6  255.03    6.48
   1   1  -6  242.23    7.28
   1   1  -5  436.30    8.77
   1   1  -5  458.19    7.90
   1   1  -4 2421.56   18.16
   1   1  -4 2431.27   16.80
   1   1  -3   91.57    3.28
   1   1  -3   97.09    3.44
   1   1  -2   62.48    2.31
   1   1  -2   60.77    2.51
   1   1  -1  539.20    6.38
   1   1  -1  542.30    4.75
   1   1  -1  531.71    6.42
   1   1   0  407.88    5.58
   1   1   0  404.68    5.62
   1   1   1 9232.97   27.22
   1   1   1 9277.33   28.65
   1   1   2   37.16    2.34
  -1  -1  -2   41.62    1.85
   1   1   2   42.16    2.31
  -1  -1  -3   21.55    1.79
   1   1   3   17.69    2.08
   1   1   3   20.93    1.84
  -1  -1  -4  396.44    7.14
   1   1   4  406.59    8.26
   1   1   5  253.45    7.26
  -1  -1  -5  266.41    6.65
  -1  -1  -6   27.77    2.92
   1   1   6   28.86    3.27
  -1  -1  -7    1.96    2.27
   1   1   7   -1.12    2.67
   1   1   8  119.36    6.59
  -1  -1  -8  117.36    6.16
   1   1   9  456.47   12.67
  -1  -1  -9  458.53   12.14
   1   1  10   23.75    4.15
  -1  -1 -10   22.64    3.77
  -1  -1 -11   73.05    6.14
   1   1  11   74.63    6.37
   1   1  12   27.93    4.89
   1   1  13   57.97    6.18
   1   1  14  153.75    9.91
  -1  -2  16   51.07    6.15
   1   2 -16   46.19    6.42
   1   2 -15   49.91    7.07
  -1  -2  15   51.77    6.17
   1   2 -14   18.36    4.79
  -1  -2  14   21.43    4.66
  -1  -2  13   54.08    5.64
   1   2 -13   49.22    6.13
  -1  -2  12  206.29    9.75
   1   2 -12  201.37   10.32
   1   2 -11  773.97   18.18
  -1  -2  11  805.17   17.10
   1   2 -10   26.92    4.34
  -1  -2  10   26.65    4.10
   1   2  -9  101.55    6.38
   1   2  -8  434.31   11.39
   1   2  -7   50.59    4.17
   1   2  -7   55.96    3.97
   1   2  -6    1.15    2.03
   1   2  -6    2.88    1.88
   1   2  -5  588.30   10.33
   1   2  -5  607.52   10.30
   1   2  -4   30.87    2.70
   1   2  -4   32.20    2.67
   1   2  -3   82.90    3.37
   1   2  -3   84.66    3.69
   1   2  -2 2873.82   15.99
   1   2  -2 2849.55   18.20
   1   2  -2 2890.56   18.84
   1   2  -1 1620.03   13.63
   1   2  -1 1614.28   13.75
   1   2  -1 1670.76   10.52
   1   2   0 2171.46   16.21
   1   2   0 2211.06   15.48
   1   2   0 2257.47   11.19
   1   2   1  237.89    5.13
   1   2   1  234.96    5.80
   1   2   2    5.21    1.65
   1   2   2    3.44    1.27
   1   2   3  344.15    8.01
   1   2   3  348.66    6.56
   1   2   4   25.79    2.22
   1   2   4   25.22    3.03
  -1  -2  -5  725.11   11.37
   1   2   5  687.79   12.87
   1   2   5  692.35   10.39
  -1  -2  -6  756.07   12.59
   1   2   6  755.15   14.38
   1   2   6  771.41   11.41
  -1  -2  -7  596.15   12.23
   1   2   7  585.93   13.55
   1   2   7  607.42   10.69
  -1  -2  -8   55.34    4.67
   1   2   8   59.09    5.61
  -1  -2  -9  850.39   16.73
   1   2   9  854.39   18.30
   1   2  10  273.42   11.25
   1   2  11  144.60    8.87
   1   2  12   78.72    7.27
   1   2  13    1.79    5.43
  -1  -3  16  333.94   14.19
   1   3 -16  344.82   15.90
   1   3 -15   29.67    5.91
  -1  -3  15   23.67    4.78
   1   3 -14   53.07    6.62
  -1  -3  14   55.71    6.10
   1   3 -13    3.21    3.63
  -1  -3  13    0.05    3.66
   1   3 -12  139.06    8.55
  -1  -3  12  156.79    8.44
  -1  -3  11  541.08   14.04
   1   3 -11  519.70   15.14
   1   3 -10  100.20    6.96
   1   3  -9   16.85    4.00
   1   3  -8  314.82    9.52
   1   3  -8  307.38    9.93
   1   3  -7   25.99    3.52
   1   3  -7   48.96    4.12
   1   3  -6   15.90    2.88
   1   3  -6   16.83    2.66
   1   3  -5   15.13    1.01
   1   3  -5   12.74    2.53
   1   3  -5   12.77    2.58
   1   3  -4   11.75    2.35
   1   3  -4   12.19    2.10
   1   3  -4   12.14    1.20
   1   3  -3  192.71    5.29
   1   3  -3  194.30    4.41
   1   3  -3  175.28    5.84
   1   3  -2  946.09   12.46
   1   3  -2  955.94   10.60
   1   3  -2  929.89   12.02
   1   3  -1   18.23    1.64
   1   3  -1   18.92    2.17
   1   3  -1   19.56    2.51
   1   3   0 2410.51   18.83
   1   3   0 2408.04   20.04
   1   3   0 2400.77   15.22
   1   3   1 6426.99   34.19
   1   3   1 6391.20   30.10
   1   3   2  222.22    6.98
   1   3   2  229.95    5.83
   1   3   3  892.87   14.36
   1   3   3  871.67   11.17
   1   3   4  134.22    6.27
   1   3   4  139.67    4.82
   1   3   5   80.71    5.55
   1   3   5   82.65    3.94
   1   3   6   97.55    6.28
  -1  -3  -6   96.38    5.27
   1   3   7   10.33    3.86
  -1  -3  -7    6.71    2.74
   1   3   8  126.75    7.74
   1   3   9    9.18    3.69
   1   3  10  882.32   20.61
   1   3  11   13.52    4.25
   1   3  12   81.73    7.89
  -1  -4  15    2.04    4.69
   1   4 -15    3.25    5.50
  -1  -4  14   71.22    6.37
   1   4 -14   71.37    7.68
  -1  -4  13    2.84    3.63
   1   4 -13    6.17    4.22
   1   4 -12  214.24   10.74
   1   4 -11   85.87    7.22
   1   4 -10   42.88    5.42
   1   4  -9  356.70   11.70
   1   4  -9  364.76   11.52
   1   4  -8  349.57   10.86
   1   4  -8  340.51   10.67
   1   4  -7   30.89    3.92
   1   4  -7   26.26    3.61
   1   4  -6   40.35    4.07
   1   4  -6   43.40    2.00
   1   4  -6   40.26    3.91
   1   4  -5  142.61    3.94
   1   4  -5  138.83    5.84
   1   4  -5  134.39    6.13
   1   4  -4  320.82    8.08
   1   4  -4  321.92    6.39
   1   4  -4  328.31    8.93
   1   4  -3 1847.12   17.74
   1   4  -3 1836.31   19.16
   1   4  -3 1825.69   19.93
   1   4  -3 1876.07   16.53
   1   4  -2   48.44    3.26
   1   4  -2   46.73    3.54
   1   4  -2   44.83    3.57
   1   4  -2   49.58    3.10
   1   4  -1   40.60    2.76
   1   4  -1   37.09    3.31
   1   4  -1   42.05    3.33
   1   4   0   18.18    2.83
   1   4   0   19.48    2.49
   1   4   1   20.93    3.08
   1   4   1   22.14    2.49
   1   4   2   77.86    5.08
   1   4   2   74.97    3.89
   1   4   3   51.40    4.57
   1   4   3   56.75    3.47
   1   4   4  366.98    8.14
   1   4   4  346.25   10.63
   1   4   5  708.73   15.77
   1   4   6  292.28   10.85
   1   4   7   -5.47    3.55
   1   4   8   47.48    5.78
   1   4   9    1.73    3.66
   1   4  10   90.85    7.55
   1   4  11  130.68    9.33
   1   5 -15   17.56    5.05
  -1  -5  14  137.31    8.55
   1   5 -14  138.91   10.71
   1   5 -13    0.00    4.76
   1   5 -12  172.70   10.37
   1   5 -11   33.92    5.49
   1   5 -10  467.24   14.36
   1   5 -10  482.95   14.47
   1   5  -9  681.78   16.20
   1   5  -9  676.76   16.44
   1   5  -8  163.65    7.97
   1   5  -8  173.04    8.30
   1   5  -7  273.59    9.99
   1   5  -7  257.18    9.20
   1   5  -6    6.62    3.27
   1   5  -6    5.58    2.54
   1   5  -6    5.80    1.42
   1   5  -5  208.94    5.78
   1   5  -5  198.89    7.39
   1   5  -5  203.02    8.13
   1   5  -4   33.89    3.81
   1   5  -4   32.72    3.40
   1   5  -4   36.18    2.90
   1   5  -3   14.88    2.96
   1   5  -3   14.39    2.50
   1   5  -3   18.30    3.22
   1   5  -3   14.47    2.46
   1   5  -2  153.94    5.66
   1   5  -2  149.09    6.56
   1   5  -2  152.93    6.54
   1   5  -1  240.21    8.27
   1   5  -1  236.52    7.74
   1   5  -1  244.09    6.76
   1   5   0  935.29   16.05
   1   5   0  937.46   14.70
   1   5   1   51.49    4.81
   1   5   1   53.21    3.89
   1   5   2  320.02   10.42
   1   5   2  327.32    8.58
   1   5   3    1.21    1.77
   1   5   3    4.30    3.51
   1   5   4   12.91    3.69
   1   5   5    8.56    3.49
   1   5   6    1.27    3.53
   1   5   7    1.09    3.87
   1   5   8   60.69    6.19
   1   5   9   17.00    5.09
   1   5  10   12.63    5.58
   1   6 -15   -6.62    6.15
   1   6 -14   44.16    6.91
   1   6 -13  117.89    8.87
   1   6 -12  428.19   15.54
   1   6 -11   32.21    5.63
   1   6 -10  886.04   20.10
   1   6 -10  920.49   20.88
   1   6  -9  222.68   10.36
   1   6  -9  236.26   10.36
   1   6  -8   13.23    3.96
   1   6  -8   11.71    3.84
   1   6  -7  689.74   15.47
   1   6  -7  715.10   16.77
   1   6  -6    6.92    3.24
   1   6  -6    4.10    3.34
   1   6  -5    0.00    1.83
   1   6  -5    1.43    3.14
   1   6  -5    2.22    2.65
   1   6  -4  142.86    7.31
   1   6  -4  132.17    6.31
   1   6  -4  131.10    6.83
   1   6  -4  130.01    5.80
   1   6  -3  238.43    7.85
   1   6  -3  242.93    8.98
   1   6  -3  239.18    8.90
   1   6  -2   -0.20    2.77
   1   6  -2   -0.49    1.93
   1   6  -2   -0.27    2.85
   1   6  -1  709.26   12.78
   1   6  -1  676.94   14.86
   1   6  -1  694.70   14.13
   1   6   0  552.44   12.30
   1   6   0  545.20   13.64
   1   6   1    8.52    2.70
   1   6   1    9.42    3.70
   1   6   2  387.89   12.40
   1   6   3   43.59    5.27
   1   6   4   79.59    6.80
   1   6   5  151.60    9.03
   1   6   6   11.96    4.39
   1   6   7  224.65   11.73
   1   6   8   51.19    6.86
   1   6   9   73.63    7.72
   1   7 -14   -6.46    5.81
   1   7 -13    1.99    4.94
   1   7 -12   96.12    8.22
   1   7 -11    7.66    4.83
   1   7 -10    0.58    4.35
   1   7 -10    0.99    3.88
   1   7  -9  344.23   12.84
   1   7  -9  334.32   13.18
   1   7  -8  756.75   17.80
   1   7  -8  772.36   19.17
   1   7  -7  521.02   15.31
   1   7  -7  546.62   14.57
   1   7  -6   29.11    4.14
   1   7  -6   22.62    4.65
   1   7  -5  298.88   11.08
   1   7  -5  307.05   10.16
   1   7  -4   70.22    5.23
   1   7  -4   69.83    5.75
   1   7  -4   64.16    5.66
   1   7  -3  784.49   16.82
   1   7  -3  823.44   15.49
   1   7  -3  774.19   16.71
   1   7  -2  215.14    9.50
   1   7  -2  232.53    8.25
   1   7  -2  205.00    8.66
   1   7  -1  973.91   17.93
   1   7  -1  956.87   19.16
   1   7   0   10.62    3.04
   1   7   0    8.26    3.92
   1   7   1    2.47    3.52
   1   7   2   -0.85    3.62
   1   7   3    6.96    3.86
   1   7   4    1.96    4.11
   1   7   5    2.07    4.20
   1   7   6  110.94    9.39
   1   7   7   11.72    5.12
   1   8 -13   65.41    7.37
   1   8 -12  144.11   10.05
   1   8 -11  151.55   10.07
   1   8 -10  186.31   11.18
   1   8 -10  174.81    9.81
   1   8  -9    4.06    4.52
   1   8  -9    5.56    3.81
   1   8  -8  220.80   11.14
   1   8  -8  216.27   10.15
   1   8  -7   17.29    5.00
   1   8  -7   11.96    3.47
   1   8  -6   20.25    4.46
   1   8  -6   20.38    4.08
   1   8  -5  113.10    7.76
   1   8  -5  113.26    7.03
   1   8  -4   28.94    4.15
   1   8  -4   33.80    5.02
   1   8  -4   34.17    4.82
   1   8  -3    2.81    2.99
   1   8  -3   -1.23    3.61
   1   8  -2   -0.12    3.16
   1   8  -2    4.61    3.66
   1   8  -1    4.03    3.13
   1   8  -1    1.96    3.55
   1   8   0  154.00    9.18
   1   8   1   50.11    5.94
   1   8   2  264.28   12.28
   1   8   3   11.07    4.21
   1   8   4  352.93   14.63
   1   8   5   -0.76    4.83
   1   8   6  161.51   11.27
   1   9 -12   15.09    5.30
   1   9 -11   82.77    7.85
   1   9 -10   11.33    4.65
   1   9 -10    6.52    4.93
   1   9  -9  111.10    9.31
   1   9  -9  126.78    8.71
   1   9  -8   62.21    7.13
   1   9  -8   58.40    6.15
   1   9  -7   77.49    7.38
   1   9  -7   72.29    6.94
   1   9  -6  226.21   11.50
   1   9  -5  196.42   10.70
   1   9  -4  135.14    8.90
   1   9  -4  140.94    9.03
   1   9  -3  270.49   11.96
   1   9  -3  282.49   11.77
   1   9  -2  165.29    9.92
   1   9  -1  261.27   12.05
   1   9   0    0.07    4.77
   1   9   1   56.81    7.18
   1   9   2  204.83   11.81
   1   9   3    1.59    5.12
   1  10 -11  213.43   11.83
   1  10 -10    8.23    6.16
   1  10  -9   62.77    7.78
   1  10  -8   64.88    7.85
   1  10  -7    5.59    5.23
   1  10  -6  125.63    9.08
   1  10  -5  173.09   11.14
   1  10  -4   46.56    5.64
   1  10  -4   43.71    6.13
   1  10  -3   11.45    4.71
   1  10  -2   70.33    7.40
   1  10  -1   19.88    5.59
   1  10   0   19.61    6.10
   1  10   1  462.65   17.97
   1  11  -6   -4.27    6.23
  -2  11   0   23.41    5.66
  -2  11  -1    2.44    4.89
  -2  11  -2  214.72   11.69
  -2  11  -3  282.22   13.22
  -2  11  -5   84.51    8.13
  -2  11  -6   -0.55    5.80
  -2  11  -7   10.75    5.25
  -2  11  -8   51.05    7.14
  -2  10   4  318.23   14.20
  -2  10   3    1.60    4.84
  -2  10   3    4.47    4.81
  -2  10   2  397.24   14.81
  -2  10   2  396.36   16.16
  -2  10   1   43.30    5.78
  -2  10   1   35.41    6.61
  -2  10   0  197.85   11.17
  -2  10  -1   15.04    4.74
  -2  10  -2  105.17    8.04
  -2  10  -3   19.12    4.10
  -2  10  -4    2.34    3.65
  -2  10  -4    9.74    6.83
  -2  10  -5   53.03    6.55
  -2  10  -6  152.08   10.03
  -2  10  -7  177.75   10.98
  -2  10  -8    0.19    4.62
  -2  10  -9   63.51    7.83
  -2  10 -10   13.15    5.39
  -2   9   6    6.47    5.29
  -2   9   5   60.21    6.75
  -2   9   4  170.88   10.87
  -2   9   4  167.51   10.19
  -2   9   3    3.89    4.23
  -2   9   3    3.01    4.62
  -2   9   2   34.64    5.43
  -2   9   2   35.39    5.59
  -2   9   1  265.50   10.97
  -2   9   1  249.92   11.95
  -2   9   0   68.28    6.07
  -2   9   0   73.83    6.86
  -2   9  -1  412.28   14.19
  -2   9  -1  408.41   12.72
  -2   9  -2  228.37   10.47
  -2   9  -3  203.98    9.74
  -2   9  -3  211.48   10.29
  -2   9  -4   34.97    5.19
  -2   9  -4   37.27    4.65
  -2   9  -5  381.89   12.51
  -2   9  -5  391.08   14.14
  -2   9  -6   51.71    6.20
  -2   9  -7   -0.85    3.99
  -2   9  -8   34.87    6.33
  -2   9  -9    8.82    4.64
  -2   9 -10   60.71    7.07
  -2   9 -11  155.53   10.91
  -2   9 -12   95.13    9.18
  -2   8   8   93.76    8.56
  -2   8   7   37.84    6.01
  -2   8   6  117.09    8.75
  -2   8   5   24.68    5.43
  -2   8   5   27.80    5.31
  -2   8   4   70.50    7.00
  -2   8   4   77.10    7.04
  -2   8   3   62.95    6.94
  -2   8   3   54.56    5.80
  -2   8   2    5.48    3.21
  -2   8   2    7.00    4.22
  -2   8   1   13.18    3.76
  -2   8   1    7.75    3.32
  -2   8   0  405.81   13.32
  -2   8   0  396.25   11.77
  -2   8  -1  194.28    9.32
  -2   8  -1  184.06    7.98
  -2   8  -2  396.65   12.53
  -2   8  -2  376.11   12.58
  -2   8  -2  382.21   10.79
  -2   8  -3   35.92    5.03
  -2   8  -3   36.82    4.36
  -2   8  -4   -1.26    3.40
  -2   8  -4    1.55    2.60
  -2   8  -5   -0.43    2.59
  -2   8  -5    3.23    3.23
  -2   8  -6  444.49   14.47
  -2   8  -6  492.89   12.75
  -2   8  -7  143.02    8.98
  -2   8  -8    5.37    3.95
  -2   8  -9  224.79   11.58
  -2   8 -10   40.58    6.35
  -2   8 -11   60.19    7.36
  -2   8 -12  333.41   14.85
  -2   8 -13    1.19    5.11
  -2   7   9  147.77   10.12
  -2   7   8   14.91    5.12
  -2   7   7  289.06   12.72
  -2   7   6   32.32    5.15
  -2   7   6   36.28    5.55
  -2   7   5   32.47    5.14
  -2   7   5   37.87    5.02
  -2   7   4   57.35    5.67
  -2   7   4   43.11    5.47
  -2   7   3   64.01    5.75
  -2   7   3   70.17    6.36
  -2   7   2  428.86   13.35
  -2   7   2  461.37   12.60
  -2   7   1 1110.96   20.65
  -2   7   1 1145.70   18.68
  -2   7   0 1636.61   24.14
  -2   7   0 1690.43   21.60
  -2   7  -1 1226.65   17.69
  -2   7  -1 1242.44   20.61
  -2   7  -1 1227.39   20.73
  -2   7  -2 2090.00   22.13
  -2   7  -2 2049.76   25.78
  -2   7  -2 2054.38   26.55
  -2   7  -3  320.82    8.64
  -2   7  -3  327.66   11.18
  -2   7  -3  312.44   10.10
  -2   7  -4  723.80   16.41
  -2   7  -4  719.57   14.79
  -2   7  -5    2.59    3.38
  -2   7  -5    3.13    2.54
  -2   7  -6   61.57    6.01
  -2   7  -6   69.04    4.79
  -2   7  -7    7.73    3.74
  -2   7  -8   19.78    4.71
  -2   7  -9  117.66    8.20
  -2   7 -10    0.42    4.07
  -2   7 -11  204.77   11.04
  -2   7 -12    4.95    4.28
  -2   7 -13   18.08    5.06
  -2   7 -14    3.25    5.38
  -2   6  11    6.34    5.37
  -2   6  10   69.18    7.75
  -2   6   9  115.40    8.93
  -2   6   8  288.30   12.48
  -2   6   7  286.45   11.98
  -2   6   6   -0.23    3.56
  -2   6   6   -2.52    3.38
  -2   6   5   38.46    4.80
  -2   6   5   34.97    4.76
  -2   6   4  321.96   10.80
  -2   6   4  316.71   11.27
  -2   6   3  113.04    6.86
  -2   6   3  117.11    6.55
  -2   6   2   38.47    4.82
  -2   6   2   42.71    4.34
  -2   6   1    8.92    2.69
  -2   6   1   10.18    3.32
  -2   6   0  282.15    8.14
  -2   6   0  289.80    9.64
  -2   6  -1  160.39    7.10
  -2   6  -1  143.93    6.98
  -2   6  -1  156.13    5.90
  -2   6  -2  850.98   16.06
  -2   6  -2  897.92   12.87
  -2   6  -2  881.93   15.43
  -2   6  -3 1445.13   19.45
  -2   6  -3 1467.14   15.85
  -2   6  -3 1461.71   21.09
  -2   6  -4  271.89    9.69
  -2   6  -4  315.37    9.10
  -2   6  -5 1048.33   15.98
  -2   6  -5 1002.18   18.44
  -2   6  -6  621.26   12.21
  -2   6  -6  607.13   14.98
  -2   6  -7  453.54   10.37
  -2   6  -7  431.44   13.07
  -2   6  -8    9.29    3.56
  -2   6  -9  584.82   16.22
  -2   6 -10   -0.06    3.22
  -2   6 -11  481.61   15.96
  -2   6 -12    0.52    3.98
  -2   6 -13    3.35    4.46
  -2   6 -14  108.88    9.41
  -2   5  12    3.45    5.56
   2  -5 -12   14.59    5.33
   2  -5 -11   76.87    7.74
  -2   5  11   79.58    8.49
  -2   5  10   95.96    8.18
  -2   5   9    1.10    4.27
  -2   5   8  179.13    9.47
  -2   5   7    1.25    3.85
  -2   5   7    3.50    2.98
  -2   5   6   33.73    4.69
  -2   5   6   36.07    4.41
  -2   5   5  237.35    9.12
  -2   5   5  240.63    9.49
  -2   5   4    7.72    3.11
  -2   5   4   10.61    3.45
  -2   5   3   57.16    4.61
  -2   5   3   55.60    4.39
  -2   5   2    7.42    2.56
  -2   5   2    4.78    2.28
  -2   5   1  175.11    6.11
  -2   5   1  176.26    7.03
  -2   5   0  500.62   11.15
  -2   5   0  517.70    9.55
  -2   5  -1  661.57   12.83
  -2   5  -1  706.94   10.31
  -2   5  -1  679.81   12.63
  -2   5  -2  897.88   14.14
  -2   5  -2  865.87   14.93
  -2   5  -2  884.87   10.88
  -2   5  -3  159.04    4.58
  -2   5  -3  153.89    6.02
  -2   5  -3  148.21    6.49
  -2   5  -4   92.01    5.53
  -2   5  -4   99.88    4.82
  -2   5  -5    6.65    2.11
  -2   5  -5    7.51    2.88
  -2   5  -6  145.76    5.70
  -2   5  -6  137.47    6.94
  -2   5  -7  245.29    7.26
  -2   5  -7  234.77    9.41
  -2   5  -8  359.66   11.86
  -2   5  -8  378.44    9.07
  -2   5  -9  302.72   11.36
  -2   5 -10  186.18    9.66
  -2   5 -11    7.52    3.91
  -2   5 -12    6.12    3.99
  -2   5 -13   -1.88    4.09
  -2   5 -14   60.57    6.69
  -2   5 -15  167.14   11.10
  -2   4  13    3.58    5.44
   2  -4 -13    8.45    5.30
   2  -4 -12   34.15    6.04
  -2   4  12   26.94    5.37
   2  -4 -11  280.41   12.79
  -2   4  11  291.38   12.90
   2  -4 -10  169.89    9.50
  -2   4  10  156.50    9.92
  -2   4   9  154.46    9.09
  -2   4   8  195.31    9.26
  -2   4   7  444.63   12.37
  -2   4   7  451.48   12.92
  -2   4   6  137.24    6.86
  -2   4   6  140.23    7.17
  -2   4   5  289.02    9.26
  -2   4   5  285.86    9.24
  -2   4   4  281.33    8.80
  -2   4   4  299.53    8.78
  -2   4   3  326.28    9.01
  -2   4   3  328.93    8.54
  -2   4   2   33.85    3.06
  -2   4   2   28.12    3.14
  -2   4   1   94.34    4.02
  -2   4   1   90.04    4.62
  -2   4   0    1.25    1.29
  -2   4   0    1.44    2.02
  -2   4   0    1.56    2.25
  -2   4  -1 4185.61   20.62
  -2   4  -1 4148.56   28.70
  -2   4  -1 4181.06   27.80
  -2   4  -2  407.13    6.01
  -2   4  -2  394.81    9.09
  -2   4  -2  401.48    8.55
  -2   4  -3  730.48   12.61
  -2   4  -3  742.18   11.36
  -2   4  -4  274.14    7.06
  -2   4  -4  255.32    7.93
  -2   4  -5 1767.41   17.61
  -2   4  -5 1731.78   20.83
  -2   4  -6   34.16    3.01
  -2   4  -6   29.33    3.84
  -2   4  -7  738.58   11.96
  -2   4  -7  718.75   15.09
   2  -4   7  744.55   10.38
  -2   4  -8  221.84    6.94
  -2   4  -8  209.61    8.86
  -2   4  -9    2.40    3.62
  -2   4 -10 1424.14   24.19
  -2   4 -11  749.47   18.50
  -2   4 -12  137.98    8.86
  -2   4 -13   82.08    7.58
  -2   4 -14  105.44    8.55
  -2   4 -15   28.22    6.06
   2  -3 -14   48.44    6.31
   2  -3 -13   15.68    5.38
  -2   3  13   15.03    5.20
   2  -3 -12    5.97    4.20
  -2   3  12    3.91    4.03
   2  -3 -11  233.65   11.21
  -2   3  11  221.00   11.09
   2  -3 -10   -0.11    3.87
  -2   3  10    1.81    3.97
  -2   3   9    0.84    3.81
   2  -3  -9   -3.03    3.55
  -2   3   8  209.17    9.05
  -2   3   7  337.39   10.72
  -2   3   7  358.56   10.02
  -2   3   6   35.86    4.15
  -2   3   6   35.53    3.69
  -2   3   5    2.38    2.61
  -2   3   5    1.97    1.96
  -2   3   4 2057.74   20.40
  -2   3   4 2080.41   20.45
  -2   3   3 2024.83   18.47
  -2   3   3 1998.80   19.40
  -2   3   2 1389.85   13.85
  -2   3   2 1389.53   15.46
  -2   3   1  176.59    5.54
  -2   3   1  169.01    4.44
  -2   3   0 2514.52   14.28
  -2   3   0 2523.64   19.45
  -2   3   0 2442.73   19.75
  -2   3  -1  714.36    6.35
  -2   3  -1  713.85   10.68
  -2   3  -1  721.24   10.28
  -2   3  -2 6634.27   30.61
  -2   3  -2 6540.46   32.63
  -2   3  -3  351.76    7.30
  -2   3  -3  338.78    7.95
  -2   3  -4  120.66    5.09
  -2   3  -4  132.48    4.71
  -2   3  -5  352.33    8.93
  -2   3  -5  382.33    7.97
   2  -3   5  372.08    5.84
  -2   3  -6   16.62    2.43
   2  -3   6   16.26    1.84
  -2   3  -6    9.63    2.74
  -2   3  -7  378.82    8.63
  -2   3  -7  383.57   10.46
   2  -3   7  384.10    7.72
  -2   3  -8   18.61    3.69
  -2   3  -8   20.38    2.80
   2  -3   8   21.02    2.71
  -2   3  -9  690.84   12.55
  -2   3  -9  694.56   15.70
   2  -3   9  696.52   12.35
  -2   3 -10   34.53    4.53
  -2   3 -11  199.77    9.75
  -2   3 -12   20.14    4.46
  -2   3 -13   19.92    4.68
  -2   3 -14   30.97    4.86
  -2   3 -15   43.16    5.97
   2  -2 -15    2.15    5.52
  -2   2  14   33.52    5.92
   2  -2 -14   34.05    5.96
   2  -2 -13   63.37    6.85
  -2   2  13   51.63    6.92
  -2   2  12  294.05   12.54
   2  -2 -12  297.99   12.76
   2  -2 -11   -1.71    3.80
  -2   2  11   -1.91    4.17
   2  -2 -10  761.09   18.30
  -2   2  10  735.32   17.43
   2  -2  -9  640.63   16.03
  -2   2   9  617.72   15.14
  -2   2   8   21.58    3.87
  -2   2   7  105.91    5.01
  -2   2   7  103.57    6.09
  -2   2   6   19.37    3.30
  -2   2   6   20.72    2.50
  -2   2   5   95.94    4.32
  -2   2   5   97.89    4.93
  -2   2   4 1070.23   12.83
  -2   2   4 1060.46   13.59
  -2   2   3  659.92    9.64
  -2   2   3  640.02    9.48
   2  -2  -2    9.08    0.91
  -2   2   2    8.18    1.52
  -2   2   2    8.61    1.67
  -2   2   1  575.42    8.32
  -2   2   1  574.25    6.72
  -2   2   0 1707.42   14.00
  -2   2   0 1723.39   14.23
  -2   2   0 1720.02    8.83
  -2   2  -1  875.19   10.20
  -2   2  -1  859.65   10.06
  -2   2  -2  257.22    5.76
  -2   2  -2  262.18    5.83
  -2   2  -3  123.68    4.28
  -2   2  -3  117.88    4.24
   2  -2   3  125.21    2.27
  -2   2  -4  270.86    6.81
  -2   2  -4  267.15    6.46
   2  -2   4  277.51    4.47
  -2   2  -5  592.31    9.95
  -2   2  -5  569.95   10.49
   2  -2   5  585.83    7.76
  -2   2  -6  324.71    7.90
  -2   2  -6  303.74    8.42
   2  -2   6  315.95    6.62
   2  -2   7 1239.50   14.33
  -2   2  -7 1216.52   17.57
  -2   2  -7 1194.31   15.72
  -2   2  -8  231.65    7.42
  -2   2  -8  243.31    8.72
   2  -2   8  235.26    7.14
  -2   2  -9  394.35   11.57
   2  -2   9  406.11   10.02
  -2   2  -9  420.74   10.48
  -2   2 -10   24.44    3.48
   2  -2  10   22.20    3.29
  -2   2 -10   18.06    3.76
  -2   2 -11  115.00    7.35
  -2   2 -12   19.42    4.02
  -2   2 -13   19.84    4.09
  -2   2 -14   41.70    6.25
   2  -1 -15   77.02    8.01
  -2   1  15   70.43    7.64
  -2   1  14   10.08    5.11
   2  -1 -14   17.59    5.59
  -2   1  13    0.32    4.06
   2  -1 -13    0.44    4.00
   2  -1 -12  141.86    9.25
  -2   1  12  148.23    9.11
  -2   1  11   -0.39    3.83
   2  -1 -11    1.75    4.00
  -2   1  10  694.82   16.39
   2  -1 -10  697.64   16.94
  -2   1   9   14.00    3.83
   2  -1  -9   11.99    3.88
  -2   1   8  387.57   11.01
   2  -1  -8  392.37   11.66
   2  -1  -7   27.32    4.06
  -2   1   7   32.92    3.68
  -2   1   7   31.97    2.57
  -2   1   6   29.33    2.29
  -2   1   6   29.94    3.42
   2  -1  -5  704.01    7.11
  -2   1   5  693.96   11.49
  -2   1   5  693.25    9.16
  -2   1   4  218.62    4.91
  -2   1   4  212.42    6.00
   2  -1  -4  225.88    3.75
   2  -1  -3 4623.94   16.39
  -2   1   3 4591.80   21.22
   2  -1  -2 1840.91   10.70
  -2   1   2 1819.00   12.84
   2  -1  -1 3151.26   15.30
  -2   1   1 3091.03   16.74
  -2   1   0 5301.04   22.57
  -2   1  -1   70.11    3.08
  -2   1  -1   63.54    2.42
  -2   1  -2  344.54    6.64
  -2   1  -2  344.79    5.64
   2  -1   2  350.55    4.06
  -2   1  -3    5.41    1.48
   2  -1   3    5.12    0.95
  -2   1  -4  735.01   10.10
   2  -1   4  726.36    8.69
  -2   1  -5 1396.28   15.23
   2  -1   5 1378.58   13.46
  -2   1  -6 1521.61   17.46
   2  -1   6 1534.95   15.85
  -2   1  -7  420.45   10.07
   2  -1   7  426.18    9.36
   2  -1   8   91.79    5.02
  -2   1  -8   75.70    5.02
   2  -1   9   12.11    2.80
  -2   1  -9    5.84    2.72
   2  -1  10   17.49    3.37
  -2   1 -10   23.77    3.91
   2  -1  11   16.04    3.40
  -2   1 -11   17.02    3.77
  -2   1 -12   19.36    3.89
  -2   1 -13    7.42    4.64
   2   0 -15   79.75    7.99
  -2   0  15   79.21    7.51
   2   0 -14   38.62    6.07
  -2   0  14   47.32    6.55
  -2   0  13  151.00    9.15
   2   0 -13  155.82    9.71
   2   0 -12  306.16   12.48
  -2   0  12  309.21   12.24
  -2   0  11  750.82   17.53
   2   0 -11  780.63   18.61
  -2   0  10  840.11   17.74
   2   0 -10  836.54   18.24
   2   0  -9  406.73   12.24
  -2   0   9  424.92   11.99
   2   0  -8 1160.46   18.70
  -2   0   8 1163.13   18.09
   2   0  -7  397.54   10.36
   2   0  -7  422.21    7.95
  -2   0   7  413.59   10.25
   2   0  -6  354.43    9.22
  -2   0   6  373.42    5.73
   2   0  -6  360.31    6.85
   2   0  -5    0.80    1.21
  -2   0   5    1.13    0.79
   2   0  -5   -0.47    2.18
  -2   0   4 5472.97   18.94
   2   0  -4 5483.94   23.42
   2   0  -3 4986.62   21.51
  -2   0   3 4923.77   17.51
  -2   0   2 9782.86   26.14
   2   0  -2 9999.00   29.53
  -2   0   1 8992.41   27.06
   2   0  -1 9082.40   28.98
   2   0   0 5729.62   24.52
   2   0   0 5806.44   20.17
  -2   0  -1  644.20    5.08
   2   0   1  608.74    8.60
   2   0   1  625.10    6.89
   2   0   2 1500.98   11.71
  -2   0  -2 1522.87    9.59
   2   0   3  296.53    5.90
  -2   0  -3  292.98    5.17
  -2   0  -4  265.14    5.71
   2   0   4  246.35    6.05
   2   0   5  273.40    7.00
  -2   0  -5  294.94    6.83
  -2   0  -6  476.74    9.58
   2   0   6  447.78    9.67
   2   0   7  264.22    8.18
  -2   0  -7  265.42    7.95
   2   0   8    5.32    2.66
  -2   0  -8    6.32    2.55
  -2   0  -9  333.02   10.27
   2   0   9  325.55   10.32
   2   0  10    0.13    2.97
  -2   0 -10    3.15    3.00
  -2   0 -11  126.15    7.31
   2   0  11  124.33    7.25
   2   0  12    5.53    3.97
  -2  -1  16   23.44    5.15
   2   1 -15   55.35    7.27
  -2  -1  15   64.18    6.54
  -2  -1  14   43.79    5.48
   2   1 -14   35.94    6.21
   2   1 -13   80.24    7.30
  -2  -1  13   75.32    6.88
   2   1 -12    2.60    3.83
  -2  -1  12    5.00    3.98
   2   1 -11  133.69    8.18
  -2  -1  11  137.65    8.12
  -2  -1  10   28.14    4.66
   2   1 -10   31.97    5.17
  -2  -1   9    3.32    3.23
   2   1  -9    5.63    3.45
   2   1  -8  968.32   16.96
   2   1  -8 1010.11   14.32
   2   1  -7   37.62    3.92
   2   1  -7   42.75    3.22
   2   1  -6  736.75   12.73
   2   1  -6  726.28   11.05
   2   1  -5  133.58    5.16
   2   1  -5  128.65    4.62
  -2  -1   4  522.87    4.39
   2   1  -4  507.99    8.62
   2   1  -4  517.89    8.57
  -2  -1   3 1601.33    9.46
   2   1  -3 1558.02   13.14
   2   1  -3 1563.42   14.38
   2   1  -2   31.78    2.39
   2   1  -2   33.01    1.88
   2   1  -1 1182.12    7.09
   2   1  -1 1156.67   11.41
   2   1  -1 1144.85   11.84
   2   1   0 3873.94   20.74
   2   1   0 3802.71   21.94
   2   1   1    1.22    1.28
   2   1   1    6.08    1.80
   2   1   2  244.06    6.20
  -2  -1  -2  251.42    3.46
   2   1   2  244.17    5.94
   2   1   3  703.06   10.74
  -2  -1  -3  705.28    7.60
   2   1   3  698.83   10.57
   2   1   4   84.00    4.18
  -2  -1  -4   89.32    3.36
   2   1   4   89.16    4.34
   2   1   5  952.63   13.82
   2   1   5  957.06   14.32
  -2  -1  -5  958.14   11.89
   2   1   6  160.43    6.27
   2   1   6  161.24    6.61
  -2  -1  -6  164.98    5.68
   2   1   7 1412.58   18.60
   2   1   7 1412.17   19.87
  -2  -1  -7 1454.88   17.90
   2   1   8  161.51    6.98
  -2  -1  -8  162.63    6.95
   2   1   8  151.89    7.47
   2   1   9  381.32   11.94
   2   1  10    2.60    3.09
   2   1  11  122.81    7.55
   2   1  12   24.46    4.25
   2   1  13    5.58    4.80
   2   2 -16    9.91    5.92
  -2  -2  16    3.10    5.65
  -2  -2  15   11.77    4.66
   2   2 -15   13.29    5.47
   2   2 -14  230.45   12.22
  -2  -2  14  233.62   11.56
   2   2 -13   21.65    5.15
  -2  -2  13   24.52    5.00
   2   2 -12  367.43   13.57
  -2  -2  12  364.80   12.69
   2   2 -11  394.99   13.25
  -2  -2  11  415.88   12.86
   2   2 -10  644.19   15.71
   2   2  -9  747.09   15.96
   2   2  -9  784.74   14.61
   2   2  -8 1145.03   18.33
   2   2  -8 1173.38   16.94
   2   2  -7  700.61   13.47
   2   2  -7  707.02   12.74
   2   2  -6  437.36    9.61
   2   2  -6  427.23    9.71
   2   2  -5  794.72   12.41
   2   2  -5  779.68   11.95
   2   2  -4   82.38    3.76
   2   2  -4   79.76    4.05
   2   2  -3  816.05    9.68
   2   2  -3  794.30   11.65
   2   2  -2  534.92    9.16
   2   2  -2  545.76    6.81
   2   2  -2  532.27    9.38
   2   2  -1  641.75    9.97
   2   2  -1  671.38    6.04
   2   2  -1  659.11   10.27
   2   2   0  420.47    8.23
   2   2   0  410.28    7.99
   2   2   1  698.06   10.63
   2   2   1  663.23   10.63
  -2  -2  -2 1213.76    8.57
   2   2   2 1179.06   14.82
   2   2   2 1175.16   14.06
   2   2   3  578.53   10.22
   2   2   3  573.03   11.07
  -2  -2  -3  586.41    7.22
   2   2   4  173.29    6.03
   2   2   4  176.58    6.65
  -2  -2  -4  182.63    4.82
  -2  -2  -5  306.20    6.99
   2   2   5  300.05    9.16
   2   2   5  319.94    8.31
   2   2   6  516.75   11.02
   2   2   6  520.51   12.53
  -2  -2  -6  534.21   10.14
   2   2   7   33.45    3.61
   2   2   7   32.53    4.46
   2   2   8  311.33   11.03
   2   2   9   85.69    6.61
   2   2  10   31.43    4.84
   2   2  11   16.79    4.59
   2   2  12  111.32    8.56
   2   2  13    7.07    5.40
   2   3 -16   22.78    5.42
  -2  -3  16   30.63    5.68
  -2  -3  15    7.14    4.90
   2   3 -15    7.18    5.19
  -2  -3  14    3.85    4.58
   2   3 -14   12.70    4.79
  -2  -3  13   -0.80    3.87
   2   3 -13    3.29    4.68
   2   3 -12   21.91    5.29
   2   3 -11    3.00    3.47
   2   3 -10  213.26    9.00
   2   3 -10  215.63    9.53
   2   3  -9   11.14    3.12
   2   3  -9   12.22    3.44
   2   3  -8   31.12    3.98
   2   3  -8   34.96    4.19
   2   3  -7  184.36    7.36
   2   3  -7  180.84    7.22
   2   3  -6   88.83    4.89
   2   3  -6   85.88    5.14
   2   3  -5   42.69    3.43
   2   3  -5   40.32    3.62
   2   3  -4 1115.17   13.45
   2   3  -4 1081.73   15.54
   2   3  -3  500.38    8.19
   2   3  -3  478.75   10.15
   2   3  -2 4049.28   28.03
   2   3  -2 4090.50   28.78
   2   3  -2 4121.86   20.72
   2   3  -1 3038.96   15.87
   2   3  -1 2958.70   23.90
   2   3  -1 2979.25   24.19
   2   3   0    1.18    1.88
   2   3   0   -1.12    2.03
   2   3   1  943.20   14.49
   2   3   1  972.54   13.70
   2   3   2  440.75   10.34
   2   3   2  432.78    9.31
   2   3   3    1.81    2.43
   2   3   3    3.62    1.80
   2   3   4  292.00    9.44
   2   3   4  298.12    8.14
   2   3   5 1013.77   17.98
   2   3   5 1021.00   15.26
   2   3   6 2087.30   26.81
   2   3   6 2097.76   22.22
   2   3   7  859.33   18.32
   2   3   8   87.64    6.78
   2   3   9   19.40    4.34
   2   3  10    2.94    3.95
   2   3  11  100.69    8.33
   2   3  12   -0.60    5.10
  -2  -4  16    3.49    5.94
  -2  -4  15   90.87    7.92
   2   4 -15   81.92    8.22
  -2  -4  14    3.73    4.53
   2   4 -14   -1.03    4.91
   2   4 -13   52.38    6.60
   2   4 -12    1.34    4.23
   2   4 -11  151.19    8.91
   2   4 -11  159.22    8.54
   2   4 -10  365.39   12.04
   2   4 -10  357.50   12.28
   2   4  -9  160.40    8.10
   2   4  -9  161.00    8.09
   2   4  -8  113.85    6.79
   2   4  -8   93.25    6.08
   2   4  -7  194.37    8.20
   2   4  -7  193.87    7.70
   2   4  -6   23.23    3.53
   2   4  -6   25.58    3.41
   2   4  -5  365.83    8.94
   2   4  -5  375.50   10.40
   2   4  -4  888.86   12.88
   2   4  -4  879.47   15.30
   2   4  -3    1.15    1.51
   2   4  -3    0.20    2.41
   2   4  -3    1.90    2.57
   2   4  -2   77.26    4.89
   2   4  -2   77.25    3.40
   2   4  -2   76.76    4.77
   2   4  -1   66.02    2.99
   2   4  -1   64.70    4.74
   2   4  -1   61.14    4.39
   2   4   0    6.55    2.53
   2   4   0    2.21    2.44
   2   4   1  551.04   12.38
   2   4   1  571.14   11.58
   2   4   2  295.69    9.61
   2   4   2  307.88    8.56
   2   4   3   85.40    5.93
   2   4   3   87.03    4.96
   2   4   4    6.78    3.57
   2   4   4    9.50    2.52
   2   4   5    7.26    3.48
   2   4   6   32.31    4.79
   2   4   7  111.82    7.77
   2   4   8   48.46    5.87
   2   4   9    6.56    4.29
   2   4  10  100.85    8.08
   2   4  11  100.32    8.04
  -2  -5  15   24.48    5.14
   2   5 -15   25.10    6.14
   2   5 -14   27.87    5.47
   2   5 -13    2.43    4.29
   2   5 -12   47.18    6.23
   2   5 -12   43.61    5.74
   2   5 -11  258.72   11.52
   2   5 -11  275.00   11.58
   2   5 -10  766.20   18.12
   2   5 -10  727.86   17.75
   2   5  -9   18.91    4.48
   2   5  -9   23.67    4.29
   2   5  -8  231.81    9.13
   2   5  -8  209.22    9.37
   2   5  -7    0.56    3.40
   2   5  -7    0.42    2.64
   2   5  -6   93.34    5.55
   2   5  -6   95.53    6.45
   2   5  -5  216.96    7.56
   2   5  -5  214.16    8.77
   2   5  -4  340.86   10.55
   2   5  -4  378.07    9.15
   2   5  -3  318.79    9.97
   2   5  -3  331.62    8.08
   2   5  -3  315.02    9.95
   2   5  -2 2263.84   19.57
   2   5  -2 2217.33   25.52
   2   5  -2 2181.36   25.03
   2   5  -1   31.74    2.70
   2   5  -1   34.44    3.90
   2   5  -1   27.60    4.27
   2   5   0 1460.79   21.45
   2   5   0 1473.34   20.25
   2   5   1   13.19    2.95
   2   5   1   14.78    3.94
   2   5   2    1.59    3.15
   2   5   2    1.13    2.29
   2   5   3  131.42    7.58
   2   5   3  138.75    6.42
   2   5   4  125.81    7.78
   2   5   5  532.33   15.55
   2   5   6   13.45    4.63
   2   5   7  231.84   11.40
   2   5   8  102.76    8.13
   2   5   9   10.58    4.75
   2   5  10   56.52    6.66
   2   6 -15  150.50   10.75
   2   6 -14  136.46   10.04
   2   6 -13  129.04    9.67
   2   6 -12   21.89    6.18
   2   6 -12   18.93    4.95
   2   6 -11  183.11    9.95
   2   6 -11  191.57   10.33
   2   6 -10  737.40   18.29
   2   6 -10  741.43   18.93
   2   6  -9   29.72    5.46
   2   6  -9   28.73    4.43
   2   6  -8  205.37   10.00
   2   6  -8  191.79    8.77
   2   6  -7  328.12   10.65
   2   6  -7  315.88   11.76
   2   6  -6 1167.17   21.48
   2   6  -6 1267.29   19.56
   2   6  -5   67.99    4.94
   2   6  -5   68.13    5.92
   2   6  -4   65.85    4.48
   2   6  -4   64.79    5.63
   2   6  -3  319.93   10.79
   2   6  -3  336.23    8.84
   2   6  -3  319.78   10.81
   2   6  -2   85.72    5.93
   2   6  -2   88.34    6.49
   2   6  -1  252.60   10.12
   2   6  -1  266.67    9.53
   2   6   0  156.64    8.39
   2   6   0  157.74    7.40
   2   6   1    6.31    2.50
   2   6   1   11.49    3.74
   2   6   2    5.25    2.61
   2   6   2    4.64    3.87
   2   6   3   22.10    4.77
   2   6   4  173.34    9.70
   2   6   5    7.72    3.78
   2   6   6    2.97    4.46
   2   6   7   95.72    8.37
   2   6   8    9.67    5.22
   2   7 -14   26.23    5.75
   2   7 -13   76.19    7.96
   2   7 -12   46.80    6.24
   2   7 -12   45.59    6.79
   2   7 -11  532.89   16.97
   2   7 -11  547.58   17.84
   2   7 -10    6.64    4.16
   2   7 -10    8.14    3.91
   2   7  -9   28.33    4.79
   2   7  -9   31.31    4.87
   2   7  -8    8.11    4.19
   2   7  -8    9.65    3.85
   2   7  -7  219.77    9.39
   2   7  -7  214.70   10.44
   2   7  -6  117.14    6.79
   2   7  -6  115.38    7.77
   2   7  -5   29.73    3.89
   2   7  -5   29.61    4.95
   2   7  -4   13.29    3.36
   2   7  -4   13.72    4.07
   2   7  -3   10.85    3.92
   2   7  -3    5.71    3.69
   2   7  -2   16.44    3.80
   2   7  -2   20.40    4.54
   2   7  -1  313.48   12.10
   2   7  -1  325.42   11.28
   2   7   0   36.03    4.67
   2   7   0   38.90    5.20
   2   7   1  164.08    9.68
   2   7   2   10.73    4.70
   2   7   3  182.92   10.43
   2   7   4   54.71    6.64
   2   7   5  382.89   15.19
   2   7   6  138.13    9.73
   2   8 -13   68.01    7.24
   2   8 -12   51.18    6.13
   2   8 -12   58.38    6.39
   2   8 -11  156.24   10.15
   2   8 -11  149.55   10.37
   2   8 -10   10.63    4.81
   2   8 -10    1.64    4.60
   2   8  -9   54.80    6.00
   2   8  -9   52.78    6.73
   2   8  -8   64.64    6.08
   2   8  -8   65.39    7.02
   2   8  -7  156.39    9.77
   2   8  -6  163.72    9.72
   2   8  -5   25.93    4.57
   2   8  -4  661.55   17.84
   2   8  -4  670.03   17.94
   2   8  -3    3.48    3.38
   2   8  -3    1.20    4.08
   2   8  -2  112.49    8.23
   2   8  -2  100.50    7.27
   2   8  -1   15.48    3.92
   2   8  -1    8.79    4.25
   2   8   0  259.67   12.14
   2   8   1   11.28    4.34
   2   8   2   12.11    4.89
   2   8   3    7.94    5.34
   2   8   4    7.79    5.71
   2   9 -12  202.53   11.75
   2   9 -11   23.48    6.88
   2   9 -11   19.52    5.92
   2   9 -10   59.37    7.74
   2   9  -9  326.74   14.75
   2   9  -8   28.04    5.57
   2   9  -7   31.15    5.19
   2   9  -6  181.70   10.67
   2   9  -5    4.25    6.01
   2   9  -4   63.71    6.99
   2   9  -4   58.25    6.44
   2   9  -3   19.72    4.44
   2   9  -3   21.75    5.39
   2   9  -2   18.14    4.81
   2   9  -1    8.40    4.74
   2   9   0   -3.81    5.32
   2   9   1  167.14   11.32
   2   9   2  229.86   13.41
   2  10  -8  159.38   11.15
   2  10  -7  287.16   13.93
   2  10  -6   84.53    8.06
   2  10  -5  352.41   14.89
   2  10  -4    3.90    4.93
   2  10  -3   33.09    6.71
   2  10  -2  182.93   11.93
  -3  11   0   48.97    7.12
  -3  11  -1    7.99    5.57
  -3  11  -2  213.12   11.67
  -3  11  -3   -8.66    5.07
  -3  11  -4    2.55    5.23
  -3  11  -5   17.04    5.36
  -3  11  -6   10.42    5.75
  -3  11  -7    6.73    5.34
  -3  10   5    3.64    5.75
  -3  10   4   31.25    5.84
  -3  10   3  156.11   10.83
  -3  10   2   19.23    5.35
  -3  10   1    5.92    4.67
  -3  10   0   89.18    7.83
  -3  10  -1    2.03    4.12
  -3  10  -2    1.66    3.92
  -3  10  -3   11.02    4.22
  -3  10  -4   14.95    5.13
  -3  10  -4   14.70    3.83
  -3  10  -5   14.81    5.45
  -3  10  -5   13.79    3.98
  -3  10  -6  321.13   14.54
  -3  10  -7   46.56    6.63
  -3  10  -8   54.74    6.73
  -3  10  -9    6.78    5.85
  -3  10 -10   71.37    8.01
  -3   9   7   30.95    6.12
  -3   9   6   27.91    5.73
  -3   9   6   32.52    5.74
  -3   9   5   96.44    8.67
  -3   9   5   89.29    7.60
  -3   9   4  210.57   10.81
  -3   9   4  224.46   12.15
  -3   9   3  143.59    9.54
  -3   9   3  142.86    8.52
  -3   9   2    1.85    3.71
  -3   9   2    2.23    3.48
  -3   9   1  255.65   11.86
  -3   9   0   27.40    4.89
  -3   9  -1  311.34   12.54
  -3   9  -2   -0.57    3.97
  -3   9  -3    6.28    3.61
  -3   9  -3    6.75    3.67
  -3   9  -4   12.66    3.38
  -3   9  -4   16.62    4.42
  -3   9  -5   23.74    5.46
  -3   9  -5   23.99    4.49
  -3   9  -6  590.35   18.00
  -3   9  -6  602.25   15.70
  -3   9  -7    3.42    4.03
  -3   9  -8  105.85    8.51
  -3   9  -9  229.93   12.60
  -3   9 -10   19.30    5.45
  -3   9 -11   41.25    6.13
  -3   8   8   16.29    5.25
  -3   8   7  168.71   10.94
  -3   8   7  166.37   10.33
  -3   8   6    3.56    4.73
  -3   8   6    3.66    4.46
  -3   8   5   84.67    7.39
  -3   8   5   90.88    7.43
  -3   8   4   22.40    4.35
  -3   8   4   29.30    5.33
  -3   8   3  254.12   11.49
  -3   8   3  248.13   10.19
  -3   8   2   38.15    4.80
  -3   8   2   26.94    4.95
  -3   8   1    7.86    3.06
  -3   8   1    6.94    3.66
  -3   8   0   46.58    4.28
  -3   8   0   45.93    5.26
  -3   8  -1    3.85    3.60
  -3   8  -2  177.15    9.33
  -3   8  -2  168.73    8.46
  -3   8  -3  169.26    8.94
  -3   8  -3  189.95    8.94
  -3   8  -4   23.41    4.01
  -3   8  -4   29.83    5.25
  -3   8  -5  206.18   10.46
  -3   8  -5  233.57    9.51
  -3   8  -6   31.23    5.47
  -3   8  -6   34.52    4.47
  -3   8  -7   30.09    5.52
  -3   8  -8   88.38    7.58
  -3   8  -9   46.06    5.85
  -3   8 -10    7.88    4.42
  -3   8 -11    3.61    4.45
  -3   8 -12    4.32    5.38
  -3   7  10   69.15    7.63
  -3   7   9   33.87    6.02
  -3   7   8   52.44    6.30
  -3   7   8   73.49    7.51
  -3   7   7   57.93    6.60
  -3   7   7   55.88    6.27
  -3   7   6   88.68    7.43
  -3   7   6   89.79    7.28
  -3   7   5    2.06    3.32
  -3   7   5    1.81    3.80
  -3   7   4  109.72    7.72
  -3   7   4  112.24    7.13
  -3   7   3  747.25   18.00
  -3   7   3  750.14   15.93
  -3   7   2  888.32   18.98
  -3   7   2  894.14   16.55
  -3   7   1  212.25    8.09
  -3   7   1  210.61    9.45
  -3   7   0 1219.11   17.27
  -3   7   0 1213.95   21.21
  -3   7  -1   59.66    5.65
  -3   7  -1   63.34    4.10
  -3   7  -2   -1.08    2.98
  -3   7  -2    0.39    3.44
  -3   7  -3   40.68    4.59
  -3   7  -3   36.91    4.96
  -3   7  -4   24.09    4.44
  -3   7  -4   24.78    3.77
  -3   7  -5  284.06   11.15
  -3   7  -5  293.19    9.97
  -3   7  -6  552.47   15.44
  -3   7  -6  591.67   13.70
  -3   7  -7  327.61   12.36
  -3   7  -7  332.30   10.43
  -3   7  -8 1137.06   23.05
  -3   7  -9   61.92    6.43
  -3   7 -10  265.06   12.50
  -3   7 -11    0.07    4.48
  -3   7 -12    6.09    5.23
  -3   7 -13    9.75    5.75
  -3   6  11  204.52   12.01
  -3   6  10   31.39    5.11
  -3   6   9   98.68    8.10
  -3   6   8  487.68   15.56
  -3   6   8  475.35   15.20
  -3   6   7   10.11    3.77
  -3   6   7    9.46    4.22
  -3   6   6  140.39    8.22
  -3   6   6  135.15    7.96
  -3   6   5   27.44    4.30
  -3   6   5   23.01    4.21
  -3   6   4  444.99   12.13
  -3   6   4  448.88   13.21
  -3   6   3   37.50    4.19
  -3   6   3   29.35    4.53
  -3   6   2 1025.41   16.08
  -3   6   2  978.38   18.43
  -3   6   1   27.34    4.03
  -3   6   1   26.25    3.01
  -3   6   0    6.61    2.05
  -3   6   0    7.43    3.13
  -3   6  -1  941.07   17.47
  -3   6  -1  961.78   12.63
  -3   6  -1  903.76   16.58
  -3   6  -2  249.04    6.11
  -3   6  -2  232.08    8.57
  -3   6  -2  231.34    9.10
  -3   6  -3  263.55    9.66
  -3   6  -3  262.31    8.94
  -3   6  -4  202.84    7.75
  -3   6  -4  208.86    8.76
  -3   6  -5  141.78    7.61
  -3   6  -5  144.67    6.72
  -3   6  -6  266.38   10.36
  -3   6  -6  264.08    8.72
  -3   6  -7    4.53    2.50
  -3   6  -7    9.95    3.88
  -3   6  -8  111.54    7.55
  -3   6  -8  122.25    6.20
  -3   6  -9   10.74    3.82
  -3   6 -10    3.19    3.58
  -3   6 -11    7.04    4.05
  -3   6 -12   57.26    6.80
  -3   6 -13    4.09    4.66
  -3   6 -14   21.81    6.10
  -3   5  12  141.57   10.20
   3  -5 -12  121.41    9.96
  -3   5  11   31.91    6.15
   3  -5 -11   37.50    5.66
  -3   5  10    6.63    4.28
  -3   5   9   12.22    4.56
  -3   5   9   17.26    3.93
  -3   5   8   81.54    6.52
  -3   5   8   79.28    7.13
  -3   5   7  337.65   11.61
  -3   5   7  333.89   11.90
  -3   5   6    5.39    3.35
  -3   5   6    5.62    3.13
  -3   5   5  308.00   10.47
  -3   5   5  300.50   10.03
  -3   5   4  242.58    9.08
  -3   5   4  252.02    8.63
  -3   5   3  140.11    6.99
  -3   5   3  141.27    6.28
  -3   5   2   22.76    3.50
  -3   5   2   26.08    2.99
  -3   5   1  230.06    6.51
  -3   5   1  235.97    8.20
  -3   5   0  214.54    5.71
  -3   5   0  217.51    7.82
  -3   5  -1  834.05    9.94
  -3   5  -1  824.24   14.42
  -3   5  -1  794.15   14.74
  -3   5  -2   27.18    3.68
  -3   5  -2   32.61    1.97
  -3   5  -2   32.36    3.58
  -3   5  -3  163.24    6.59
  -3   5  -3  159.38    7.03
  -3   5  -4  108.29    5.55
  -3   5  -4  114.42    6.30
  -3   5  -5   88.64    5.82
  -3   5  -5   91.58    5.24
  -3   5  -6   31.67    3.62
  -3   5  -6   28.66    4.23
  -3   5  -7 3035.98   27.64
  -3   5  -7 2987.63   32.38
  -3   5  -8   90.26    5.31
  -3   5  -8   88.02    6.71
  -3   5  -9   45.85    5.60
  -3   5 -10  171.58    9.37
  -3   5 -11    3.55    3.74
  -3   5 -12  172.28   10.17
  -3   5 -13   41.27    6.30
  -3   5 -14    0.67    5.49
  -3   5 -15   -5.02    5.75
  -3   4  13    0.68    4.96
   3  -4 -13    5.93    6.22
  -3   4  12   23.09    5.53
   3  -4 -12   33.68    6.03
   3  -4 -11   96.03    8.34
  -3   4  11  101.31    8.68
  -3   4  10  131.29    8.71
  -3   4   9 1096.87   20.11
  -3   4   9 1069.76   21.65
  -3   4   8   28.82    4.72
  -3   4   8   28.54    4.06
  -3   4   7   83.19    6.10
  -3   4   7   88.40    5.74
  -3   4   6  119.62    6.43
  -3   4   6  122.70    6.67
  -3   4   5  168.31    7.22
  -3   4   5  161.72    7.07
  -3   4   4  210.31    7.67
  -3   4   4  219.43    7.46
  -3   4   3    2.27    2.06
  -3   4   3    2.83    1.91
  -3   4   2  467.32    8.87
  -3   4   2  457.63   10.50
  -3   4   1  615.66    9.10
  -3   4   1  606.43   11.78
  -3   4   0   16.45    1.70
  -3   4   0   17.62    2.69
  -3   4  -1    3.31    0.93
  -3   4  -1    2.00    1.94
  -3   4  -2 1637.59   19.23
  -3   4  -2 1648.51    8.51
  -3   4  -2 1670.07   18.58
  -3   4  -3  839.67   13.34
  -3   4  -3  843.61   14.08
  -3   4  -4  472.92   10.23
  -3   4  -4  447.49   10.65
  -3   4  -5  176.38    6.59
  -3   4  -5  183.77    7.36
  -3   4  -6  388.83    9.70
  -3   4  -6  376.45   10.75
  -3   4  -7  334.99    9.27
  -3   4  -7  326.75   10.61
  -3   4  -8   42.18    4.93
  -3   4  -8   40.44    4.07
  -3   4  -9  122.25    6.05
  -3   4  -9  116.81    7.13
  -3   4 -10   56.88    5.67
  -3   4 -11  134.62    8.34
  -3   4 -12  262.33   11.80
  -3   4 -13   16.43    4.44
  -3   4 -14  120.73    9.08
  -3   4 -15   13.45    6.29
  -3   3  14   33.83    6.19
   3  -3 -14   27.39    6.12
   3  -3 -13   56.88    7.51
  -3   3  13   59.38    7.05
  -3   3  12   49.60    6.51
   3  -3 -12   68.88    7.41
   3  -3 -11  111.71    8.61
  -3   3  11   93.96    8.21
  -3   3  10   29.90    5.32
   3  -3 -10   29.51    5.62
  -3   3   9  168.62    7.39
  -3   3   9  171.94    8.83
  -3   3   8   12.09    3.89
  -3   3   8   10.95    2.72
  -3   3   7   94.59    5.33
  -3   3   7   80.57    5.84
  -3   3   6  200.43    7.08
  -3   3   6  205.89    7.91
  -3   3   5  786.70   13.38
  -3   3   5  785.97   13.65
  -3   3   4  261.97    7.59
  -3   3   4  261.21    7.45
   3  -3  -3   20.47    1.38
  -3   3   3   17.67    2.46
  -3   3   3   28.71    2.78
  -3   3   2  855.64   10.64
  -3   3   2  847.41   12.68
  -3   3   1  424.87    6.56
  -3   3   1  415.81    8.79
  -3   3   0   30.49    1.61
  -3   3   0   36.04    2.89
  -3   3  -1  421.42    8.82
  -3   3  -1  423.47    8.80
  -3   3  -2   15.59    2.63
  -3   3  -2   12.58    2.38
  -3   3  -3   18.75    2.54
  -3   3  -3   14.18    2.27
  -3   3  -4  200.95    6.67
  -3   3  -4  195.08    6.70
  -3   3  -5   91.08    5.06
   3  -3   5   96.69    2.66
  -3   3  -5   99.38    5.11
  -3   3  -6 3630.18   28.79
  -3   3  -6 3675.68   30.50
  -3   3  -7  273.59    8.53
  -3   3  -7  282.27    9.28
  -3   3  -8  585.87   13.79
  -3   3  -8  577.82   12.61
  -3   3  -9   28.17    4.43
  -3   3  -9   26.71    3.72
  -3   3 -10   54.98    5.24
  -3   3 -10   47.57    4.50
  -3   3 -11   41.29    4.86
  -3   3 -12   44.51    5.21
  -3   3 -13    5.66    4.74
  -3   2  14   52.08    5.72
   3  -2 -14   40.70    5.68
  -3   2  13   20.85    4.60
   3  -2 -13   31.51    6.15
   3  -2 -12   46.42    6.14
  -3   2  12   50.47    6.13
   3  -2 -11  130.59    8.72
  -3   2  11  134.46    8.53
   3  -2 -10 1631.18   27.23
  -3   2  10 1671.78   26.09
  -3   2   9  214.06    7.35
   3  -2  -9  198.16    9.69
  -3   2   9  186.25    9.09
  -3   2   8   20.40    4.05
  -3   2   8   22.52    2.95
  -3   2   7    1.36    3.11
  -3   2   7    2.24    1.99
  -3   2   6  753.37   11.95
  -3   2   6  752.73   13.86
  -3   2   5    4.39    1.71
   3  -2  -5    4.16    0.80
  -3   2   4  780.65   11.37
  -3   2   4  803.53   12.10
   3  -2  -4  798.72    7.55
  -3   2   3  580.45    9.58
  -3   2   3  586.58    9.35
   3  -2  -3  604.30    7.07
   3  -2  -2  152.11    4.02
  -3   2   2  158.83    4.42
  -3   2   2  159.97    5.09
  -3   2   1   31.00    2.63
  -3   2   1   29.05    1.80
  -3   2   0  276.89    6.71
  -3   2  -1  437.51    8.45
  -3   2  -1  433.15    7.78
  -3   2  -2  402.39    8.44
  -3   2  -2  405.04    7.68
  -3   2  -3   48.57    3.07
  -3   2  -3   49.41    3.50
   3  -2   3   48.05    1.50
  -3   2  -4  405.77    8.57
  -3   2  -4  395.70    9.09
   3  -2   4  403.48    5.40
  -3   2  -5  173.31    6.17
  -3   2  -5  173.84    6.58
   3  -2   5  173.66    4.29
   3  -2   6    6.98    1.68
  -3   2  -6    6.38    2.34
  -3   2  -6    7.47    3.00
   3  -2   7    6.47    2.02
  -3   2  -7    4.21    2.77
  -3   2  -7    6.41    2.65
  -3   2  -8   42.30    4.08
  -3   2  -8   58.26    4.84
  -3   2  -9   60.43    5.12
  -3   2  -9   66.57    5.28
  -3   2 -10  152.49    7.83
  -3   2 -10  167.65    7.99
  -3   2 -11   19.36    3.64
  -3   2 -12    2.12    4.03
  -3   1  15   -7.19    6.12
   3  -1 -15    3.48    6.06
  -3   1  14   29.56    5.07
   3  -1 -14   10.70    4.82
  -3   1  13    1.05    4.30
   3  -1 -13    4.62    4.47
   3  -1 -12  127.55    9.03
  -3   1  12  117.89    8.42
   3  -1 -11   90.69    7.52
  -3   1  11   90.38    7.10
  -3   1  10    0.10    4.01
   3  -1 -10    0.76    4.05
   3  -1  -9 1120.42   20.84
  -3   1   9 1128.26   20.11
  -3   1   8   26.70    4.45
  -3   1   8   24.87    2.64
   3  -1  -8   24.11    4.46
  -3   1   7  382.18   10.45
  -3   1   7  379.81    7.75
   3  -1  -7  392.50    6.88
   3  -1  -6  597.10    8.18
  -3   1   6  594.09    9.21
  -3   1   6  598.24   11.97
   3  -1  -5 2788.30   17.11
  -3   1   5 2698.86   19.07
   3  -1  -4   20.41    1.77
  -3   1   4   15.75    1.85
   3  -1  -3  355.89    6.29
  -3   1   3  360.70    6.72
   3  -1  -2 5248.14   24.73
  -3   1   2 5221.61   25.69
   3  -1  -1 2366.41   17.65
  -3   1   1 2402.69   17.95
   3  -1   0  400.82    7.70
  -3   1   0  385.72    7.53
   3  -1   1  219.67    3.90
  -3   1  -1  230.95    4.79
  -3   1  -1  225.58    6.17
  -3   1  -2  312.12    5.75
   3  -1   2  320.92    4.93
  -3   1  -2  314.54    7.63
  -3   1  -3  633.71    8.77
   3  -1   3  660.35    7.81
  -3   1  -4  217.25    5.72
   3  -1   4  225.52    5.22
  -3   1  -5 2148.51   19.14
   3  -1   5 2144.39   17.71
  -3   1  -6   64.29    3.87
   3  -1   6   64.72    3.72
   3  -1   7   54.11    3.83
  -3   1  -7   55.34    4.15
  -3   1  -8  230.16    8.14
   3  -1   8  245.35    7.88
   3  -1   9    0.32    2.39
  -3   1  -9    0.45    2.60
  -3   1 -10    9.98    2.95
   3   0 -15  146.84   10.15
  -3   0  15  169.05   10.77
   3   0 -14  219.71   11.74
  -3   0  14  225.20   11.66
   3   0 -13   60.75    7.04
  -3   0  13   68.11    6.83
  -3   0  12    3.21    3.73
   3   0 -12   -0.87    4.02
   3   0 -11  402.93   13.75
  -3   0  11  404.14   13.47
   3   0 -10  252.77   10.60
  -3   0  10  250.69   10.33
   3   0  -9  148.50    8.01
  -3   0   9  142.22    7.69
   3   0  -8    0.68    1.46
   3   0  -8    0.88    3.34
  -3   0   7 5021.28   22.55
   3   0  -7 4957.04   37.17
   3   0  -7 5097.49   28.83
  -3   0   6 1996.87   13.81
   3   0  -6 2030.26   22.10
   3   0  -6 2022.77   17.59
  -3   0   5 1588.02   12.14
   3   0  -5 1594.49   15.18
  -3   0   4 1739.81   12.94
   3   0  -4 1744.74   15.67
  -3   0   3 1349.71   11.88
   3   0  -3 1344.53   13.64
   3   0  -2   11.56    1.99
  -3   0   2   11.65    1.63
   3   0  -1  198.15    5.57
  -3   0   1  207.01    5.42
   3   0   0  198.99    5.87
   3   0   0  214.25    4.96
   3   0   1  317.23    7.57
  -3   0  -1  324.30    4.19
   3   0   1  309.45    5.94
   3   0   2   47.70    3.64
  -3   0  -2   49.27    1.93
   3   0   2   49.21    2.71
   3   0   3  720.37   12.33
  -3   0  -3  745.17    8.23
   3   0   3  716.31   10.12
   3   0   4   65.13    4.36
  -3   0  -4   65.62    3.03
   3   0   4   69.80    3.65
   3   0   5    6.35    2.03
  -3   0  -5   10.61    1.78
  -3   0  -6  198.42    6.26
   3   0   6  198.85    6.86
   3   0   7   -0.79    2.35
  -3   0  -7    0.42    2.03
   3   0   8   69.44    4.99
   3   0   9   55.45    4.75
   3   0  10  144.00    7.68
  -3  -1  16   19.79    5.31
  -3  -1  15   21.19    5.33
   3   1 -15   21.36    4.77
  -3  -1  14   29.84    5.43
   3   1 -14   30.24    5.63
  -3  -1  13   24.52    5.20
   3   1 -13   27.12    5.15
   3   1 -12  125.77    8.55
  -3  -1  12  128.89    8.43
   3   1 -11   93.77    7.61
  -3  -1  11   95.72    6.94
   3   1 -10  217.48    9.95
   3   1 -10  244.67    8.25
   3   1  -9  224.96    9.39
   3   1  -9  224.94    7.55
   3   1  -8  122.33    6.79
   3   1  -8  118.53    5.44
   3   1  -7  130.09    6.33
   3   1  -7  136.08    5.56
   3   1  -6    2.30    1.78
  -3  -1   6    3.45    0.72
   3   1  -6    3.97    2.38
  -3  -1   5  110.66    2.83
   3   1  -5  117.40    5.09
   3   1  -5  111.05    4.80
  -3  -1   4    7.31    1.25
   3   1  -4   10.15    2.17
   3   1  -4    8.26    1.84
   3   1  -3   56.88    2.93
  -3  -1   3   61.20    2.78
   3   1  -3   55.66    3.51
   3   1  -2 2446.06   14.49
   3   1  -2 2413.14   20.24
   3   1  -1 3104.79   21.56
   3   1  -1 3085.35   12.42
   3   1  -1 3017.65   23.01
   3   1   0  560.38   10.14
   3   1   0  553.27    9.24
   3   1   1  166.14    5.93
   3   1   1  180.19    5.49
   3   1   2  634.65   11.54
   3   1   2  621.99   10.33
   3   1   3   17.19    2.93
  -3  -1  -3   19.85    1.36
   3   1   3   19.67    2.61
   3   1   4 1130.19   16.60
  -3  -1  -4 1172.60   10.92
   3   1   4 1171.30   15.84
   3   1   5  126.47    6.23
   3   1   5  125.87    5.80
   3   1   6 1320.67   18.83
   3   1   6 1300.68   19.09
   3   1   7   29.61    4.12
   3   1   7   29.97    3.76
   3   1   8    9.64    3.39
   3   1   8   15.30    3.66
   3   1   9    4.58    3.16
   3   1  10    7.51    3.45
   3   1  11   24.89    4.64
  -3  -2  16   30.96    5.34
  -3  -2  15   24.82    5.45
   3   2 -15   24.84    5.57
   3   2 -14  130.99    9.82
  -3  -2  14  120.37    9.05
  -3  -2  13    0.15    4.22
   3   2 -13    1.92    4.58
   3   2 -12  819.23   20.04
  -3  -2  12  791.60   19.06
   3   2 -11    6.29    2.65
   3   2 -11   17.29    4.54
   3   2 -10   55.26    5.67
   3   2 -10   47.50    4.43
   3   2  -9   53.34    4.60
   3   2  -9   50.57    5.08
   3   2  -8   36.80    4.33
   3   2  -8   30.80    3.54
   3   2  -7 1119.38   16.81
   3   2  -7 1099.60   16.95
   3   2  -6   64.44    4.25
   3   2  -6   66.41    4.48
  -3  -2   5 3603.86   16.51
   3   2  -5 3587.87   25.64
   3   2  -5 3587.26   28.25
   3   2  -4  372.24    7.60
   3   2  -4  368.97    9.21
   3   2  -3  281.02    5.87
   3   2  -3  277.43    7.89
   3   2  -2 1749.22   11.79
   3   2  -2 1696.65   18.78
   3   2  -1  152.76    5.74
   3   2  -1  147.58    2.53
   3   2  -1  145.74    5.77
   3   2   0  203.94    6.58
   3   2   0  196.15    6.72
   3   2   1 1252.63   16.00
   3   2   1 1272.45   16.63
   3   2   2   80.02    4.59
   3   2   2   74.25    4.54
   3   2   3    4.66    2.58
   3   2   3    2.89    2.35
   3   2   4  148.23    6.64
   3   2   4  139.18    6.54
   3   2   5  134.04    6.55
   3   2   5  131.81    6.73
   3   2   6   22.79    3.96
   3   2   6   25.20    3.72
   3   2   7 1893.47   24.32
   3   2   7 1890.18   25.97
   3   2   8   10.55    3.50
   3   2   9   61.11    5.88
   3   2  10   17.46    4.46
   3   2  11   20.45    4.92
   3   2  12   55.85    6.43
  -3  -3  16   43.78    6.08
   3   3 -15   49.77    7.41
  -3  -3  15   61.51    6.97
   3   3 -14  233.60   12.34
  -3  -3  14  242.24   11.70
   3   3 -13   66.30    7.29
   3   3 -12   10.79    3.32
   3   3 -12   12.36    4.68
   3   3 -11   38.60    5.36
   3   3 -11   39.09    4.64
   3   3 -10  104.79    7.32
   3   3 -10  114.98    6.87
   3   3  -9  159.53    8.03
   3   3  -9  169.27    7.99
   3   3  -8  124.87    6.77
   3   3  -8  125.29    6.65
   3   3  -7  533.31   12.18
   3   3  -7  534.84   12.68
   3   3  -6   26.03    3.21
   3   3  -6   34.40    4.02
   3   3  -5  919.59   15.86
   3   3  -5  975.78   13.72
   3   3  -4  163.15    5.31
   3   3  -4  157.95    6.77
   3   3  -3   90.95    3.58
   3   3  -3   91.76    5.35
   3   3  -2  236.10    7.78
   3   3  -2  248.25    4.88
   3   3  -2  235.04    7.95
   3   3  -1    2.39    2.35
   3   3  -1    1.55    2.33
   3   3  -1    1.82    0.74
   3   3   0   79.04    4.94
   3   3   0   79.34    4.94
   3   3   1   71.03    4.99
   3   3   1   65.01    4.56
   3   3   2 3227.76   29.69
   3   3   2 3210.80   28.54
   3   3   3  746.61   15.03
   3   3   3  791.42   14.65
   3   3   4 1347.57   20.80
   3   3   4 1307.47   19.07
   3   3   5  121.01    7.24
   3   3   5  129.94    6.61
   3   3   6   17.13    3.91
   3   3   6   18.93    3.17
   3   3   7    9.11    3.55
   3   3   8   15.77    4.32
   3   3   9    9.11    4.57
   3   3  10   10.23    4.43
   3   3  11   75.48    6.84
  -3  -4  16   -0.55    6.27
  -3  -4  15    6.27    4.85
   3   4 -15   -1.02    5.45
   3   4 -14   -0.07    5.16
   3   4 -13   30.06    6.11
   3   4 -13   28.21    4.69
   3   4 -12   26.42    4.59
   3   4 -12   25.24    4.97
   3   4 -11  181.89    9.60
   3   4 -11  179.98    9.30
   3   4 -10  242.50   10.13
   3   4 -10  245.56   10.28
   3   4  -9  115.32    7.08
   3   4  -9  111.56    7.05
   3   4  -8   41.82    4.58
   3   4  -8   43.42    4.81
   3   4  -7  396.97   10.70
   3   4  -7  384.51   11.73
   3   4  -6  126.50    5.93
   3   4  -6  115.63    6.70
   3   4  -5 2513.19   22.75
   3   4  -5 2458.70   27.70
   3   4  -4  722.89   11.39
   3   4  -4  693.24   14.72
   3   4  -3 1452.49   20.66
   3   4  -3 1517.73   14.79
   3   4  -3 1441.78   20.84
   3   4  -2   10.51    1.51
   3   4  -2    8.15    3.26
   3   4  -1  309.46    9.91
   3   4  -1  297.56    9.59
   3   4   0   50.32    4.84
   3   4   0   53.79    4.61
   3   4   1   24.74    3.63
   3   4   1   23.67    3.78
   3   4   2  183.55    8.39
   3   4   2  195.06    7.88
   3   4   3  111.39    7.09
   3   4   3  120.72    6.50
   3   4   4   88.25    6.45
   3   4   4   86.68    5.58
   3   4   5   14.04    4.24
   3   4   6   95.51    7.35
   3   4   7   44.14    6.13
   3   4   8   57.58    6.34
   3   4   9   19.52    5.39
   3   4  10   -4.72    5.07
   3   5 -15   49.48    7.59
   3   5 -14  122.04    9.33
   3   5 -13   47.67    6.21
   3   5 -13   48.34    6.37
   3   5 -12   26.25    4.54
   3   5 -12   30.38    5.47
   3   5 -11    7.88    4.10
   3   5 -11    7.99    4.10
   3   5 -10  812.32   18.59
   3   5 -10  820.96   19.41
   3   5  -9   -1.90    3.55
   3   5  -9    0.00    3.28
   3   5  -8  360.45   11.19
   3   5  -8  339.57   12.09
   3   5  -7   21.25    4.15
   3   5  -7   19.53    3.69
   3   5  -6   21.48    4.18
   3   5  -6   20.98    3.25
   3   5  -5   24.46    4.30
   3   5  -5   24.19    3.11
   3   5  -4  271.60    7.52
   3   5  -4  252.51    9.80
   3   5  -3  121.31    7.11
   3   5  -3  114.32    6.91
   3   5  -2   19.32    3.91
   3   5  -2   14.82    4.09
   3   5  -1    1.78    2.79
   3   5  -1    2.41    3.53
   3   5   0  157.65    8.13
   3   5   0  158.44    7.65
   3   5   1   27.88    3.88
   3   5   1   26.19    4.41
   3   5   2  618.44   14.40
   3   5   2  608.82   15.67
   3   5   3   17.90    3.43
   3   5   3    1.53    3.51
   3   5   4 1505.16   25.97
   3   5   5   33.27    5.53
   3   5   6  357.86   13.88
   3   5   7   -0.24    4.67
   3   5   8   67.40    6.71
   3   5   9   31.63    6.24
   3   6 -15   14.75    6.17
   3   6 -14    6.51    5.34
   3   6 -13   13.07    5.12
   3   6 -13   13.91    4.89
   3   6 -12   33.09    5.42
   3   6 -12   33.40    5.91
   3   6 -11    0.10    3.86
   3   6 -11    2.56    3.50
   3   6 -10  175.25    9.15
   3   6 -10  165.09    9.88
   3   6  -9  714.28   17.06
   3   6  -9  717.68   18.87
   3   6  -8   19.46    3.94
   3   6  -8   22.51    3.95
   3   6  -7   21.48    4.54
   3   6  -7   29.90    4.10
   3   6  -6  255.32    8.82
   3   6  -6  241.26   10.62
   3   6  -5   72.55    6.24
   3   6  -4  330.71   11.78
   3   6  -3  136.17    8.05
   3   6  -3  124.87    7.55
   3   6  -2  950.03   19.66
   3   6  -2  957.40   19.32
   3   6  -1  981.10   20.33
   3   6  -1  970.60   19.19
   3   6   0  105.19    7.46
   3   6   0  117.99    7.18
   3   6   1   92.19    6.54
   3   6   1   96.84    7.31
   3   6   2    6.28    3.20
   3   6   2    5.12    3.49
   3   6   3    0.79    3.49
   3   6   4   22.63    4.75
   3   6   5   72.71    7.47
   3   6   6  167.16   10.84
   3   6   7  108.04    8.88
   3   7 -14   72.60    7.87
   3   7 -14   57.87    7.20
   3   7 -13   24.23    5.59
   3   7 -13   25.10    4.92
   3   7 -12   34.58    5.87
   3   7 -12   33.35    5.96
   3   7 -11    1.89    4.54
   3   7 -11    9.78    4.43
   3   7 -10    8.34    4.67
   3   7 -10    2.48    4.14
   3   7  -9   92.14    7.06
   3   7  -9   95.70    8.10
   3   7  -8    5.34    3.98
   3   7  -7  191.53   10.32
   3   7  -6   52.38    6.10
   3   7  -5  271.58   11.89
   3   7  -4   84.76    7.05
   3   7  -3  208.80   10.39
   3   7  -3  214.24   10.28
   3   7  -2  136.39    8.91
   3   7  -2  152.03    8.47
   3   7  -1    0.08    3.15
   3   7  -1    1.99    3.88
   3   7   0   51.18    6.18
   3   7   0   49.36    5.19
   3   7   1  174.57   10.67
   3   7   2   72.54    7.11
   3   7   3  187.99   10.85
   3   7   4   78.10    7.98
   3   7   5   16.25    4.96
   3   8 -13   23.35    6.02
   3   8 -12    5.66    5.22
   3   8 -12    2.15    5.26
   3   8 -11   -0.53    4.84
   3   8 -10   52.66    7.27
   3   8  -9   81.73    8.36
   3   8  -8  284.77   13.16
   3   8  -7  215.11   11.83
   3   8  -6   41.87    6.21
   3   8  -5  111.28    8.06
   3   8  -4  187.98   10.29
   3   8  -3    8.94    4.17
   3   8  -3    8.60    5.02
   3   8  -2   -1.52    3.74
   3   8  -2    2.58    4.46
   3   8  -1   44.79    5.66
   3   8  -1   36.05    5.60
   3   8   0   85.98    8.49
   3   8   1   40.18    6.70
   3   8   2  216.44   12.38
   3   8   3    3.00    5.72
   3   9 -10   -1.35    6.39
   3   9  -9   36.88    6.25
   3   9  -8   86.39    7.74
   3   9  -7    6.00    4.61
   3   9  -6  199.64   11.77
   3   9  -5  219.37   11.89
   3   9  -4   57.77    6.42
   3   9  -3   47.55    5.47
   3   9  -3   47.38    6.97
   3   9  -2   20.41    5.91
   3   9  -1   67.59    8.42
   3   9   0   60.71    8.27
   3  10  -6   74.65    8.35
   3  10  -5   48.99    6.54
   3  10  -4    8.94    5.95
  -4  11   0   40.19    6.22
  -4  11  -1   35.70    6.32
  -4  11  -2   19.78    5.11
  -4  11  -3    3.55    5.35
  -4  11  -4  104.03    8.23
  -4  11  -5   23.22    5.72
  -4  11  -5   24.66    4.76
  -4  11  -6   21.95    5.80
  -4  10   3   20.49    6.42
  -4  10   2   92.38    8.31
  -4  10   1    5.47    4.62
  -4  10   0   94.23    8.07
  -4  10  -1   26.67    5.08
  -4  10  -2  394.92   14.91
  -4  10  -3   31.93    5.45
  -4  10  -4  164.56   10.67
  -4  10  -4  153.60    9.39
  -4  10  -5    5.82    4.22
  -4  10  -5    3.06    4.26
  -4  10  -6   87.15    8.58
  -4  10  -6   94.89    7.41
  -4  10  -7    3.39    5.34
  -4  10  -8   14.42    5.67
  -4  10  -9   15.29    6.03
  -4   9   7   49.19    6.36
  -4   9   6   20.58    4.83
  -4   9   6   17.73    5.90
  -4   9   5  127.78    9.25
  -4   9   5  132.01    8.39
  -4   9   4   27.59    5.07
  -4   9   3    0.61    3.97
  -4   9   2   41.30    6.35
  -4   9   1  166.73    9.82
  -4   9   0   59.01    6.32
  -4   9  -1   87.17    7.51
  -4   9  -2    1.73    3.71
  -4   9  -3   11.61    5.15
  -4   9  -3   11.04    4.08
  -4   9  -4    2.76    3.41
  -4   9  -4    3.02    4.19
  -4   9  -5  101.61    8.54
  -4   9  -5  103.81    7.43
  -4   9  -6   18.88    3.60
  -4   9  -6    9.47    4.58
  -4   9  -7  196.99   11.26
  -4   9  -8   15.50    4.69
  -4   9  -9  261.91   13.00
  -4   9 -10   76.14    7.94
  -4   9 -11  146.17   10.56
  -4   8   9   10.62    5.51
  -4   8   8   23.40    5.57
  -4   8   8   21.38    5.11
  -4   8   7   68.29    7.34
  -4   8   7   66.47    6.91
  -4   8   6    6.10    4.47
  -4   8   6    4.24    4.62
  -4   8   5   61.43    6.22
  -4   8   5   60.82    5.91
  -4   8   4    1.40    3.48
  -4   8   4   -0.68    3.75
  -4   8   3  128.41    8.51
  -4   8   3  149.04    7.91
  -4   8   2   56.53    6.02
  -4   8   1  193.62    9.97
  -4   8   0  245.52   10.89
  -4   8  -1  204.40    9.82
  -4   8  -2   26.54    4.64
  -4   8  -2   21.60    4.59
  -4   8  -3    3.06    3.12
  -4   8  -3    1.08    3.58
  -4   8  -4   76.41    6.20
  -4   8  -4   60.97    6.24
  -4   8  -5  124.39    8.50
  -4   8  -5  124.81    7.56
  -4   8  -6    5.99    3.72
  -4   8  -6    1.69    3.47
  -4   8  -7   83.83    7.67
  -4   8  -7   90.43    6.54
  -4   8  -8   77.89    7.27
  -4   8  -9   98.29    8.39
  -4   8 -10   68.04    7.31
  -4   8 -11   24.05    5.89
  -4   8 -12   12.39    5.83
  -4   7  10  171.60   11.18
  -4   7   9   91.82    8.23
  -4   7   9   88.06    8.34
  -4   7   8  163.85   10.10
  -4   7   8  160.06    9.95
  -4   7   7   71.25    6.74
  -4   7   7   64.20    6.79
  -4   7   6  592.84   17.25
  -4   7   6  609.89   16.46
  -4   7   5  135.63    7.88
  -4   7   5  126.63    8.51
  -4   7   4  346.53   12.88
  -4   7   4  356.87   11.46
  -4   7   3   77.54    5.54
  -4   7   3   77.75    6.49
  -4   7   2 2287.55   25.11
  -4   7   2 2235.46   30.36
  -4   7   1  128.27    6.04
  -4   7   1  119.58    7.65
  -4   7   0  216.30    9.69
  -4   7  -1   36.12    4.54
  -4   7  -2   55.65    5.86
  -4   7  -2   56.22    5.41
  -4   7  -3  280.81   11.04
  -4   7  -3  296.56   10.62
  -4   7  -4  224.17    9.22
  -4   7  -4  222.93   10.05
  -4   7  -5   68.82    6.45
  -4   7  -5   67.52    5.51
  -4   7  -6  505.13   15.26
  -4   7  -6  507.01   13.54
  -4   7  -7   32.02    5.00
  -4   7  -7   33.78    4.52
  -4   7  -8   43.09    5.62
  -4   7  -8   52.74    5.08
  -4   7  -9   -6.18    3.79
  -4   7 -10   17.94    4.57
  -4   7 -11    7.97    4.90
  -4   7 -12    3.90    5.30
  -4   7 -13    6.96    6.27
  -4   6  11   34.01    7.12
  -4   6  10   -0.97    4.28
  -4   6  10    0.71    4.84
  -4   6   9  148.00    9.13
  -4   6   9  146.54    9.44
  -4   6   8   -1.48    3.78
  -4   6   8    1.22    3.64
  -4   6   7  178.25    9.37
  -4   6   7  194.13    9.55
  -4   6   6   42.03    5.24
  -4   6   6   37.98    4.70
  -4   6   5  516.72   14.53
  -4   6   5  525.73   13.67
  -4   6   4   56.76    5.57
  -4   6   4   67.55    5.20
  -4   6   3  732.81   16.50
  -4   6   3  749.16   14.15
  -4   6   2  631.66   15.18
  -4   6   2  644.21   12.31
  -4   6   1    1.83    1.93
  -4   6   1    1.84    3.02
  -4   6   0  314.48    7.32
  -4   6   0  311.30   10.53
  -4   6  -1  124.84    7.22
  -4   6  -1  127.74    6.94
  -4   6  -2   12.14    3.58
  -4   6  -2   10.37    3.58
  -4   6  -3    2.78    2.91
  -4   6  -3    1.06    3.29
  -4   6  -4   -1.81    3.06
  -4   6  -4    1.36    2.61
  -4   6  -5  121.41    7.51
  -4   6  -5  118.13    6.64
  -4   6  -6    3.29    3.34
  -4   6  -6    0.48    2.89
  -4   6  -7 1021.11   18.43
  -4   6  -7  973.31   20.26
  -4   6  -8   16.74    3.27
  -4   6  -8   18.88    4.25
  -4   6  -9  172.45    9.66
  -4   6 -10   -1.14    3.62
  -4   6 -11   90.69    8.02
  -4   6 -12   56.80    6.31
  -4   6 -13   37.79    5.45
  -4   5  12    4.24    5.78
   4  -5 -12   11.03    5.62
  -4   5  11    3.51    4.56
  -4   5  10  214.96   10.21
  -4   5  10  211.79   11.01
  -4   5   9    0.12    3.79
  -4   5   9   -1.41    3.33
  -4   5   8  886.26   18.99
  -4   5   8  891.88   19.68
  -4   5   7  139.80    7.71
  -4   5   7  138.93    7.91
  -4   5   6   93.45    6.36
  -4   5   6   93.97    6.38
  -4   5   5   22.02    3.92
  -4   5   5   25.19    3.77
  -4   5   4  531.46   13.29
  -4   5   4  531.53   11.96
  -4   5   3 1701.82   19.60
  -4   5   3 1682.06   22.92
  -4   5   2  593.94   10.77
  -4   5   2  575.29   13.31
  -4   5   1  658.69   10.13
  -4   5   1  651.29   13.93
  -4   5   0   73.71    3.23
  -4   5   0   69.24    5.00
  -4   5  -1  191.03    7.73
  -4   5  -1  197.30    7.83
  -4   5  -2  124.01    6.58
  -4   5  -2  130.55    6.45
  -4   5  -3  336.53   10.33
  -4   5  -3  347.16   10.13
  -4   5  -4   11.18    2.97
  -4   5  -4   12.54    3.10
  -4   5  -5  447.54   11.65
  -4   5  -5  464.52   12.49
  -4   5  -6  232.51    8.70
  -4   5  -6  218.20    9.11
  -4   5  -7  652.40   14.51
  -4   5  -7  648.43   15.78
  -4   5  -8    1.35    2.55
  -4   5  -8    3.76    3.34
  -4   5  -9  424.77   12.31
  -4   5  -9  385.51   13.08
  -4   5 -10    7.18    3.47
  -4   5 -11    8.59    4.25
  -4   5 -12  121.33    8.71
  -4   5 -13    2.91    5.51
  -4   5 -14   -0.72    6.25
  -4   4  13    9.20    5.96
   4  -4 -13    2.36    6.08
  -4   4  12    5.87    4.96
   4  -4 -12    2.51    5.56
  -4   4  11    1.55    4.74
   4  -4 -11    9.94    4.90
  -4   4  10   27.63    5.51
  -4   4   9   -1.29    4.00
  -4   4   9    0.71    2.95
  -4   4   8   92.80    6.03
  -4   4   8   80.53    6.54
  -4   4   7   57.53    4.87
  -4   4   7   54.75    5.36
  -4   4   6  193.90    8.00
  -4   4   6  192.69    8.01
  -4   4   5  118.57    6.34
  -4   4   5  112.32    6.01
  -4   4   4  158.79    6.98
  -4   4   4  145.77    6.24
   4  -4  -3  725.70    9.00
  -4   4   3  704.39   11.69
  -4   4   3  709.40   13.83
  -4   4   2  165.80    5.35
  -4   4   2  157.17    6.67
  -4   4   1 1988.18   15.64
  -4   4   1 1960.43   22.05
  -4   4   0  243.18    4.71
  -4   4   0  236.78    7.90
  -4   4  -1 1230.71   17.43
  -4   4  -1 1199.39   17.23
  -4   4  -1 1211.39    7.51
  -4   4  -2    5.78    2.54
  -4   4  -2    3.72    2.53
  -4   4  -3  232.27    7.99
  -4   4  -3  227.51    7.86
  -4   4  -4   11.32    3.09
  -4   4  -4   13.76    3.03
  -4   4  -5  117.59    6.22
  -4   4  -5  115.44    6.19
  -4   4  -6  345.63   10.40
  -4   4  -6  351.30   10.70
  -4   4  -7 1101.67   18.46
  -4   4  -7 1092.47   19.12
  -4   4  -8 1758.19   24.04
  -4   4  -8 1747.76   25.09
  -4   4  -9  211.65    8.84
  -4   4  -9  212.03    9.40
  -4   4 -10   66.12    5.43
  -4   4 -10   55.01    5.65
  -4   4 -11   44.69    5.42
  -4   4 -12    9.49    4.56
   4  -3 -14  122.34   10.07
  -4   3  14  119.67    9.54
   4  -3 -13  119.79    9.65
  -4   3  13  131.56   10.01
  -4   3  12    0.37    3.92
   4  -3 -12    2.10    4.77
  -4   3  11    1.62    4.49
   4  -3 -11    2.40    4.26
  -4   3  10   19.45    4.63
  -4   3   9   68.35    4.96
  -4   3   9   73.39    6.34
  -4   3   8  101.36    5.67
  -4   3   8   96.76    6.79
  -4   3   7   34.67    3.56
  -4   3   7   29.39    4.41
  -4   3   6   64.82    4.39
  -4   3   6   75.83    5.24
  -4   3   5  460.97   10.67
  -4   3   5  443.36   10.54
  -4   3   4 1174.69   16.48
  -4   3   4 1189.36   15.70
   4  -3  -4 1213.09   11.02
   4  -3  -3   97.35    3.64
  -4   3   3  116.15    4.79
  -4   3   3   96.33    5.03
   4  -3  -2   21.07    2.18
  -4   3   2   22.25    2.29
  -4   3   2   21.47    2.77
  -4   3   1 1659.47   13.21
  -4   3   1 1628.31   18.81
  -4   3   0 1319.67   16.94
  -4   3   0 1360.83    9.69
  -4   3  -1   12.42    2.66
  -4   3  -1   12.69    2.37
  -4   3  -2  402.38    9.82
  -4   3  -2  415.23    9.33
  -4   3  -3   90.41    5.18
  -4   3  -3   85.90    4.66
  -4   3  -4  845.15   14.86
  -4   3  -4  878.44   14.13
  -4   3  -5  540.00   12.32
  -4   3  -5  552.12   11.78
  -4   3  -6   10.31    3.26
  -4   3  -6    8.91    2.95
  -4   3  -7   94.38    5.64
  -4   3  -7   96.70    6.11
  -4   3  -8    8.45    3.25
  -4   3  -8   10.38    3.33
  -4   3  -9   26.27    3.96
  -4   3  -9   24.91    4.11
  -4   3 -10    5.04    3.27
  -4   3 -10    4.18    2.91
  -4   3 -11   19.39    4.00
  -4   2  14   12.29    5.33
   4  -2 -14    8.18    5.15
  -4   2  13   -2.10    4.49
   4  -2 -13    1.40    4.34
   4  -2 -12  236.07   12.23
  -4   2  12  232.25   11.69
   4  -2 -11   93.78    8.08
  -4   2  11  100.30    7.79
  -4   2  10   18.45    4.95
   4  -2 -10   14.83    4.74
  -4   2   9   38.21    5.34
  -4   2   8    4.03    3.30
  -4   2   8    5.44    2.04
  -4   2   7   18.02    2.74
  -4   2   7   20.52    3.82
  -4   2   6  353.80    8.58
  -4   2   6  368.95   10.10
  -4   2   5   55.79    3.70
  -4   2   5   58.79    4.38
   4  -2  -5   57.58    2.77
  -4   2   4 2972.29   23.61
  -4   2   4 2954.58   23.80
   4  -2  -4 2977.32   19.45
   4  -2  -3  236.98    5.83
  -4   2   3  240.36    6.79
   4  -2  -2  366.97    7.71
  -4   2   2  349.37    8.21
   4  -2  -1    5.39    1.86
  -4   2   1    5.60    2.25
   4  -2   0  717.83   11.72
  -4   2   0  697.32   11.95
  -4   2  -1    0.85    2.17
  -4   2  -1    2.09    1.46
  -4   2  -2  929.83   12.30
  -4   2  -2  933.75   14.55
   4  -2   3  187.99    3.56
  -4   2  -3  184.95    5.73
  -4   2  -3  190.59    7.16
  -4   2  -4  252.63    7.02
   4  -2   4  252.90    4.71
  -4   2  -4  249.08    8.36
  -4   2  -5  609.71   13.36
  -4   2  -5  588.85   11.18
  -4   2  -6  129.00    5.83
  -4   2  -6  123.48    6.79
  -4   2  -7  255.44    8.43
  -4   2  -7  247.89    9.39
  -4   2  -8  100.09    5.85
  -4   2  -8  102.69    6.72
  -4   2  -9  147.43    8.00
  -4   2 -10    2.25    3.14
  -4   2 -11   57.24    5.67
   4  -1 -15   49.66    6.72
  -4   1  15   57.01    7.41
   4  -1 -14  249.33   12.96
  -4   1  14  263.14   13.10
   4  -1 -13  188.40   11.10
  -4   1  13  175.24   10.63
   4  -1 -12  184.31   10.67
  -4   1  12  182.33   10.04
  -4   1  11   41.64    5.75
   4  -1 -11   43.09    5.80
   4  -1 -10  426.98   14.22
  -4   1  10  426.76   13.62
   4  -1  -9  780.53   17.97
  -4   1   9  751.47   16.90
  -4   1   8  276.55    9.88
   4  -1  -8  280.99   10.59
   4  -1  -7   15.26    2.04
  -4   1   7   19.27    2.26
  -4   1   6   25.79    2.52
   4  -1  -6   25.93    2.39
  -4   1   5 3181.66   22.31
   4  -1  -5 3228.30   22.27
   4  -1  -4   97.79    4.10
  -4   1   4   95.82    4.18
  -4   1   3 1136.96   13.59
   4  -1  -3 1137.45   13.65
   4  -1  -2  238.83    6.60
  -4   1   2  243.06    6.58
   4  -1  -1   24.83    2.80
  -4   1   1   27.44    2.72
   4  -1   0    9.66    2.19
  -4   1   0    8.50    2.35
   4  -1   1 1744.61   19.52
  -4   1  -1 1755.17   19.39
   4  -1   2  996.16   15.43
  -4   1  -2 1018.22   11.13
   4  -1   2 1037.50   10.63
  -4   1  -2  989.37   15.28
  -4   1  -3    7.89    2.68
  -4   1  -3    6.15    1.31
   4  -1   3    7.30    1.40
  -4   1  -4   81.92    3.77
   4  -1   4   81.29    3.58
  -4   1  -5  479.00    9.24
   4  -1   5  468.74    8.86
  -4   1  -6   94.35    4.62
   4  -1   6   97.29    4.60
  -4   0  15   -3.91    5.77
   4   0 -15   11.03    5.84
  -4   0  14   32.55    6.46
   4   0 -14   28.52    5.65
  -4   0  13   42.84    6.55
   4   0 -13   46.96    6.89
  -4   0  12    4.30    4.06
   4   0 -12    5.60    4.83
   4   0 -11  246.53   11.29
  -4   0  11  249.39   11.07
   4   0 -10  479.63   14.55
  -4   0  10  486.20   14.23
   4   0  -9  230.39    9.78
   4   0  -8  513.96   13.43
   4   0  -8  507.14   10.35
   4   0  -7   10.89    2.19
   4   0  -7   11.18    3.33
   4   0  -6   37.55    3.92
  -4   0   6   29.11    2.28
   4   0  -6   34.73    3.13
  -4   0   5  265.63    5.98
   4   0  -5  263.68    7.30
  -4   0   4  844.89   10.88
   4   0  -4  841.25   12.69
  -4   0   3    1.08    1.53
   4   0  -3    2.29    1.90
  -4   0   2 1430.78   15.43
   4   0  -2 1419.93   16.74
   4   0  -1    5.77    2.31
  -4   0   1    4.62    1.89
   4   0   0   37.07    3.56
   4   0   1   62.45    4.50
   4   0   1   70.11    3.46
  -4   0  -2   15.22    1.28
   4   0   2   17.51    3.25
   4   0   2   14.98    2.05
   4   0   3   29.80    3.64
  -4   0  -3   26.54    1.82
   4   0   3   27.51    2.73
   4   0   4   16.79    2.31
   4   0   4   14.93    3.53
   4   0   5  279.97    9.71
   4   0   5  275.38    7.93
   4   0   6  399.96   11.88
   4   0   6  403.19   10.05
   4   0   7  517.95   13.98
   4   0   7  519.80   12.03
   4   0   8   70.29    5.99
   4   0   8   75.58    5.28
   4   0   9   51.95    5.39
   4   0  10   11.13    3.68
   4   1 -15   96.10    9.42
  -4  -1  15   98.40    9.05
   4   1 -14  185.93   11.26
  -4  -1  14  205.83   11.48
   4   1 -13   89.47    8.16
  -4  -1  13   89.57    7.58
   4   1 -12   35.17    5.86
  -4  -1  12   44.83    6.08
   4   1 -11   94.70    7.43
   4   1 -10    4.87    2.72
   4   1 -10    3.91    3.89
   4   1  -9  299.09   10.82
   4   1  -9  297.18    9.04
   4   1  -8    4.49    2.30
   4   1  -8    3.03    3.13
   4   1  -7   14.17    2.74
   4   1  -7   13.43    3.13
  -4  -1   6  580.52    7.75
   4   1  -6  567.60   11.76
   4   1  -6  578.03   11.78
  -4  -1   5  395.08    7.01
   4   1  -5  385.87    8.97
   4   1  -5  396.02    9.68
  -4  -1   4  210.74    5.58
   4   1  -4  210.92    6.10
   4   1  -4  207.78    7.15
   4   1  -3 1835.42   15.70
  -4  -1   3 1908.39   17.40
   4   1  -3 1835.67   20.29
   4   1  -2  231.71    4.83
   4   1  -2  221.91    7.33
   4   1  -1  635.19    6.15
   4   1  -1  642.80   12.41
   4   1   0  334.13    8.14
   4   1   0  329.47    9.10
   4   1   1   21.96    3.25
   4   1   1   20.60    2.70
   4   1   2   -0.02    2.43
   4   1   2   -0.47    2.01
   4   1   3  479.03   11.98
   4   1   3  478.43   10.41
   4   1   4   72.46    5.47
   4   1   4   64.83    4.53
   4   1   5  219.09    8.94
   4   1   5  222.69    7.94
   4   1   6  354.02   11.44
   4   1   6  344.46   10.35
   4   1   7  366.45   11.99
   4   1   7  379.94   11.36
   4   1   8   33.20    4.50
   4   1   8   36.64    4.52
   4   1   9    9.85    3.48
   4   1   9    6.58    3.61
  -4  -2  15   11.61    5.24
   4   2 -15   11.59    5.67
   4   2 -14  308.24   14.02
  -4  -2  14  323.04   13.90
  -4  -2  13    6.68    4.32
   4   2 -13   11.21    4.26
   4   2 -12  137.98    9.21
   4   2 -11   25.52    4.53
   4   2 -11   34.02    4.13
   4   2 -10   10.27    3.08
   4   2 -10   11.80    3.81
   4   2  -9   10.93    2.98
   4   2  -9    9.71    3.38
   4   2  -8  922.07   16.76
   4   2  -8  909.87   16.88
   4   2  -7   46.04    4.35
   4   2  -7   38.43    4.11
   4   2  -6 1042.17   15.57
   4   2  -6 1050.91   17.13
  -4  -2   5  496.56    8.24
   4   2  -5  509.51   10.00
   4   2  -5  499.53   11.86
   4   2  -4  901.45   11.86
   4   2  -4  883.34   15.51
   4   2  -3    6.79    2.65
   4   2  -3    6.07    1.53
   4   2  -2  715.92    7.51
   4   2  -2  688.94   13.52
   4   2  -1 1965.69   21.35
   4   2  -1 1874.77   22.06
   4   2   0  674.99   12.86
   4   2   0  661.76   13.52
   4   2   1  116.97    5.74
   4   2   1  113.34    6.25
   4   2   2   82.95    5.15
   4   2   2   86.33    5.66
   4   2   3  474.59   12.18
   4   2   3  493.43   11.93
   4   2   4  958.72   17.52
   4   2   4  972.06   17.17
   4   2   5  611.49   14.56
   4   2   5  622.73   14.41
   4   2   6  516.57   13.86
   4   2   6  528.01   13.75
   4   2   7  183.22    8.81
   4   2   7  180.61    8.74
   4   2   8   61.65    5.92
   4   2   9   68.61    6.00
   4   2  10    6.39    4.92
  -4  -3  15   21.09    5.67
   4   3 -15   19.14    5.57
   4   3 -14   65.61    7.20
   4   3 -13    4.87    4.13
   4   3 -12  149.87    9.23
   4   3 -12  175.18    8.99
   4   3 -11   56.46    5.85
   4   3 -11   60.51    5.67
   4   3 -10  263.82   10.72
   4   3 -10  274.57   10.52
   4   3  -9   41.24    4.87
   4   3  -9   39.03    4.64
   4   3  -8   26.85    4.24
   4   3  -8   23.44    3.90
   4   3  -7  162.72    7.10
   4   3  -7  156.43    7.60
   4   3  -6  930.95   14.79
   4   3  -6  930.11   17.43
   4   3  -5 1505.24   17.05
   4   3  -5 1495.98   21.89
   4   3  -4 1185.79   13.60
   4   3  -4 1164.46   19.16
   4   3  -3  415.21    6.97
   4   3  -3  395.00   11.28
   4   3  -2   14.22    3.56
   4   3  -2   12.25    3.23
   4   3  -1  996.72   16.95
   4   3  -1 1036.32   17.78
   4   3   0   20.18    3.60
   4   3   0   20.41    3.73
   4   3   1   75.91    5.60
   4   3   1   80.85    5.81
   4   3   2    9.43    3.40
   4   3   2    9.01    3.33
   4   3   3  321.24   10.67
   4   3   3  298.88   10.24
   4   3   4  163.03    8.08
   4   3   4  147.56    7.51
   4   3   5  235.28    9.85
   4   3   5  239.15    9.59
   4   3   6   38.36    5.17
   4   3   6   41.48    4.94
   4   3   7   -0.03    3.61
   4   3   8  190.83   10.10
   4   3   9   72.60    6.98
   4   3  10    1.47    4.96
   4   4 -15   12.88    5.52
   4   4 -14    0.33    4.56
   4   4 -14   -1.74    4.81
   4   4 -13   70.34    6.97
   4   4 -13   73.65    6.69
   4   4 -12    2.92    3.84
   4   4 -12    3.22    3.76
   4   4 -11   33.66    5.04
   4   4 -11   22.18    4.60
   4   4 -10  259.97   10.56
   4   4 -10  277.99   11.20
   4   4  -9  138.24    7.48
   4   4  -9  130.44    7.87
   4   4  -8   23.72    4.46
   4   4  -8   26.51    3.64
   4   4  -7   35.07    4.08
   4   4  -7   34.39    4.81
   4   4  -6  250.53    7.94
   4   4  -6  235.48    9.72
   4   4  -5  494.28   10.02
   4   4  -5  469.20   13.23
   4   4  -4    6.24    3.43
   4   4  -3  140.87    7.68
   4   4  -2  117.05    6.93
   4   4  -2  107.98    6.78
   4   4  -1   38.65    4.80
   4   4  -1   34.25    4.48
   4   4   0  101.32    7.24
   4   4   0   86.83    6.16
   4   4   1  204.43    9.06
   4   4   1  207.88    8.99
   4   4   2   24.45    3.91
   4   4   2   20.08    4.07
   4   4   3  327.81   11.80
   4   4   3  326.21   11.17
   4   4   4  126.60    8.16
   4   4   4  130.93    7.61
   4   4   5  475.63   15.05
   4   4   5  473.57   13.59
   4   4   6   97.75    7.61
   4   4   7   91.19    7.53
   4   4   8   20.04    5.05
   4   4   9   12.57    5.45
   4   5 -15  124.86   10.19
   4   5 -14    4.17    5.43
   4   5 -14   -0.04    5.16
   4   5 -13  193.58   11.21
   4   5 -13  187.04   10.73
   4   5 -12   31.25    5.55
   4   5 -12   24.17    4.93
   4   5 -11  269.41   11.46
   4   5 -11  264.92   12.01
   4   5 -10   83.44    6.30
   4   5 -10   94.55    7.65
   4   5  -9  120.04    7.39
   4   5  -9  121.40    8.07
   4   5  -8   22.07    4.42
   4   5  -8   21.81    3.86
   4   5  -7  151.25    7.02
   4   5  -7  147.01    8.61
   4   5  -6   85.54    6.78
   4   5  -5  126.32    7.97
   4   5  -4 1370.47   23.50
   4   5  -3   16.44    4.12
   4   5  -3   15.84    4.35
   4   5  -2  227.36    9.89
   4   5  -2  215.75    9.61
   4   5  -1    3.28    3.34
   4   5  -1    4.69    3.58
   4   5   0   22.94    4.41
   4   5   0   24.27    4.39
   4   5   1   83.33    6.92
   4   5   1   85.44    6.45
   4   5   2   72.44    6.72
   4   5   2   73.64    6.36
   4   5   3    2.42    3.19
   4   5   3    0.17    3.56
   4   5   4  188.79   10.32
   4   5   5   68.91    6.97
   4   5   6    3.43    4.73
   4   5   7   -1.26    4.88
   4   5   8  241.92   12.69
   4   6 -15  -10.00    6.73
   4   6 -14  323.11   14.74
   4   6 -14  328.42   14.76
   4   6 -13  225.19   11.74
   4   6 -13  247.26   12.73
   4   6 -12   45.77    6.89
   4   6 -12   43.52    5.52
   4   6 -11  105.51    7.84
   4   6 -11  128.62    8.22
   4   6 -10    1.43    3.91
   4   6 -10    3.25    3.75
   4   6  -9    0.55    3.52
   4   6  -8   72.39    7.01
   4   6  -7   23.00    4.75
   4   6  -6   41.05    5.68
   4   6  -5   39.17    5.43
   4   6  -4  120.80    8.08
   4   6  -3  213.14   10.41
   4   6  -3  208.30   10.11
   4   6  -2   47.03    5.92
   4   6  -2   48.68    5.59
   4   6  -1   80.80    6.81
   4   6  -1   91.12    6.93
   4   6   0  123.96    8.46
   4   6   0  125.58    7.98
   4   6   1   55.08    6.21
   4   6   1   54.36    6.06
   4   6   2   91.20    7.78
   4   6   2  105.91    7.43
   4   6   3  237.92   12.00
   4   6   4  273.48   12.88
   4   6   5  522.73   18.01
   4   6   6   -4.22    6.19
   4   7 -14   -0.82    6.71
   4   7 -13   14.58    6.10
   4   7 -13    7.68    5.59
   4   7 -12   18.57    5.21
   4   7 -11   20.16    5.55
   4   7 -10    5.50    5.06
   4   7  -9    4.60    4.44
   4   7  -8   64.56    7.11
   4   7  -7  100.92    8.26
   4   7  -6   -0.57    4.09
   4   7  -5  212.66   10.94
   4   7  -4  101.59    7.97
   4   7  -3  137.57    9.41
   4   7  -3  129.69    8.90
   4   7  -2   14.10    4.32
   4   7  -2   15.43    5.30
   4   7  -1   42.31    5.46
   4   7  -1   44.52    6.46
   4   7   0   41.87    5.57
   4   7   0   46.54    6.01
   4   7   1   -2.97    4.58
   4   7   2   23.47    5.61
   4   7   3   10.75    4.91
   4   7   4   20.85    6.23
   4   8 -11   12.74    6.00
   4   8 -10    5.78    5.07
   4   8  -9   45.56    6.76
   4   8  -8   39.08    6.61
   4   8  -7   -1.26    4.40
   4   8  -6    6.51    4.36
   4   8  -5    0.66    4.49
   4   8  -4   14.60    5.00
   4   8  -3  106.06    9.07
   4   8  -3  120.35    8.91
   4   8  -2    3.90    4.77
   4   8  -2    3.46    5.16
   4   8  -1    4.52    4.99
   4   8  -1    1.11    4.60
   4   8   0   19.00    5.73
   4   8   1   93.88    8.22
   4   9  -7   59.76    7.94
   4   9  -6   58.48    7.45
   4   9  -5  114.69    8.83
   4   9  -4   34.64    5.40
   4   9  -3   50.06    6.04
  -5  11  -1   85.31    8.74
  -5  11  -2   44.35    6.72
  -5  11  -3   -6.64    5.20
  -5  11  -4  104.18    8.43
  -5  11  -5    7.42    5.66
  -5  10   3   -2.73    5.57
  -5  10   2   25.88    5.93
  -5  10   1  162.86   10.72
  -5  10   0   28.33    4.88
  -5  10  -1    6.22    4.55
  -5  10  -2  135.93    9.40
  -5  10  -3   63.55    7.00
  -5  10  -4    5.40    4.69
  -5  10  -4    3.93    4.33
  -5  10  -5   51.95    7.77
  -5  10  -5   63.02    6.41
  -5  10  -6  177.19   11.54
  -5  10  -6  188.76   10.15
  -5  10  -7   41.56    6.22
  -5  10  -8  356.44   15.89
  -5   9   6   87.51    8.22
  -5   9   5    2.98    4.44
  -5   9   4  135.99    9.98
  -5   9   3   15.74    4.48
  -5   9   2  201.26   11.18
  -5   9   1    4.67    4.04
  -5   9   0    4.58    3.76
  -5   9  -1   38.46    5.83
  -5   9  -2   12.43    3.95
  -5   9  -3    2.25    3.95
  -5   9  -3    1.33    5.59
  -5   9  -4    3.24    4.02
  -5   9  -4    0.14    4.44
  -5   9  -5   71.41    6.87
  -5   9  -5   70.40    6.76
  -5   9  -6   71.26    7.01
  -5   9  -6   80.26    6.82
  -5   9  -7   16.70    4.09
  -5   9  -7   14.79    5.78
  -5   9  -8  108.02    8.86
  -5   9  -9   28.11    5.03
  -5   9 -10   13.24    5.93
  -5   8   9  159.54   10.20
  -5   8   9    9.45    6.03
  -5   8   8   11.33    5.52
  -5   8   8    8.60    5.54
  -5   8   7   68.83    7.08
  -5   8   7   63.11    6.48
  -5   8   6   57.38    6.08
  -5   8   6   52.04    6.50
  -5   8   5  222.10   11.48
  -5   8   4  346.86   13.87
  -5   8   3  285.96   12.58
  -5   8   2   62.05    6.22
  -5   8   1   12.36    4.40
  -5   8   0    5.96    3.52
  -5   8  -1   85.46    7.00
  -5   8  -2    1.80    3.58
  -5   8  -3  143.36    8.89
  -5   8  -3  147.74    8.74
  -5   8  -4   85.90    7.25
  -5   8  -4   93.93    7.07
  -5   8  -5  559.03   17.13
  -5   8  -5  547.00   15.72
  -5   8  -6  102.02    8.18
  -5   8  -6  101.20    7.18
  -5   8  -7   50.81    6.10
  -5   8  -7   55.96    5.76
  -5   8  -8  150.41    9.76
  -5   8  -9   24.70    4.74
  -5   8 -10   -6.63    5.36
  -5   8 -11   11.30    5.99
  -5   7  10   32.37    5.83
  -5   7  10   28.09    4.85
  -5   7   9  192.39   11.10
  -5   7   9  172.99   10.30
  -5   7   8  126.16    8.79
  -5   7   8  114.51    8.57
  -5   7   7   42.54    5.72
  -5   7   7   46.43    5.99
  -5   7   6  381.24   14.02
  -5   7   6  382.74   12.98
  -5   7   5  179.27    9.93
  -5   7   5  184.67    8.75
  -5   7   4  395.52   13.77
  -5   7   4  434.80   12.29
  -5   7   3  313.75   12.22
  -5   7   2 1266.68   23.51
  -5   7   1  137.91    8.27
  -5   7   0 1311.07   23.30
  -5   7  -1   81.88    6.64
  -5   7  -2  126.00    8.01
  -5   7  -2  129.60    7.70
  -5   7  -3   56.76    5.79
  -5   7  -3   54.63    5.32
  -5   7  -4   16.14    4.20
  -5   7  -4   24.13    4.29
  -5   7  -5   27.95    5.13
  -5   7  -5   18.48    3.79
  -5   7  -6   15.88    4.59
  -5   7  -6   15.45    3.84
  -5   7  -7    5.36    4.21
  -5   7  -7    3.17    2.99
  -5   7  -8   14.49    4.68
  -5   7  -8   11.53    3.71
  -5   7  -9   11.99    4.41
  -5   7 -10    8.55    4.32
  -5   7 -11   15.35    4.76
  -5   7 -12  199.07   11.51
  -5   6  11   77.01    8.07
  -5   6  10   52.98    6.91
  -5   6  10   44.80    5.56
  -5   6   9   38.07    6.14
  -5   6   9   33.43    5.29
  -5   6   8   48.79    5.85
  -5   6   8   49.97    5.81
  -5   6   7  186.40    9.59
  -5   6   7  196.85    9.56
  -5   6   6    4.98    3.57
  -5   6   6    3.47    3.33
  -5   6   5  630.69   16.35
  -5   6   5  608.90   14.41
  -5   6   4   51.31    5.43
  -5   6   4   49.67    4.44
  -5   6   3  818.84   14.51
  -5   6   3  798.81   17.69
  -5   6   2  196.70    9.02
  -5   6   1  122.88    7.36
  -5   6   0   15.31    3.95
  -5   6  -1   36.35    4.57
  -5   6  -2  413.76   12.72
  -5   6  -2  419.95   12.45
  -5   6  -3    1.25    3.21
  -5   6  -3    2.45    3.29
  -5   6  -4  387.82   12.52
  -5   6  -4  376.07   12.00
  -5   6  -5   20.17    4.25
  -5   6  -5   25.75    4.28
  -5   6  -6   33.74    4.89
  -5   6  -6   29.76    4.90
  -5   6  -7  863.03   18.21
  -5   6  -7  911.28   20.16
  -5   6  -8    1.79    2.93
  -5   6  -8    0.83    3.90
  -5   6  -9   23.16    4.34
  -5   6  -9   21.06    4.37
  -5   6 -10    7.93    4.31
  -5   6 -11    1.74    4.63
  -5   6 -12   57.06    6.58
  -5   6 -13   30.05    6.83
   5  -5 -12  234.85   13.44
  -5   5  12  237.84   12.73
  -5   5  11   65.71    7.54
  -5   5  10  113.32    8.32
  -5   5   9    4.30    4.26
  -5   5   9   -0.89    3.54
  -5   5   8  172.13    8.79
  -5   5   8  183.33    9.40
  -5   5   7  207.39    9.37
  -5   5   7  201.81    9.07
  -5   5   6    5.78    2.78
  -5   5   6    4.73    3.12
  -5   5   5   52.24    4.95
  -5   5   5   51.52    4.40
  -5   5   4  591.73   14.52
  -5   5   4  580.39   12.40
  -5   5   3  269.44    7.93
  -5   5   3  267.41    9.90
  -5   5   2  275.06    7.25
  -5   5   2  263.40    9.71
  -5   5   1  346.39   10.90
  -5   5   0   68.38    5.41
  -5   5  -1    4.00    3.23
  -5   5  -2  672.42   14.98
  -5   5  -2  672.37   14.82
  -5   5  -3  348.57   11.03
  -5   5  -3  368.05   11.27
  -5   5  -4  283.47   10.13
  -5   5  -4  260.84    9.77
  -5   5  -5    5.17    3.44
  -5   5  -5    4.53    3.50
  -5   5  -6 1213.37   20.97
  -5   5  -6 1233.91   21.36
  -5   5  -7  180.25    8.77
  -5   5  -7  168.52    8.42
  -5   5  -8   19.58    4.13
  -5   5  -8   12.38    3.81
  -5   5  -9  247.81   10.42
  -5   5  -9  229.96   10.47
  -5   5 -10   21.48    4.20
  -5   5 -11   78.44    6.94
   5  -4 -13  217.07   13.18
  -5   4  13  200.57   12.21
   5  -4 -12   82.74    8.44
  -5   4  12   70.54    7.68
  -5   4  11   35.67    6.14
  -5   4  10    4.36    4.35
  -5   4   9   57.19    5.07
  -5   4   9   65.42    6.54
  -5   4   8    5.19    3.51
  -5   4   8    7.26    2.96
  -5   4   7  198.34    8.38
  -5   4   7  197.84    8.76
  -5   4   6    9.90    3.04
  -5   4   6   12.98    3.42
  -5   4   5 1181.57   19.13
  -5   4   5 1191.13   18.00
  -5   4   4   93.35    5.19
  -5   4   4   98.55    6.04
   5  -4  -3 1670.32   16.72
  -5   4   3 1587.84   17.67
  -5   4   3 1586.50   21.45
   5  -4  -2  484.22    9.77
  -5   4   2  465.71    8.69
  -5   4   2  452.29   11.67
  -5   4   1  143.30    4.32
  -5   4   1  142.30    6.89
  -5   4   0  509.17   12.26
  -5   4  -1  120.97    6.59
  -5   4  -2  154.33    7.27
  -5   4  -2  159.67    6.97
  -5   4  -3  258.01    9.32
  -5   4  -3  247.14    8.59
  -5   4  -4 2476.83   28.08
  -5   4  -4 2533.13   26.90
  -5   4  -5  360.44   11.33
  -5   4  -5  358.31   10.67
  -5   4  -6 1279.91   21.33
  -5   4  -6 1288.81   20.49
  -5   4  -7  340.18   11.60
  -5   4  -7  335.55   11.12
  -5   4  -8    9.56    2.96
  -5   4  -8    6.59    3.53
  -5   4  -9   29.46    4.36
  -5   4  -9   30.97    4.37
  -5   4 -10    6.03    3.50
  -5   4 -10    4.78    3.88
  -5   3  13   26.54    5.79
   5  -3 -13   24.19    5.10
  -5   3  12   -0.24    4.36
   5  -3 -12    1.37    5.26
  -5   3  11    4.11    4.35
   5  -3 -11    2.89    4.27
  -5   3  10  144.21    8.81
  -5   3   9   10.60    4.34
  -5   3   8   40.68    3.85
  -5   3   8   35.36    4.50
  -5   3   7  211.31    7.87
  -5   3   7  223.49    9.09
  -5   3   6   52.60    4.37
  -5   3   6   51.75    4.92
  -5   3   5 1568.00   20.42
  -5   3   5 1580.91   20.18
  -5   3   4  536.18   11.00
  -5   3   4  530.84   11.82
   5  -3  -4  531.20    9.33
   5  -3  -3  141.58    5.33
  -5   3   3  146.46    5.54
  -5   3   3  145.07    6.56
  -5   3   2  487.01   11.31
   5  -3  -2  505.97   10.22
  -5   3   2  494.12    8.76
   5  -3  -1  298.97    8.28
  -5   3   1  284.58    8.79
  -5   3   1  305.01    6.11
  -5   3   0   10.93    1.37
  -5   3   0    8.15    2.84
  -5   3  -1  249.65    8.60
  -5   3  -2   33.69    4.14
  -5   3  -2   32.46    3.37
  -5   3  -3  190.11    8.12
  -5   3  -3  191.77    6.88
  -5   3  -4   30.80    4.54
  -5   3  -4   26.07    3.20
  -5   3  -5    0.85    3.53
  -5   3  -5    0.05    2.02
  -5   3  -6   -0.09    3.18
  -5   3  -6    0.62    2.47
  -5   3  -7    4.43    2.60
  -5   3  -7    1.04    3.55
  -5   3  -8  125.35    7.71
  -5   3  -9  191.50    9.39
  -5   3 -10    7.65    3.68
  -5   3 -11   74.83    6.98
   5  -2 -14   96.04    8.67
  -5   2  14   88.59    9.23
  -5   2  13   44.96    6.90
   5  -2 -13   48.61    6.50
   5  -2 -12  281.69   13.59
  -5   2  12  275.10   12.79
   5  -2 -11  293.74   13.42
  -5   2  11  277.34   12.17
   5  -2 -10   93.56    7.78
  -5   2  10  100.03    7.68
  -5   2   9   11.97    4.17
  -5   2   8   87.24    6.47
  -5   2   7   89.86    4.97
  -5   2   7   89.62    6.20
  -5   2   6   71.22    4.47
  -5   2   6   65.32    5.05
  -5   2   5  380.15    9.41
   5  -2  -5  378.63    8.22
  -5   2   4   36.25    3.47
   5  -2  -4   39.97    3.11
   5  -2  -3   61.81    3.88
  -5   2   3   59.65    4.14
   5  -2  -2   75.03    4.51
  -5   2   2   74.20    4.70
   5  -2  -1 1054.84   15.63
  -5   2   1 1055.56   15.97
   5  -2   0  750.49   13.81
  -5   2   0  754.20   14.00
   5  -2   1  186.18    7.46
  -5   2  -1  178.65    7.31
   5  -2   2  749.14   14.87
  -5   2  -2  756.67   11.68
  -5   2  -2  735.55   14.61
  -5   2  -3    3.55    1.97
  -5   2  -3    1.23    3.01
  -5   2  -4  292.43    7.82
  -5   2  -4  285.13    9.95
  -5   2  -5  293.87    8.21
  -5   2  -5  297.34   10.63
  -5   2  -6 1258.09   21.63
  -5   2  -7    0.15    3.47
  -5   2  -8  644.46   16.94
  -5   2  -9   35.25    5.49
  -5   2 -10   12.03    4.13
  -5   2 -11    0.33    4.54
  -5   1  14   -0.19    5.48
   5  -1 -14   -1.69    5.36
   5  -1 -13  144.15   10.27
  -5   1  13  144.11   10.04
  -5   1  12    7.32    4.77
   5  -1 -12    6.01    4.85
  -5   1  11   29.58    5.63
   5  -1 -11   27.18    5.52
   5  -1 -10   54.20    6.34
  -5   1  10   48.24    6.15
   5  -1  -9  583.40   15.96
  -5   1   9  584.60   15.29
  -5   1   7  336.13    8.17
   5  -1  -7  327.36    8.35
  -5   1   6   77.84    4.23
   5  -1  -6   70.30    4.19
   5  -1  -5  526.67   10.55
  -5   1   5  528.66   10.18
  -5   1   4  225.52    6.91
   5  -1  -4  222.15    7.10
  -5   1   3 3919.09   28.53
   5  -1  -3 3936.63   29.38
   5  -1  -2  217.87    7.35
  -5   1   2  222.74    7.39
   5  -1  -1   45.83    4.18
  -5   1   1   47.74    4.01
   5  -1   0   95.12    5.51
  -5   1   0   98.99    5.44
   5  -1   1   20.21    3.46
  -5   1  -1   18.50    3.27
   5  -1   2  121.44    6.60
   5  -1   2  124.44    4.38
  -5   1  -2  127.58    6.74
  -5   1  -3   13.99    3.81
   5  -1   3   14.04    3.74
   5  -1   3   11.83    1.95
   5  -1   4  252.86    9.89
  -5   1  -4  242.74    9.45
   5  -1   5   26.19    4.48
   5  -1   6   52.81    5.82
   5  -1   7  148.87    8.62
   5  -1   8  128.63    8.46
   5  -1   9  271.85   12.00
   5  -1  10  114.63    8.60
   5  -1  11  117.27    8.27
  -5   1 -11  105.78    8.66
   5   0 -15  168.99   12.41
  -5   0  15  187.45   11.70
   5   0 -14  284.95   14.36
  -5   0  14  290.78   13.83
   5   0 -13  535.84   18.06
  -5   0  13  545.35   17.87
   5   0 -12  123.80    9.09
  -5   0  12  139.56    9.34
  -5   0  11    3.97    4.65
   5   0 -11    3.87    4.00
   5   0 -10  336.01   12.53
   5   0  -9   23.45    4.21
   5   0  -8   13.93    2.67
   5   0  -8   12.20    3.77
   5   0  -7   55.83    5.15
   5   0  -7   55.68    4.08
   5   0  -6    0.16    2.22
   5   0  -6    0.72    2.74
  -5   0   6    0.36    1.76
  -5   0   5  211.15    6.27
   5   0  -5  196.80    7.15
  -5   0   4  124.79    5.19
   5   0  -4  118.69    5.77
  -5   0   3  668.91   11.78
   5   0  -3  658.04   12.96
   5   0  -2   20.81    3.33
  -5   0   2   24.62    3.20
   5   0  -1  365.68   10.06
  -5   0   1  385.59    9.89
   5   0   0   82.06    5.45
  -5   0   0   81.92    5.30
   5   0   1  251.50    9.14
   5   0   1  263.37    7.21
   5   0   2  600.32   14.10
   5   0   2  638.15   11.28
   5   0   3    0.19    3.20
   5   0   3    2.22    1.91
   5   0   4  231.04    9.60
   5   0   4  236.80    7.47
   5   0   5  667.53   16.07
   5   0   5  691.43   13.12
   5   0   6  163.19    8.73
   5   0   7    2.35    3.80
   5   0   8    3.66    4.02
   5   0   9   37.79    5.27
   5   0  10   -0.29    4.27
  -5  -1  15   27.30    5.83
   5   1 -15   23.70    5.70
  -5  -1  14    3.54    5.02
   5   1 -14    0.74    5.09
  -5  -1  13    2.22    4.81
   5   1 -13    7.83    5.29
   5   1 -12   17.27    4.90
   5   1 -11   10.38    4.09
   5   1 -10  175.91    9.16
   5   1 -10  162.20    7.50
   5   1  -9   58.13    5.51
   5   1  -9   50.75    4.53
   5   1  -8  287.38   10.19
   5   1  -8  312.23    9.81
   5   1  -7  327.65   10.07
   5   1  -7  326.82    9.90
   5   1  -6  255.78    8.29
   5   1  -6  255.90    8.93
  -5  -1   5  354.95    8.03
   5   1  -5  331.43    8.60
   5   1  -5  342.55   10.06
  -5  -1   4  385.96    8.76
   5   1  -4  375.05    8.30
   5   1  -4  385.36   10.60
   5   1  -3  903.50   11.32
  -5  -1   3  889.62   13.91
   5   1  -3  856.60   15.59
   5   1  -2  295.85    5.59
  -5  -1   2  295.94    8.55
   5   1  -2  296.63    9.50
   5   1  -1   10.03    3.35
   5   1   0  124.77    5.86
   5   1   0  127.00    6.82
   5   1   1   12.99    3.47
   5   1   1    9.74    2.84
   5   1   2   86.00    6.14
   5   1   2   85.45    5.17
   5   1   3   31.72    4.55
   5   1   3   38.70    3.85
   5   1   4  246.25   10.11
   5   1   4  242.10    8.35
   5   1   5  274.89   10.85
   5   1   5  299.82    9.77
   5   1   6  181.89    9.22
   5   1   6  173.73    8.07
   5   1   7  154.15    8.81
   5   1   8    5.71    3.73
   5   1   9   52.48    5.98
   5   2 -15  271.42   14.00
  -5  -2  15  272.99   13.57
   5   2 -14  170.40   10.79
  -5  -2  14  142.44   10.10
   5   2 -13   45.88    6.28
   5   2 -12   92.18    8.08
   5   2 -11   21.92    3.78
   5   2 -11   26.19    5.03
   5   2 -10    9.90    3.21
   5   2 -10    9.44    3.63
   5   2  -9   91.92    6.39
   5   2  -9   69.88    5.70
   5   2  -8   28.81    3.94
   5   2  -8   32.33    4.30
   5   2  -7   59.22    4.68
   5   2  -7   65.50    5.34
   5   2  -6   11.35    3.53
   5   2  -6    8.19    2.46
   5   2  -5    5.16    3.19
  -5  -2   5    7.10    2.06
   5   2  -5    4.08    2.19
   5   2  -4  634.05   10.10
  -5  -2   4  644.65   11.75
   5   2  -4  620.73   14.38
   5   2  -3  106.17    6.48
   5   2  -2  137.76    7.16
   5   2  -1  400.56   10.93
   5   2  -1  379.88   11.40
   5   2   0   15.01    3.69
   5   2   0   18.02    3.57
   5   2   1  683.37   14.21
   5   2   1  655.12   15.32
   5   2   2  868.58   16.50
   5   2   2  853.26   17.67
   5   2   3   36.65    4.37
   5   2   3   40.81    5.04
   5   2   4  149.17    8.17
   5   2   4  159.53    7.79
   5   2   5   61.22    5.80
   5   2   5   76.81    6.01
   5   2   6  628.74   16.51
   5   2   6  636.24   15.92
   5   2   7   12.68    3.85
   5   2   7   20.48    4.23
   5   3 -15   80.61    8.50
   5   3 -14   -0.81    5.32
   5   3 -13   18.81    5.23
   5   3 -12   31.00    5.06
   5   3 -12   27.18    5.02
   5   3 -11   35.81    4.95
   5   3 -11   38.13    5.53
   5   3 -10   64.94    5.92
   5   3 -10   71.86    6.09
   5   3  -9  337.87   11.39
   5   3  -9  328.68   11.84
   5   3  -8  862.99   16.70
   5   3  -8  863.36   18.42
   5   3  -7  188.54    7.57
   5   3  -7  173.26    8.67
   5   3  -6  289.28    8.49
   5   3  -6  279.65   10.64
   5   3  -5  607.54   15.25
   5   3  -4  317.75   11.20
   5   3  -3  135.26    7.56
   5   3  -2   18.15    4.07
   5   3  -1  679.89   15.19
   5   3  -1  669.18   15.90
   5   3   0 1108.32   19.50
   5   3   0 1060.37   19.90
   5   3   1   76.98    5.95
   5   3   1   79.46    6.23
   5   3   2   40.22    4.87
   5   3   2   41.13    5.14
   5   3   3   12.39    3.65
   5   3   3   13.24    3.50
   5   3   4   -0.21    3.19
   5   3   4   -0.05    3.44
   5   3   5   33.15    5.15
   5   3   5   32.11    4.91
   5   3   6   83.40    6.95
   5   3   6   84.25    6.80
   5   3   7   23.22    4.48
   5   3   8   -1.12    5.03
   5   4 -15   97.06    9.18
   5   4 -14  103.98    9.03
   5   4 -13  318.92   13.81
   5   4 -13  328.62   13.58
   5   4 -12   74.52    7.47
   5   4 -12   63.38    6.74
   5   4 -11   40.72    5.61
   5   4 -11   46.08    5.64
   5   4 -10   16.23    4.08
   5   4 -10   13.56    4.12
   5   4  -9    2.35    3.68
   5   4  -9    3.68    3.29
   5   4  -8   39.67    4.07
   5   4  -8   45.52    5.71
   5   4  -7   15.45    4.06
   5   4  -6   59.31    5.87
   5   4  -5  138.80    8.29
   5   4  -4  242.52   10.58
   5   4  -3    3.73    3.73
   5   4  -2  164.37    8.38
   5   4  -2  175.30    8.90
   5   4  -1    4.79    3.24
   5   4  -1    2.80    3.36
   5   4   0   20.64    4.32
   5   4   0   17.80    4.05
   5   4   1  336.54   12.18
   5   4   1  327.83   11.99
   5   4   2   34.13    4.92
   5   4   2   37.56    5.20
   5   4   3  162.07    9.12
   5   4   3  153.53    8.73
   5   4   4  161.59    9.04
   5   4   4  163.38    9.04
   5   4   5   13.37    4.05
   5   4   5   10.42    4.23
   5   4   6   50.59    5.75
   5   4   7   11.02    5.32
   5   4   8   23.13    5.28
   5   5 -14    3.10    5.37
   5   5 -14   -2.39    6.01
   5   5 -13   33.72    6.12
   5   5 -13   24.25    5.93
   5   5 -12  304.37   12.94
   5   5 -12  292.96   13.55
   5   5 -11   24.63    4.66
   5   5 -11   23.49    4.79
   5   5 -10   63.45    7.79
   5   5  -9  128.61    8.80
   5   5  -8   90.35    7.62
   5   5  -7  329.47   13.10
   5   5  -6  386.86   13.99
   5   5  -5  395.37   13.87
   5   5  -4  102.52    7.73
   5   5  -3    2.70    3.87
   5   5  -2   26.45    4.64
   5   5  -2   25.74    4.87
   5   5  -1    1.78    3.68
   5   5  -1    4.12    3.63
   5   5   0  110.07    7.69
   5   5   0  119.47    8.01
   5   5   1   21.30    4.35
   5   5   1   19.61    4.78
   5   5   2  407.32   14.76
   5   5   2  363.72   13.36
   5   5   3    7.53    3.90
   5   5   3    2.59    3.97
   5   5   4  189.25   10.79
   5   5   5  127.20    9.34
   5   5   6  165.38   10.69
   5   6 -14    5.39    5.82
   5   6 -14   14.97    6.30
   5   6 -13   25.35    5.40
   5   6 -12   90.45    8.11
   5   6 -11    6.89    4.56
   5   6 -10    4.10    4.70
   5   6  -9   20.56    4.79
   5   6  -8  152.03    9.59
   5   6  -7    1.05    4.38
   5   6  -6    4.35    4.34
   5   6  -5   15.60    4.87
   5   6  -4   54.71    6.70
   5   6  -3  319.06   13.07
   5   6  -2    2.57    4.14
   5   6  -2   -1.25    3.58
   5   6  -1   35.73    5.20
   5   6  -1   34.13    5.29
   5   6   0  283.23   12.80
   5   6   0  272.97   12.29
   5   6   1   88.56    7.94
   5   6   1   95.77    7.78
   5   6   2   57.29    6.79
   5   6   2   67.95    6.50
   5   6   3    0.04    5.21
   5   6   4    5.26    5.80
   5   7 -11   -4.96    5.00
   5   7 -10   -5.90    5.32
   5   7  -9   38.40    5.95
   5   7  -8  104.80    9.45
   5   7  -7  100.78    8.93
   5   7  -6  107.88    9.06
   5   7  -5   59.51    6.85
   5   7  -4  282.57   12.98
   5   7  -3   95.82    8.33
   5   7  -2   46.15    6.86
   5   7  -2   40.68    6.37
   5   7  -1   27.75    5.73
   5   7  -1   36.07    5.91
   5   7   0   65.66    6.36
   5   7   0   49.78    5.97
   5   7   1   36.53    6.06
   5   7   2   14.90    6.01
   5   8  -8  130.15   10.29
   5   8  -7   12.19    6.04
   5   8  -6  102.77    9.48
   5   8  -5    0.61    5.36
   5   8  -4   66.43    7.67
   5   8  -3   81.34    8.34
   5   8  -2   24.45    5.36
   5   8  -2   32.72    6.87
   5   8  -1   12.32    6.14
  -6  11  -3    6.83    5.33
  -6  11  -4   54.92    7.25
  -6  11  -5    7.65    5.68
  -6  11  -6  129.37    9.58
  -6  10   2    6.76    5.73
  -6  10   1   15.17    5.35
  -6  10   0  189.42   11.46
  -6  10  -1    9.57    4.60
  -6  10  -2   32.74    5.44
  -6  10  -3   77.18    7.97
  -6  10  -4   35.72    5.46
  -6  10  -5  125.09   10.01
  -6  10  -5  105.88    8.44
  -6  10  -6  221.60   11.92
  -6  10  -6  224.87   12.89
  -6  10  -7    9.05    5.56
  -6   9   5    2.31    5.40
  -6   9   4   13.82    4.54
  -6   9   3   94.74    8.46
  -6   9   2   91.32    8.11
  -6   9   1    3.33    4.24
  -6   9   0   36.14    5.92
  -6   9  -1   18.94    4.65
  -6   9  -2   -4.73    3.92
  -6   9  -3   18.39    4.41
  -6   9  -4   -2.52    3.74
  -6   9  -4    2.38    4.34
  -6   9  -5   -3.90    4.33
  -6   9  -5    4.48    4.94
  -6   9  -6    6.20    3.82
  -6   9  -6    5.92    5.24
  -6   9  -7   69.17    7.36
  -6   9  -7   83.88    7.20
  -6   9  -8   10.43    5.87
  -6   9  -9  135.13   10.06
  -6   8   8  118.79    9.27
  -6   8   7   13.03    5.18
  -6   8   6  210.76   11.64
  -6   8   5   38.89    5.58
  -6   8   4   11.16    4.92
  -6   8   3  104.49    8.27
  -6   8   2   18.93    4.31
  -6   8   1  117.20    8.70
  -6   8   0    4.80    4.35
  -6   8  -1  189.09   10.24
  -6   8  -2  221.30   11.12
  -6   8  -3    8.92    4.36
  -6   8  -3   15.64    4.48
  -6   8  -4   12.00    4.57
  -6   8  -4   22.49    5.13
  -6   8  -5  171.61   10.00
  -6   8  -5  166.36    9.69
  -6   8  -6    4.64    4.03
  -6   8  -6    5.67    3.59
  -6   8  -7  139.09    9.51
  -6   8  -7  142.95    8.86
  -6   8  -8   44.37    6.89
  -6   8  -8   50.58    5.83
  -6   8  -9   46.23    6.17
  -6   8 -10   14.99    5.37
  -6   8 -11    2.11    5.65
  -6   7  10   93.86    8.14
  -6   7   9   36.64    5.84
  -6   7   9   36.76    5.66
  -6   7   8  308.99   13.28
  -6   7   8  312.17   12.89
  -6   7   7  156.72    9.59
  -6   7   7  167.76    9.13
  -6   7   6   99.27    8.09
  -6   7   5   32.90    5.23
  -6   7   4   21.07    4.69
  -6   7   3 1122.94   23.05
  -6   7   2   47.12    5.55
  -6   7   1   10.62    3.64
  -6   7   0   31.83    5.03
  -6   7  -1   55.33    5.77
  -6   7  -2   43.20    5.52
  -6   7  -3   31.64    5.06
  -6   7  -3   30.14    4.89
  -6   7  -4  168.11    9.58
  -6   7  -4  167.05    9.12
  -6   7  -5  130.74    8.61
  -6   7  -5  140.64    8.66
  -6   7  -6   52.61    6.25
  -6   7  -6   52.81    6.17
  -6   7  -7   26.85    4.30
  -6   7  -7   26.83    4.52
  -6   7  -8  100.72    7.58
  -6   7  -8   91.77    7.68
  -6   7  -9  134.64    8.44
  -6   7  -9  132.14    9.13
  -6   7 -10   74.02    7.63
  -6   7 -11   30.67    6.09
  -6   6  11   69.16    7.39
  -6   6  10   -7.52    4.83
  -6   6   9    4.56    4.13
  -6   6   9    1.60    4.28
  -6   6   8   17.16    4.39
  -6   6   8   21.34    4.37
  -6   6   7    2.69    3.69
  -6   6   7    3.01    3.53
  -6   6   6    2.64    3.23
  -6   6   6    0.96    3.38
  -6   6   5  196.99    9.74
  -6   6   5  216.09    8.77
  -6   6   4    6.38    3.64
  -6   6   3  149.89    8.41
  -6   6   2  420.02   13.35
  -6   6   1  114.15    7.35
  -6   6   0   -2.28    3.31
  -6   6  -1  213.91    9.84
  -6   6  -2   17.60    4.08
  -6   6  -3   12.57    3.76
  -6   6  -3    8.16    3.66
  -6   6  -4   13.86    3.49
  -6   6  -4    8.74    3.92
  -6   6  -5   58.12    5.71
  -6   6  -5   48.27    5.57
  -6   6  -6  343.97   12.55
  -6   6  -6  334.51   12.37
  -6   6  -7   52.57    5.88
  -6   6  -7   46.74    5.71
  -6   6  -8   20.86    4.59
  -6   6  -8   19.09    4.40
  -6   6  -9    4.03    3.99
  -6   6  -9    5.04    4.57
  -6   6 -10    1.83    4.72
  -6   5  12    1.93    5.16
  -6   5  11  106.27    8.74
  -6   5  10   88.08    8.21
  -6   5   9    4.02    3.61
  -6   5   9    4.81    3.71
  -6   5   8  154.59    8.53
  -6   5   8  149.66    8.65
  -6   5   7   21.74    3.96
  -6   5   7   19.13    3.90
  -6   5   6  191.71    9.01
  -6   5   6  178.97    8.24
  -6   5   5   25.34    3.81
  -6   5   5   26.19    4.27
  -6   5   4 1020.90   16.36
  -6   5   4 1003.66   19.53
  -6   5   3   48.25    5.14
  -6   5   2  860.78   17.96
  -6   5   1   30.76    4.53
  -6   5   0   52.88    5.22
  -6   5  -1    4.13    3.53
  -6   5  -2   12.53    4.04
  -6   5  -2   12.82    3.28
  -6   5  -3  107.95    7.31
  -6   5  -3   96.12    6.38
  -6   5  -4   51.48    5.45
  -6   5  -4   50.41    5.07
  -6   5  -5  120.19    7.74
  -6   5  -5  113.77    7.19
  -6   5  -6  221.73   10.25
  -6   5  -6  215.45    9.52
  -6   5  -7  504.87   15.23
  -6   5  -7  476.10   14.16
  -6   5  -8   24.25    4.47
  -6   5  -8   26.83    4.62
  -6   5  -9   68.15    6.41
  -6   5 -10    3.54    4.47
  -6   4  12   14.02    5.14
   6  -4 -12   17.46    5.29
  -6   4  11   13.73    4.75
  -6   4  10   31.47    5.55
  -6   4   9    5.23    4.12
  -6   4   8   63.33    5.23
  -6   4   8   62.09    6.10
  -6   4   7   61.95    5.18
  -6   4   7   54.18    5.25
  -6   4   6   -0.30    3.07
  -6   4   6   -0.42    2.52
  -6   4   5   25.84    3.84
  -6   4   5   24.91    3.65
  -6   4   4  360.21    9.61
  -6   4   4  367.77   11.27
   6  -4  -3  772.54   13.32
  -6   4   3  742.43   12.48
  -6   4   3  758.22   15.92
   6  -4  -2   47.42    4.16
  -6   4   2   40.20    4.43
  -6   4   1  978.26   18.22
   6  -4  -1 1005.63   16.64
  -6   4   0  109.25    6.83
   6  -4   0  106.39    6.16
  -6   4  -1 1008.49   18.78
  -6   4  -2   91.78    6.61
  -6   4  -3  340.87   11.57
  -6   4  -3  334.77   10.24
  -6   4  -4  366.68   12.12
  -6   4  -4  364.40   10.94
  -6   4  -5    2.84    2.57
  -6   4  -5    2.16    3.39
  -6   4  -6    3.05    2.88
  -6   4  -6    3.06    3.85
  -6   4  -7   44.42    5.59
  -6   4  -8   96.36    7.58
  -6   4  -9   38.21    5.16
  -6   4 -10  262.70   12.31
  -6   3  13   -0.50    5.64
   6  -3 -13    4.89    5.93
   6  -3 -12   62.32    8.49
  -6   3  12   76.25    8.05
  -6   3  11    3.85    4.61
   6  -3 -11    2.57    4.81
  -6   3  10   24.78    5.46
  -6   3   9  263.15   11.15
  -6   3   8   20.80    4.12
  -6   3   7  106.09    6.03
  -6   3   7   98.49    6.57
  -6   3   6    2.29    2.92
  -6   3   6    0.34    2.26
  -6   3   5  646.05   13.38
  -6   3   5  662.22   14.15
  -6   3   4  172.94    6.78
  -6   3   4  176.90    7.72
   6  -3  -4  167.83    6.35
   6  -3  -3  323.65    9.07
  -6   3   3  336.90    8.41
  -6   3   3  337.25   10.29
   6  -3  -2  171.27    7.08
  -6   3   2  153.93    7.35
   6  -3  -1  121.14    6.51
  -6   3   1  126.16    6.85
   6  -3   0  198.59    8.15
  -6   3   0  193.72    8.26
   6  -3   1   93.42    6.16
  -6   3  -1   87.83    6.12
   6  -3   2  213.74    9.07
  -6   3  -2  200.33    8.80
  -6   3  -3  125.75    7.53
  -6   3  -3  121.75    5.84
  -6   3  -4    4.60    3.83
  -6   3  -4    5.26    2.53
  -6   3  -5  302.70   11.48
  -6   3  -6   52.24    5.79
  -6   3  -7   50.44    6.08
  -6   3  -8  243.44   11.29
  -6   3  -9    2.77    4.05
  -6   3 -10   -0.80    4.26
  -6   3 -11    5.88    5.09
  -6   2  14   45.82    7.81
   6  -2 -13  101.58    9.54
  -6   2  13  113.19    9.21
  -6   2  12   11.02    5.45
   6  -2 -12   10.58    5.15
  -6   2  11    0.00    4.38
   6  -2 -11   -0.04    4.79
   6  -2 -10  253.47   12.20
  -6   2  10  254.45   11.49
  -6   2   9   -0.68    3.31
  -6   2   8   18.79    4.19
  -6   2   7  151.20    6.61
  -6   2   7  148.01    7.72
  -6   2   6    6.63    2.35
  -6   2   5   55.15    4.45
   6  -2  -5   50.51    3.96
  -6   2   4  399.52   10.54
   6  -2  -4  406.58   10.16
   6  -2  -3  142.78    6.42
  -6   2   3  143.96    6.78
   6  -2  -2  853.83   15.40
  -6   2   2  854.31   15.67
   6  -2  -1  102.08    6.17
  -6   2   1   94.27    5.96
   6  -2   0  214.76    8.67
  -6   2   0  217.90    8.72
  -6   2  -1    3.30    3.17
   6  -2   1    4.76    3.60
   6  -2   2  143.87    7.78
  -6   2  -2  156.66    7.96
   6  -2   3    2.20    3.40
  -6   2  -3    0.72    3.40
   6  -2   4  173.76    9.14
  -6   2  -4  180.88    9.03
   6  -2   5  168.39    9.12
  -6   2  -5  163.26    8.95
   6  -2   6   14.06    4.73
  -6   2  -6   15.67    4.58
   6  -2   7   22.87    5.12
  -6   2  -7   31.31    5.39
   6  -2   8    1.73    4.12
  -6   2  -8    3.21    4.31
   6  -2   9  177.80   10.79
  -6   2  -9  174.37   10.42
   6  -2  10   77.05    8.04
  -6   2 -10   81.45    7.49
   6  -2  11   87.29    8.17
  -6   2 -11   88.92    8.12
   6  -2  12  120.07    9.88
  -6   1  14   13.58    5.89
   6  -1 -14   14.01    5.80
   6  -1 -13  119.69    9.97
  -6   1  13  116.41    9.51
   6  -1 -12 1016.21   24.36
  -6   1  12 1068.26   24.39
  -6   1  11   27.34    5.89
   6  -1 -11   22.97    5.47
   6  -1 -10   93.50    7.67
  -6   1  10   86.52    7.57
   6  -1  -9    4.71    3.58
   6  -1  -7  169.08    7.07
   6  -1  -6  124.82    6.01
  -6   1   6  138.21    5.86
  -6   1   5   26.67    3.25
   6  -1  -5   29.57    3.59
  -6   1   4  386.27   10.09
   6  -1  -4  394.11   10.64
  -6   1   3   32.09    3.93
   6  -1  -3   25.93    3.81
   6  -1  -2  168.30    7.50
  -6   1   2  175.83    7.46
   6  -1  -1    6.80    3.16
  -6   1   1    7.83    2.98
   6  -1   0    2.13    3.37
  -6   1   0    1.26    3.04
   6  -1   1   52.62    5.36
  -6   1  -1   52.24    5.05
   6  -1   2  326.03   11.25
  -6   1  -2  330.78   11.22
  -6   1  -3   12.68    3.73
   6  -1   3   15.38    4.27
   6  -1   4   71.73    6.64
  -6   1  -4   72.15    6.52
   6  -1   5  591.36   16.36
  -6   1  -5  592.25   16.42
   6  -1   6  132.50    8.91
  -6   1  -6  125.96    8.56
   6  -1   7  518.02   16.34
  -6   1  -7  542.05   16.75
   6  -1   8    4.73    4.24
  -6   1  -8    1.39    4.28
   6  -1   9   14.00    4.97
  -6   1  -9   16.05    4.82
  -6   1 -10   15.06    5.00
   6  -1  10   19.24    5.25
   6  -1  11   11.13    5.86
  -6   1 -11    1.20    5.56
  -6   0  14   12.73    5.79
   6   0 -14   11.30    5.90
   6   0 -13   88.02    9.10
  -6   0  13   92.61    8.80
  -6   0  12   -1.47    5.29
   6   0 -12    1.35    4.71
   6   0 -11  153.50    9.82
   6   0 -10    2.16    4.00
   6   0  -9    6.09    3.74
   6   0  -8   54.06    5.57
   6   0  -8   47.57    4.28
   6   0  -7  295.19   10.30
   6   0  -7  299.34    9.74
   6   0  -6   74.89    5.27
   6   0  -6   71.06    5.16
  -6   0   5  205.52    7.17
   6   0  -5  203.46    8.20
  -6   0   4  339.56    9.37
   6   0  -4  326.27   10.24
  -6   0   3 1753.40   21.42
   6   0  -3 1724.74   23.32
  -6   0   2   99.51    5.89
   6   0  -2  100.13    6.45
  -6   0   1   93.70    5.87
   6   0  -1   83.91    5.95
   6   0   0    2.95    3.20
  -6   0   0    5.68    3.10
   6   0   1   91.82    6.63
  -6   0  -1   95.59    6.46
   6   0   2    6.14    3.92
   6   0   2    2.17    2.43
   6   0   3   12.79    4.28
   6   0   4   10.96    4.03
   6   0   5   53.60    6.26
   6   0   6   12.86    4.58
   6   0   7   -0.61    4.00
   6   0   8   28.04    5.15
   6   0   9  123.80    9.38
   6   0  10   57.48    7.07
   6   1 -14  150.00   11.11
  -6  -1  14  178.74   11.83
   6   1 -13   78.48    8.17
   6   1 -12   47.12    6.62
   6   1 -11   94.81    7.97
   6   1 -10   19.30    4.32
   6   1  -9   62.41    5.80
   6   1  -9   72.64    5.48
   6   1  -8  327.03   10.99
   6   1  -8  337.07   11.04
   6   1  -7   -0.57    2.63
   6   1  -7    0.06    2.72
   6   1  -6   21.23    3.84
   6   1  -6   22.23    3.42
  -6  -1   5  175.83    6.66
   6   1  -5  178.74    6.64
   6   1  -5  184.72    8.28
  -6  -1   4   59.03    4.48
   6   1  -4   61.43    5.38
   6   1  -3   25.83    4.21
  -6  -1   3   24.12    3.71
  -6  -1   2  200.34    8.20
   6   1  -2  184.56    8.58
   6   1  -1   33.15    4.51
  -6  -1   1   36.04    4.37
   6   1   0   19.19    4.27
   6   1   1  149.40    6.87
   6   1   1  153.13    8.36
   6   1   2  115.54    7.54
   6   1   2  115.53    6.29
   6   1   3  138.10    8.27
   6   1   3  153.03    7.19
   6   1   4  107.14    7.75
   6   1   4  114.99    6.63
   6   1   5   55.47    6.35
   6   1   6  662.93   18.36
   6   1   7   27.77    5.11
   6   1   8    4.56    4.80
   6   2 -15  192.26   12.57
   6   2 -14    2.25    5.76
   6   2 -13   33.20    5.90
   6   2 -12    2.74    4.01
   6   2 -11   40.91    5.05
   6   2 -11   35.97    5.20
   6   2 -10    5.33    3.07
   6   2 -10    7.81    3.58
   6   2  -9  122.32    7.27
   6   2  -9  127.14    7.61
   6   2  -8  270.02    9.75
   6   2  -8  257.13   10.55
   6   2  -7  346.13   10.20
   6   2  -7  350.91   12.00
   6   2  -6  265.50   10.54
   6   2  -5  159.04    8.35
  -6  -2   4  219.44    8.02
   6   2  -4  193.04    9.09
  -6  -2   3  612.34   13.57
   6   2  -3  570.17   15.02
   6   2  -2  290.42   10.99
   6   2  -1   67.94    6.25
   6   2   0  461.11   12.71
   6   2   0  455.85   14.03
   6   2   1   45.97    4.82
   6   2   1   38.21    5.28
   6   2   2  268.49   10.10
   6   2   2  260.78   11.17
   6   2   3   11.81    4.05
   6   2   3    7.66    2.99
   6   2   4   33.03    5.42
   6   2   4   35.46    4.37
   6   2   5   38.92    5.36
   6   2   5   51.77    5.23
   6   2   6   40.89    5.70
   6   2   7  149.77    9.32
   6   3 -15   22.08    6.60
   6   3 -14  311.91   14.38
   6   3 -13   75.98    7.69
   6   3 -12  322.13   13.31
   6   3 -12  348.99   13.39
   6   3 -11   38.67    4.97
   6   3 -11   40.71    5.32
   6   3 -10    7.67    3.52
   6   3 -10   11.56    3.98
   6   3  -9   23.18    4.46
   6   3  -9   27.52    4.18
   6   3  -8   56.24    5.79
   6   3  -7  133.86    8.33
   6   3  -6  586.77   16.30
   6   3  -5  225.59   10.35
   6   3  -4  125.70    8.14
   6   3  -3  392.32   13.26
   6   3  -2   79.96    6.75
   6   3  -1  100.81    7.51
   6   3   0   34.67    5.12
   6   3   0   35.56    4.90
   6   3   1   86.38    6.50
   6   3   1   93.29    6.97
   6   3   2   40.47    5.06
   6   3   2   37.30    4.80
   6   3   3  154.56    8.62
   6   3   3  141.93    8.89
   6   3   4   19.12    4.56
   6   3   4   24.86    3.93
   6   3   5    3.71    4.43
   6   3   5    6.53    4.10
   6   3   6   17.90    4.47
   6   3   6   19.50    4.98
   6   4 -14   57.20    6.56
   6   4 -13    3.90    5.35
   6   4 -13   -1.15    4.94
   6   4 -12  172.67    9.89
   6   4 -12  177.92   10.63
   6   4 -11   52.30    6.48
   6   4 -10   60.97    6.43
   6   4  -9   98.80    8.02
   6   4  -8   76.19    7.13
   6   4  -7  243.67   11.45
   6   4  -6    4.91    3.96
   6   4  -5  412.69   14.45
   6   4  -4   81.07    7.17
   6   4  -3  151.94    9.05
   6   4  -2   25.61    4.94
   6   4  -1   30.79    5.15
   6   4  -1   24.12    4.76
   6   4   0   26.80    4.93
   6   4   0   26.57    4.76
   6   4   1   11.04    4.12
   6   4   1    6.21    3.79
   6   4   2  105.05    7.78
   6   4   2  101.20    7.69
   6   4   3    0.45    4.12
   6   4   3   -1.23    4.58
   6   4   4   -4.66    4.29
   6   4   4    4.95    4.77
   6   4   5   -6.96    5.11
   6   4   6   29.31    5.80
   6   5 -13  255.16   13.38
   6   5 -12   -3.46    4.85
   6   5 -11   23.27    5.79
   6   5 -10  191.19   11.02
   6   5  -9   27.85    5.49
   6   5  -8    1.56    3.74
   6   5  -7    7.76    4.11
   6   5  -6   13.87    4.01
   6   5  -5    9.06    4.20
   6   5  -4   29.29    5.54
   6   5  -3  413.65   15.39
   6   5  -2   51.17    6.41
   6   5  -1  248.71   12.31
   6   5  -1  253.64   12.22
   6   5   0   97.53    8.10
   6   5   0  114.15    8.90
   6   5   1  237.07   11.65
   6   5   1  252.68   12.89
   6   5   2  107.96    8.56
   6   5   2  120.77    9.00
   6   5   3   55.56    6.77
   6   5   3   67.53    6.80
   6   5   4   38.70    5.57
   6   5   5   12.18    5.65
   6   6 -11    9.11    5.65
   6   6 -10   37.46    5.73
   6   6  -9    5.14    5.15
   6   6  -8   94.48    8.46
   6   6  -7   24.69    5.58
   6   6  -6  108.82    9.39
   6   6  -5   50.51    6.38
   6   6  -4  423.88   16.26
   6   6  -3   19.69    5.62
   6   6  -2    1.81    4.34
   6   6  -1   -5.97    4.86
   6   6  -1   -2.01    4.74
   6   6   0  119.78    9.37
   6   6   0  116.47    8.72
   6   6   1   75.98    7.91
   6   6   1   77.49    7.50
   6   6   2  209.03   12.30
   6   6   2  184.22   11.07
   6   7  -9   18.22    5.29
   6   7  -8   25.27    5.95
   6   7  -7    2.81    5.29
   6   7  -6    7.26    5.70
   6   7  -5    1.60    5.54
   6   7  -4    0.08    5.44
   6   7  -3  464.27   17.69
   6   7  -2   18.90    5.76
   6   7  -1   86.74    8.54
   6   7   0    5.77    5.67
  -7  10   1   73.54    8.41
  -7  10   0   94.25    8.99
  -7  10  -1   -2.69    5.43
  -7  10  -2  177.31   11.51
  -7  10  -3   -4.23    5.42
  -7  10  -4   26.98    6.50
  -7  10  -5    2.12    5.62
  -7  10  -6   12.74    5.61
  -7  10  -7   -4.96    6.31
  -7   9   5   39.76    6.05
  -7   9   4   42.44    6.21
  -7   9   3   56.73    5.98
  -7   9   2    4.22    4.89
  -7   9   1   33.38    5.92
  -7   9   0    9.48    4.47
  -7   9  -1    1.93    4.38
  -7   9  -2   37.76    6.11
  -7   9  -3  109.47    8.77
  -7   9  -4   44.87    5.84
  -7   9  -5   20.34    5.17
  -7   9  -5   24.48    5.16
  -7   9  -6   80.60    7.65
  -7   9  -6   89.41    7.88
  -7   9  -7    0.93    5.29
  -7   9  -7    6.31    5.99
  -7   9  -8   62.44    6.76
  -7   8   7  131.32    9.22
  -7   8   6   53.24    6.60
  -7   8   5   77.99    7.63
  -7   8   4    6.76    4.86
  -7   8   3  237.75   11.95
  -7   8   2  327.65   13.83
  -7   8   1   26.70    5.23
  -7   8   0   45.58    6.43
  -7   8  -1   -1.21    3.99
  -7   8  -2   30.28    5.47
  -7   8  -3  215.62   11.45
  -7   8  -4   56.83    6.69
  -7   8  -4   60.64    6.66
  -7   8  -5    3.88    4.33
  -7   8  -5    0.96    3.81
  -7   8  -6   25.83    4.76
  -7   8  -6   30.01    5.78
  -7   8  -7   49.43    6.51
  -7   8  -7   48.22    6.10
  -7   8  -8    6.45    5.71
  -7   8  -8   12.10    4.85
  -7   8  -9   65.36    7.36
  -7   8 -10    0.25    6.41
  -7   7   9    9.74    5.74
  -7   7   8    4.39    5.08
  -7   7   7    1.09    4.29
  -7   7   6    7.45    4.22
  -7   7   5    4.97    4.22
  -7   7   4    4.37    3.77
  -7   7   3   44.64    5.49
  -7   7   2  298.24   12.63
  -7   7   1   28.38    5.00
  -7   7   0  159.61    9.17
  -7   7  -1    3.03    3.98
  -7   7  -2  137.37    8.99
  -7   7  -3   45.64    6.13
  -7   7  -4   17.17    4.32
  -7   7  -4   18.02    4.49
  -7   7  -5   40.66    5.79
  -7   7  -5   44.86    5.86
  -7   7  -6  144.99    9.14
  -7   7  -6  143.76    9.46
  -7   7  -7  134.87    8.91
  -7   7  -7  135.49    9.35
  -7   7  -8    0.82    4.67
  -7   7  -8    7.81    5.19
  -7   7  -9    1.45    5.14
  -7   7  -9    7.33    5.50
  -7   6  11    0.74    6.33
  -7   6  10   76.59    7.56
  -7   6   9   40.40    5.49
  -7   6   8   31.21    4.73
  -7   6   7   83.89    7.14
  -7   6   6  128.33    8.44
  -7   6   5   58.31    6.39
  -7   6   4    0.55    3.39
  -7   6   3  446.64   14.57
  -7   6   2   27.15    5.05
  -7   6   1    0.59    3.27
  -7   6   0    7.91    3.49
  -7   6  -1   13.52    4.04
  -7   6  -2   18.22    4.46
  -7   6  -3    0.49    4.02
  -7   6  -4   28.17    5.28
  -7   6  -4   30.17    4.57
  -7   6  -5   13.16    4.76
  -7   6  -5   11.75    4.05
  -7   6  -6  178.51    9.93
  -7   6  -6  193.01   10.08
  -7   6  -7   66.84    7.13
  -7   6  -7   67.90    6.62
  -7   6  -8   -2.76    4.03
  -7   6  -9    3.52    4.33
  -7   6 -10    4.20    5.37
  -7   5  11   74.47    7.92
  -7   5  10   19.95    4.91
  -7   5   9    3.36    4.02
  -7   5   8   90.39    6.87
  -7   5   8   84.15    6.98
  -7   5   7   10.66    3.40
  -7   5   7   10.68    3.85
  -7   5   6   76.31    6.49
  -7   5   5   46.20    5.36
  -7   5   4   -0.83    2.83
  -7   5   3   -0.28    3.02
  -7   5   2    6.21    3.07
   7  -5  -1  148.52    7.47
  -7   5   1  152.53    8.40
   7  -5   0   40.50    4.85
  -7   5   0   31.62    5.03
  -7   5  -1   71.88    6.39
  -7   5  -2  963.28   20.48
  -7   5  -3  230.10   10.66
  -7   5  -4  537.86   16.00
  -7   5  -4  531.85   14.47
  -7   5  -5  215.30   10.72
  -7   5  -5  210.17    9.65
  -7   5  -6  265.56   11.82
  -7   5  -7    4.41    4.42
  -7   5  -8   85.33    7.86
  -7   5  -9    7.62    4.80
  -7   5 -10    6.40    5.20
  -7   4  12   10.04    5.71
   7  -4 -12    2.01    6.63
  -7   4  11   17.75    5.06
  -7   4  10   27.46    5.46
  -7   4   9   18.15    4.69
  -7   4   8  238.23   10.54
  -7   4   7  559.79   14.99
  -7   4   7  552.54   14.66
  -7   4   6  163.78    8.37
  -7   4   6  156.11    7.64
  -7   4   5  129.91    6.68
  -7   4   5  124.26    7.23
  -7   4   4  528.85   14.25
   7  -4  -3  203.34    8.05
  -7   4   3  187.34    8.73
   7  -4  -2  582.73   13.74
  -7   4   2  552.09   14.74
  -7   4   1  205.89    9.30
   7  -4  -1  229.78    9.24
   7  -4   0  474.53   13.31
  -7   4   0  467.20   13.81
   7  -4   1  228.49    9.82
  -7   4  -1  232.80   10.20
   7  -4   2  563.82   15.50
  -7   4  -2  546.53   15.37
  -7   4  -3  178.18    9.56
  -7   4  -4   95.41    7.42
  -7   4  -5   27.94    5.31
  -7   4  -6    0.95    4.37
  -7   4  -7  134.82    9.13
  -7   4  -8   14.06    5.39
  -7   4  -9   10.99    4.57
  -7   4 -10   -2.64    4.92
  -7   4 -11   22.07    5.51
  -7   3  13  222.14   12.81
   7  -3 -12   95.26    9.35
  -7   3  12   83.28    8.36
  -7   3  11   -0.98    4.70
   7  -3 -11    9.95    5.25
  -7   3  10   10.95    4.36
  -7   3   9   17.49    4.43
  -7   3   8    4.73    3.64
  -7   3   7   16.75    4.05
  -7   3   7   11.98    3.50
  -7   3   6   95.59    5.99
  -7   3   6   90.23    6.08
  -7   3   5   -0.41    2.80
  -7   3   5    1.78    2.99
   7  -3  -4    0.91    2.43
  -7   3   4    0.88    2.59
  -7   3   4    1.61    2.63
  -7   3   3   35.21    4.36
   7  -3  -3   27.67    3.76
   7  -3  -2  107.36    6.34
  -7   3   2  105.36    6.68
   7  -3  -1  162.04    8.20
  -7   3   1  148.06    8.05
   7  -3   0   63.57    5.70
  -7   3   0   61.12    5.93
   7  -3   1  170.36    8.60
  -7   3  -1  174.38    8.62
   7  -3   2  133.04    8.06
  -7   3  -2  127.16    8.01
   7  -3   3   97.66    7.44
  -7   3  -3   97.23    7.47
  -7   3  -4   16.55    4.39
   7  -3   4   18.84    5.14
   7  -3   5   45.02    6.18
  -7   3  -5   48.67    6.09
  -7   3  -6   -3.00    4.40
   7  -3   6    4.60    4.72
   7  -3   7   17.64    5.44
  -7   3  -7   15.74    5.08
   7  -3   8   34.94    6.21
  -7   3  -8   28.87    5.44
   7  -3   9   83.63    8.61
  -7   3  -9   75.56    7.55
   7  -3  10    4.42    5.85
  -7   3 -10   -3.24    4.77
  -7   3 -11   71.23    7.36
   7  -2 -13  186.94   12.42
  -7   2  13  177.21   11.77
   7  -2 -12  151.84   11.00
  -7   2  12  135.25    9.90
  -7   2  11    0.00    4.62
   7  -2 -11    1.05    4.90
   7  -2 -10  173.63   10.60
  -7   2  10  160.96    9.64
  -7   2   9    4.31    3.66
  -7   2   8  288.93   11.21
  -7   2   6  158.87    7.33
   7  -2  -5  490.99   12.15
  -7   2   5  499.70   12.80
  -7   2   4  581.90   13.82
   7  -2  -4  591.54   13.77
  -7   2   3  118.29    6.93
   7  -2  -3  113.63    6.63
   7  -2  -2  143.36    7.57
  -7   2   2  138.01    7.40
   7  -2  -1   47.88    5.08
  -7   2   1   48.82    5.18
   7  -2   0    5.67    3.63
  -7   2   0    4.38    3.52
  -7   2  -1    5.35    3.31
   7  -2   1    6.48    3.67
   7  -2   2  316.46   12.15
  -7   2  -2  309.94   11.74
   7  -2   3   39.25    5.89
  -7   2  -3   33.91    5.16
   7  -2   4   35.19    5.49
  -7   2  -4   33.92    5.23
  -7   2  -5    6.09    4.54
   7  -2   5   -1.77    4.53
   7  -2   6  111.10    8.94
  -7   2  -6  112.88    8.65
  -7   2  -7   23.01    5.21
   7  -2   7   18.58    5.57
   7  -2   8  152.47   10.47
  -7   2  -8  150.97   10.22
  -7   2  -9   53.87    7.36
   7  -2   9   53.29    7.35
   7  -2  10   50.34    7.28
  -7   2 -10   56.92    7.35
   7  -1 -13  189.50   12.23
  -7   1  13  193.93   11.46
  -7   1  12   36.16    6.65
   7  -1 -12   31.79    6.41
  -7   1  11   51.87    6.85
   7  -1 -11   49.47    6.91
  -7   1  10    2.75    4.44
   7  -1 -10   -0.29    4.44
   7  -1  -9   13.64    4.48
   7  -1  -8  124.84    7.98
   7  -1  -7    2.36    2.74
  -7   1   6  424.22   11.15
   7  -1  -6  416.64   11.86
  -7   1   5   96.52    5.87
   7  -1  -5   87.04    6.09
  -7   1   4  237.18    8.85
   7  -1  -4  232.14    9.47
  -7   1   3  198.43    8.37
   7  -1  -3  194.94    8.75
   7  -1  -2   13.61    3.46
  -7   1   2   14.68    3.80
   7  -1  -1   48.79    5.28
  -7   1   1   49.71    5.06
   7  -1   0  269.80   10.83
  -7   1   0  266.33   10.46
   7  -1   1  217.27   10.06
  -7   1  -1  224.80    9.94
   7  -1   2  674.68   17.53
  -7   1  -2  677.59   17.17
   7  -1   3   22.65    5.05
  -7   1  -3   19.64    4.61
   7  -1   4  138.40    9.30
  -7   1  -4  131.04    8.60
   7  -1   5   -1.48    4.15
  -7   1  -5    2.30    4.99
  -7   1  -6    4.91    4.01
   7  -1   6    4.86    4.58
  -7   1  -7    4.02    4.43
   7  -1   7   -0.61    4.03
  -7   1  -8    4.70    4.49
   7  -1   8    4.38    4.53
   7  -1   9   99.35    9.30
  -7   1  -9  108.34    9.80
   7  -1  10  134.35   10.63
   7   0 -14   17.14    6.52
  -7   0  13   -1.12    5.20
   7   0 -13    2.49    5.58
  -7   0  12    0.04    4.78
   7   0 -12    3.73    4.70
   7   0 -11  179.70   10.42
   7   0 -10    0.27    3.94
   7   0  -9   -0.25    3.39
   7   0  -8   82.28    6.38
   7   0  -8   86.91    6.21
   7   0  -7   16.69    3.63
   7   0  -7   16.73    3.74
   7   0  -6  366.03   10.98
   7   0  -6  365.26   11.73
  -7   0   5   46.32    4.43
   7   0  -5   40.66    4.97
  -7   0   4  593.31   13.67
   7   0  -4  589.45   15.03
  -7   0   3  335.56   10.69
   7   0  -3  326.42   11.44
   7   0  -2   13.91    3.88
  -7   0   2   14.12    3.41
  -7   0   1   19.09    3.97
   7   0  -1   19.81    3.65
   7   0   0    1.65    3.56
  -7   0   0    2.46    3.31
   7   0   1  429.03   13.94
  -7   0  -1  425.83   13.68
   7   0   2   12.82    4.78
  -7   0  -2   23.12    5.13
   7   0   3  222.62   11.04
  -7   0  -3  224.34   10.89
   7   0   4   12.27    4.72
  -7   0  -4   13.69    4.89
   7   0   5    3.05    4.32
  -7   0  -5    2.18    4.21
   7   0   6   57.45    7.05
  -7   0  -6   50.12    6.94
   7   0   7   70.75    7.61
  -7   0  -7   76.05    8.55
   7   0   8    6.41    4.86
  -7   0  -8    6.03    4.78
   7   0   9    1.23    6.41
   7   1 -14   72.95    7.79
   7   1 -13   33.89    6.06
   7   1 -12    3.56    4.98
   7   1 -11   16.91    5.39
   7   1 -10  213.40   10.38
   7   1  -9    6.61    3.34
   7   1  -9   11.58    3.90
   7   1  -8   13.53    3.51
   7   1  -8   17.61    3.82
   7   1  -7   15.99    3.88
   7   1  -6  109.47    7.32
   7   1  -5  149.47    8.36
  -7  -1   4   79.62    5.46
   7   1  -4   69.16    6.16
  -7  -1   3    0.28    3.05
   7   1  -3   -0.13    3.37
  -7  -1   2  362.92   11.86
   7   1  -2  359.11   12.70
  -7  -1   1  126.16    7.60
   7   1  -1  109.71    7.87
  -7  -1   0  117.63    7.71
   7   1   0  114.81    8.16
   7   1   1   96.03    7.61
   7   1   2   41.13    5.71
   7   1   3   72.38    7.12
   7   1   4    2.81    3.82
   7   1   5   68.75    7.25
   7   1   6   88.58    7.62
   7   1   7   85.60    7.48
   7   1   8   23.21    5.95
   7   2 -14   36.94    6.15
   7   2 -13   30.85    5.55
   7   2 -12  133.15    9.07
   7   2 -11  300.36   12.49
   7   2 -10   99.26    7.39
   7   2  -9  221.11   10.21
   7   2  -8    2.65    3.64
   7   2  -7  148.79    8.72
   7   2  -6   49.20    5.85
   7   2  -5  160.20    9.14
   7   2  -4   17.35    4.41
  -7  -2   4   15.65    3.59
  -7  -2   3  141.79    7.59
   7   2  -3  128.30    8.37
  -7  -2   2  307.16   11.34
   7   2  -2  284.75   11.90
   7   2  -1  356.22   13.25
   7   2   0   85.94    7.38
   7   2   1    3.52    3.74
   7   2   1   15.76    4.04
   7   2   2   91.62    6.71
   7   2   2   88.60    7.62
   7   2   3  234.89   11.75
   7   2   4   24.32    4.66
   7   2   5   63.35    7.24
   7   2   6    9.25    5.27
   7   2   7    3.20    5.43
   7   3 -14   95.67    8.45
   7   3 -12   46.68    5.52
   7   3 -11   79.67    7.57
   7   3 -10   59.02    6.68
   7   3  -9    8.39    3.60
   7   3  -8  315.33   12.95
   7   3  -7  192.77   10.41
   7   3  -6   12.25    4.39
   7   3  -5    6.46    3.59
   7   3  -4    1.25    3.61
   7   3  -3  197.88   10.42
   7   3  -2  337.32   13.59
   7   3  -1    1.35    4.07
   7   3   0   76.13    7.08
   7   3   1    3.38    3.98
   7   3   1   -0.91    3.53
   7   3   2   24.47    5.21
   7   3   2   18.99    4.24
   7   3   3   15.36    4.74
   7   3   3   16.22    4.19
   7   3   4   39.45    6.10
   7   3   5    4.26    5.53
   7   3   6   39.80    5.91
   7   4 -13  214.28   12.43
   7   4 -12   66.12    7.49
   7   4 -11    6.46    5.09
   7   4 -10  177.61   10.63
   7   4  -9   33.45    5.83
   7   4  -8   80.58    7.33
   7   4  -7   14.45    5.21
   7   4  -6   11.84    4.45
   7   4  -5  200.65   10.90
   7   4  -4    1.84    5.33
   7   4  -3   -3.80    4.40
   7   4  -2   77.76    7.43
   7   4  -1  175.31   10.71
   7   4   0  131.01    8.72
   7   4   0  139.45    9.72
   7   4   1   87.32    7.62
   7   4   1   86.39    8.09
   7   4   2  134.94    8.92
   7   4   2  127.77    9.52
   7   4   3   12.31    4.79
   7   4   3   15.57    4.85
   7   4   4   16.76    5.20
   7   4   4   11.67    5.23
   7   5 -11   26.77    5.14
   7   5 -10   77.41    7.90
   7   5  -9  125.71    9.97
   7   5  -8   76.99    7.61
   7   5  -7   15.18    4.76
   7   5  -6   10.51    4.42
   7   5  -5   56.82    7.62
   7   5  -4   79.77    8.65
   7   5  -3  183.28   11.55
   7   5  -2   33.00    5.96
   7   5  -1   21.84    4.93
   7   5   0   68.81    7.80
   7   5   0   66.13    7.58
   7   5   1    3.91    4.88
   7   5   1   -3.22    5.10
   7   5   2   65.55    7.60
   7   5   2   59.68    6.54
   7   5   3   19.52    6.12
   7   6  -8   91.08    8.24
   7   6  -7   34.91    5.80
   7   6  -6   -0.13    5.65
   7   6  -5   58.75    7.38
   7   6  -4    8.17    5.61
   7   6  -3  268.79   14.30
   7   6  -2  198.36   12.52
   7   6  -1   75.30    8.49
   7   6   0   36.88    5.99
  -8   9   3    7.67    4.82
  -8   9   2   12.38    4.81
  -8   9   1   33.14    4.91
  -8   9   0  148.82   10.73
  -8   9  -1   26.18    5.73
  -8   9  -2  165.22   11.23
  -8   9  -3   10.70    5.19
  -8   9  -4    0.72    4.78
  -8   9  -5   15.01    5.34
  -8   9  -6    8.28    5.80
  -8   8   7   -7.12    6.21
  -8   8   6   52.11    7.07
  -8   8   5   22.95    5.12
  -8   8   4    0.54    5.22
  -8   8   3  225.93   12.26
  -8   8   2   24.01    4.81
  -8   8   1   12.02    4.25
  -8   8   0   -1.18    4.37
  -8   8  -1    4.00    4.47
  -8   8  -2   48.80    6.25
  -8   8  -3   25.40    5.27
  -8   8  -4   -3.76    4.76
  -8   8  -5   40.92    5.59
  -8   8  -6   30.60    5.76
  -8   8  -6   35.46    5.85
  -8   8  -7   65.08    7.24
  -8   8  -7   77.25    7.69
  -8   8  -8   71.16    7.98
  -8   8  -8   82.86    7.84
  -8   7   8   -3.92    5.17
  -8   7   7  208.90   11.48
  -8   7   6   13.86    4.48
  -8   7   5  152.75   10.33
  -8   7   4  132.14    9.50
  -8   7   3   60.77    6.43
  -8   7   2    7.71    4.10
  -8   7   1   42.40    5.35
  -8   7   0    4.66    3.74
  -8   7  -1   89.16    7.91
  -8   7  -2   84.68    8.07
  -8   7  -3   45.15    6.09
  -8   7  -4   -0.99    4.52
  -8   7  -5   -1.82    4.44
  -8   7  -5    3.05    3.93
  -8   7  -6   -0.52    4.22
  -8   7  -6   11.82    4.94
  -8   7  -7    1.74    5.14
  -8   7  -8    4.99    4.82
  -8   7  -9   -0.12    5.33
  -8   6   8    8.29    4.95
  -8   6   7   33.81    5.38
  -8   6   6    3.60    3.93
  -8   6   5    7.24    3.93
  -8   6   4    2.41    3.91
  -8   6   3  156.57    9.29
  -8   6   2   63.24    6.43
  -8   6   1   28.87    5.06
   8  -6   0   29.76    4.52
  -8   6   0   22.13    4.39
   8  -6   1   -2.26    3.40
  -8   6  -1   -1.75    3.58
   8  -6   2   33.54    5.25
  -8   6  -2   30.70    5.72
  -8   6  -3   61.75    6.69
  -8   6  -4  291.56   13.14
  -8   6  -5   99.36    8.34
  -8   6  -6   28.30    5.56
  -8   6  -7   17.71    5.28
  -8   6  -8   31.51    6.32
  -8   6  -9   13.01    6.10
  -8   5  11    5.24    6.05
  -8   5   7  192.90    9.87
  -8   5   6   40.18    5.51
  -8   5   5  132.38    8.28
  -8   5   4    3.55    3.32
  -8   5   3    9.38    3.77
  -8   5   2  354.52   13.12
   8  -5  -1  416.56   13.14
  -8   5   1  402.52   14.06
  -8   5   0  114.84    8.15
   8  -5   0  110.39    7.50
  -8   5  -1  111.68    8.12
   8  -5   1  111.12    7.67
   8  -5   2   66.30    6.67
  -8   5  -2   60.49    6.47
  -8   5  -3    8.20    4.45
   8  -5   3   13.96    4.63
   8  -5   4   83.48    7.62
  -8   5  -4   91.82    7.87
  -8   5  -5   18.20    4.91
  -8   5  -6   61.49    6.92
  -8   5  -7   74.63    7.64
  -8   5  -8   48.44    6.55
  -8   5  -9   45.00    6.36
  -8   4  12  119.84    9.84
  -8   4  11  147.85   10.01
  -8   4  10  253.66   11.79
  -8   4   9   26.94    5.10
  -8   4   8   75.80    6.28
  -8   4   7    3.30    3.68
  -8   4   6    0.91    3.09
  -8   4   5  116.32    7.47
  -8   4   4    2.69    3.16
  -8   4   3  221.63   10.19
  -8   4   2   63.83    6.26
   8  -4  -2   75.16    6.00
   8  -4  -1  430.35   13.66
  -8   4   1  397.30   13.53
   8  -4   0  293.67   11.70
  -8   4   0  300.06   12.23
   8  -4   1    4.74    3.47
  -8   4  -1    4.60    3.94
   8  -4   2  144.40    8.98
  -8   4  -2  144.20    9.07
   8  -4   3  153.76    9.49
  -8   4  -3  178.27   10.36
   8  -4   4   32.23    5.59
  -8   4  -4   40.14    6.53
   8  -4   5    0.78    3.93
  -8   4  -5    2.51    4.55
   8  -4   6   29.37    5.44
  -8   4  -6   34.75    5.97
   8  -4   7    0.32    5.08
  -8   4  -7   -1.83    4.86
   8  -4   8    6.48    5.45
  -8   4  -8   -0.67    4.65
  -8   4  -9   -4.04    6.19
  -8   3  12    6.56    5.22
   8  -3 -12    6.51    6.54
  -8   3  11   23.60    4.82
   8  -3 -11   18.08    5.99
  -8   3  10   12.88    4.68
  -8   3   9  124.46    8.41
  -8   3   8   21.28    4.43
  -8   3   7  387.52   12.82
  -8   3   6    5.25    3.12
  -8   3   5  330.90   11.62
   8  -3  -4   33.44    4.54
  -8   3   4   33.89    4.84
   8  -3  -3  332.10   11.27
  -8   3   3  311.59   11.49
  -8   3   2    0.42    3.36
   8  -3  -2   -0.02    3.33
   8  -3  -1  194.39    9.48
  -8   3   1  183.19    9.55
   8  -3   0    7.76    3.95
  -8   3   0    3.38    3.68
   8  -3   1   22.70    5.01
  -8   3  -1   22.58    4.92
   8  -3   2    0.46    3.99
  -8   3  -2    2.45    3.85
   8  -3   3   11.94    5.00
  -8   3  -3    9.64    3.82
  -8   3  -4   37.46    6.00
   8  -3   4   45.24    5.60
  -8   3  -5    3.74    4.31
   8  -3   5    5.25    4.04
  -8   3  -6   41.13    6.25
   8  -3   6   35.02    5.99
  -8   3  -7   24.35    5.82
   8  -3   7   23.61    5.76
  -8   3  -8   36.70    6.57
   8  -3   8   34.11    7.20
  -8   3  -9   46.59    7.59
   8  -2 -12  292.31   14.83
  -8   2  12  308.11   14.53
  -8   2  11    4.63    4.73
   8  -2 -11   -0.83    5.29
   8  -2 -10  148.79   10.33
  -8   2  10  147.06    9.80
  -8   2   9   33.21    5.48
  -8   2   6   -1.18    2.85
  -8   2   5    2.15    2.81
   8  -2  -5    3.49    2.88
  -8   2   4   -0.45    3.31
   8  -2  -4   -0.90    2.93
   8  -2  -3   11.53    3.69
  -8   2   3   12.18    3.87
   8  -2  -2   57.92    5.96
  -8   2   2   51.80    5.42
   8  -2  -1  141.97    8.54
  -8   2   1  134.18    8.13
   8  -2   0  155.21    9.29
  -8   2   0  147.61    8.86
   8  -2   1  142.64    8.95
  -8   2  -1  145.47    9.01
   8  -2   2  729.06   19.55
  -8   2  -2  721.33   18.82
   8  -2   3   26.41    5.95
  -8   2  -3   25.55    5.21
   8  -2   4  213.15   11.83
  -8   2  -4  210.37   11.30
   8  -2   5   24.43    5.83
  -8   2  -5   29.74    6.08
   8  -2   6    4.58    4.68
  -8   2  -6   -0.33    4.55
   8  -2   7   -2.40    5.03
  -8   2  -7    0.82    4.46
   8  -2   8   50.21    7.06
  -8   2  -8   55.03    6.95
   8  -1 -13   71.34    8.56
  -8   1  13   64.31    8.02
  -8   1  12   29.77    6.68
   8  -1 -12   38.68    6.06
  -8   1  11   13.31    4.96
   8  -1 -11    8.98    4.71
   8  -1 -10  126.10    9.08
   8  -1  -9  105.57    8.09
   8  -1  -8   25.45    4.61
   8  -1  -6   38.39    4.67
   8  -1  -5   24.94    4.13
  -8   1   5   27.22    4.15
  -8   1   4   48.16    5.12
   8  -1  -4   49.10    5.40
  -8   1   3  690.33   16.38
   8  -1  -3  663.59   17.09
   8  -1  -2   18.25    4.70
  -8   1   2   19.43    4.63
   8  -1  -1  549.08   16.21
  -8   1   1  556.87   15.56
   8  -1   0   28.79    4.93
  -8   1   0   27.81    5.04
   8  -1   1   95.82    7.90
  -8   1  -1   92.30    7.35
   8  -1   2  220.36   11.28
  -8   1  -2  220.65   11.27
   8  -1   3  156.96   10.51
  -8   1  -3  164.67    9.87
  -8   1  -4   21.87    5.19
   8  -1   4   19.55    5.82
   8  -1   5   11.96    5.28
  -8   1  -5   12.93    5.47
   8  -1   6   61.09    7.72
  -8   1  -6   68.03    7.48
   8  -1   7   84.61    8.57
  -8   1  -7   89.36    8.84
   8  -1   8  241.51   13.65
  -8   0  13   16.79    5.88
   8   0 -13   28.84    6.27
   8   0 -12   35.00    5.64
   8   0 -11    8.57    5.10
   8   0 -10   -3.15    4.27
   8   0  -9    0.74    4.03
   8   0  -8  115.30    7.79
   8   0  -7   18.67    4.08
   8   0  -6  145.54    8.65
   8   0  -5  148.00    8.72
  -8   0   4  558.01   14.43
   8   0  -4  535.34   15.70
  -8   0   3  247.82   10.22
   8   0  -3  246.25   11.37
  -8   0   2   72.08    6.25
   8   0  -2   56.37    6.30
  -8   0   1  145.42    8.68
   8   0  -1  137.62    8.67
  -8   0   0   28.78    5.31
   8   0   0   23.66    5.30
   8   0   1  185.64   10.37
  -8   0  -1  189.74   10.34
   8   0   2   69.06    7.12
  -8   0  -2   80.80    7.45
   8   0   3  126.00    9.17
  -8   0  -3  124.98    9.25
  -8   0  -4    7.44    4.55
   8   0   4    8.32    4.79
   8   0   5   10.16    5.62
  -8   0  -5   19.04    5.35
   8   0   6   10.60    4.97
  -8   0  -6   11.79    6.56
   8   0   7   18.52    7.07
   8   1 -13   -2.95    6.06
   8   1 -12    6.10    4.91
   8   1  -9    9.39    3.92
   8   1  -8  135.02    8.62
   8   1  -7   71.47    6.59
   8   1  -6   11.51    3.61
   8   1  -5   28.26    4.82
  -8  -1   4  109.62    6.90
   8   1  -4  102.50    7.73
  -8  -1   3  151.22    8.20
   8   1  -3  144.66    9.03
  -8  -1   2   14.28    3.73
   8   1  -2   15.96    4.58
   8   1  -1    5.03    4.44
  -8  -1   1    2.81    3.43
  -8  -1   0   63.43    6.62
   8   1   0   50.65    6.39
  -8  -1  -1   90.93    7.69
   8   1   1   84.74    8.16
  -8  -1  -2   60.73    6.91
   8   1   2   66.64    7.53
   8   1   3   -0.51    4.96
  -8  -1  -3    4.81    4.23
  -8  -1  -4  365.25   15.31
   8   1   4  356.75   15.14
  -8  -1  -5   50.63    6.46
   8   1   5   40.56    6.13
   8   1   6   62.37    7.65
   8   2 -10   32.21    5.29
   8   2  -9    6.00    4.24
   8   2  -8    9.09    4.42
   8   2  -7   95.09    7.75
   8   2  -6  141.92    9.23
   8   2  -5  248.61   11.87
   8   2  -4   -3.87    3.65
   8   2  -3    4.20    3.71
  -8  -2   3    4.40    3.46
  -8  -2   2    3.05    3.30
   8   2  -2    5.17    3.98
  -8  -2   1  238.83   11.20
   8   2  -1  238.77   12.05
  -8  -2   0   36.44    6.08
   8   2   0   29.55    5.82
   8   2   1  179.54   11.01
   8   2   2    9.27    4.59
   8   2   3   54.05    6.68
   8   2   4   96.72    9.11
   8   2   5    5.08    5.47
   8   3 -11   94.60    8.53
   8   3 -10  174.58   10.75
   8   3  -9   30.11    5.70
   8   3  -8   72.72    7.44
   8   3  -7  171.15   10.65
   8   3  -6    6.06    4.50
   8   3  -5   16.29    4.55
   8   3  -4   13.79    4.29
   8   3  -3   10.90    4.50
  -8  -3   2   54.47    5.76
   8   3  -2   52.69    6.82
   8   3  -1   79.29    8.30
   8   3   0   -3.89    4.36
   8   3   1   -6.48    5.13
   8   3   2   16.71    5.01
   8   3   3    3.14    5.87
   8   3   4   40.18    6.73
   8   4 -11   -2.01    5.99
   8   4 -10    5.86    5.23
   8   4  -9   -5.02    5.43
   8   4  -8   36.77    6.36
   8   4  -7   43.93    6.38
   8   4  -6   -4.96    4.74
   8   4  -5   34.45    5.46
   8   4  -4   20.61    5.88
   8   4  -3  126.18   10.31
   8   4  -2   32.32    6.35
   8   4  -1  147.11   10.43
   8   4   0   29.22    6.28
   8   4   1  133.90   10.43
   8   4   2   10.82    6.25
   8   5  -7   18.28    5.97
   8   5  -6    2.16    5.58
   8   5  -5   -4.75    5.96
   8   5  -4   22.75    5.72
   8   5  -3   14.93    6.15
   8   5  -2   70.65    8.02
  -9   8   4   33.42    5.76
  -9   8   3   -1.53    4.96
  -9   8   2   24.50    5.55
  -9   8   1    3.13    5.31
  -9   8   0    8.01    4.54
  -9   8  -1   30.84    6.71
  -9   8  -2  191.33   11.99
  -9   8  -3  149.71   11.06
  -9   8  -4  168.51   11.34
  -9   7   7   12.60    5.09
  -9   7   6   88.26    7.59
  -9   7   5   11.99    5.10
  -9   7   4   -0.88    4.83
  -9   7   3   53.00    6.48
  -9   7   2   23.50    5.05
  -9   7   1    4.40    4.19
  -9   7   0    4.74    4.20
  -9   7  -1    4.29    5.14
   9  -7   2    4.12    4.97
  -9   7  -2    9.39    4.31
   9  -7   3  140.55    9.89
  -9   7  -3  144.14   10.69
   9  -7   4   21.11    5.49
  -9   7  -4   19.14    5.92
  -9   7  -5   55.02    7.67
  -9   6   7    3.42    5.22
  -9   6   6   52.68    6.56
  -9   6   5   15.24    4.32
  -9   6   4   38.53    5.93
  -9   6   3    2.96    4.27
  -9   6   2    5.23    3.66
  -9   6   1   16.25    4.82
   9  -6   0   86.87    7.28
  -9   6   0   88.28    7.98
   9  -6   1   64.67    6.56
  -9   6  -1   57.18    6.53
  -9   6  -2   43.42    6.69
   9  -6   2   47.88    6.29
  -9   6  -3  209.16   11.93
   9  -6   3  211.58   11.56
  -9   6  -4    5.80    5.35
   9  -6   4    3.06    4.64
  -9   6  -5    4.35    5.46
   9  -6   5    4.22    5.25
   9  -6   6  107.61    9.05
  -9   6  -6   95.90    8.77
  -9   5   7   41.66    5.45
  -9   5   6   46.40    5.78
  -9   5   5   34.53    5.43
  -9   5   4  140.15    8.85
  -9   5   3    8.65    3.98
  -9   5   2   66.27    6.76
  -9   5   1  283.21   12.85
   9  -5  -1  274.49   11.80
  -9   5   0   64.54    6.81
   9  -5   0   64.06    6.19
  -9   5  -1   41.49    6.53
   9  -5   1   38.84    6.02
  -9   5  -2   34.86    6.13
   9  -5   2   36.31    5.91
   9  -5   3    1.74    4.05
  -9   5  -3    7.36    5.04
   9  -5   4  489.63   17.71
  -9   5  -4  477.56   17.75
   9  -5   5   12.51    5.15
  -9   5  -5   15.09    5.52
   9  -5   6    0.99    6.06
  -9   5  -6    2.64    4.90
  -9   4   6  280.72   11.76
  -9   4   5   60.68    6.25
  -9   4   4  221.08   10.78
  -9   4   3   38.54    5.05
  -9   4   2   17.30    4.43
   9  -4  -2   19.51    4.38
   9  -4  -1   58.90    6.18
  -9   4   1   63.74    6.52
  -9   4   0    6.94    3.63
   9  -4   0    9.88    4.17
   9  -4   1   16.96    4.56
  -9   4  -1   15.31    4.94
   9  -4   2   57.44    6.87
  -9   4  -2   54.22    6.36
   9  -4   3    0.37    4.00
  -9   4  -3   -0.65    4.41
   9  -4   4    9.90    5.02
  -9   4  -4   -3.75    5.17
   9  -4   5   22.87    4.95
  -9   4  -5   17.59    5.50
   9  -4   6   -6.76    5.92
  -9   4  -6    1.47    5.67
  -9   3  11   12.22    5.85
   9  -3 -11   17.17    6.35
  -9   3  10  117.39    8.53
  -9   3   5    6.99    3.76
   9  -3  -4    4.03    3.82
  -9   3   4    0.55    3.56
  -9   3   3    0.00    3.20
   9  -3  -3    2.24    3.78
   9  -3  -2    3.82    3.78
  -9   3   2    6.05    3.45
   9  -3  -1   66.49    6.73
  -9   3   1   68.92    6.99
   9  -3   0    1.07    3.99
  -9   3   0   -1.61    3.92
   9  -3   1  119.08    8.83
  -9   3  -1  118.13    8.85
   9  -3   2    5.53    4.54
  -9   3  -2   14.80    4.92
   9  -3   3  154.94   10.58
  -9   3  -3  144.34    9.62
   9  -3   4    9.96    4.98
  -9   3  -4    8.37    5.05
   9  -3   5   43.34    6.78
  -9   3  -5   36.54    7.50
  -9   3  -6  -10.93    5.74
   9  -3   6   -1.04    5.17
  -9   2  12    0.77    6.01
  -9   2  11    6.62    5.87
   9  -2 -11  -11.01    6.40
  -9   2  10    2.81    4.81
   9  -2 -10   11.14    5.23
  -9   2   9   44.69    5.87
   9  -2  -9   43.82    5.71
  -9   2   5   -5.05    3.58
   9  -2  -5    2.35    3.76
  -9   2   4   40.67    4.94
   9  -2  -4   37.99    5.21
   9  -2  -3   14.85    4.17
  -9   2   3   13.64    4.33
  -9   2   2  168.37    9.59
   9  -2  -2  192.06   10.13
   9  -2  -1   60.39    6.45
  -9   2   1   53.75    6.19
   9  -2   0   76.08    8.02
  -9   2   0   87.52    8.58
   9  -2   1  299.18   13.29
  -9   2  -1  309.62   13.47
  -9   2  -2   35.67    5.82
   9  -2   2   36.49    6.10
  -9   2  -3   18.60    5.45
   9  -2   3   17.79    4.70
  -9   2  -4   -0.08    4.31
   9  -2   4    2.77    5.10
   9  -2   5   14.84    5.66
  -9   2  -5    9.18    5.23
   9  -2   6   28.57    6.11
  -9   2  -6   18.13    5.48
   9  -1 -12   69.99    7.26
  -9   1  12   73.34    7.96
  -9   1  11   26.44    5.27
   9  -1 -11   24.87    5.39
   9  -1  -6   18.41    4.50
   9  -1  -5   14.23    4.08
  -9   1   4  190.95    9.59
   9  -1  -4  172.50    9.69
   9  -1  -3    4.73    3.69
  -9   1   3    1.35    3.42
  -9   1   2  121.76    8.62
   9  -1  -2  127.35    8.89
  -9   1   1  159.80    9.60
   9  -1  -1  152.21    9.56
  -9   1   0  164.55    9.86
   9  -1   0  165.85   10.49
   9  -1   1   63.18    7.49
  -9   1  -1   66.36    6.97
   9  -1   2  149.98   10.31
  -9   1  -2  145.52    9.75
   9  -1   3  144.80   10.51
  -9   1  -3  154.60   10.26
   9  -1   4   45.20    7.36
  -9   1  -4   48.27    7.10
   9  -1   5   22.61    5.47
  -9   1  -5   23.65    5.92
   9   0  -7   18.91    4.44
   9   0  -6  242.88   11.68
   9   0  -5    8.74    4.87
   9   0  -4   -2.57    4.08
  -9   0   4    0.89    3.87
  -9   0   3   57.12    5.94
   9   0  -3   49.60    6.25
  -9   0   2   53.57    6.47
   9   0  -2   61.87    6.91
   9   0  -1    1.68    4.38
  -9   0   1    2.26    4.80
  -9   0   0  158.63    9.91
   9   0   0  168.30   10.52
  -9   0  -1   21.72    5.43
   9   0   1   29.98    5.76
  -9   0  -2   45.83    6.92
   9   0   2   52.53    7.70
   9   0   3   12.46    4.80
  -9   0  -3   11.41    5.31
   9   0   4   47.52    7.18
  -9   0  -4   47.89    7.05
   9   1  -9   43.03    5.30
   9   1  -8  107.39    8.42
   9   1  -7   62.03    6.81
   9   1  -6   -5.72    4.57
   9   1  -5   42.61    5.71
   9   1  -4    5.19    4.40
   9   1  -3   12.63    4.88
  -9  -1   3    7.06    4.02
   9   1  -2   14.19    4.59
  -9  -1   2   17.17    4.26
  -9  -1   1   78.53    7.20
   9   1  -1   88.47    8.11
  -9  -1   0   95.14    8.03
   9   1   0   83.54    8.30
  -9  -1  -1  176.68   10.84
   9   1   1  162.82   10.90
  -9  -1  -2   68.80    7.84
   9   1   2   63.92    7.90
  -9  -1  -3  232.69   13.10
   9   1   3  222.09   13.14
   9   2 -10  145.37    9.55
   9   2  -9  181.52   11.16
   9   2  -8  190.49   11.22
   9   2  -7   35.22    5.72
   9   2  -6   54.52    6.35
   9   2  -5   23.88    4.82
   9   2  -4    8.14    4.54
   9   2  -3    1.29    5.02
  -9  -2   2   62.39    6.93
   9   2  -2   73.28    7.67
   9   2  -1    0.40    4.80
  -9  -2   1    4.97    5.08
   9   2   0    8.31    5.44
  -9  -2   0   -5.04    4.82
   9   2   1   -0.66    5.66
  -9  -2  -1    0.16    5.58
   9   2   2   59.43    7.34
   9   3  -9    4.62    5.36
   9   3  -8   28.51    5.37
   9   3  -7   -1.47    5.56
   9   3  -6   16.43    5.91
   9   3  -5    9.08    5.63
   9   3  -4   19.26    4.95
   9   3  -3    2.70    5.19
   9   3  -2    4.34    5.04
   9   3  -1   60.88    8.02
  -9  -3   1   55.11    6.82
  -9  -3   0   26.36    5.86
 -10   7   2    5.35    5.62
 -10   7   1   39.94    6.30
  10  -7   2   63.60    7.36
  10  -7   3   36.29    6.10
 -10   6   6   17.52    5.91
 -10   6   5   12.42    5.12
 -10   6   4    5.88    4.92
 -10   6   3   87.59    8.10
 -10   6   2   14.11    4.79
 -10   6   1   62.14    7.40
 -10   6   0   -2.08    5.51
  10  -6   1   30.59    5.48
 -10   6  -1   34.09    6.31
 -10   6  -2    4.60    5.69
  10  -6   2    9.20    5.80
  10  -6   3  142.91   10.47
 -10   5   6    4.00    5.22
 -10   5   5   96.68    8.01
 -10   5   4  217.32   11.72
 -10   5   3   74.00    7.38
 -10   5   2    7.93    5.03
  10  -5  -1   49.08    5.92
 -10   5   1   46.20    6.67
 -10   5   0   10.25    4.64
  10  -5   0    8.27    4.67
  10  -5   1  113.68    9.06
 -10   5  -1  111.36    9.05
 -10   5  -2   20.47    5.44
  10  -5   2   25.73    5.95
  10  -5   3   75.08    8.17
 -10   5  -3   76.81    8.48
 -10   4   5   17.38    4.59
 -10   4   4   19.36    4.68
 -10   4   3   22.23    4.75
 -10   4   2    2.57    4.01
  10  -4  -2    5.36    4.55
 -10   4   1   -0.07    4.42
  10  -4  -1    6.08    4.50
 -10   4   0   28.69    6.04
  10  -4   0   27.71    5.72
  10  -4   1    4.90    4.84
 -10   4  -1    9.59    4.62
  10  -4   2   -7.82    5.34
 -10   4  -2    5.33    5.38
  10  -4   3    3.16    5.70
 -10   4  -3   -0.62    5.06
 -10   3   5   33.34    5.26
 -10   3   4   18.24    4.82
 -10   3   3   21.25    4.62
  10  -3  -3   23.91    5.01
  10  -3  -2   11.86    4.41
 -10   3   2   12.93    4.58
 -10   3   1   53.43    6.96
  10  -3  -1   44.20    5.81
  10  -3   0   14.40    4.89
 -10   3   0   21.33    4.94
  10  -3   1   53.36    7.09
 -10   3  -1   53.49    6.82
  10  -3   2   68.63    8.26
 -10   3  -2   65.67    7.56
  10  -3   3   33.79    6.65
 -10   3  -3   42.38    7.14
  10  -2  -5    2.81    4.82
 -10   2   4    3.23    4.39
  10  -2  -4    0.37    4.47
  10  -2  -3   29.03    5.32
 -10   2   3   17.53    4.91
  10  -2  -2    3.27    4.88
 -10   2   2    4.03    4.10
  10  -2  -1    1.61    4.87
 -10   2   1    3.39    4.23
  10  -2   0   60.44    7.09
 -10   2   0   61.55    6.74
  10  -2   1    7.93    4.75
 -10   2  -1    6.82    4.46
  10  -2   2  100.25    8.84
 -10   2  -2   93.07    8.50
  10  -1  -6  226.20   11.49
  10  -1  -5   93.72    8.11
  10  -1  -4   22.05    4.91
 -10   1   3  172.60    9.98
  10  -1  -3  189.82   11.06
  10  -1  -2   16.73    4.60
 -10   1   2   17.09    4.28
  10  -1  -1   27.11    6.25
 -10   1   1   31.31    6.21
  10  -1   0    5.88    5.22
 -10   1   0    0.27    5.05
 -10   1  -1   80.07    8.01
  10  -1   1   87.71    8.59
 -10   1  -2   41.88    6.06
  10  -1   2   40.69    6.32
  10   0  -7  106.90    8.51
  10   0  -6   15.37    5.44
  10   0  -5   83.63    8.08
  10   0  -4   24.56    5.28
  10   0  -3    3.15    5.32
 -10   0   3   -4.53    4.97
  10   0  -2    8.49    4.72
 -10   0   2    1.51    5.15
 -10   0   1    2.70    4.73
  10   0  -1   -2.64    4.96
  10   0   0    8.50    5.55
 -10   0   0    5.08    5.53
 -10   0  -1    7.06    5.24
  10   1  -8   57.87    6.43
  10   1  -7   74.12    7.61
  10   1  -6  114.08    9.00
  10   1  -5   11.04    5.35
  10   1  -4   -3.59    5.17
  10   1  -3   53.55    6.63
 -10  -1   2  122.58    9.15
  10   1  -2  118.40    9.28
 -10  -1   1   75.91    7.58
 -10  -1   0   12.58    5.63
  11  -5   0    5.40    6.00
 -11   4   4   21.49    5.30
 -11   4   3   38.74    6.27
 -11   4   2   -1.22    5.56
  11  -4  -1   13.88    5.52
 -11   3   4   -2.45    5.07
 -11   3   3    1.55    5.73
  11  -3  -3    0.71    6.02
 -11   3   2   19.90    5.91
  11  -3  -2    5.67    6.04
  11  -3  -1   11.50    5.63
  11  -2  -4   12.44    5.93
 -11   2   3  164.60   10.30
  11  -2  -3  159.61   11.15
  11  -2  -2   32.86    6.28
 -11   2   2   37.59    6.07
  11  -1  -5   47.67    6.15
 -11   1   2   -1.13    5.51
_computing_structure_solution     'SHELXT 2014/4 (Sheldrick, 2014)'
;
_shelx_hkl_checksum              68662
_shelx_res_file
;
TITL BD181_a.res in P-1
REM Old TITL BD181 in P-1
REM SHELXT solution in P-1
REM R1 0.152,  Rweak 0.011,  Alpha 0.058,  Orientation as input
REM Formula found by SHELXT:  C15 O3 S F6
CELL  0.71073   8.2805   8.6053  12.2396  103.519   99.935  105.188
ZERR    2.000   0.0003   0.0003   0.0004    0.003    0.003    0.003
LATT  1
SFAC C H O S F
UNIT 30 20 6 2 12
OMIT 0 52
ACTA
CONF
HTAB
OMIT    -1   1   0
OMIT     3   0   1
OMIT    -4   1   1
OMIT     2  -4   3
OMIT     3   0   3
OMIT     1  -4   6
OMIT     1  -4   3
OMIT    -1  -1   7
EQIV $1 -x+1, -y+1, -z+1
HTAB C2 F4A_$1
EQIV $2 -x, -y, -z
HTAB C9 O1_$2
L.S. 10
BOND $H
LIST 6
SIMU 0.005 F4A > F6b
DELU 0.005 F4A > F6b
FMAP 2
PLAN 20
REM #####
WGHT    0.044500    0.113700
FVAR       1.07992
S1    4    0.187007    0.276287    0.035155    11.00000    0.02474    0.01547 =
         0.01623    0.00420    0.00510    0.00521
O1    3    0.073835    0.237809   -0.076015    11.00000    0.03259    0.02199 =
         0.01683    0.00336    0.00220    0.00234
O2    3    0.284736    0.169291    0.059768    11.00000    0.03439    0.01981 =
         0.02741    0.00883    0.01308    0.01261
O3    3    0.056700    0.279375    0.119825    11.00000    0.02011    0.02101 =
         0.01699    0.00701    0.00304    0.00585
F1    5    0.276060   -0.091834    0.342244    11.00000    0.08084    0.03469 =
         0.04502    0.02122    0.03426    0.04115
F2    5    0.031041   -0.121664    0.382532    11.00000    0.04341    0.02648 =
         0.06097    0.02531    0.00227   -0.00346
F3    5    0.264206    0.015440    0.515966    11.00000    0.06488    0.02383 =
         0.02346    0.01045    0.00162    0.01830
PART 1
F4A   5    0.377023    0.605736    0.628802    10.65000    0.07124    0.02043 =
         0.01907    0.00120   -0.00700    0.01252
F5A   5    0.157292    0.665230    0.546242    10.65000    0.03803    0.02734 =
         0.05615   -0.00805    0.02191    0.00836
F6A   5    0.397399    0.732275    0.499016    10.65000    0.02569    0.01370 =
         0.03059    0.00493    0.00072    0.00158
PART 2
F5B   5    0.134461    0.668856    0.521876    10.35000    0.03390    0.01118 =
         0.03933    0.00551    0.01670    0.01166
F4B   5    0.276214    0.577507    0.635122    10.35000    0.11611    0.03302 =
         0.02109   -0.00055   -0.00543    0.03857
F6B   5    0.398674    0.716923    0.529897    10.35000    0.03208    0.03715 =
         0.06964   -0.02325    0.00871    0.00415
PART 0
C1    1    0.320144    0.485912    0.079145    11.00000    0.02169    0.01686 =
         0.01489    0.00422    0.00630    0.00485
C2    1    0.481440    0.532998    0.154986    11.00000    0.02466    0.02487 =
         0.01688    0.00766    0.00541    0.00952
AFIX  43
H2    2    0.522245    0.453251    0.180203    11.00000   -1.20000
AFIX   0
C3    1    0.580697    0.701652    0.192466    11.00000    0.02271    0.03020 =
         0.01521    0.00270    0.00266    0.00360
AFIX  43
H3    2    0.689422    0.734553    0.242920    11.00000   -1.20000
AFIX   0
C4    1    0.520888    0.822482    0.156112    11.00000    0.02789    0.02025 =
         0.01869    0.00070    0.01133    0.00313
C5    1    0.358683    0.771155    0.079126    11.00000    0.02804    0.02004 =
         0.02862    0.00921    0.01084    0.01023
AFIX  43
H5    2    0.317702    0.850708    0.053763    11.00000   -1.20000
AFIX   0
C6    1    0.257983    0.603795    0.039991    11.00000    0.02135    0.02174 =
         0.02209    0.00759    0.00431    0.00697
AFIX  43
H6    2    0.150258    0.570360   -0.011746    11.00000   -1.20000
AFIX   0
C7    1    0.629391    1.005416    0.196990    11.00000    0.03813    0.02191 =
         0.03135   -0.00082    0.01061    0.00047
AFIX 137
H7A   2    0.694561    1.029311    0.141839    11.00000   -1.50000
H7B   2    0.707138    1.028762    0.271016    11.00000   -1.50000
H7C   2    0.555591    1.074703    0.204154    11.00000   -1.50000
AFIX   0
C8    1    0.121433    0.286245    0.235730    11.00000    0.01468    0.01992 =
         0.01756    0.00665    0.00469    0.00482
C9    1    0.126582    0.139224    0.261278    11.00000    0.01876    0.01404 =
         0.01946    0.00277    0.00505    0.00265
AFIX  43
H9    2    0.092494    0.037629    0.202784    11.00000   -1.20000
AFIX   0
C10   1    0.183794    0.147047    0.376198    11.00000    0.01928    0.01620 =
         0.02129    0.00705    0.00744    0.00586
C11   1    0.234169    0.298240    0.463876    11.00000    0.02247    0.01948 =
         0.01664    0.00507    0.00503    0.00809
AFIX  43
H11   2    0.271426    0.302051    0.540900    11.00000   -1.20000
AFIX   0
C12   1    0.228191    0.443133    0.435108    11.00000    0.02482    0.01771 =
         0.02135    0.00387    0.00561    0.00875
C13   1    0.170963    0.438943    0.320170    11.00000    0.02197    0.01527 =
         0.02351    0.00752    0.00579    0.00720
AFIX  43
H13   2    0.166332    0.536359    0.301006    11.00000   -1.20000
AFIX   0
C14   1    0.189354   -0.012417    0.404579    11.00000    0.03457    0.01833 =
         0.02213    0.00723    0.00760    0.00863
C15   1    0.280176    0.608188    0.528237    11.00000    0.04678    0.02086 =
         0.02330    0.00420    0.00101    0.01513
HKLF 4
REM  BD181_a.res in P-1
REM R1 =  0.0298 for    2614 Fo > 4sig(Fo)  and  0.0361 for all    3070 data
REM    254 parameters refined using     36 restraints
END
WGHT      0.0445      0.1137
REM Instructions for potential hydrogen bonds
HTAB C2 F4A_$1
HTAB C9 O1_$2
REM Highest difference peak  0.272,  deepest hole -0.370,  1-sigma level  0.046
Q1    1   0.2526  0.3883  0.0609  11.00000  0.05    0.27
Q2    1   0.2607  0.5156  0.4780  11.00000  0.05    0.25
Q3    1   0.3858  0.5160  0.1379  11.00000  0.05    0.22
Q4    1   0.6075  1.0771  0.1363  11.00000  0.05    0.21
Q5    1   0.1916  0.0785  0.3905  11.00000  0.05    0.21
Q6    1   0.6102  1.0547  0.2697  11.00000  0.05    0.21
Q7    1   0.2071  0.4372  0.3855  11.00000  0.05    0.21
Q8    1   0.2007  0.1538  0.3208  11.00000  0.05    0.19
Q9    1   0.1631  0.2223  0.2485  11.00000  0.05    0.18
Q10   1   0.2867  0.5365  0.0612  11.00000  0.05    0.18
Q11   1   0.1707  0.3603  0.2776  11.00000  0.05    0.18
Q12   1   0.1561 -0.0037  0.5227  11.00000  0.05    0.18
Q13   1   0.4305  0.7962  0.1355  11.00000  0.05    0.18
Q14   1   0.2372  0.2227  0.4182  11.00000  0.05    0.17
Q15   1   0.0950  0.2765  0.1811  11.00000  0.05    0.17
Q16   1   0.1751  0.5156  0.6246  11.00000  0.05    0.17
Q17   1   0.2731  0.3832  0.4456  11.00000  0.05    0.17
Q18   1   0.5556  0.7550  0.1601  11.00000  0.05    0.16
Q19   1   0.5775  0.9108  0.1782  11.00000  0.05    0.16
Q20   1   0.0911 -0.1565  0.3314  11.00000  0.05    0.15
;
_shelx_res_checksum              61512
_shelxl_version_number           .2013
loop_
_space_group_symop_operation_xyz
'x, y, z'
'-x, -y, -z'
loop_
_atom_site_type_symbol
_atom_site_label
_atom_site_fract_x
_atom_site_fract_y
_atom_site_fract_z
_atom_site_U_iso_or_equiv
_atom_site_adp_type
_atom_site_calc_flag
_atom_site_occupancy
_atom_site_disorder_assembly
_atom_site_disorder_group
S S1 0.18701(5) 0.27629(4) 0.03515(3) 0.01913(11) Uani d 1 . .
O O1 0.07383(14) 0.23781(13) -0.07602(9) 0.0260(3) Uani d 1 . .
O O2 0.28474(14) 0.16929(13) 0.05977(9) 0.0253(3) Uani d 1 . .
O O3 0.05670(13) 0.27937(12) 0.11983(8) 0.0194(2) Uani d 1 . .
F F1 0.27606(16) -0.09183(13) 0.34224(9) 0.0447(3) Uani d 1 . .
F F2 0.03104(14) -0.12166(12) 0.38253(10) 0.0457(3) Uani d 1 . .
F F3 0.26421(14) 0.01544(11) 0.51597(8) 0.0371(3) Uani d 1 . .
F F4A 0.3770(3) 0.6057(3) 0.62880(19) 0.0405(6) Uani d 0.65 A 1
F F5A 0.1573(14) 0.6652(12) 0.5462(8) 0.0432(17) Uani d 0.65 A 1
F F6A 0.3974(7) 0.7323(6) 0.4990(3) 0.0254(6) Uani d 0.65 A 1
F F5B 0.134(2) 0.669(2) 0.5219(14) 0.0266(17) Uani d 0.35 A 2
F F4B 0.2762(7) 0.5775(6) 0.6351(4) 0.0582(13) Uani d 0.35 A 2
F F6B 0.3987(15) 0.7169(12) 0.5299(7) 0.055(2) Uani d 0.35 A 2
C C1 0.32014(19) 0.48591(18) 0.07914(12) 0.0179(3) Uani d 1 . .
C C2 0.48144(19) 0.53300(19) 0.15499(13) 0.0215(3) Uani d 1 . .
H H2 0.5222 0.4533 0.1802 0.026 Uiso calc 1 . .
C C3 0.5807(2) 0.7017(2) 0.19247(13) 0.0246(3) Uani d 1 . .
H H3 0.6894 0.7346 0.2429 0.030 Uiso calc 1 . .
C C4 0.5209(2) 0.82248(19) 0.15611(13) 0.0234(3) Uani d 1 . .
C C5 0.3587(2) 0.77115(19) 0.07913(14) 0.0242(3) Uani d 1 . .
H H5 0.3177 0.8507 0.0538 0.029 Uiso calc 1 . .
C C6 0.2580(2) 0.60379(19) 0.03999(13) 0.0216(3) Uani d 1 . .
H H6 0.1503 0.5704 -0.0117 0.026 Uiso calc 1 . .
C C7 0.6294(2) 1.0054(2) 0.19699(15) 0.0336(4) Uani d 1 . .
H H7A 0.6946 1.0293 0.1418 0.050 Uiso calc 1 . .
H H7B 0.7071 1.0288 0.2710 0.050 Uiso calc 1 . .
H H7C 0.5556 1.0747 0.2042 0.050 Uiso calc 1 . .
C C8 0.12143(18) 0.28625(18) 0.23573(12) 0.0172(3) Uani d 1 . .
C C9 0.12658(18) 0.13922(17) 0.26128(13) 0.0183(3) Uani d 1 . .
H H9 0.0925 0.0376 0.2028 0.022 Uiso calc 1 . .
C C10 0.18379(19) 0.14705(18) 0.37620(13) 0.0183(3) Uani d 1 . .
C C11 0.23417(19) 0.29824(18) 0.46388(13) 0.0193(3) Uani d 1 . .
H H11 0.2714 0.3021 0.5409 0.023 Uiso calc 1 . .
C C12 0.22819(19) 0.44313(18) 0.43511(13) 0.0212(3) Uani d 1 . .
C C13 0.17096(19) 0.43894(18) 0.32017(13) 0.0196(3) Uani d 1 . .
H H13 0.1663 0.5364 0.3010 0.024 Uiso calc 1 . .
C C14 0.1894(2) -0.01242(19) 0.40458(14) 0.0247(3) Uani d 1 . .
C C15 0.2802(3) 0.6082(2) 0.52824(14) 0.0308(4) Uani d 1 . .
loop_
_atom_site_aniso_label
_atom_site_aniso_U_11
_atom_site_aniso_U_22
_atom_site_aniso_U_33
_atom_site_aniso_U_12
_atom_site_aniso_U_13
_atom_site_aniso_U_23
S1 0.0247(2) 0.01547(19) 0.01623(19) 0.00521(15) 0.00510(15) 0.00420(14)
O1 0.0326(6) 0.0220(6) 0.0168(5) 0.0023(5) 0.0022(5) 0.0034(4)
O2 0.0344(6) 0.0198(5) 0.0274(6) 0.0126(5) 0.0131(5) 0.0088(5)
O3 0.0201(5) 0.0210(5) 0.0170(5) 0.0058(4) 0.0030(4) 0.0070(4)
F1 0.0808(9) 0.0347(6) 0.0450(7) 0.0411(6) 0.0343(6) 0.0212(5)
F2 0.0434(6) 0.0265(5) 0.0610(8) -0.0035(5) 0.0023(5) 0.0253(5)
F3 0.0649(7) 0.0238(5) 0.0235(5) 0.0183(5) 0.0016(5) 0.0105(4)
F4A 0.0712(15) 0.0204(9) 0.0191(9) 0.0125(11) -0.0070(11) 0.0012(7)
F5A 0.038(3) 0.027(2) 0.056(4) 0.0084(15) 0.022(3) -0.008(2)
F6A 0.0257(11) 0.0137(9) 0.0306(14) 0.0016(8) 0.0007(11) 0.0049(10)
F5B 0.034(4) 0.011(2) 0.039(4) 0.012(2) 0.017(3) 0.006(3)
F4B 0.116(4) 0.033(2) 0.0211(18) 0.039(3) -0.005(3) -0.0005(15)
F6B 0.032(3) 0.037(4) 0.070(5) 0.004(3) 0.009(4) -0.023(3)
C1 0.0217(7) 0.0169(7) 0.0149(7) 0.0049(6) 0.0063(6) 0.0042(6)
C2 0.0247(8) 0.0249(8) 0.0169(7) 0.0095(7) 0.0054(6) 0.0077(6)
C3 0.0227(8) 0.0302(8) 0.0152(7) 0.0036(7) 0.0027(6) 0.0027(6)
C4 0.0279(8) 0.0203(8) 0.0187(8) 0.0031(7) 0.0113(6) 0.0007(6)
C5 0.0280(8) 0.0200(8) 0.0286(9) 0.0102(7) 0.0108(7) 0.0092(7)
C6 0.0213(8) 0.0217(8) 0.0221(8) 0.0070(6) 0.0043(6) 0.0076(6)
C7 0.0381(10) 0.0219(8) 0.0314(10) 0.0005(7) 0.0106(8) -0.0008(7)
C8 0.0147(7) 0.0199(7) 0.0176(7) 0.0048(6) 0.0047(6) 0.0066(6)
C9 0.0188(7) 0.0140(7) 0.0195(7) 0.0026(6) 0.0050(6) 0.0028(6)
C10 0.0193(7) 0.0162(7) 0.0213(8) 0.0059(6) 0.0074(6) 0.0071(6)
C11 0.0225(8) 0.0195(7) 0.0166(7) 0.0081(6) 0.0050(6) 0.0051(6)
C12 0.0248(8) 0.0177(7) 0.0213(8) 0.0088(6) 0.0056(6) 0.0039(6)
C13 0.0220(7) 0.0153(7) 0.0235(8) 0.0072(6) 0.0058(6) 0.0075(6)
C14 0.0346(9) 0.0183(7) 0.0221(8) 0.0086(7) 0.0076(7) 0.0072(6)
C15 0.0468(11) 0.0209(9) 0.0233(9) 0.0151(9) 0.0010(8) 0.0042(7)
loop_
_atom_type_symbol
_atom_type_description
_atom_type_scat_dispersion_real
_atom_type_scat_dispersion_imag
_atom_type_scat_source
C C 0.0033 0.0016 'International Tables Vol C Tables 4.2.6.8 and 6.1.1.4'
H H 0.0000 0.0000 'International Tables Vol C Tables 4.2.6.8 and 6.1.1.4'
O O 0.0106 0.0060 'International Tables Vol C Tables 4.2.6.8 and 6.1.1.4'
S S 0.1246 0.1234 'International Tables Vol C Tables 4.2.6.8 and 6.1.1.4'
F F 0.0171 0.0103 'International Tables Vol C Tables 4.2.6.8 and 6.1.1.4'
loop_
_geom_angle_atom_site_label_1
_geom_angle_atom_site_label_2
_geom_angle_atom_site_label_3
_geom_angle
O1 S1 O2 121.19(7)
O1 S1 O3 102.31(6)
O2 S1 O3 108.14(6)
O1 S1 C1 110.29(7)
O2 S1 C1 110.36(7)
O3 S1 C1 102.61(6)
C8 O3 S1 117.42(9)
C2 C1 C6 121.31(14)
C2 C1 S1 119.98(12)
C6 C1 S1 118.66(11)
C1 C2 C3 118.59(14)
C1 C2 H2 120.7
C3 C2 H2 120.7
C2 C3 C4 121.34(14)
C2 C3 H3 119.3
C4 C3 H3 119.3
C3 C4 C5 118.76(14)
C3 C4 C7 121.10(15)
C5 C4 C7 120.14(15)
C6 C5 C4 120.95(15)
C6 C5 H5 119.5
C4 C5 H5 119.5
C5 C6 C1 119.04(14)
C5 C6 H6 120.5
C1 C6 H6 120.5
C4 C7 H7A 109.5
C4 C7 H7B 109.5
H7A C7 H7B 109.5
C4 C7 H7C 109.5
H7A C7 H7C 109.5
H7B C7 H7C 109.5
C13 C8 C9 122.41(13)
C13 C8 O3 118.51(12)
C9 C8 O3 119.03(12)
C8 C9 C10 118.28(13)
C8 C9 H9 120.9
C10 C9 H9 120.9
C9 C10 C11 121.09(13)
C9 C10 C14 118.55(13)
C11 C10 C14 120.37(13)
C12 C11 C10 119.08(14)
C12 C11 H11 120.5
C10 C11 H11 120.5
C11 C12 C13 121.06(14)
C11 C12 C15 120.26(14)
C13 C12 C15 118.67(13)
C8 C13 C12 118.07(13)
C8 C13 H13 121.0
C12 C13 H13 121.0
F1 C14 F3 107.05(13)
F1 C14 F2 106.36(13)
F3 C14 F2 106.91(12)
F1 C14 C10 111.94(13)
F3 C14 C10 112.39(13)
F2 C14 C10 111.81(13)
F5A C15 F4A 111.0(4)
F6B C15 F4B 114.9(5)
F5A C15 F6A 106.2(5)
F4A C15 F6A 101.2(2)
F6B C15 F5B 107.7(8)
F4B C15 F5B 94.9(7)
F6B C15 C12 119.4(5)
F5A C15 C12 115.2(5)
F4A C15 C12 112.22(16)
F4B C15 C12 109.2(2)
F6A C15 C12 109.9(2)
F5B C15 C12 107.7(7)
loop_
_geom_bond_atom_site_label_1
_geom_bond_atom_site_label_2
_geom_bond_distance
S1 O1 1.4234(11)
S1 O2 1.4246(11)
S1 O3 1.6208(11)
S1 C1 1.7488(15)
O3 C8 1.4089(17)
F1 C14 1.3293(19)
F2 C14 1.3374(19)
F3 C14 1.3334(18)
F4A C15 1.356(3)
F5A C15 1.270(11)
F6A C15 1.402(5)
F5B C15 1.432(19)
F4B C15 1.398(5)
F6B C15 1.158(10)
C1 C2 1.387(2)
C1 C6 1.393(2)
C2 C3 1.388(2)
C2 H2 0.9300
C3 C4 1.391(2)
C3 H3 0.9300
C4 C5 1.395(2)
C4 C7 1.507(2)
C5 C6 1.382(2)
C5 H5 0.9300
C6 H6 0.9300
C7 H7A 0.9600
C7 H7B 0.9600
C7 H7C 0.9600
C8 C13 1.378(2)
C8 C9 1.382(2)
C9 C10 1.384(2)
C9 H9 0.9300
C10 C11 1.388(2)
C10 C14 1.502(2)
C11 C12 1.383(2)
C11 H11 0.9300
C12 C13 1.394(2)
C12 C15 1.502(2)
C13 H13 0.9300
loop_
_geom_hbond_atom_site_label_D
_geom_hbond_atom_site_label_H
_geom_hbond_atom_site_label_A
_geom_hbond_site_symmetry_A
_geom_hbond_distance_DH
_geom_hbond_distance_HA
_geom_hbond_distance_DA
_geom_hbond_angle_DHA
C2 H2 F4A 2_666 0.93 2.55 3.308(3) 138.5
C9 H9 O1 2 0.93 2.40 3.2959(17) 162.0
loop_
_geom_torsion_atom_site_label_1
_geom_torsion_atom_site_label_2
_geom_torsion_atom_site_label_3
_geom_torsion_atom_site_label_4
_geom_torsion
O1 S1 O3 C8 169.55(10)
O2 S1 O3 C8 40.56(11)
C1 S1 O3 C8 -76.08(11)
O1 S1 C1 C2 -152.88(12)
O2 S1 C1 C2 -16.32(15)
O3 S1 C1 C2 98.72(13)
O1 S1 C1 C6 29.51(14)
O2 S1 C1 C6 166.07(11)
O3 S1 C1 C6 -78.89(12)
C6 C1 C2 C3 0.5(2)
S1 C1 C2 C3 -177.05(11)
C1 C2 C3 C4 0.4(2)
C2 C3 C4 C5 -0.9(2)
C2 C3 C4 C7 -179.91(14)
C3 C4 C5 C6 0.5(2)
C7 C4 C5 C6 179.48(14)
C4 C5 C6 C1 0.4(2)
C2 C1 C6 C5 -0.9(2)
S1 C1 C6 C5 176.65(12)
S1 O3 C8 C13 101.10(13)
S1 O3 C8 C9 -81.44(14)
C13 C8 C9 C10 0.0(2)
O3 C8 C9 C10 -177.35(12)
C8 C9 C10 C11 0.3(2)
C8 C9 C10 C14 179.88(13)
C9 C10 C11 C12 -0.6(2)
C14 C10 C11 C12 179.80(14)
C10 C11 C12 C13 0.7(2)
C10 C11 C12 C15 179.37(15)
C9 C8 C13 C12 0.1(2)
O3 C8 C13 C12 177.43(12)
C11 C12 C13 C8 -0.4(2)
C15 C12 C13 C8 -179.14(15)
C9 C10 C14 F1 52.61(19)
C11 C10 C14 F1 -127.77(16)
C9 C10 C14 F3 173.13(13)
C11 C10 C14 F3 -7.2(2)
C9 C10 C14 F2 -66.61(18)
C11 C10 C14 F2 113.01(16)
C11 C12 C15 F6B 116.5(6)
C13 C12 C15 F6B -64.8(6)
C11 C12 C15 F5A -109.7(5)
C13 C12 C15 F5A 69.1(5)
C11 C12 C15 F4A 18.7(3)
C13 C12 C15 F4A -162.53(17)
C11 C12 C15 F4B -18.6(3)
C13 C12 C15 F4B 160.1(3)
C11 C12 C15 F6A 130.5(3)
C13 C12 C15 F6A -50.8(3)
C11 C12 C15 F5B -120.5(7)
C13 C12 C15 F5B 58.2(7)

_cod_database_fobs_code 1546633
