#------------------------------------------------------------------------------
#$Date: 2017-07-05 00:11:08 +0300 (Wed, 05 Jul 2017) $
#$Revision: 198410 $
#$URL: file:///home/coder/svn-repositories/cod/cif/1/54/64/1546470.cif $
#------------------------------------------------------------------------------
#
# This file is available in the Crystallography Open Database (COD),
# http://www.crystallography.net/
#
# All data on this site have been placed in the public domain by the
# contributors.
#
data_1546470
loop_
_publ_author_name
'Ogawa, Naoki'
'Yamaoka, Yousuke'
'Yamada, Ken-Ichi'
'Takasu, Kiyosei'
_publ_section_title
;
 Synthesis of \p-Extended Fluoranthenes via a KHMDS-Promoted
 Anionic-Radical Reaction Cascade.
;
_journal_issue                   12
_journal_name_full               'Organic letters'
_journal_page_first              3327
_journal_page_last               3330
_journal_paper_doi               10.1021/acs.orglett.7b01538
_journal_volume                  19
_journal_year                    2017
_chemical_absolute_configuration 'CHOOSE rm ad rmad syn or unk'
_chemical_formula_moiety         'C24 H14 O'
_chemical_formula_sum            'C24 H14 O'
_chemical_formula_weight         318.37
_space_group_crystal_system      monoclinic
_space_group_IT_number           4
_space_group_name_Hall           'P 2yb'
_space_group_name_H-M_alt        'P 1 21 1'
_symmetry_space_group_name_Hall  'P 2yb'
_symmetry_space_group_name_H-M   'P 1 21 1'
_atom_sites_solution_hydrogens   geom
_atom_sites_solution_primary     direct
_atom_sites_solution_secondary   difmap
_cell_angle_alpha                90.0000
_cell_angle_beta                 101.305(12)
_cell_angle_gamma                90.0000
_cell_formula_units_Z            2
_cell_length_a                   11.113(4)
_cell_length_b                   4.9271(18)
_cell_length_c                   13.773(5)
_cell_measurement_reflns_used    499
_cell_measurement_temperature    93
_cell_measurement_theta_max      68.20
_cell_measurement_theta_min      25.30
_cell_volume                     739.5(5)
_computing_cell_refinement       'CrystalClear-SM Expert 2.1 b42'
_computing_data_collection
'CrystalClear-SM Expert 2.1 b42 (Rigaku, 2015)'
_computing_data_reduction        'CrystalClear-SM Expert 2.1 b42'
_computing_molecular_graphics    'CrystalStructure 4.1'
_computing_publication_material  'CrystalStructure 4.1 (Rigaku, 2014)'
_computing_structure_refinement  'SHELXL2013 (Sheldrick, 2008)'
_computing_structure_solution    'Il Milione (Burla, et al., 2007)'
_diffrn_ambient_temperature      93
_diffrn_detector_area_resol_mean 5.814
_diffrn_measured_fraction_theta_full 0.996
_diffrn_measured_fraction_theta_max 0.995
_diffrn_measurement_device_type  'Rigaku XtaLAB P200'
_diffrn_measurement_method       \w
_diffrn_radiation_type           'Cu K\a'
_diffrn_radiation_wavelength     1.54187
_diffrn_reflns_av_R_equivalents  0.0896
_diffrn_reflns_Laue_measured_fraction_full 0.996
_diffrn_reflns_Laue_measured_fraction_max 0.995
_diffrn_reflns_limit_h_max       5
_diffrn_reflns_limit_h_min       -13
_diffrn_reflns_limit_k_max       5
_diffrn_reflns_limit_k_min       -5
_diffrn_reflns_limit_l_max       16
_diffrn_reflns_limit_l_min       -16
_diffrn_reflns_number            6067
_diffrn_reflns_point_group_measured_fraction_full 0.912
_diffrn_reflns_point_group_measured_fraction_max 0.911
_diffrn_reflns_theta_full        67.687
_diffrn_reflns_theta_max         68.135
_diffrn_reflns_theta_min         4.688
_diffrn_standards_number         0
_exptl_absorpt_coefficient_mu    0.669
_exptl_absorpt_correction_T_max  0.875
_exptl_absorpt_correction_T_min  0.374
_exptl_absorpt_correction_type   multi-scan
_exptl_absorpt_process_details   'REQAB (Rigaku, 1998)'
_exptl_crystal_colour            colorless
_exptl_crystal_density_diffrn    1.430
_exptl_crystal_density_method    'not measured'
_exptl_crystal_description       prism
_exptl_crystal_F_000             332.00
_exptl_crystal_size_max          0.200
_exptl_crystal_size_mid          0.200
_exptl_crystal_size_min          0.200
_refine_diff_density_max         0.64
_refine_diff_density_min         -0.67
_refine_ls_abs_structure_details
;
 Flack x determined using 308 quotients [(I+)-(I-)]/[(I+)+(I-)]
 (Parsons and Flack (2004), Acta Cryst. A60, s61).
;
_refine_ls_abs_structure_Flack   0.5(10)
_refine_ls_extinction_method     none
_refine_ls_goodness_of_fit_ref   1.395
_refine_ls_hydrogen_treatment    constr
_refine_ls_number_parameters     227
_refine_ls_number_reflns         2454
_refine_ls_number_restraints     1
_refine_ls_R_factor_all          0.1561
_refine_ls_R_factor_gt           0.1172
_refine_ls_shift/su_max          0.001
_refine_ls_structure_factor_coef Fsqd
_refine_ls_weighting_details
'w = 1/[\s^2^(Fo^2^)+(0.2000P)^2^+0.0000P] where P=(Fo^2^+2Fc^2^)/3'
_refine_ls_weighting_scheme      calc
_refine_ls_wR_factor_gt          0.3206
_refine_ls_wR_factor_ref         0.4226
_reflns_number_gt                1546
_reflns_number_total             2454
_reflns_threshold_expression     F^2^>2.0\s(F^2^)
_cod_data_source_file            ol7b01538_si_004.cif
_cod_data_source_block           160114NO_1
_cod_database_code               1546470
_shelxl_res_file
;

    shelxl.res created by SHELXL-2014/7

TITL 160114NO_1
CELL  1.54187 11.11300 4.92710 13.77300 90.00000 101.30500 90.00000
ZERR  2 0.00400 0.00180 0.00500 0.00000 0.01200 0.00000
LATT -1
SYMM    -X, .50+Y,    -Z
SFAC C H O
UNIT 48 28 2
L.S. 5
FMAP 2
PLAN -25
WPDB -2
HTAB
BOND $H
CONF
LIST 4
TEMP -180.0
ACTA
SIZE 0.200 0.200 0.200
WGHT    0.200000
FVAR       1.60694
O1    3    1.036443    0.846902    0.934510    11.00000    0.03788    0.07401 =
         0.04075   -0.01457    0.01221   -0.00593
AFIX 147
H1    2    1.092874    0.948544    0.963536    11.00000   -1.20000
AFIX   0
C1    1    1.075416    0.710620    0.860369    11.00000    0.02565    0.04016 =
         0.02202   -0.00266    0.00522   -0.00540
C2    1    1.197268    0.754322    0.847105    11.00000    0.02559    0.04205 =
         0.03581    0.00881   -0.00094   -0.01185
AFIX  43
H2    2    1.246341    0.881608    0.889169    11.00000   -1.20000
AFIX   0
C3    1    1.247414    0.626541    0.778646    11.00000    0.02230    0.05534 =
         0.04000    0.00392    0.00974   -0.01705
AFIX  43
H3    2    1.327509    0.672777    0.769682    11.00000   -1.20000
AFIX   0
C4    1    1.176990    0.415286    0.718119    11.00000    0.01943    0.05767 =
         0.03262    0.00394    0.00721   -0.00195
C5    1    1.216322    0.259012    0.644405    11.00000    0.02004    0.05519 =
         0.04085    0.00846    0.01359    0.00506
AFIX  43
H5    2    1.296214    0.283889    0.630912    11.00000   -1.20000
AFIX   0
C6    1    1.139924    0.074630    0.593394    11.00000    0.02194    0.05738 =
         0.03019    0.00757    0.01345   -0.00306
AFIX  43
H6    2    1.168193   -0.035327    0.545807    11.00000   -1.20000
AFIX   0
C7    1    1.016873    0.039100    0.608752    11.00000    0.01732    0.04959 =
         0.03361   -0.01023    0.01361   -0.00026
AFIX  43
H7    2    0.964919   -0.091347    0.570698    11.00000   -1.20000
AFIX   0
C8    1    0.974158    0.189220    0.676757    11.00000    0.01717    0.04743 =
         0.02297   -0.00283    0.01010    0.00600
C9    1    0.858107    0.217679    0.713695    11.00000    0.01869    0.03725 =
         0.02064    0.00864    0.01015    0.00792
C10   1    0.746240    0.074920    0.684816    11.00000    0.01395    0.04114 =
         0.02310   -0.00049    0.00807    0.00517
C11   1    0.726880   -0.122255    0.606815    11.00000    0.02455    0.05265 =
         0.02639   -0.00126    0.00960   -0.01037
AFIX  43
H11   2    0.791864   -0.160558    0.573204    11.00000   -1.20000
AFIX   0
C12   1    0.619297   -0.255525    0.579469    11.00000    0.02412    0.07206 =
         0.02393   -0.00223    0.00637   -0.00287
AFIX  43
H12   2    0.609110   -0.385014    0.527391    11.00000   -1.20000
AFIX   0
C13   1    0.522531   -0.200694    0.628847    11.00000    0.01821    0.06918 =
         0.02928    0.00282    0.00465   -0.00172
AFIX  43
H13   2    0.446525   -0.292874    0.609497    11.00000   -1.20000
AFIX   0
C14   1    0.536592   -0.017057    0.704033    11.00000    0.01928    0.05497 =
         0.03473    0.01002    0.00639    0.00533
AFIX  43
H14   2    0.470990    0.014475    0.737659    11.00000   -1.20000
AFIX   0
C15   1    0.646794    0.125866    0.732317    11.00000    0.01808    0.04924 =
         0.02006    0.00722    0.00606    0.00483
C16   1    0.662571    0.338999    0.810358    11.00000    0.01858    0.05141 =
         0.01840    0.00341    0.00876    0.00263
C17   1    0.565769    0.400992    0.861092    11.00000    0.02093    0.04332 =
         0.03150    0.00320    0.01467   -0.00100
AFIX  43
H17   2    0.491635    0.300109    0.845536    11.00000   -1.20000
AFIX   0
C18   1    0.575599    0.597889    0.930462    11.00000    0.02591    0.04442 =
         0.03262    0.00536    0.01667    0.00827
AFIX  43
H18   2    0.510335    0.629722    0.964427    11.00000   -1.20000
AFIX   0
C19   1    0.681310    0.752887    0.951731    11.00000    0.03505    0.05867 =
         0.02613    0.00991    0.01338    0.01240
AFIX  43
H19   2    0.686617    0.900183    0.996881    11.00000   -1.20000
AFIX   0
C20   1    0.779632    0.692521    0.906887    11.00000    0.02146    0.03732 =
         0.03059   -0.00102    0.00950    0.00291
AFIX  43
H20   2    0.854115    0.790830    0.925584    11.00000   -1.20000
AFIX   0
C21   1    0.771265    0.491288    0.835242    11.00000    0.02289    0.04436 =
         0.01724    0.00509    0.00779    0.01462
C22   1    0.873976    0.416453    0.788834    11.00000    0.01671    0.04179 =
         0.01398    0.00093    0.00360    0.00241
C23   1    1.000267    0.516644    0.801124    11.00000    0.02348    0.03774 =
         0.02198   -0.00358    0.00252   -0.00133
C24   1    1.056255    0.384643    0.731619    11.00000    0.01425    0.03468 =
         0.03113    0.00737    0.00460   -0.00453
HKLF 4
 
REM  160114NO_1
REM R1 =  0.1172 for    1546 Fo > 4sig(Fo)  and  0.1561 for all    2454 data
REM    227 parameters refined using      1 restraints
 
END  
     
WGHT      0.2000      0.0000 

REM No hydrogen bonds found for HTAB generation

REM Highest difference peak  0.644,  deepest hole -0.670,  1-sigma level  0.153
Q1    1   0.9529  0.6892  0.9331  11.00000  0.05    0.58
Q2    1   0.9755 -0.1759  0.5575  11.00000  0.05    0.54
Q3    1   0.7118 -0.5072  0.6755  11.00000  0.05    0.54
Q4    1   0.7470  0.6408  0.9446  11.00000  0.05    0.51
Q5    1   1.2185  0.9906  0.8954  11.00000  0.05    0.49
Q6    1   0.8688  0.1789  0.7326  11.00000  0.05    0.48
Q7    1   0.5019  0.3249  0.7748  11.00000  0.05    0.47
Q8    1   0.7030  0.0140  0.7210  11.00000  0.05    0.45
Q9    1   0.5989  0.4592  0.8234  11.00000  0.05    0.45
Q10   1   0.6462  0.0165  0.6248  11.00000  0.05    0.45
Q11   1   0.9388  1.0197  0.9256  11.00000  0.05    0.44
Q12   1   0.7199  0.6456  0.8568  11.00000  0.05    0.42
Q13   1   1.0789  0.2400  0.6252  11.00000  0.05    0.41
Q14   1   1.0047  0.3177  0.5498  11.00000  0.05    0.40
Q15   1   0.9298  0.5078  0.8686  11.00000  0.05    0.40
Q16   1   0.6821  0.1858  0.6874  11.00000  0.05    0.39
Q17   1   1.1703  0.2413  0.5175  11.00000  0.05    0.38
Q18   1   0.6969  0.6887  0.7353  11.00000  0.05    0.38
Q19   1   0.9751  0.1956  0.8572  11.00000  0.05    0.38
Q20   1   1.0478  1.1462  0.9601  11.00000  0.05    0.37
Q21   1   0.5787  0.3559  0.6403  11.00000  0.05    0.36
Q22   1   0.8454  0.5441  0.8847  11.00000  0.05    0.36
Q23   1   0.8066  0.0818  0.8326  11.00000  0.05    0.36
Q24   1   0.7152  0.4914  0.8040  11.00000  0.05    0.36
Q25   1   0.8414  0.3643  0.8170  11.00000  0.05    0.35
;
_shelxl_hkl_file
;
  -1   0   1 1664.87   62.41
   1   0  -1 2227.34   75.36
   1   0  -1 1919.52   63.34
  -1   0   1 1987.09   69.82
  -1   0   1 2144.84   71.17
   1   0   1 1431.88   62.56
  -1   0  -1 1395.29   59.30
  -1   0  -1 1603.79   52.90
   0   0  -2 8801.56  242.53
   0   0   2 8903.57  246.27
   0   0   2 9515.35  281.05
   0   0  -2 9762.14  276.26
  -1   0   2  234.75   32.36
  -1   0   2  259.98   31.81
  -2   0   0    3.45    3.69
  -2   0   0    8.15    6.60
  -2   0   0    4.24    2.46
   2   0   0    7.15    6.71
   2   0  -1 7600.84  225.04
  -2   0   1 7440.04  221.00
   2   0  -1 7235.25  201.76
  -2   0   1 7412.38  212.02
   2   0  -1 7094.59  214.84
  -1   0  -2 1938.70   82.47
   1   0   2 2016.00   78.37
  -1   0  -2 2109.95   79.35
  -1   0  -2 1808.53   83.00
   1   0   2 2114.23   89.17
   0   1   0    0.88    4.45
  -2   0  -1 5656.01  151.49
  -2   0  -1 5195.81  169.95
  -2   0   2  133.97   18.58
  -2   0   2  177.00   23.21
   2   0  -2  203.85   23.50
  -2   0   2  222.98   28.80
  -2   0   2  205.08   29.09
   2   0  -2  216.51   38.06
   0   1  -1  827.22   44.73
   0  -1   1  439.96   39.46
   0   1   1  769.20   41.18
   0   0   3  720.16   58.51
   0   0   3  841.61   61.04
   0   0  -3  679.56   48.37
   0   0  -3  666.81   78.16
   0   0  -3  733.56   53.61
   1   1   0    6.14    7.83
  -1   1   0    0.36    1.56
   1   0  -3  161.85   23.49
  -1   0   3  167.25   31.56
   1   0  -3  164.69   17.70
  -1  -1   1   85.81   21.14
   1   1  -1   88.38   19.10
   1   1  -1   74.22   16.57
  -1   1   1   47.40   13.06
  -1   1  -1 5845.00  202.36
   1  -1   1 6116.95  189.92
   0  -1   218783.38  529.33
   0   1   220015.04 1705.07
   1   0   3  611.80   47.59
  -1   0  -3  603.59   47.90
  -1   0  -3  605.25   46.16
   1   0   3  640.59   65.41
  -1   0  -3  530.19   51.36
  -1  -1   2 1922.24   99.99
  -1   1   2 2087.46  102.46
   1   1  -2 1989.72  101.08
   1   1  -2 1590.70  103.90
  -2   0  -2  174.99   49.31
   2   0   2  209.96   55.58
  -2   0  -2  211.87   25.27
  -2   0   3 1209.67   77.09
  -2   0   3 1518.87   77.02
  -2   0   3 1502.91   76.87
   2   0  -3 1475.97   77.60
  -3   0   1 1062.17   76.37
   3   0  -1 1285.97   70.15
   3   0  -1 1119.28   65.51
  -3   0   1 1052.76   46.16
  -3   0   1 1184.89   57.82
  -2  -1   0 1076.74   64.79
   2   1   0 1170.73   44.14
   2   1  -1  167.54   24.14
  -2  -1   1   57.90   12.74
  -3   0   0    5.81    5.51
   3   0   0    6.45    7.79
  -3   0   0    3.46    5.32
   1   1   228307.26 2407.93
   1  -1   224125.03 2057.35
  -1   1  -224606.65 2111.72
  -3   0   2  201.70   41.98
   3   0  -2  136.82   21.22
  -3   0   2  186.18   17.86
  -3   0   2  151.44   20.21
   3   0  -2  198.93   27.83
  -3   0   2  180.88   27.28
   3   0  -2  207.10   24.13
  -1   0   4  382.00   47.53
   1   0  -4  354.32   37.78
   1   0  -4  368.90   40.33
   1   0  -4  304.34   31.14
  -2  -1  -1 1002.34   71.06
  -2   1  -1 1157.86   69.53
  -2   1   2    0.40    6.77
   2   1  -2    4.04    7.04
   2   1  -2    1.16    2.24
  -2  -1   2    0.15    1.10
  -2   1   2   -0.00    3.51
   0   0   4 2689.37  134.59
   0   0  -4 2167.88  162.48
   0   0   4 2487.91  137.42
   0   0  -4 2359.88  102.27
   0   0  -4 2143.15  110.39
   3   0   1   27.43   12.62
   3   0   1   35.00   18.88
  -3   0  -1   32.36   28.07
   0   1   314615.68  413.06
   0  -1  -316706.96  463.66
   0  -1   315639.21  429.55
   0   1   314713.93  424.66
   0  -1   316253.67  477.19
   1  -1  -3 3034.35  127.55
   1   1  -3 3020.14  144.04
  -1   1   3 3328.05  142.93
  -1  -1   3 3210.76  151.00
   1   1  -3 3387.23  188.28
  -1  -1   3 3207.25  146.53
  -2   0  -3 4197.97  158.01
  -2   0  -3 3821.17  204.61
   2   0   3 4633.77  185.00
  -2   0  -3 4124.35  164.91
   2   0   3 4292.87  188.45
  -2   0   4    3.79    7.17
   2   0  -4   16.36   10.29
  -2   0   4   18.95   34.13
  -2   0   4   18.69   11.10
  -3   0   3 1017.51   61.52
  -3   0   3  918.78   52.87
  -3   0   3 1018.49   81.27
   3   0  -3  959.46   62.46
  -3   0   3  850.74   62.97
  -3   0   3 1079.85   70.48
   3   0  -3  990.75   76.74
  -1   0  -4  113.29   20.79
   1   0   4  129.36   27.33
  -1   0  -4  126.20   26.30
   1   0   4  129.43   24.85
   1   1   317353.37  482.57
   1   1   319245.34  576.30
  -1   1  -321038.77 1808.71
   1  -1   319223.04  564.49
  -1  -1  -319899.02 1692.03
   1  -1   319660.60 1682.73
   2   1   2 2574.80  130.02
  -2   1  -2 2454.80  114.63
   2   1   2 2533.31   95.34
  -2  -1  -2 2268.20  132.63
   2  -1  -3  164.94   27.96
  -2   1   3  127.64   30.86
  -2   1   3  158.70   26.63
   2   1  -3  178.61   30.88
   2   1  -3  185.87   67.07
   2   1  -3  165.80   26.01
  -2  -1   3  171.28   31.68
   3   0   2  778.91   49.23
  -3   0  -2  701.48   62.74
  -3   0  -2  747.42   31.64
  -3   1   1  215.29   32.77
   3   1  -1  242.11   27.55
   3   1  -1  256.19   25.12
  -3  -1   1  257.94   30.43
   3   1  -1  248.67   29.39
   3   1  -1  217.47   33.46
  -3   1   0 1616.42   79.13
   3   1   0 1671.44   80.31
  -3  -1   0 1757.32   95.07
   3   1  -2  320.47   37.93
  -3   1   2  308.53   35.54
   3   1  -2  321.40   36.92
  -3  -1   2  328.75   28.10
   3   1  -2  307.05   32.22
  -1  -1   4  748.44   70.28
  -1  -1   4  653.08   30.07
  -1   1   4  695.56   59.53
  -1  -1   4  733.74   67.35
   1  -1  -4  819.68   66.41
  -1   1   4  727.04   61.44
   1   1  -4  760.48   70.69
   0  -1   4 2345.82   98.26
   0   1   4 2303.88  114.72
   0  -1  -4 2595.39  137.13
   0  -1  -4 2541.16  132.78
   0  -1   4 2323.03  128.86
   4   0  -1  123.35   23.95
   4   0  -1  111.94   23.44
  -4   0   1  110.99   50.75
  -4   0   1   95.38   18.76
  -4   0   1   76.83   22.74
   3   1   1  765.76   64.28
   3   1   1  938.94   42.92
  -3   1  -1  693.67   54.06
  -3  -1  -1  747.33   67.88
   3   0  -4  128.18   24.41
  -3   0   4    8.78   11.32
  -3   0   4  146.45   23.30
  -3   0   4  174.57  113.76
  -3   0   4  158.24   28.29
   1   0  -5  286.66   33.52
  -1   0   5  308.74   49.60
  -4   0   0 2815.34  124.36
  -4   0   0 2515.54  110.26
   4   0  -2 2690.40  122.52
   4   0  -2 2876.24  136.33
   4   0  -2 2229.23  126.66
  -4   0   2 2614.16   73.57
  -4   0   2 2794.59  123.47
  -4   0   2 2175.02  110.67
   0   0  -5   61.59   17.99
   0   0   5   76.27   27.18
   0   0   5   52.95   27.18
   2   1   3   37.84   28.96
   2  -1   3   22.34   15.20
   2   1   3   46.58   57.18
  -2   1   4   32.11   18.68
  -2  -1   4   37.16   18.08
   2   1  -4   25.98   12.38
   3   1  -3  956.75  121.66
  -2   0  -4    0.80    3.29
   2   0   4    0.61   10.63
  -2   0  -4   -1.81    7.42
   2   0  -5  501.23   33.87
  -2   0   5  677.74   65.69
  -2   0   5  721.30   75.21
   1   1   4 3024.37  181.52
   1   1   4 3010.62  149.34
   1  -1   4 2934.06  146.28
  -1  -1  -4 3246.53  173.71
  -1  -1  -4 3240.16  145.54
   1  -1   4 3251.24  141.31
  -3   0  -3  897.69   45.43
   3   0   3  971.31   85.00
  -4   0  -1  164.39   24.78
  -4   0  -1  145.68   25.26
  -4   0   3    1.21    7.50
   4   0  -3    1.42    3.89
  -4   0   3    3.74    8.97
   4   0  -3    1.65    4.19
  -4   0   3    0.19    0.97
   3   1   2  118.76   23.10
  -3  -1  -2   98.41   25.45
  -3   1  -2   84.34   58.18
   3   1   2  115.72   25.92
   1   0   5  197.35   37.09
  -1   0  -5  182.71   32.19
   0   2   0  370.15   51.12
   0   2  -1    2.59    3.31
   0   2   1   11.84    8.26
  -4   1   1  887.09   61.66
   4   1  -1  946.75   55.19
   4   1  -1  813.26   49.68
  -4   1   1  692.03   43.58
   4   1  -1  851.27   49.59
   4   1  -1  848.05   66.56
  -4   1   1  791.66   69.22
  -4  -1   1  861.86   63.21
  -3   1   4    0.97    7.88
  -3   1   4  350.48   51.82
  -3   1   4  278.50   40.53
  -3  -1   4  359.36   55.00
  -3   0   5 1031.94   89.13
  -3   0   5  994.69   89.01
  -3   0   5  980.71   72.86
  -3   0   5 1142.32   96.22
  -1   2   0    0.49    1.19
  -1   1   5  678.96  140.53
  -1  -1   5  676.82   68.22
  -1   1   5  716.24   78.11
  -4  -1   0 1060.87   78.66
  -4   1   0 1092.45   84.35
  -4   1   0  875.28   56.01
   4   1   0  960.99   56.83
  -1   2   1   54.09   14.89
  -4   1   2 1170.89   73.07
  -4   1   2 1284.24   93.10
   4   1  -2 1203.41   84.46
   4   1  -2 1271.71   75.16
   4   1  -2 1221.11   86.89
   4   0   2  585.69   52.81
  -4   0  -2  572.16   63.23
   0  -1   5  529.60   98.00
   0  -1  -5  580.60   62.09
   0   1   5  542.94  108.13
   0  -1  -5  608.22   68.24
   0   1   5  595.60   81.48
  -4   0   4 3893.28  132.70
  -4   0   4 4095.64  178.31
  -4   0   4 4510.96  199.30
  -4   0   4 4091.17  186.89
  -4   0   4 4698.71  196.03
   1   2   1 1201.39   66.51
   2  -1   4  487.98   57.74
  -2  -1  -4  491.16   34.74
   2   1   4  515.58   88.28
   2   1   4  461.00   74.55
  -2  -1   5  896.22   81.63
  -2   1   5  957.23   86.84
   2   1  -5  746.50   96.98
   0   2   2  556.57   68.35
  -1   2   2   53.60   14.17
  -1   0   6   38.66   22.82
   1   0  -6   32.48   12.23
  -1   0   6   42.73   22.89
   3   1   3   26.99    9.98
   3   1   3   68.63   23.85
  -3  -1  -3   59.05   21.01
   4   1   1 1002.97   70.19
  -4  -1  -1 1049.75   84.70
  -4   1   3 1036.93  132.47
   4   1  -3 1061.52  123.70
  -4   1   3  993.01  108.03
  -3   0  -4  605.51   80.75
   3   0   4  731.77   91.08
  -3   0  -4  629.67   66.91
   0   0  -6  668.40   79.42
   0   0   6  770.44  109.78
   0   0   6  798.07  105.30
  -2   0  -5    1.44    3.50
   2   0   5   -0.08    3.98
  -2   0  -5    4.12   11.39
  -2  -2   0  556.45   73.97
  -2  -2   1  150.68   31.72
  -2   2   1  137.51   31.46
  -2   0   6   60.59   25.64
   2   0  -6   11.11   13.85
  -2   0   6   48.93   55.65
   1  -1   5  635.84  113.94
   1   1   5  744.67   95.09
   1  -1   5  612.09   82.34
  -1  -1  -5  690.85  100.92
  -1  -1  -5  657.18   85.90
   1   2   2    2.68    1.93
   1  -2   2    1.65    5.88
   5   0  -1    6.43    6.96
  -5   0   1  136.93   61.54
  -5   0   1  117.55   40.77
   5   0  -2  103.07   25.36
   2   2   1  523.12   51.21
  -2  -2  -1  495.41   71.15
  -2  -2   2  726.76   84.32
  -2   2   2  581.43   73.26
  -5   0   0 1320.55  136.62
  -3   1   5  641.85  106.68
  -3   1   5  715.37   98.56
  -3  -1   5  715.83   94.19
  -3  -1   5  817.88  110.55
   3   1  -5  514.46  114.23
   0   2   3  386.94   57.29
   0  -2   3  120.96   33.07
   0   2   3  400.69   67.98
  -1  -2   3  624.12   86.22
  -1   2   3  775.46  111.54
  -1   2   3  731.33   88.91
   4   0   3 1825.40  182.51
  -4   0   5   39.39   45.63
  -4   0   5   53.07   23.61
  -4   0   5   59.42   25.91
  -4  -1  -2  773.74   98.47
   4   1   2  738.19   90.65
  -5   0   3  289.12   50.10
  -5   0   3  299.86   46.61
   5   0  -3  256.33   40.80
  -4   1   4 1721.56  177.50
  -4   1   4 1730.37  160.51
  -4  -1   4 1755.51  186.19
  -1   0  -6   20.66   13.55
   1   0   6   23.26   24.85
   1   0   6   23.15   23.17
   3   0  -6    1.59    8.53
  -3   0   6   95.49   34.10
  -3   0   6   88.15   28.38
  -3   0   6   59.01   72.40
  -3   0   6   92.33   85.72
  -5   0  -1  220.10   37.18
   1  -2   3    0.99    6.62
  -1  -2  -3    5.26   13.79
   1   2   3    0.33    2.10
   1   2   3    5.60    8.04
  -1  -1   6  668.93   91.27
  -1   1   6  649.73  142.50
  -1   1   6  787.23  120.73
   1  -1  -6  629.12   81.46
  -2  -2  -2  536.17   78.24
   2  -2   2  219.36   38.39
  -2  -2   3  234.46   35.56
  -2   2   3  171.77   66.72
   3   1   4 1292.30  127.70
   3   1   4 1266.29  150.74
   3  -1   4 1260.31  141.61
  -3   2   1  537.04   77.07
  -3  -2   1  517.13   70.07
   0   1   6 1163.46  137.57
   0  -1  -6 1007.81  143.85
   0   1   6  953.99  197.94
   2  -1   5  447.70   69.79
   2   1   5  464.29   78.26
  -2  -1  -5  413.37   86.06
   2   1   5  500.51   85.95
  -2  -1   6  232.02   48.23
  -2   1   6  225.57  111.58
  -3  -2   0    0.04    3.92
  -5   1   1  348.19   58.54
  -5   1   1  337.03   45.96
  -5   0   4  108.67   18.90
  -5   0   4  127.33   32.34
  -5   0   4  121.22   33.81
  -3   2   2 1586.33  166.73
  -3  -2   2 1925.37  187.57
  -5   1   2 2366.02  224.79
  -5   1   2 2521.73  254.07
  -1   2   4  844.39  103.15
  -1  -2   4  521.01   83.21
  -1   2   4  666.12   84.25
  -5   1   0  198.36   41.71
  -5   1   0  198.77   32.02
   0  -2   4  197.56   48.88
   0   2   4  703.97   89.58
   0   2   4  694.43   81.05
   3   0   5  391.53   99.98
  -3  -2  -1  309.68   73.45
   4   1   3  356.16   60.80
  -4  -1  -3  322.68   58.13
   1   0  -7  148.41   28.52
  -1   0   7  171.68   47.50
  -1   0   7  184.63  136.15
  -1   0   7  181.79   47.03
  -5   0  -2  565.66   69.68
  -4   1   5   85.81   93.98
  -4   1   5   89.52   21.97
  -4  -1   5  103.64   35.99
  -5   1   3   90.22   25.30
  -5   1   3   77.39   84.82
   1  -1   6 1461.18  165.71
   1   1   6 1664.14  182.29
  -1  -1  -6 1340.48  158.85
   2   0   6  208.36   78.01
  -2   0  -6  185.22   41.73
   2   2   3  349.42   54.37
  -2  -2  -3  292.30   65.67
   2  -2   3    8.98   11.32
  -2  -2   4  595.22   89.70
  -2   2   4  565.81   87.32
  -2   0   7   24.49   19.19
   2   0  -7    8.03    6.41
  -2   0   7   24.60   18.97
   4   0   4  338.28   89.04
  -3   2   3   28.61   30.61
  -3   2   3   35.53   18.13
  -3  -2   3    0.19    3.64
  -3   1   6  444.91   74.01
  -3   1   6  409.03   73.52
  -3  -1   6  524.10   85.28
  -3  -1   6  427.38   71.07
  -4   0   6 1968.95  213.61
  -4   0   6 2085.95  221.02
  -4   0   6 1922.00  190.79
  -4   0   6 2197.80  234.02
   0   0  -7   87.44   23.55
   0   0   7  119.06   38.15
   0   0   7  116.45   42.18
  -5  -1  -1 2378.67  241.49
  -5   1  -1 2315.74  232.61
   1   2   4 8834.96  783.86
   1  -2   410045.34 1471.68
  -3  -2  -2 1726.17  186.36
   3   2   2 1699.86  217.67
   3   2   2 2218.25  213.80
   3  -2   2  705.73   77.86
  -5   0   5 2938.25  291.22
  -5   0   5 2649.06  244.51
  -5   0   5 3022.28  291.37
  -5   1   4 1096.79  133.23
  -5   1   4 1149.87  134.33
  -3   0   7  298.90   63.58
  -3   0   7  225.51   45.76
  -3   0   7  266.16   53.18
  -3   0   7  249.19  175.04
  -6   0   1 2623.59  255.96
  -6   0   2  271.65   49.49
   3   1   5 1682.68  197.34
   3  -1   5 1635.83  179.89
  -3  -1  -5 1658.52  185.46
   3   1   5 1584.71  157.50
  -4  -2   1  502.90   71.60
   1   0   7  461.58   97.65
  -1   0  -7  388.33   60.72
  -3   2   4  253.91   58.89
  -3   2   4  254.06   47.05
  -1   2   5 1132.44  130.97
  -1   2   5 1033.89  123.04
  -1  -2   5  873.30  124.72
  -4  -2   0  280.14   53.01
   4   2   0  201.30   69.57
  -1   1   7  770.45  138.49
  -1   1   7  639.25  151.30
  -1  -1   7  688.81   99.51
   1  -1  -7  556.26   81.52
  -5   0  -3 1492.09  151.35
  -4   2   2 1010.69  125.90
  -4   2   2 1250.14  144.21
  -4  -2   2 1123.19  118.78
  -5  -1  -2  583.40   86.27
   0   2   5  324.96   58.94
   0  -2  -5  304.32   58.90
   0  -2   5  430.56   79.11
  -6   0   0  125.75   41.69
  -6   0   0  122.45   35.13
   2   1   6  258.23   60.77
   2  -1   6  268.18   56.07
  -2  -1  -6  253.57   53.69
   2   1   6  277.69   51.29
  -6   0   3  443.63   59.73
  -6   0   3  445.13   70.04
  -2   1   7  118.26  145.22
  -2  -1   7  143.92   61.66
   2  -1  -7  123.22   31.09
  -2  -1   7  159.82   98.44
  -2  -1   7  146.27   40.61
  -2   1   7  150.97   40.32
  -2   1   7  108.86  111.33
   4   1   4  188.99   47.31
  -4  -1  -4  233.56   55.01
  -4   1  -4  208.15   49.63
  -4  -1  -4  183.51   44.08
   2   2   4 1122.11  126.16
   2   2   4  977.39  137.00
  -2  -2  -4 1102.09  138.55
   2  -2   4 1172.06  137.00
  -2  -2   5   47.44   24.87
  -2   2   5  119.47   40.08
  -2   2   5   73.19   25.17
  -2   2   5  121.96   39.91
  -2   2   5   81.54   28.69
  -2  -2   5   84.98   32.01
  -2   2   5  104.98   33.19
  -4  -1   6   95.26   31.10
  -4   1   6  100.48   34.21
  -4  -1   6  111.70   40.63
  -4   1   6    0.13    4.40
  -4   1   6   85.95   70.89
  -4   1   6   75.17   32.32
  -4   1   6   70.66   52.72
  -4  -1   6  105.70   37.22
  -4   1   6  106.18   38.38
   0   1   7  351.96   77.83
   0  -1   7  465.03   84.36
   0  -1   7  430.50   77.21
   0  -1  -7  328.58   85.43
   0   1   7  412.55   75.21
  -3   2  -3  136.62   38.92
  -3  -2  -3   92.00  100.63
   3  -2   3    2.33    4.76
   3   2   3  117.37   36.38
   3   2   3  120.20   26.10
  -4  -2  -1  107.95   93.23
   4   2   1  102.31   27.58
  -4   2  -1  155.05   42.34
  -4  -2  -1  148.73   43.28
  -4   2   3  504.68   81.61
  -4   2   3  334.60  133.62
  -4  -2   3  505.03  171.69
  -4   2   3  425.86   69.28
  -4   2   3  412.30   65.32
   3   0   6  137.98  137.06
  -3   0  -6  194.40   45.86
  -5  -1   5  502.70   85.10
  -5   1   5  431.17   75.57
  -5   1   5  377.69   74.11
  -5   1   5  436.81   78.58
  -5   1   5  420.10   73.51
  -5   1   5  405.35  117.26
   1   2   5 8696.70  829.30
   1   2   5 9595.82 1401.17
   1  -2   5 9635.59 1413.21
  -6   0  -1  516.28   83.31
  -6   0  -1  474.44   65.92
  -6   0  -1  460.85   74.91
  -4   0  -5   27.90   25.46
  -4   0  -5   22.88   15.32
  -4   0  -5   20.75   16.69
   4   0   5    8.23   10.79
  -4   0  -5    4.67    9.45
  -6   0   4   50.68   24.28
  -6   0   4   54.23   20.31
  -6   0   4   47.61   22.40
  -6   0   4   52.64   24.73
  -5   0   6  610.35   93.30
  -5   0   6  629.96   98.36
  -5   0   6  699.39   98.38
  -5   0   6  518.97   70.97
  -5   0   6  664.67   96.64
  -4   0   7  174.12   50.23
  -4   0   7  193.30   50.40
  -4   0   7  127.62   95.90
  -4   0   7   81.76  104.93
  -4   0   7  175.62   48.25
  -4   0   7  192.72   48.88
  -3   1   7 1413.72  178.43
  -3  -1   7 1147.88  143.34
  -3   1   7 1177.50  207.50
  -3   1   7 1161.00  143.61
  -3   1   7  930.18  126.10
  -3   1   7 1238.06  154.63
  -3   1   7 1064.05  176.00
  -3  -1   7 1412.75  223.72
  -3  -1   7 1229.42  155.42
  -3  -1   7 1274.63  161.15
  -6   1   1  155.17   43.00
  -6   1   1  134.32   39.51
  -6   1   1  123.37   91.70
  -6   1   1  151.94   90.57
  -6   1   2  363.95   56.02
  -6   1   2  375.81   71.40
  -6   1   2  391.28   69.38
  -6   1   2  330.63  104.50
  -6   1   2  333.96   62.90
   1   1   7  153.78   40.09
   1  -1   7  157.76   45.85
   1  -1   7  142.49   43.41
   1   1   7  153.71   41.04
  -1   1  -7  162.51   41.99
  -1  -1  -7   53.85   71.87
  -3  -2   5 1284.58  159.48
  -3   2   5 1575.57  190.23
  -3  -2   5 1334.69  164.31
  -3   2   5 1214.76  144.78
  -3   2   5 1158.85  155.72
  -3  -2   5 1152.53  146.27
  -3   2   5 1587.01  182.08
  -3   2   5 1070.53  127.34
  -1   0   8    1.13    4.18
   1   0  -8    0.82    3.21
  -1   0   8    2.89    9.16
  -1   0   8    3.54    8.18
  -1   0   8    1.31    2.60
   2   0   7   87.97   57.77
  -5  -1  -3  110.97   34.91
  -5  -1  -3  131.17  111.55
  -5  -1  -3  119.69   36.73
  -5   1  -3  139.88   39.42
  -5   1  -3  111.68   35.70
  -5  -1  -3  155.84   44.90
  -2   0   8 2077.78  336.24
  -2   0   8 2450.99  391.74
  -2   0   8 1982.76  321.20
  -2   0   8 2395.40  383.09
  -2   0   8 1847.67  300.59
  -2   0   8 2127.11  339.69
  -2   0   8 2369.93  377.08
  -4  -2  -2  336.55   74.53
  -4  -2  -2  377.83   85.03
  -4   2  -2  432.74   91.72
  -4   2  -2  404.07   85.68
  -6   1   0   43.31   25.20
  -6   1   0   20.03   14.82
  -6   1   0   32.74   20.29
  -6  -1   0   37.88   22.80
  -6  -1   0   35.99   19.75
  -6  -1   0   33.64   19.64
  -4   2   4  436.93   84.98
  -4   2   4  348.41  124.57
  -4   2   4  531.74  105.33
  -4   2   4  490.23   95.96
  -4   2   4  579.92  113.55
  -4   2   4  436.57   91.71
  -4  -2   4  490.56   99.95
  -6   1   3  744.30  143.00
  -6   1   3  701.94  127.90
  -6   1   3  720.63  152.18
  -6   1   3  613.75  114.90
  -6   1   3  704.48  136.71
   0   0   8  686.79  316.37
   0   0   8  565.30  296.87
   0   0  -8  489.28   88.28
  -5   0  -4  740.99  136.84
  -5   0  -4  827.95  157.58
  -5   0  -4  851.94  150.33
  -1   2   6  218.98   57.53
  -1   2   6  255.50   63.24
  -1   2   6  301.76   75.66
  -1   2   6  259.96   75.09
  -1  -2   6  156.30   53.07
  -1   2   6  287.96  160.65
   1  -2  -6  179.85   48.78
  -6   0  -2   34.79   21.02
  -6   0  -2   27.87   19.42
  -6   0  -2   20.13   15.85
  -6   0  -2   30.55   18.50
   3  -2   4    3.64   10.23
   3   2   4  735.07  156.74
  -3  -2  -4  749.63  139.01
  -3  -2  -4  757.55  183.44
  -3   2  -4  761.79  137.34
  -3   2  -4  918.92  163.02
  -6   0   5  288.31  176.40
  -6   0   5  385.40   88.34
  -6   0   5  336.30   75.62
  -6   0   5  340.58   72.02
   0   2   6   24.25   19.34
   0  -2  -6   19.45   16.95
   0   2   6   27.36   21.98
   0   2   6   25.00   18.21
   0  -2   6    3.34   10.40
   2   2   5  869.78  163.94
   2   2   5  886.58  151.89
  -2  -2  -5    6.25   18.95
  -2   2  -5  774.94  139.52
   2  -2   5  313.67   92.86
  -2   2  -5  926.12  161.37
  -3  -1  -6  101.25   37.73
   3  -1   6   96.48   35.30
  -3  -1  -6    2.07    6.23
   3   1   6  109.13   44.61
  -3  -1  -6  133.78   40.96
  -3   1  -6   96.88   37.69
  -3   0   8 1696.67  281.76
  -3   0   8 1774.79  291.85
  -3   0   8 1892.10  309.16
  -3   0   8 1963.91  318.80
  -3   0   8 1654.44  277.27
  -3   0   8  932.50  162.72
  -2  -2   6   53.54   24.98
  -2  -2   6    1.52   10.58
  -2   2   6   57.20   26.57
  -2  -2   6   65.76   30.41
  -2   2   6   63.85   28.89
  -2   2   6   79.39   39.95
  -2   2   6   59.24   28.14
  -6   1  -1 1194.24  198.40
  -6  -1  -1 1231.12  211.90
  -6   1  -1 1041.71  181.09
  -6  -1  -1 1244.07  207.65
  -6  -1  -1 1087.07  187.48
  -6   1  -1 1259.76  215.21
  -6   1  -1 1047.93  175.85
  -4   1  -5  655.19  130.38
   4   1   5  580.44  118.15
  -4   1  -5  692.01  130.04
   4  -1   5  569.24  107.42
  -4  -1  -5  617.92  126.71
  -4  -1  -5  432.21   89.65
  -4  -1  -5  749.48  136.14
  -5   2   1 1410.86  352.19
  -5   2   1 1568.73  254.15
  -5   2   1 1594.85  262.37
  -5  -2   1 1370.12  218.72
  -5   2   1 1440.73  235.03
  -5  -2   1 1567.37  262.83
  -5   2   1 1388.27  222.90
  -5   2   1 1397.82  233.61
  -5   2   1 1242.53  209.01
  -5   2   1 1567.03  258.12
  -5   2   1 1162.19  210.42
  -6   1   4  203.54   53.03
  -6   1   4  190.50  158.91
  -6   1   4  267.91   64.72
  -6  -1   4  252.48   61.36
  -6   1   4  244.55   60.75
  -5  -1   6    1.77    8.70
  -5  -1   6    1.96    7.56
  -5  -1   6    6.73   13.52
  -5   1   6    8.19   17.02
  -5  -1   6   -0.01    5.32
  -5   1   6    0.64    7.20
  -5   1   6    5.56    9.25
  -5   1   6   -1.13    5.46
  -5   1   6    1.59    8.25
  -5   1   6    1.54    6.00
  -5  -1   6    4.32   10.32
  -4   1   7 1560.43  262.58
  -4  -1   7 1583.53  265.94
  -4   1   7    0.11    6.52
  -4   1   7 1716.94  306.48
  -5  -2   2   74.74   32.62
  -5   2   2   75.60   29.85
  -5   2   2   43.80   29.61
  -5   2   2   63.70   24.50
  -5   2   2   64.63   28.04
  -5   2   2   56.91   25.94
  -5   2   2   68.11   29.68
  -5   2   2   67.80   27.11
  -5   2   2   69.40   29.90
  -5  -2   2   70.45   28.31
   0   3   0   -0.43    4.58
   0   3   0    4.02    8.63
   0   3   0    0.75    4.05
  -5   2   0  216.25   57.46
  -5  -2   0  235.12   57.25
  -5   2   0  285.28   69.54
  -5  -2   0  239.69   64.17
  -5   2   0  267.66   66.73
  -5  -2   0  258.61   67.17
  -5   2   0  207.94   55.27
  -5   2   0  228.96  116.87
   0   3   1 1223.30  237.61
   0   3   1  898.19  151.08
   0   3  -1 1144.36  197.87
   0   3   1 1102.21  190.13
   0   3  -1 1031.16  179.29
   0   3  -1 1113.17  190.90
   0   3   1 1034.60  182.30
  -1   3   0  428.75   92.26
  -1   3   0  434.31   95.06
  -1   3   0  308.26   67.88
   1   3   0  437.58   93.10
  -1   3   0  393.37   86.95
  -1  -1   8   99.14   36.39
  -1  -1   8   97.40   39.14
  -1   1   8  106.18   38.63
  -1   1   8   83.19   37.20
  -1  -1   8  102.48   41.78
  -1   1   8   98.70   35.23
  -1   1   8  101.35   40.01
   1  -1  -8   52.53   50.62
  -1  -1   8  105.33   42.27
  -1  -1   8  118.81   45.90
  -1   1   8   91.38   34.41
   1   0   8  273.53   64.30
  -1   0  -8  309.32   71.76
   1   0   8  212.32  167.67
   1   0   8  344.04  126.84
   2   1   7   67.67   27.51
   2   1   7   57.37   32.39
  -2   1  -7   73.86   31.91
  -2  -1  -7   66.18   29.14
   2   1   7   72.71   30.11
   2  -1   7   73.03   34.58
   2  -1   7   66.94   30.26
   4   2   3   46.05   56.40
  -4  -2  -3  123.27   40.59
  -4  -2  -3  173.77   49.31
  -4  -2  -3  157.68   46.62
  -4   2  -3  132.74   43.86
  -4   2  -3  117.90   38.46
  -1   3   1  707.75  125.52
  -1   3   1  902.27  163.72
   1   3  -1  891.62  159.94
  -1   3   1  988.36  179.77
  -1   3   1  821.18  184.15
  -2  -1   8  362.39   86.31
   2  -1  -8   63.04  106.83
  -2  -1   8  257.43  185.55
  -2   1   8  352.05   82.27
  -2  -1   8  329.28  167.98
  -2   1   8  336.56   78.68
  -2   1   8  215.41  190.06
  -2  -1   8  342.98   80.26
  -2   1   8  322.63   90.36
  -2  -1   8  313.59   75.97
  -2   1   8  339.96   78.80
  -4  -2   5  270.70   67.66
  -4   2   5  295.80   70.78
  -4   2   5  227.73   55.67
  -4   2   5  283.95   67.19
  -4   2   5  241.73   57.92
  -4   2   5  262.55   65.16
  -4   2   5  236.60   62.63
  -4   2   5  322.13   76.41
  -4   2   5  304.03   67.39
  -5  -2   3  212.50  152.19
  -5   2   3  170.59  103.17
  -5   2   3  203.40   56.04
  -5   2   3  184.09   51.46
  -5   2   3  195.63   53.09
  -5   2   3  252.28   63.13
  -5   2   3  172.92   44.25
  -5   2   3  167.25   49.95
  -5   2   3  216.33  151.50
  -5   0   7   94.76   35.97
  -5   0   7   58.72   41.69
  -5   0   7  107.68   38.77
  -5   0   7  100.22   39.64
  -5   0   7   98.41   43.29
  -5   0   7  102.96   40.59
   1   2   6 4926.21  621.25
  -1  -2  -6 3768.86  574.39
   1   2   6 5085.28  637.94
   1   2   6 4327.27  651.61
   1  -2   6 4886.53  619.87
   1   2   6 4237.56  686.97
  -1   2  -6 4156.48  624.43
   1   3   1  110.04   39.32
  -1   3  -1  101.39   37.62
  -1   3  -1  103.20   39.10
  -1   3  -1   97.89   36.19
   1   3   1   97.95   36.60
  -3  -2   6  808.21  153.89
  -3   2   6  813.58  149.48
  -3  -2   6  880.86  162.66
  -3  -2   6  696.41  134.38
  -3  -2   6  783.46  146.90
  -3   2   6  837.65  153.98
  -3   2   6  768.61  142.25
   0  -1   8  363.62   90.49
   0  -1   8  315.46   76.97
   0   1  -8  345.59   76.49
   0   1   8  319.26   74.89
   0  -1   8  329.09   80.88
   0  -1   8  195.70  129.06
   0   1   8  266.58   72.71
   0  -1  -8  192.35  100.43
   0   1   8  307.46   73.69
   0   3   2   95.26   39.11
   0   3   2   76.45   33.09
   0   3   2   79.71   32.27
   0   3  -2   65.29   28.46
   0   3  -2   83.11   33.59
  -5  -1  -4   77.48   31.79
  -5  -1  -4   25.84   18.19
  -5   1  -4  103.34   37.49
  -5  -1  -4  119.17   84.72
  -5   1  -4   86.78   32.59
  -5  -1  -4  111.77   42.89
  -5  -1  -4   93.54   32.60
  -5  -2  -1  213.21   53.95
  -5  -2  -1  271.45   72.33
  -5   2  -1  248.62   64.48
  -5   2  -1  250.02   64.28
  -5   2  -1  212.77   56.54
  -5   2  -1  218.59   57.86
  -5  -2  -1  221.04   57.83
  -1   3   2  692.49  123.48
  -1   3   2  954.81  172.61
  -1  -3   2  880.77  163.25
  -1   3   2  923.90  170.15
   1   3  -2  945.37  167.85
  -1   3   2 1046.02  190.54
   4   0   6   45.38   37.91
  -4   0  -6   61.98   29.51
  -4   0  -6   68.60   31.54
  -4   0  -6   78.77   31.89
  -7   0   2   55.62   27.44
  -7   0   2   56.67   27.73
  -7   0   2   54.77   23.76
  -7   0   2   67.19   28.17
  -6  -1  -2  141.11  125.60
  -6   1  -2  148.31   43.88
  -6  -1  -2  136.66   45.32
  -6   1  -2  115.53   39.41
  -6   1  -2  133.97   43.94
  -6   1  -2  114.64   36.01
  -7   0   1  414.46   81.97
  -7   0   1  435.50   93.83
  -7   0   1  413.47   89.95
  -7   0   1  430.63  154.29
  -7   0   1  492.53   99.71
  -4   0   8   -0.47    6.17
  -4   0   8    7.99   18.35
  -4   0   8    0.19    6.55
  -4   0   8    1.58    8.49
  -4   0   8    2.33    9.45
  -4   0   8    1.38    4.26
   3   0   7  701.67  133.46
   3   0   7  624.67  107.12
  -3   0  -7  592.87  105.74
  -3   0  -7  745.00  126.49
  -6   0  -3   67.51   29.82
  -6   0  -3   59.93   28.72
  -6   0  -3   79.36   29.39
  -6   0  -3   65.56   30.50
  -6   1   5   -4.05   13.93
  -6   1   5    3.30    8.72
  -6   1   5   -0.29    6.29
  -6  -1   5    1.68    7.32
  -6  -1   5   -0.14    4.85
  -6   1   5    0.57    7.08
  -6   1   5   -1.30    5.23
  -6   1   5    0.74    2.96
  -3  -1   8  293.39  178.92
  -3  -1   8  433.95   89.18
  -3  -1   8  394.42   82.03
  -3  -1   8  403.35  253.14
  -3   1   8  436.07   89.18
  -3  -1   8  461.70  233.37
  -3   1   8  504.52  102.81
  -3   1   8  341.74   93.48
  -3  -1   8  447.42   91.89
  -3   1   8  429.52   85.71
  -2   3   0 1198.47  175.91
  -2   3   0 1365.15  204.12
  -2  -3   0 1154.32  170.80
   2   3   0 1523.31  217.60
  -2   3   0 1418.44  210.04
  -2   3   1  186.80   52.94
  -2   3   1  170.27  107.12
  -2  -3   1  165.13   53.74
  -2   3   1  124.97   37.59
  -2  -3   1  135.33   38.57
   2   3  -1  157.51   76.37
  -6   0   6  250.65   67.60
  -6   0   6  231.97   59.81
  -6   0   6  163.94  100.74
  -6   0   6  207.74   52.59
  -6   0   6  227.74   55.16
  -7   0   3    1.43    7.73
  -7   0   3    0.95    5.91
  -7   0   3    0.07    4.78
  -7   0   3    2.22    8.29
   1   3   2    7.68   10.74
  -1   3  -2   33.17   21.97
   1   3   2   32.45   21.01
  -1  -3  -2   32.59   25.40
  -5  -2   4  364.48   80.62
  -5   2   4  326.11   69.02
  -5   2   4  324.67   71.91
  -5   2   4  308.51   65.42
  -5   2   4  273.26   57.61
  -5   2   4  284.13   67.27
  -5   2   4  367.48   77.39
  -5   2   4  332.13   64.95
  -5   2   4  246.39   69.63
  -7   0   0    3.75    5.86
  -7   0   0   -0.23    5.12
  -7   0   0    1.11    7.61
  -7   0   0   -0.48    7.02
  -5   0  -5  676.75  122.57
  -5   0  -5  663.04  117.83
  -5   0  -5  679.82  115.48
  -2   3  -1   39.28   24.28
   2   3   1   38.11   21.86
  -2  -3  -1   35.59   22.15
  -2   3  -1   44.37   26.34
  -2   3   2 1320.26  198.73
  -2   3   2 1307.64  202.42
  -2  -3   2 1248.85  195.70
  -2   3   2 1452.06  349.45
  -2   3   2  929.24  140.53
  -3   2  -5 1123.02  171.64
  -3  -2  -5 1060.43  194.67
   3   2   5 1060.35  184.18
  -3   2  -5 1280.65  189.34
  -3  -2  -5 1182.44  212.41
  -3  -2  -5  689.12  119.49
   0  -3   3   30.50   19.90
   0   3   3   35.74   20.63
   0   3  -3   43.60   23.28
   0   3   3   45.49   28.36
   0   3   3   32.03   21.82
   0   3   3   42.36   24.12
  -1   3   3  132.62   44.72
  -1   3   3   26.70   47.93
  -1  -3   3  105.51   39.36
  -1   3   3  155.18   51.90
  -1   3   3  130.52   46.25
  -1   3   3   97.42   32.99
   1   3  -3  132.95   41.66
   1  -1   8   98.78   41.63
   1  -1   8   89.62   39.89
   1   1   8   79.65   32.48
  -1   1  -8   98.32   37.10
  -1  -1  -8   66.03   26.98
   1   1   8   73.37   30.36
  -1  -2   7  308.01   67.04
  -1   2   7  402.67   85.02
  -1   2   7  404.45   89.70
  -1   2   7  295.17  135.95
   1  -2  -7  255.92   58.13
  -1   2   7  403.30   90.52
  -1   2   7  348.82  124.87
  -1  -2   7  428.82   95.71
  -5   2  -2  169.07   50.15
  -5   2  -2  148.69   44.65
  -5   2  -2  189.43   53.43
  -5  -2  -2  169.83   47.12
  -5  -2  -2  175.49   48.33
  -5  -2  -2  179.61   55.47
  -5  -2  -2  145.12   44.16
  -7   0   4    9.32   12.27
  -7   0   4    7.70   12.58
  -5   1   7   12.24   16.95
  -5   1   7    2.81   17.82
  -5  -1   7    2.88   10.41
  -5   1   7    5.57    8.94
  -5   1   7   10.01   13.99
  -5  -1   7   12.08    7.26
  -5  -1   7   10.17   13.72
  -5  -1   7    1.53    8.17
  -5   1   7    5.00    9.84
  -5   1   7    5.56    8.54
   2   0   8 1117.28  176.40
  -2   0  -8 1197.43  181.59
   2   0   8 1317.44  462.87
  -2  -2  -6 1115.03  199.38
   2  -2   6  144.06   44.27
  -2  -2  -6    5.26   10.05
   2   2   6 1171.04  254.43
   2   2   6  398.73   76.95
  -1   0   9  783.49  131.47
  -1   0   9  757.59  155.65
  -1   0   9  996.20  160.66
  -1   0   9  857.70  312.76
  -2  -2   7  104.61   36.42
  -2   2   7   86.26  125.55
  -2  -2   7  154.08   51.80
  -2  -2   7   18.87   22.23
   2  -2  -7  101.67   35.12
  -2   2   7  152.12   54.11
  -2   2   7  115.51   77.85
  -2  -2   7  120.54   45.86
  -2   2   7  146.82   46.48
  -2   0   9  352.91   81.67
  -2   0   9  187.29  123.67
  -2   0   9  315.25  232.10
  -2   0   9  293.69   69.56
  -2   0   9  350.30  199.30
  -2   0   9  231.57   57.89
  -4   2  -4   78.82   32.34
  -4  -2  -4   76.95   32.84
   4   2   4   68.15   29.59
  -4  -2  -4   87.23   59.45
  -4  -2  -4   23.87   19.56
  -4  -2  -4   84.55   34.71
  -4  -2   6  276.89   65.50
  -4   2   6  264.94   62.86
  -4  -2   6  283.89   71.28
  -4   2   6  223.08   55.07
  -4   2   6  224.17   55.75
  -4   2   6  259.12  119.83
  -4   2   6  235.97   62.23
  -4  -2   6  223.04   58.77
  -4   2   6  274.07   65.94
   0  -2   7   10.10   14.05
   0   2   7   48.26   27.06
   0   2   7   50.55   30.12
   0  -2  -7   28.12   24.19
   0   2   7   31.61   22.84
   0   2   7   35.74   22.99
   0   2  -7   32.71   18.29
   1   3   3    3.20    8.51
   1   3   3    5.99    8.60
  -1   3  -3    5.07    9.72
  -1  -3  -3    6.14   12.49
  -7   0  -1    0.27    8.58
  -7   0  -1    1.73    6.88
  -7   0  -1    0.16    7.51
  -2  -3  -2    0.10    4.21
  -2   3  -2   90.51   36.72
   2   3   2   93.85   35.04
   4   1   6  192.01   58.53
  -4   1  -6  231.75   59.30
   4  -1   6  192.87   50.31
  -4  -1  -6  211.34   52.67
  -4   1  -6  153.09   42.56
  -4  -1  -6   15.18   14.62
  -4  -1  -6  249.55   60.69
  -4  -1  -6  252.71   61.73
  -4  -1  -6  202.27   55.45
  -2   3   3   33.58   64.11
  -2  -3   3  149.01   49.81
  -2   3   3  188.64   57.97
  -2   3   3  177.36   56.70
  -2   3   3  158.21   50.31
  -2   3   3  170.62   51.83
  -7   1   2   26.01   19.37
  -7  -1   2   60.67   28.86
  -7  -1   2   42.38   22.57
  -7  -1   2   47.91   24.16
  -7   1   2   46.48   26.53
  -7   1   2   37.20   24.55
  -7   1   1  117.56   71.16
  -7   1   1   64.05   52.33
  -7  -1   1  124.53   41.88
  -7  -1   1   89.21   34.06
  -7   1   1   95.80   38.60
  -4   1   8  219.71  198.46
  -4  -1   8  343.36   80.66
  -4   1   8  373.26   83.09
  -4  -1   8  301.42   70.17
  -4   1   8  258.34   69.32
  -4  -1   8  286.63   66.30
  -4  -1   8  323.56  167.78
  -4  -1   8  183.46   56.27
  -4   1   8  322.55   71.11
  -4   1   8  171.52  133.93
  -4  -1   8  349.78  178.38
  -4   1   8  359.92   83.47
  -3   1  -7  144.60   46.17
   3  -1   7  143.34   46.67
   3   1   7  129.56   49.99
  -3   1  -7  122.48   44.80
  -3  -1  -7  130.95   43.19
  -3  -1  -7    3.78    7.63
  -6   1  -3   72.01   27.90
  -6  -1  -3   73.83   32.42
  -6   1  -3   81.06   32.49
  -6   1  -3   67.00   29.48
  -6  -1  -3   83.85   36.51
  -3   3   1  164.14   51.12
  -3   3   1  118.96   39.05
  -3   3   1  144.63   48.56
  -3  -3   1  163.65   56.28
  -3  -3   1    0.53    5.43
  -3   3   1  160.54   51.53
   0   0   9 2262.89  415.39
   0   0   9 2196.37  351.19
   0   0  -9 1870.28  256.47
   0   0   9 1830.21  256.43
   0   0   9 2202.17  365.99
  -5   2   5  692.07  122.37
  -5  -2   5  627.53  114.01
  -5   2   5  594.42  103.34
  -5  -2   5  728.70  132.74
  -5   2   5  488.19   89.43
  -5   2   5  609.19  101.74
  -5   2   5  606.41  106.95
  -5   2   5  535.24  104.15
  -5   2   5  541.64   96.66
  -5   2   5  674.15  121.42
  -6  -1   6  285.60  156.84
  -6  -1   6  309.93   72.30
  -6   1   6  204.05  173.88
  -6   1   6  282.63   75.71
  -6   1   6  291.81   70.28
  -6   1   6  270.03   66.89
  -6   1   6  255.19   63.78
  -6  -1   6  310.25   73.08
  -6   1   6  305.93   65.69
  -6   1   6  297.56  153.32
  -3   3   0  458.66   94.60
  -3   3   0  453.07   94.22
  -3   3   0  343.97   73.62
  -3  -3   0  123.16  180.28
  -3   3   0  455.81   94.37
  -3  -3   0    5.49   11.67
  -7   1   3  451.45   86.68
  -7  -1   3  345.82   69.04
  -7  -1   3  417.38   79.88
  -7   1   3  488.66   94.76
  -7  -1   3  507.87   94.65
  -3   0   9    2.93    9.60
  -3   0   9    6.43   12.77
  -3   0   9    5.73    6.09
  -3   0   9   -0.11    3.01
  -3   0   9    4.38   12.27
  -3   0   9    6.78   12.39
  -3  -3   2  300.41   77.53
  -3   3   2  307.01   74.83
  -3   3   2  104.72  130.33
  -3   3   2  297.38   71.70
  -3   2   7  246.47   62.63
  -3   2   7  173.30  179.50
  -3  -2   7  302.24   76.18
  -3  -2   7  235.92   66.61
  -3   2   7  221.46   59.41
  -3  -2   7  233.74   61.20
  -3  -2   7  234.37   64.45
  -7  -1   0   33.20   22.50
  -7  -1   0   22.04   17.19
  -7   1   0   34.57   24.77
  -7   1   0   13.46   13.70
  -7   1   0   32.19   18.95
  -6   0  -4 1495.80  213.35
  -6   0  -4 1407.45  209.25
  -6   0  -4 1724.19  195.04
  -6   0  -4 1494.94  225.10
  -5   0   8   91.18   39.14
  -5   0   8  101.67   41.68
  -5   0   8   93.92   47.76
  -5   0   8  106.15   41.83
  -5   0   8   90.85   39.64
  -5   0   8   96.77   37.27
  -5  -1  -5   39.66   23.56
  -5   1  -5  498.28  100.37
  -5  -1  -5  570.28  111.59
  -5  -1  -5  506.69  101.41
  -5   1  -5  634.75  124.48
  -5  -1  -5  575.60  123.50
  -5  -1  -5  721.17  136.67
  -1  -3   4   77.25   34.35
  -1   3   4   85.28   34.20
  -1   3   4   80.30   38.38
  -1   3   4   57.12   24.42
  -1   3   4   90.99   38.42
  -7   0   5    5.86    8.27
  -7   0   5    4.80   10.86
  -6   2   1  375.93   86.01
  -6   2   1  409.70   92.00
  -6   2   1  242.26  177.39
  -6  -2   1  383.03   88.18
  -6   2   1  279.80   70.78
  -6   2   1  169.18  215.30
  -6   2   1  346.80   83.57
  -6  -2   1  348.72   82.65
  -6   2   2  118.52   43.37
  -6  -2   2  113.94   39.14
  -6  -2   2  135.83   45.95
  -6   2   2   84.88   56.56
  -6   2   2  136.75   43.24
  -6   2   2  106.08   39.77
  -6   2   2  150.73   49.14
  -6   2   2  102.05   31.17
  -6   2   2   77.58   73.59
  -6   2   2  116.91   40.58
   0   3   4  256.67   71.71
   0   3   4  217.39   59.17
   0   3  -4  197.85   54.93
   0  -3  -4  170.27   54.88
   0   3   4  185.88   50.59
   0   3   4  164.69   44.82
  -6   0   7   -5.59   18.55
  -6   0   7    0.80    7.47
  -6   0   7    2.97    9.73
  -6   0   7    3.45    8.31
  -3   3  -1  143.48   50.15
  -3   3  -1  135.48   48.41
  -3  -3  -1   -1.42    6.72
  -3   3  -1  149.81   51.34
  -3  -3  -1    2.20   11.54
   1   2   7 1026.82  186.32
  -1  -2  -7  810.45  149.07
   1   2   7  977.68  191.30
   1  -2   7  602.94  140.25
  -5   2  -3  111.01   43.11
  -5   2  -3  106.25   41.37
  -5   2  -3   79.70   34.40
  -5  -2  -3  118.03   41.18
  -5  -2  -3   82.98   34.49
  -5  -2  -3  106.58   39.69
  -7   1   4  263.90   66.20
  -7  -1   4  307.51   71.22
  -7  -1   4  252.19   59.70
  -7   1   4  235.50   62.36
  -7  -1   4  313.07   75.16
  -6   2   0  113.65   69.28
  -6   2   0  118.62   39.80
  -6   2   0  110.45   41.33
  -6  -2   0  118.05   45.95
  -6  -2   0  107.34   40.66
  -6   2   0   96.21   36.89
  -6   2   0   88.52   36.77
  -6   2   0  122.20   43.34
  -6   2   0   91.12   36.23
  -2  -1  -8   68.51   29.31
   2   1   8   86.19   42.69
  -2   1  -8  100.97   41.23
   2  -1   8   94.16   41.69
   2  -1   8   90.10   39.45
   2   1   8   92.52   37.07
  -6  -2   3   80.67   35.77
  -6   2   3   85.30   36.17
  -6   2   3   70.15   31.83
  -6   2   3   83.14   36.51
  -6   2   3   42.06   48.32
  -6   2   3   69.81   32.49
  -6   2   3   81.80   33.79
  -6   2   3   63.29   44.27
  -6   2   3   71.60   26.91
   1   1  -9  174.69   48.82
  -1   1   9  158.08   56.35
  -1  -1   9  149.15   52.67
  -1  -1   9  187.34   60.70
  -1   1   9  179.59   53.22
  -1   1   9  169.70   51.92
  -1  -1   9  200.71   59.11
  -1  -1   9  184.79   61.73
  -1  -1   9  184.51   62.90
  -1   1   9  169.96   55.88
  -1   1   9  188.75   58.64
   2   3   3   28.01   17.81
  -2   3  -3    8.01   12.67
  -2  -3  -3   14.80   18.73
  -2   3   4  581.63  111.28
  -2   3   4  766.61  154.21
  -2   3   4  785.85  151.98
  -2  -3   4  675.49  134.78
  -2   3   4  507.00   98.11
  -2   3   4  775.70  147.54
  -2   3   4  859.01  165.75
  -2  -1   9    5.53    9.07
  -2   1   9    9.45   13.33
  -2   1   9    4.09   10.23
  -2   1   9    9.32   12.67
  -2  -1   9    3.58   11.60
  -2  -1   9    7.30   12.83
  -2  -1   9   10.05   14.88
  -2  -1   9    0.83    4.62
  -2   1   9    3.52    9.75
  -7   0  -2   40.82   24.67
  -7   0  -2   58.45   34.27
  -7   0  -2   53.25   26.43
  -3   3   3  301.10   76.17
  -3   3   3  160.94  107.72
  -3   3   3  358.41   87.22
  -3  -3   3  298.84   79.80
  -3   3   3  283.27   69.29
  -3   3   3  355.35   86.90
  -1   0  -9  868.12  157.35
   1   0   9  685.96  178.54
   1   0   9  821.09  151.15
   1   0   9 1037.70  429.66
   1   3   4  127.90   39.61
  -1  -3  -4  112.80   44.33
   1   3   4  146.68   44.29
  -1   3  -4  135.90   46.22
  -7   1  -1   17.24   32.34
  -7   1  -1  127.32   44.86
  -7   1  -1  145.71   43.33
  -7  -1  -1  120.21   42.52
  -7  -1  -1  163.05  128.58
  -7   1  -1  143.70   48.96
  -4   0  -7 1425.65  245.37
  -4   0  -7 1702.29  197.94
  -4   0  -7 1486.08  251.85
  -4   0   9    2.18    4.03
  -4   0   9    4.76   10.08
  -4   0   9    8.62   12.97
  -4   0   9   17.59   15.42
  -3  -3  -2   -0.23    5.31
  -3  -3  -2    3.32   10.06
  -3   3  -2   -2.74    8.44
   0  -1   9   95.47   46.16
   0  -1   9    8.92   13.35
   0  -1   9   91.63   40.84
   0   1   9   10.70   15.29
   0   1   9   86.16   38.64
   0  -1  -9   56.24   24.03
   0  -1   9   72.84   34.78
   0   1   9   60.53   31.08
   0   1  -9   76.91   33.88
  -3   2  -6   92.60   36.97
  -3  -2  -6    1.19    8.31
   3   2   6  107.29   44.18
  -3   2  -6  125.61   43.75
  -3  -2  -6   93.25   30.16
  -5   0  -6  327.30   82.22
  -5   0  -6  325.97   81.64
  -5   0  -6  334.21   78.42
  -3   1   9  269.43   72.22
  -3  -1   9  284.31   77.64
  -3  -1   9  239.31   67.37
  -3  -1   9  225.27   67.73
  -3  -1   9  262.89   73.25
  -3  -1   9  274.68  164.54
  -3   1   9  258.58   71.43
  -3   1   9  227.66   65.28
  -3  -1   9  309.92  179.98
  -3   1   9  304.00   83.05
  -6  -2  -1 1743.07  215.06
  -6   2  -1 1283.74  218.32
  -6  -2  -1 1517.57  253.02
  -6   2  -1 1402.37  239.37
  -6   2  -1 1611.94  196.61
  -6   2  -1 1758.45  206.23
  -6   2  -1 1754.98  202.28
  -6   2  -1 1429.59  239.77
  -6  -2  -1 1449.34  239.85
  -4  -2  -5   25.19   22.25
  -4  -2  -5    9.89   14.77
  -4   2  -5    9.81   12.91
  -4  -2  -5   22.35   19.43
  -4  -2  -5   19.70   17.16
   4   2   5   16.96   17.03
  -3   0  -8    0.15    6.32
   3   0   8    0.59    5.91
   3   0   8    0.07    3.19
  -6   2   4   46.02   22.88
  -6   2   4   51.38   27.85
  -6  -2   4   54.35   31.24
  -6   2   4   49.27   25.15
  -6   2   4   52.98   28.85
  -6   2   4   55.68   34.82
  -6   2   4   61.51   30.52
  -5   2   6  163.75   48.33
  -5   2   6  174.17   57.90
  -5   2   6  191.94   54.99
  -5   2   6  177.84  135.62
  -5   2   6  122.99   40.57
  -5  -2   6  194.35   63.38
  -5   2   6  135.20  133.46
  -5  -2   6  194.65   59.24
  -5   2   6  218.93   63.80
  -4   2   7  193.03  157.64
  -4   2   7  266.01   69.25
  -4  -2   7  298.12   78.43
  -4  -2   7  267.37   72.81
  -4  -2   7  361.13   89.10
  -4   2   7  166.80  162.74
  -4   2   7  266.42   69.38
  -4   2   7  305.99   74.94
  -4   2   7  315.26  207.91
  -6  -1  -4  247.71   66.59
  -6   1  -4  371.73   85.73
  -6   1  -4  269.53   67.88
  -6  -1  -4  368.67   92.63
  -6  -1  -4  350.49   80.68
  -5   1   8  299.05   78.34
  -5   1   8  252.23   65.19
  -5   1   8  257.96   71.69
  -5  -1   8  298.73  186.68
  -5   1   8  253.20   70.81
  -5   1   8  226.21   75.44
  -5  -1   8  238.48  134.81
  -5   1   8  274.87   73.21
  -5  -1   8  256.16   71.62
  -5   1   8  240.63   72.10
  -5  -1   8  283.54   77.05
  -7   1   5   72.40   32.45
  -7   1   5   63.79   30.36
  -7  -1   5   89.35   36.03
  -7   1   5   86.70   36.04
  -7   1   5   76.71   50.38
  -7  -1   5   52.33   33.50
  -7   0   6    5.81   14.28
  -7   0   6   16.27   16.38
  -7   0   6   24.79   23.26
  -7   0   6   15.41   15.89
  -4  -3   1  798.33  161.71
  -4   3   1  717.88  136.05
  -4   3   1  845.99  161.57
  -4  -3   1  272.97   68.81
  -4   3   1  720.26  146.75
  -4   3   1  621.99  123.90
  -6  -1   7  318.64  164.31
  -6   1   7  389.47   88.96
  -6   1   7  386.34   91.85
  -6   1   7  361.89   96.53
  -6   1   7  247.82  222.88
  -6  -1   7  384.33   92.12
  -6  -1   7  411.50   96.68
  -6   1   7  400.04   88.91
  -3   3   4  684.48  135.79
  -3   3   4  538.36  105.94
  -3   3   4  741.66  153.56
  -3   3   4  824.99  157.98
  -3   3   4  392.16  139.78
  -3  -3   4  734.11  147.11
  -1   2   8  179.97   61.25
  -1   2   8  119.92  133.21
  -1   2   8  123.27   92.27
  -1   2   8  193.14   60.35
   1  -2  -8   63.41   69.50
  -1  -2   8   62.28   35.39
  -1   2   8  187.14   61.08
  -1  -2   8  143.12   47.27
  -1   3   5    4.76    7.34
  -1   3   5   11.39   14.56
  -1  -3   5    4.67    9.69
   2  -2   7    4.21   23.46
  -2   2  -7  363.86   82.47
  -2   2  -7  310.36   74.92
  -2  -2  -7  154.59  136.47
   2   2   7  351.33   91.30
   2   2   7  380.55   84.14
  -4   3   0   99.80   42.48
  -4   3   0   91.01   36.62
  -4  -3   0   29.42   22.20
  -4   3   0   72.41   32.62
  -4   3   2  206.25   58.13
  -4   3   2  253.01   69.88
  -4   3   2   39.22   77.46
  -4   3   2  253.56   70.84
  -4   3   2  274.05  130.50
  -2   2   8   19.84   21.83
  -2   2   8   17.68   15.44
   2  -2  -8   17.23   15.95
  -2   2   8   10.77   21.56
  -2  -2   8   12.72   18.45
  -2  -2   8   23.87   24.08
  -2   2   8    8.12   13.84
  -2  -2   8   19.85   18.45
   0   3   5   11.66   13.29
   0   3   5    8.46    5.32
   0   3   5    4.80    7.85
   0   3  -5    8.89   12.00
  -7   1  -2  898.00  167.47
  -7  -1  -2 1014.90  178.49
  -7   1  -2 1070.40  185.31
  -7   1  -2 1055.87  191.69
  -7  -1  -2  965.59  177.55
  -2   3  -4  241.44   66.71
  -2  -3  -4  136.51   96.21
   2   3   4  123.32  170.06
  -2   3   5  286.56   78.30
  -2  -3   5  222.56   63.58
  -2   3   5  255.53   72.23
  -2   3   5  233.05   63.84
  -2   3   5  134.60   39.78
   0   2  -8   32.88   19.69
   0  -2  -8   18.73   15.98
   0   2   8   29.94   35.75
   0   2   8   26.42   33.17
   0   2   8   51.80   32.66
   0  -2   8   -1.29    6.80
  -5   2  -4  298.99   77.55
  -5  -2  -4  319.63  219.38
  -5  -2  -4  287.83   76.10
  -5  -2  -4  225.31   63.16
  -5  -2  -4  253.85   70.78
  -5   2  -4  260.52   70.00
  -1   1  -9   29.07   24.37
   1   1   9   17.71   16.49
  -1  -1  -9    6.86    8.76
   1  -1   9    9.30   15.50
   1   1   9   24.69   20.17
   1  -1   9   21.70   22.85
   1  -1   9    1.34    7.21
   1   1   9   23.39   22.34
  -7   0  -3  363.87   86.22
  -7   0  -3  383.20   92.99
  -7   0  -3  379.37   86.94
  -7   0  -3  420.91   93.10
  -8   0   2  540.62   91.31
  -8   0   2  456.29   88.85
  -8   0   2  502.61   92.05
  -4  -1  -7   56.01   30.08
  -4   1  -7   18.50   14.66
  -4  -1  -7   53.51   26.79
  -4  -1  -7    1.93    7.21
   4  -1   7   20.61   17.16
  -4  -1  -7   69.65   38.20
  -4  -1  -7   60.71   32.40
  -4   1  -7   53.89   30.62
  -3   3  -3  311.17   71.28
  -3  -3  -3    5.63   12.43
   3   3   3  103.28  189.16
  -3  -3  -3  307.16   65.27
  -3  -3  -3  165.76   94.24
  -6   0  -5  125.36   41.55
  -6   0  -5  115.26   43.44
  -6   0  -5  105.88   42.34
  -4  -3  -1    9.02    9.09
  -4  -3  -1    1.74    9.15
  -4   3  -1   17.70    9.87
  -4   3  -1   18.67   19.31
  -4   3  -1   17.07   19.45
  -6   2  -2   47.79   27.87
  -6  -2  -2   45.22   30.73
  -6  -2  -2   52.99   27.96
  -6   2  -2   50.19   29.46
  -6   2  -2   30.79   19.46
  -6   2  -2   37.52   24.50
  -6  -2  -2   40.01   24.34
  -6  -2  -2   37.23   22.61
  -6   2  -2   56.68   32.33
  -4   3   3   30.16   39.43
  -4   3   3  105.29   40.70
  -4   3   3   78.61   32.29
  -4   3   3  123.68   46.18
  -4   3   3  121.36   47.83
  -8   0   1 1457.62  182.92
  -8   0   1 1624.30  198.58
  -8   0   1 1584.82  186.55
  -8   0   1 1346.88  173.21
  -4  -1   9  110.02   45.77
  -4  -1   9   56.04   31.50
  -4   1   9   93.35   38.11
  -4  -1   9   99.31   39.39
  -4  -1   9  126.30   85.69
  -4  -1   9   86.63   35.92
  -4   1   9  113.37   44.58
  -4   1   9   61.36   43.32
  -4   1   9   94.01   40.84
  -4   1   9   95.23   41.16
  -8   0   3   11.45   17.54
  -8   0   3    7.67   12.79
  -6   2   5  172.74   55.59
  -6   2   5  204.15   50.78
  -6   2   5   85.09   94.48
  -6   2   5  196.04   53.23
  -6  -2   5  198.37   57.84
  -6   2   5  181.03   52.41
  -6   2   5  200.72   55.23
  -6   2   5  182.52   46.64
  -2   0  -9    3.26    9.04
  -2   0  -9    0.98    8.69
   2   0   9   -0.91    5.24
   2   0   9    4.53    6.76
  -6   0   8  282.06   76.87
  -6   0   8  341.39   85.08
  -6   0   8  326.39   77.09
  -6   0   8  346.02   74.19
  -3  -2   8  305.74   78.62
  -3   2   8  155.16  121.58
   3  -2  -8  223.89   54.27
  -3   2   8  248.28   62.49
  -3   2   8  233.52   59.51
  -3   2   8  146.52  137.08
  -3  -2   8  236.10   60.83
  -3  -2   8  201.93   60.95
   2   0 -10  108.42   35.99
  -2   0  10   56.06   55.89
  -2   0  10  146.83   87.12
  -2   0  10  139.07   48.51
  -2   0  10  111.39   41.87
  -2   0  10  130.89   76.56
  -5  -1  -6  249.41   58.57
  -5  -1  -6  304.43   72.02
  -5  -1  -6  215.44   52.85
  -5   1  -6  244.52   59.91
  -5  -1  -6   13.77   15.06
  -5   1  -6  188.24   48.34
   1   3   5  185.65   47.14
  -1  -3  -5  109.87  103.04
   1   3   5  188.18   57.97
  -1   3  -5  232.20   57.38
   1   3   5  262.40   65.46
   1   3   5  243.69   56.43
  -1   0  10    5.48    5.38
   1   0 -10    2.38    7.44
  -1   0  10    0.09    8.49
  -1   0  10    8.28   12.35
  -1   0  10   -2.27    5.65
  -3  -1  -8   85.81   37.35
  -3   1  -8   76.01   36.78
  -3  -1  -8   62.08   29.09
   3  -1   8   76.58   37.09
   3   1   8   43.36   48.97
   3   1   8   78.83   41.04
  -3   1  -8  102.07   41.47
  -5   0   9  107.05   45.36
  -5   0   9    6.73   11.06
  -5   0   9  115.44   46.51
  -5   0   9  102.68   56.73
  -5   0   9  102.11   44.38
  -8   0   0  125.15   44.65
  -8   0   0  119.98   41.27
  -8   0   0  111.76   41.93
  -8   0   0  157.08   98.67
  -7   1   6  240.74   60.71
  -7  -1   6  304.64   69.31
  -7   1   6  304.04   70.02
  -7   1   6  267.86   74.46
  -7  -1   6  299.75   67.72
  -7  -1   6  315.64   69.41
  -7   1   6  229.57   57.98
  -8   0   4    4.83   12.05
  -8   0   4    4.94   11.56
  -3   3   5  578.97  110.20
  -3   3   5  494.80   93.06
  -3   3   5  383.95   71.92
  -3   3   5  566.15  101.74
  -3   3   5  557.86   98.77
  -3  -3   5  488.05   93.08
  -3   0  10   78.30   39.14
  -3   0  10    2.45    7.53
  -3   0  10   69.60   35.18
  -3   0  10   78.14   37.67
  -3   0  10   34.10   34.76
  -3   0  10   79.23   46.44
  -1  -2  -8   -0.42    6.05
   1   2   8  104.32   47.92
  -1   2  -8  104.67   35.70
   1   2   8  136.93   47.13
  -1  -2  -8   52.70   48.67
   1  -2   8    9.78   30.34
   0   0 -10  115.50   38.25
   0   0  10  118.44   64.24
   0   0  10   44.30   57.15
   0   0  10  149.64   49.19
   0   0  10  133.29   43.94
  -4   3  -2   28.62   26.86
  -4  -3  -2    5.40   12.65
  -4   3  -2   21.08   10.88
  -4  -3  -2    0.67    6.13
  -4   3   4   39.27   80.70
  -4   3   4  159.85   45.16
  -4  -3   4  205.66   61.92
  -4   3   4  212.78   56.53
  -4   3   4  229.59   66.08
  -4   3   4  275.30   70.98
  -5  -2   7  101.40   41.83
  -5   2   7  132.27   44.02
  -5   2   7   76.42   32.64
  -5   2   7   78.90   39.44
  -5  -2   7  123.73   43.94
  -5   2   7   62.63   47.82
  -5   2   7   95.88   67.37
  -5   2   7  112.26   39.45
  -5   2   7  117.20   44.97
  -7   0   7   20.96   18.61
  -7   0   7    8.11   19.05
  -7   0   7   22.96   20.45
  -7   1  -3  144.89   46.55
  -7   1  -3  172.88   48.61
  -7  -1  -3  176.98   55.50
  -7   1  -3  168.87   53.15
  -8   1   2  157.35   52.75
  -8   1   2  125.50   46.71
  -8   1   2  109.10   37.07
  -8  -1   2  127.65   40.74
  -8  -1   2  138.40   45.58
  -8  -1   2  157.21  120.59
  -1   3   6    1.03    5.14
  -1   3   6    1.11    7.95
  -1   3   6    2.60    6.92
  -1  -3   6   -0.99    6.56
  -1   3   6   -1.20    8.85
  -4  -2  -6  492.70   95.12
  -4   2  -6  482.76   90.22
   4   2   6  416.98   87.74
  -4  -2  -6  462.22   76.48
  -4  -2  -6  467.82   91.06
  -4   2  -6  406.95   82.24
  -6   1  -5   78.74   32.13
  -6  -1  -5  115.17   48.28
  -6   1  -5  105.08   40.31
  -6  -1  -5   43.58   26.16
  -6  -1  -5   89.85   34.38
  -6  -1  -5   92.63   34.93
  -6  -1  -5   86.66   41.89
  -7   2   2   67.16   32.10
  -7   2   2   60.26   32.31
  -7   2   2   38.18   30.18
  -7   2   2   67.93   34.92
  -7   2   2   62.65   29.81
  -7  -2   2   58.37   28.50
  -7   2   1  143.44   51.18
  -7   2   1  126.42   43.74
  -7   2   1   97.12   40.74
  -7   2   1   85.10   38.58
  -7  -2   1  148.40   49.43
  -7  -2   1  118.36   40.14
  -7   2   1  117.36   41.26
  -8   1   1   51.75   31.06
  -8  -1   1   49.66   26.24
  -8   1   1   63.71   35.85
  -8   1   1   19.68   22.27
  -8  -1   1   43.30   26.92
  -8  -1   1   71.91   60.05
  -4   2   8  159.66  148.31
  -4  -2   8  311.71   77.45
  -4   2   8  340.74   76.47
  -4   2   8  384.99   85.77
  -4  -2   8  354.65   80.87
  -4   2   8  319.31   70.05
  -4  -2   8  435.42   94.90
  -3   2  -7  114.51   41.59
  -3   2  -7  137.49   45.85
  -3  -2  -7    6.50   11.79
   3   2   7  132.42   50.64
  -6   2  -3  127.03   46.31
  -6  -2  -3  139.27   47.15
  -6  -2  -3  150.54   99.03
  -6   2  -3  107.42   42.31
  -6   2  -3  122.59   43.45
  -6  -2  -3  106.50   40.52
  -6   2  -3  138.27   48.26
  -8   1   3  883.77  135.07
  -8  -1   3  746.40  113.08
  -8   1   3  658.02  103.30
  -8  -1   3  672.62  107.11
  -8  -1   3  922.32  131.38
  -8   0  -1  219.26   58.47
  -8   0  -1  244.38  139.17
  -8   0  -1  246.63   64.85
  -3  -3  -4  310.87   63.62
  -3   3  -4  308.02   71.35
  -3   3  -4  279.55   62.21
   3   3   4  107.38  197.36
  -2  -1  -9   30.31   18.83
   2  -1   9   10.50   15.07
   2   1   9   50.66   29.63
  -2   1  -9   47.68   29.59
   2   1   9   24.41   30.30
   2  -1   9   41.44   28.77
  -6   1   8   36.33   24.99
  -6   1   8   45.96   28.75
  -6   1   8   40.34   29.94
  -6   1   8   30.54   46.73
  -6  -1   8   42.42   29.48
  -6   1   8   36.83   22.65
  -6  -1   8   29.31   25.38
  -6  -1   8   41.87   20.97
  -6   1   8   34.62   30.36
  -6   1   8   38.98   26.69
   0   3   6  256.23   67.52
   0   3   6  197.13   51.75
   0   3   6  179.29   49.35
   0   3   6  210.14   55.79
  -2  -3  -5   -3.32   10.02
   2   3   5   42.68   23.64
  -2   3  -5   39.49   25.89
   2   3   5   21.95   21.58
  -6  -2   6   10.99   15.66
  -6  -2   6    5.87   14.39
  -6   2   6    7.92    7.50
  -6   2   6    5.60   11.99
  -6   2   6    3.03    8.26
  -6   2   6    2.39   15.62
  -6   2   6    3.24   11.77
  -6   2   6   12.14   14.02
  -6   2   6    5.55    8.86
  -8   0   5  175.98   52.87
  -8   0   5  166.45  118.36
  -2   3   6   80.65   47.47
  -2  -3   6   56.34   30.11
  -2   3   6   62.27   30.57
  -2  -1  10  515.79  105.38
  -2   1  10  482.21   94.68
  -2  -1  10  472.14   99.33
  -2   1  10  402.54   91.12
  -2   1  10  557.32  103.16
  -2  -1  10  496.70  101.38
  -2  -1  10  539.97  102.13
  -2   1  10  532.03  102.10
  -7   2   3   43.19   27.42
  -7   2   3   37.36   20.50
  -7  -2   3   27.53   20.02
  -7   2   3   29.96   25.84
  -7   2   3   38.77   27.96
  -7   2   3   41.51   26.90
  -7   2   3   36.13   23.50
  -4   0  -8    7.32   13.45
  -4   0  -8    2.43   11.32
  -4   0  -8   -1.91    8.10
  -1  -1  10   -0.38    7.59
  -1   1  10    2.68    8.83
  -1   1  10    0.77   10.82
  -1  -1  10    1.69   12.01
  -1   1  10    2.84    2.79
   1   1 -10    0.02    5.43
  -1  -1  10    1.29    8.93
  -1   1  10    8.49   14.65
  -1   1  10    3.47   11.88
  -5   0  -7   39.53   25.38
  -5   0  -7   37.86   26.43
  -5   0  -7   43.27   28.64
  -5  -3   1  394.88   90.24
  -5   3   1  398.89   86.18
  -5   3   1  398.55   87.00
  -5   3   1  432.89   86.95
  -5   3   1  302.23   63.83
  -5   3   1  421.55   83.36
  -5  -3   1  325.27   70.06
  -5   3   1  361.56   76.22
  -7   0  -4    6.99   30.91
  -7   0  -4    6.54   14.82
  -7   0  -4    1.77   10.02
  -7   0  -4    8.98   13.67
  -7   0  -4    1.91    8.94
  -5  -1   9  227.19   59.35
  -5   1   9  248.51   66.12
  -5  -1   9  240.57  130.76
  -5  -1   9  234.00  143.99
  -5   1   9  217.65   57.11
  -4   0  10  134.79   64.29
  -4   0  10  123.29   50.06
  -4   0  10  112.96   45.74
  -4   0  10    1.55    5.36
  -4   0  10   41.01   48.57
  -5   3   2  487.27   91.45
  -5  -3   2  441.96   94.71
  -5   3   2  516.32  161.11
  -5   3   2  413.65   82.57
  -5   3   2  478.06   90.99
  -5   3   2  443.71   90.35
  -7   2   0  970.37  139.27
  -7   2   0  924.24  266.91
  -7   2   0  745.66  121.15
  -7  -2   0 1089.98  164.16
  -7   2   0  927.20  136.84
  -7   2   0  787.46  126.61
  -7  -2   0  965.80  143.32
  -7  -2   0  777.00  115.13
  -5  -2  -5   46.27   32.56
  -5  -2  -5   39.77   28.58
  -5   2  -5   22.91   22.16
  -5  -2  -5    2.74   11.12
  -5   2  -5   34.36   25.76
  -8   1   0   32.19   25.96
  -8  -1   0   38.89   25.70
  -8   1   0   54.08   29.10
  -8  -1   0   43.55   23.97
  -8  -1   0   48.43   43.96
  -5   3   0   44.88   32.66
  -5   3   0   39.52   25.22
  -5  -3   0   31.12   23.57
  -5   3   0   51.04   31.27
  -5   3   0   34.62   28.33
  -5   3   0   57.89   30.87
  -8  -1   4  813.23  121.73
  -8  -1   4  688.63  111.93
  -8  -1   4  608.48   99.16
   1   0  10  239.01  108.51
  -1   0 -10  211.13   54.48
  -3  -1  10   19.08   23.97
  -3   1  10   21.52   23.57
  -3  -1  10    3.58   13.50
  -3   1  10   17.68   21.60
  -3   1  10    8.61   15.78
  -3  -1  10   22.52   26.30
  -4   3  -3  354.03   75.29
  -4   3  -3  337.23   79.21
  -4  -3  -3  377.68   77.98
  -4  -3  -3   35.70   25.25
  -4   3   5    2.25   13.51
  -4  -3   5    2.45   11.67
  -4   3   5    1.74   11.50
  -4   3   5    1.12    8.07
   0   1  10   22.91   23.67
   0  -1  10   13.37   15.99
   0  -1  10   27.71   28.07
   0   1 -10   18.53   17.79
  -7  -2   4  630.87  108.36
  -7   2   4  738.85  120.24
  -7   2   4  622.63  110.69
  -7   2   4  569.05  108.80
  -7   2   4  685.62  108.66
  -7   2   4  717.82  115.25
  -5  -3   3    7.06   15.24
  -5   3   3   16.47   21.16
  -5   3   3   17.72   21.19
  -5   3   3    4.98   13.30
  -5   3   3    5.67   11.44
  -5   3   3    9.63   12.25
  -3   0  -9   -0.83    8.19
   3   0   9    4.25   10.09
  -7  -1   7  438.50   88.04
  -7   1   7  365.26   91.79
  -7   1   7  451.12   91.29
  -7  -1   7  402.35   87.68
  -7   1   7  428.94   81.79
  -7   1   7  467.53   85.87
  -7  -1   7  468.48   93.81
  -7  -1   7  374.01  208.01
   2   2   8   43.24   25.49
  -2   2  -8   39.04   24.74
  -2   2  -8   51.14   29.04
  -2  -2  -8    0.85    7.63
  -1   3  -6   28.07   21.40
   1   3   6   27.81   22.36
  -1  -2   9  218.42   59.28
  -1   2   9  278.93   72.30
  -1   2   9  263.39   73.30
  -2   2   9  112.67   52.68
  -2  -2   9   78.18   36.50
  -2   2   9   81.74   38.61
  -2  -2   9   86.55   47.37
  -3   3   6   12.18   12.91
  -3  -3   6    3.23   10.63
  -3   3   6   12.38   16.72
  -6   0  -6   94.62   40.98
  -6   0  -6   82.54   34.88
  -6   0  -6   77.64   37.79
  -5  -3  -1   22.78   22.05
  -5   3  -1   10.00    6.70
  -5   3  -1   32.86   27.65
  -5   3  -1   20.17   22.65
  -5   3  -1   16.52   20.25
  -7   2  -1  417.46   84.82
  -7   2  -1  392.15  235.07
  -7  -2  -1  456.00   99.28
  -7   2  -1  319.94   71.63
  -7  -2  -1  343.17   70.85
  -7   2  -1  327.32   75.54
  -7   2  -1  414.48   81.40
  -6   0   9 1040.03  157.21
  -6   0   9 1023.34  159.18
  -6   0   9  873.71  150.86
  -6   0   9  995.51  157.74
  -8   0  -2   18.29   20.16
  -8   0  -2   11.74    7.96
  -8   0  -2   19.24   30.49
  -8   1  -1  179.54   84.30
  -8   1  -1  153.29   53.58
  -8  -1  -1  191.49  123.32
  -8   1  -1  134.45   48.92
  -8  -1  -1  140.18   46.90
  -8   0   6   86.74   70.47
  -8   0   6  101.37   42.34
   0   2   9  233.12   67.99
   0  -2  -9    2.82    7.69
   0   2  -9  185.33   47.81
  -8  -1   5  297.93   66.60
  -8   1   5  291.37  180.17
  -8  -1   5  220.47  129.77
  -4  -1  -8  142.95   50.75
  -4  -1  -8  103.76   38.63
  -4  -1  -8  104.99   43.44
  -3  -2   9   17.54   21.02
  -3   2   9    9.49   15.53
  -3  -2   9   21.31   28.53
  -3   2   9   13.50   20.10
  -3  -2   9   30.37   29.89
  -5  -1  -7   87.32   36.75
  -5   1  -7   59.80   28.37
  -5  -1  -7    2.59    8.99
  -5   1  -7   72.09   35.70
  -5  -1  -7   70.64   31.92
  -7   0   8  653.14  119.40
  -7   0   8  639.87  116.52
  -7   0   8  641.50  109.53
  -7   0   8  591.45  115.32
  -7   0   8  517.18  102.14
  -5   3   4   14.23   17.04
  -5   3   4   15.41   17.40
  -5   3   4   25.62   25.36
  -5   3   4   30.47   26.11
  -5   3   4   24.73   20.88
  -7   1  -4  194.05   54.51
  -7   1  -4  216.56   65.17
  -7  -1  -4  273.13   74.63
  -7   1  -4  243.98   61.99
  -7   1  -4  276.20   74.42
  -4   1  10  482.68  109.21
  -4  -1  10  398.39  118.39
  -4   1  10  392.21   87.83
  -4  -1  10  391.76   87.68
  -4   1  10  367.11   85.43
  -4  -1  10  400.10   92.09
  -4   1  10  386.20   84.93
  -6  -2  -4  142.71  120.66
  -6   2  -4  124.11   48.90
  -6   2  -4  134.95   50.35
  -6  -2  -4   17.01   19.01
  -6   2  -4  139.04   49.75
  -6  -2  -4  116.46   45.56
  -5  -2   8  897.59  145.59
  -5   2   8  910.03  135.01
  -5   2   8  916.90  141.01
  -5  -2   8  952.07  154.02
  -5   2   8 1074.64  155.45
  -5  -2   8 1117.48  168.19
  -7   2   5  774.83  124.67
  -7   2   5  649.31  104.07
  -7   2   5  632.39  111.63
  -7   2   5  624.27  117.26
  -7   2   5  758.34  121.90
  -7  -2   5  681.68  121.94
  -3  -3  -5  819.90  125.58
  -3   3  -5  797.26  122.44
  -3   3  -5  801.09  126.23
  -1   1 -10   48.19   28.52
   1  -1  10   50.65   36.62
   1   1  10   51.49   28.31
  -6  -2   7   94.63   45.99
  -6   2   7  103.55   51.68
  -6   2   7   98.84   43.28
  -6   2   7   96.38   36.58
  -6   2   7   88.53   36.05
  -6  -2   7   95.78   42.61
  -6   2   7   80.44   43.21
  -5   0  10   40.22   24.33
  -5   0  10   50.59   35.17
  -1   3   7  474.11   96.10
  -1   3   7  494.90  100.52
  -1   3   7  418.16   81.47
  -1  -3   7  399.83   80.55
  -5  -3  -2  104.68   40.07
  -5  -3  -2   98.70   45.01
  -5   3  -2  104.04   44.76
  -5   3  -2   92.09   46.82
  -3  -1  -9    6.81   14.47
  -3  -1  -9   17.10   22.28
  -3  -1  -9    4.53   10.65
  -3   1  -9   12.79   20.21
  -2   3  -6  979.65  140.16
  -2  -3  -6   41.48   36.56
  -2   0 -10  127.83   45.08
  -2   0 -10  110.06   42.84
   2   0  10  125.51   48.19
  -2   3   7  122.44   66.67
  -2  -3   7   82.69   35.78
  -2   3   7   99.88   39.68
  -2   3   7  112.41   41.13
  -4   3  -4 1235.87  174.21
  -4  -3  -4 1189.33  258.58
  -4  -3  -4 1060.06  149.29
  -4   3  -4 1151.79  160.67
  -7   2  -2    7.12   11.43
  -7   2  -2   27.10   24.58
  -7   2  -2   27.09   22.45
  -7   2  -2   15.50   21.77
  -7  -2  -2   25.76   26.73
  -7   2  -2    2.38   12.10
  -7  -2  -2   31.26   32.40
  -7  -2  -2   24.01   20.79
  -6  -1  -6   83.21   34.20
  -6   1  -6   72.53   35.68
  -6  -1  -6   66.03   31.02
  -6  -1  -6   83.86   59.22
  -6   1  -6   65.78   30.58
  -2   0  11   98.78   43.32
   2   0 -11   98.66   36.62
  -2   0  11   86.90   40.15
  -2   0  11   95.64   47.19
  -2   0  11   90.38   54.97
  -4   3   6  411.50   85.21
  -4  -3   6  388.06   86.85
   0   3   7  118.47   47.89
   0   3   7  105.17   40.23
   0   3   7  104.75   40.70
  -1   2  -9  389.37   78.44
  -1  -2  -9    3.11    8.45
   1   2   9  456.34   93.83
  -1   0  11   -0.21   10.95
  -1   0  11    4.22   11.97
  -1   0  11    1.66    5.96
   1   0 -11    0.22    6.76
  -1   0  11   -0.09    8.38
  -4   2  -7  998.81  148.67
  -4   2  -7 1241.60  174.16
  -4  -2  -7  147.72   52.36
  -4  -2  -7 1215.19  175.62
  -4  -2  -7 1080.53  140.99
  -7   0  -5  219.43   65.00
  -7   0  -5  256.37   64.05
  -7   0  -5  246.25   67.65
  -6   1   9    0.21   10.50
  -6  -1   9    7.79   13.78
  -6  -1   9    4.81    9.24
  -6   1   9    2.07   10.75
  -6   1   9    1.85    7.51
  -6  -1   9    1.38   12.81
  -6   1   9    3.23   34.59
  -8  -1  -2  665.01  110.19
  -8   1  -2  644.34  187.37
  -8   1  -2  686.03  108.01
  -8   1  -2  571.65  109.40
  -8   1  -2  557.99  104.33
  -8  -1  -2  596.27  109.46
  -4   2   9 1746.90  162.44
  -4  -2   9 1943.60  196.60
  -4  -2   9 1610.72  217.30
  -4   2   9 1449.10  189.85
  -4   2   9 1624.37  219.55
  -4  -2   9 1491.32  213.57
  -4   2   9 1535.19  204.73
  -8   1   6  750.53  135.16
  -8   1   6  770.25  122.59
  -8  -1   6  830.73  128.53
  -3   0  11   62.84   35.44
  -3   0  11   58.78   36.48
  -3   0  11   56.72   34.78
  -3   0  11   71.62   56.30
  -5   3   5  664.87  114.68
  -5   3   5  496.61   98.33
  -5   3   5  804.32  136.81
  -5   3   5  712.15  123.79
  -5   3   5  716.89  115.08
  -8   0  -3   10.01   15.46
  -8   0  -3   16.33   38.58
  -8   0  -3   15.35   20.25
  -8   0  -3    7.36   13.05
  -5   2  -6  267.77   71.97
  -5  -2  -6  274.60   72.30
  -5  -2  -6  303.16   66.58
  -5  -2  -6  307.50   77.96
  -5  -2  -6  311.74   71.64
  -3   2  -8  589.89  104.56
  -3  -2  -8   80.73   36.88
  -3   2  -8  776.62  127.37
  -3  -2  -8  819.02  136.88
  -7   1   8  626.91  107.72
  -7  -1   8  612.78  128.06
  -7   1   8  558.40   99.46
  -7   1   8  518.54  113.86
  -7   1   8  568.98  108.09
  -7  -1   8  620.57  112.57
  -7  -1   8  597.32  113.95
  -9   0   2  743.86  126.96
  -9   0   2  888.40  133.19
  -9   0   2  790.10  131.01
  -8   0   7   47.22   27.37
  -8   0   7   46.09   28.49
  -8   0   7   40.03   38.31
   0   4   0   16.79   20.61
   0   4   0    9.89   14.41
   0   4   0    8.09   12.02
  -3  -3   7   37.25   26.35
  -3   3   7   32.17   48.58
  -3   3   7   40.55   27.50
  -9   0   3 1457.17  200.83
  -9   0   3 1516.64  203.12
  -7  -2   6  300.32   71.75
  -7   2   6  261.68   78.57
  -7   2   6  273.52   66.66
  -7   2   6  251.97  169.72
  -7   2   6  298.38   67.61
   0   0  11   59.53   26.19
   0   0 -11   45.36   26.25
   0   0  11   49.59   29.27
   0   0  11    7.41   12.65
  -6   3   1  509.57  103.27
  -6  -3   1  497.16   95.07
  -6   3   1  398.69   80.18
  -6   3   1  541.44  100.78
  -6   3   1  489.51   97.53
  -6   3   1  527.83  103.66
  -6   3   1  584.82   91.98
  -9   0   1 1984.22  161.13
  -9   0   1 1969.94  150.03
  -9   0   1 1669.54  160.02
  -9   0   1 1829.48  166.70
  -6   3   2  735.12  103.09
  -6   3   2  799.93  148.22
  -6  -3   2  601.33   86.34
  -6  -3   2  671.87  107.97
  -6   3   2  783.86  235.13
  -6   3   2  744.06  110.45
  -6   3   2  721.36  106.75
   0   4   1   87.46   41.75
   0   4  -1   99.81   54.07
   0   4   1   75.34   33.43
   0   4  -1   78.14   36.16
   0   4  -1   83.19   35.34
   0   4   1   78.51   37.46
   1   3   7 1962.21  170.52
  -1   3  -7 1719.29  142.63
  -5  -1  10  236.40   61.27
  -5   1  10  225.26   59.38
  -5  -1  10  251.24  163.61
  -5  -1  10  230.44  141.27
  -5   1  10  245.28   72.46
  -5   1  10  240.35   65.11
  -1   4   0  140.93   69.10
   1   4   0  133.89   47.62
  -1   4   0  114.63   43.41
  -1   4   0  107.70   44.37
  -5   0  -8  180.99   54.12
  -5   0  -8  204.75   56.90
  -5   0  -8  176.22   52.91
   1   4  -1   44.47   28.95
  -1   4   1   44.61   29.70
  -1   4   1   42.41   31.57
  -1   4   1   31.04   24.61
  -5   3  -3  464.00  145.00
  -5   3  -3  409.35   73.65
  -5  -3  -3  425.04   84.89
  -5  -3  -3  557.72   87.65
  -6   3   0    2.68    8.57
  -6  -3   0    0.80    9.91
  -6   3   0    1.76   12.17
  -6   3   0    6.25   14.18
  -6   3   0    0.99   11.62
  -6   3   0    0.53    8.24
  -6   3   0    3.73   11.41
  -9   0   4    2.50   12.79
  -9   0   4   -0.07   14.05
  -4   0  -9   16.24   21.92
  -4   0  -9    9.97   20.15
  -4   0  -9    4.73   13.13
  -6   3   3   11.41   17.19
  -6   3   3   48.64   29.64
  -6   3   3   61.42   33.08
  -6  -3   3   42.81   32.13
  -6   3   3   44.17   31.24
  -6   3   3   24.15   19.92
  -1   4  -1  103.66   46.56
  -1   4  -1   97.32   40.27
   1   4   1  101.15   42.55
  -1   4  -1   95.53   41.88
   2   1  10  355.99   72.89
   2   1  10  336.62  155.84
  -2   1 -10  343.93   73.48
   2  -1  10  292.19   72.84
  -2   1  11  591.71   99.39
  -2  -1  11  605.69  101.86
  -2  -1  11  563.12  105.18
  -2   1  11  566.57   99.51
  -2  -1  11  600.32  107.57
  -2   1  11  417.65  289.15
  -2  -1  11  575.84  101.43
  -4   0  11   15.52   21.70
  -4   0  11    8.19   17.48
  -4   0  11   23.13   25.26
  -4   0  11    7.68    7.57
   0   4   2  256.76   67.87
   0   4   2  199.51   57.20
   0   4  -2  210.86   56.05
   0   4  -2  236.17   63.73
   0   4  -2  225.56   57.09
   0   4   2  193.12   50.63
  -9   0   0  359.76   74.48
  -9   0   0  281.87   68.57
  -9   0   0  297.85   68.57
  -9   0   0  355.00   69.32
  -7   2  -3  378.98   77.11
  -7   2  -3  286.80   59.95
  -7   2  -3  425.09   78.46
  -7  -2  -3  349.12   72.62
  -7   2  -3  410.94   84.34
  -7  -2  -3  338.25   68.86
  -7   2  -3  342.23   76.75
  -8   2   2  157.96   45.78
  -8   2   2  150.89   92.91
  -8   2   2  114.72   83.37
  -8  -2   2  206.89   59.84
  -8   2   2  142.46   51.40
  -8  -2   2  144.36   42.57
  -6   0  -7   -1.48   10.92
  -6   0  -7    0.64    9.85
  -6   0  -7   -1.05    9.00
  -1   1  11  371.10   78.70
  -1   1  11  389.25   88.51
  -1  -1  11  347.46   81.83
  -1   1  11  222.14  132.41
   1   1 -11  333.02   64.98
  -1  -1  11  282.97   69.40
  -1   1  11  312.73   70.72
  -1  -1  11  362.58   75.62
  -1   4   2   92.67   40.63
   1   4  -2  102.49   57.61
  -1   4   2   98.62   43.83
  -1   4   2  128.11   52.57
  -7   1  -5  201.41   52.05
  -7   1  -5  322.05   79.87
  -7   1  -5  325.11   69.16
  -7  -1  -5  243.37   56.99
  -7  -1  -5  262.07   71.53
  -7  -1  -5  303.92   82.41
  -7   1  -5  295.37   76.93
  -6   2  -5  249.04   67.06
  -6   2  -5  258.37   65.97
  -6   2  -5  278.91   71.81
  -6  -2  -5  259.83   60.85
  -6  -2  -5  253.36   67.04
  -6  -2  -5  237.43   62.84
  -8   2   1   79.13   32.79
  -8   2   1   61.24   30.68
  -8   2   1   75.55   34.03
  -8   2   1   63.28   36.60
  -8  -2   1   97.46   42.86
  -7   0   9   51.54   33.99
  -7   0   9   55.69   50.70
  -7   0   9   38.41   31.11
  -7   0   9   49.00   31.16
  -8   2   3   33.08   23.90
  -8   2   3   30.27   26.95
  -8  -2   3   32.56   27.44
  -8   2   3   10.38   13.91
  -8  -2   3   30.15   21.87
  -2   2  -9  170.85   51.43
  -2   2  -9  152.97   49.50
   2   2   9  204.24   54.33
  -2  -2  -9    5.19   10.19
  -6   2   8  751.15  103.89
  -6   2   8  645.41  104.54
  -6   2   8  639.44   91.32
  -6  -2   8  719.46  106.24
  -6  -2   8  628.03  104.77
  -6   2   8  630.26   96.97
  -6   2   8  552.32  102.49
  -6  -2   8  730.88  117.10
  -6   2   8  677.01  106.05
  -6   0  10 1072.39  138.66
  -6   0  10 1083.24  145.63
  -6   0  10  960.74  133.31
  -6   0  10  935.32  167.54
  -3  -3  -6   85.33   37.21
  -3   3  -6   96.06   37.46
  -3  -3  -6    3.57   13.94
  -3   3  -6   98.13   39.86
  -3   1  11  769.80  120.13
  -3  -1  11  834.35  124.65
  -3  -1  11  757.03  118.84
  -3  -1  11  686.47  113.25
  -3   1  11  793.96  120.95
  -3   1  11  891.84  131.22
  -3   1  11  763.62  114.29
  -2   4   0   28.62   27.68
  -2   4   0   22.06   24.91
   2   4   0   25.34   22.29
  -2  -4   0   -0.25    7.32
  -2   4   0   23.96   23.85
  -2   4   1  119.12   47.83
  -2   4   1  125.18   49.91
   2   4  -1  125.26   44.33
  -2   4   1  130.93   52.17
  -8   1  -3  526.64   84.07
  -8   1  -3  384.23   76.19
  -8  -1  -3  482.22   84.87
  -8   1  -3  455.32   91.56
  -8  -1  -3  468.58   90.68
  -8   1  -3  525.05   95.21
  -2   2  10  378.39   85.61
  -2  -2  10  395.80   81.97
  -2   2  10  371.17   80.80
  -1   4  -2  255.57  135.37
  -1   4  -2  289.87   72.84
   1   4   2  286.35   69.16
  -1   4  -2  270.76   65.22
  -1   2  10  119.22   52.34
  -1  -2  10  120.46   44.46
  -1   2  10  117.30   46.32
  -6   3  -1  124.88   47.19
  -6  -3  -1  114.69   42.34
  -6  -3  -1  130.27   50.37
  -6   3  -1  136.71   49.72
  -6   3  -1   95.42   37.54
  -6   3  -1  139.25   53.34
  -6   3  -1  142.40   48.99
  -4   3  -5  723.74  101.36
  -4  -3  -5  686.27  131.13
  -4   3  -5  722.01  104.83
  -4   3  -5  439.95   75.20
  -4  -3  -5  757.56  104.33
  -9   1   2   54.58   34.35
  -9  -1   2   50.18   28.13
  -9  -1   2   54.44   31.82
  -9   1   2   47.43   33.92
  -9   1   2   70.08   41.74
  -9  -1   2   73.33   64.33
  -6   3   4   88.36   42.84
  -6   3   4   85.13   41.10
  -6   3   4   92.59   37.79
  -6   3   4   68.33   33.45
  -6  -3   4   89.42   44.47
  -6   3   4   90.94   42.42
  -5   3   6 1022.54  125.86
  -5   3   6 1001.96  125.21
  -5  -3   6 1147.35  145.55
  -5   3   6 1232.47  147.16
  -5   3   6 1183.63  136.60
  -9   0   5  101.40   65.08
  -9   0   5  115.39   46.09
  -5   2   9  984.70  125.33
  -5  -2   9  999.35  137.76
  -5   2   9 1082.41  129.23
  -5  -2   9 1085.70  140.33
  -5   2   9  939.52  114.87
  -5  -2   9 1154.48  148.15
  -4  -3   7   56.39   35.27
  -4   3   7   67.71   39.00
  -4   3   7   56.46   33.32
  -4   3   7   48.71   37.92
  -8  -1   7  997.58  122.27
  -8   1   7  743.79  123.53
  -8  -1   7  814.98  114.27
  -8   1   7  888.26  115.84
  -8  -1   7  869.23  111.73
  -8  -1   7  875.28  112.02
  -9  -1   3  329.26   66.93
  -9  -1   3  397.09  242.04
  -9  -1   3  336.74   73.48
  -1   0 -11    3.13    9.80
   1   0  11  108.33   45.41
  -1   0 -11  100.04   38.12
  -2   4  -1 1184.06  270.43
  -2  -4  -1    4.70   12.30
  -8  -2   0  742.25  108.09
  -8   2   0  640.78   89.52
  -8   2   0  473.98  251.87
  -8   2   0  613.55   91.68
  -8   2   0  540.27   94.74
  -8  -2   0  544.10   82.22
  -3   0 -10   82.19   38.99
  -3   0 -10    3.38   11.79
   3   0  10   77.10   36.26
  -2   4   2  198.91   59.85
   2   4  -2  200.53   54.68
  -2   4   2  197.70   59.37
  -2   4   2  183.96   60.00
   0  -1  11  166.26   51.63
   0   1  11  210.40  100.68
   0  -1  11  181.99   61.12
   0   1 -11  187.98   51.61
   0   1  11  194.68   58.73
  -9  -1   1   81.59   38.69
  -9  -1   1   93.76   68.91
  -9   1   1   74.50   40.19
  -9   1   1   71.83   38.72
  -9  -1   1   80.40   33.60
  -9   1   1  101.52   45.30
  -8   2   4  380.28   72.78
  -8   2   4  280.33   68.36
  -8   2   4  314.07   82.79
  -8  -2   4  290.99   64.11
   0   4   3   29.55   21.12
   0   4   3   41.11   31.86
   0   4  -3   58.92   35.16
   0   4   3   37.81   29.97
   0   4  -3   44.93   28.40
  -1   3   8  271.51   67.70
  -1   3   8  269.27   69.77
  -1   3   8  237.36   58.24
  -1   4   3  387.84   77.35
  -1   4   3  470.26   95.46
   1   4  -3  428.91   81.90
  -1   4   3  351.28   79.22
  -1   4   3  437.21   85.59
  -3  -2  10  504.39   93.51
  -3   2  10  527.69   92.99
  -3  -2  10  520.54  107.12
  -3   2  10  523.49   93.88
  -3   2  10  484.22   90.20
  -5  -1  -8  216.01   53.92
  -5   1  -8  162.81   44.68
  -5  -1  -8  289.86   68.83
  -5   1  -8  235.34   63.07
  -5  -1  -8  228.96   64.00
  -2  -3  -7 3210.16  233.26
  -2   3  -7 3243.63  201.33
   2   3   7 3403.57  217.92
  -9   0  -1  120.63   67.13
  -9   0  -1  109.76   40.50
  -9   0  -1   94.44   40.29
  -8   0  -4    2.64   13.68
  -8   0  -4    7.44   14.87
  -8   0  -4    6.76   12.25
  -2   3   8  645.07  112.42
  -2   3   8  472.36   84.04
  -2  -3   8  531.31   90.36
  -2   3   8  476.80   79.12
   0   2 -10  438.19   72.48
   0   2  10  610.62  109.56
  -9  -1   4 1303.87  130.20
  -9  -1   4 1078.67  161.93
  -9  -1   4 1213.44  133.45
  -7  -2   7  419.34   83.61
  -7   2   7  349.20   86.39
  -7   2   7  394.54   76.52
  -7   2   7  373.17   65.82
  -7   2   7  430.11   83.64
  -7  -2   7  453.20   90.92
  -4  -1  -9  184.63   58.30
  -4  -1  -9  133.96   45.63
  -4  -1  -9  143.88   51.38
  -8   0   8  293.06   72.22
  -8   0   8  291.62   71.47
  -8   0   8  224.69   70.25
  -8   0   8  260.14   70.40
  -8   0   8  310.31   67.31
   0   3   8  890.21  124.82
   0   3   8  779.18  108.32
   0   3   8  866.29  114.06
  -7   0  -6  152.14   52.50
  -7   0  -6  194.81   59.45
  -7   0  -6  191.65   54.42
  -4  -1  11  844.85  131.49
  -4   1  11 1037.71  152.19
  -4   1  11  882.56  129.01
  -4  -1  11  957.08  139.44
  -4   1  11  909.45  128.69
  -4  -1  11  869.97  127.87
  -4  -1  11  849.52  125.79
  -5  -3  -4  376.09   73.39
  -5   3  -4  416.14   81.41
  -5   3  -4  321.04   67.15
  -5  -3  -4  420.29   91.51
  -9   1   0  214.64   61.94
  -9  -1   0  155.35   51.04
  -9  -1   0  242.62  191.00
  -9   1   0  166.67   55.02
  -9  -1   0  194.43   52.17
  -9   1   0  186.58   59.42
  -1   4  -3  133.66   47.96
  -1   4  -3  127.18   64.09
   1   4   3  179.24   54.32
  -1   4  -3  152.51   55.92
  -6  -1  -7  311.40   66.46
  -6   1  -7  218.35   52.85
  -6  -1  -7  264.42   59.37
  -6   1  -7  287.96   66.48
  -2   4  -2  352.93  182.27
  -2  -4  -2    6.73   14.04
  -2   4  -2  367.27   82.77
  -2   4  -2  368.57   80.75
  -2   4   3  117.14   50.62
  -2   4   3   95.14   41.78
  -2   4   3  109.15   47.10
  -5   0  11   94.71   51.55
  -6  -3  -2  153.12   54.81
  -6   3  -2  121.84   42.86
  -6   3  -2  159.27   54.02
  -6   3  -2  194.93   58.89
  -6   3  -2  148.33   94.53
  -6   3  -2  168.05   58.96
  -6  -3  -2  139.88   45.41
  -7   1   9   14.44   21.39
  -7  -1   9    5.90   15.21
  -7  -1   9    4.34   12.99
  -7  -1   9    6.13   15.38
  -7   1   9   13.55   19.18
  -7   1   9    0.10   38.76
  -8  -2  -1  846.63  114.00
  -8  -2  -1  644.49   93.31
  -8   2  -1  691.34  108.74
  -8   2  -1  835.38  105.77
  -8   2  -1  848.12  111.72
  -8   2  -1  667.35  101.96
  -6   3   5  218.04   60.19
  -6   3   5  294.66   71.80
  -6   3   5  293.96   64.62
  -6  -3   5  293.11   79.16
  -6   3   5  319.48   73.04
  -6   3   5  248.48   64.89
  -6   3   5  258.96   67.52
  -3   4   1    9.36   17.16
  -3   4   1   23.80   26.18
  -3  -4   1    1.32    6.89
  -3   4   1   26.37   28.49
  -6   1  10   53.70   29.86
  -6   1  10   74.70   40.80
  -6   1  10   57.58   34.99
  -6  -1  10   52.34   34.43
  -6  -1  10   54.37   36.85
  -6  -1  10   52.23   37.34
  -6   1  10   72.55   43.72
  -3  -3   8  238.29  136.46
  -3   3   8  306.96   76.69
  -3   3   8  266.86   62.66
  -8   2   5  697.11  100.03
  -8   2   5  705.47  150.46
  -8  -2   5  706.45  105.29
  -8   2   5  640.86  104.36
  -8   2   5  580.81  109.43
  -3   4   0  275.75   71.86
  -3   4   0  264.98  148.77
  -3  -4   0    6.78   14.71
  -9   0   6   72.23   56.63
  -9   0   6   74.44   39.41
  -4  -2  -8  259.03   64.56
  -4  -2  -8  241.00   69.27
  -4   2  -8  250.10   66.69
  -4   2  -8  169.33   53.00
  -4  -2  -8   15.26   19.25
  -5  -2  -7 1003.83  135.23
  -5  -2  -7  973.72  113.48
  -5   2  -7  750.77  111.97
  -7  -2  -4  199.79   59.35
  -7  -2  -4  199.03   59.90
  -7   2  -4  239.69   68.76
  -7  -2  -4  218.41  168.81
  -7   2  -4  178.12   58.32
  -7   2  -4  216.97   60.76
  -9  -1   5  509.08  262.06
  -9   1   5  577.89  380.25
  -3   4   2  199.97   60.96
  -3   4   2  212.24   63.31
  -3   4   2  221.44   67.06
  -3   4   2  193.66   63.27
  -4  -2  10  298.68   75.49
  -4   2  10  262.27   67.63
  -4   2  10  264.30   65.21
  -4   2  10  314.34   79.34
  -4   2  10  281.48   71.52
  -4  -2  10  323.04   83.15
  -4   2  10  293.37   71.41
   1  -1  11  197.66   63.73
   1   1  11  266.43   67.61
  -1  -1 -11  199.05   55.64
   1   1  11  234.40  109.42
  -1   1 -11  210.99   56.61
  -1   4   4    9.17   14.65
   1   4  -4   20.37   23.03
  -1   4   4   25.93   26.04
  -3  -1 -10  168.31   52.62
  -3   1 -10  172.64   55.18
  -3  -1 -10  202.90   61.96
  -3  -1 -10  201.81   60.08
   3   1  10  106.20   53.40
   0   4   4  408.97   81.64
   0   4  -4  411.36   85.00
   0   4  -4  360.52   74.45
   0   4   4  139.87   92.23
  -1   2 -10  423.80   77.05
   1   2  10  495.50   94.09
  -3   4  -1  236.12  177.02
  -3  -4  -1    2.75   10.90
  -3   4  -1  261.00   71.61
  -1   3  -8   42.72   24.51
  -1  -3  -8   -0.01    9.54
   1   3   8   38.70   27.53
  -9   0  -2   35.34   62.65
  -9   0  -2   42.02   27.77
  -9   0  -2   37.63   26.35
  -9  -1  -1  230.56   61.64
  -9  -1  -1  267.58   67.68
  -9   1  -1  274.16   69.22
  -9   1  -1  243.03   67.75
  -9   1  -1  226.62   63.13
  -8   1  -4  311.74   78.59
  -8   1  -4  213.85   56.98
  -8   1  -4  253.06   72.43
  -8   1  -4  288.05   66.03
  -8  -1  -4  275.75   73.78
  -2   0 -11  225.68   60.46
  -2   0 -11  199.97   53.74
   2   0  11  202.60   60.09
  -3  -2  -9    2.11    8.77
  -3   2  -9   62.29   36.64
  -3   2  -9   40.54   31.21
  -3  -2  -9   50.20   36.65
  -5   3   7  452.77  244.40
  -5   3   7  523.36   91.10
  -5  -3   7  568.41  103.78
  -2   4  -3  269.19   71.21
  -2   4  -3  241.68   67.01
   2   4   3  276.15   64.66
  -2  -4  -3    9.35   15.75
  -2   4  -3  247.55   66.66
  -2   4   4  208.41   61.74
  -2   4   4  206.78   62.90
   2   0 -12   34.33   24.13
  -2   0  12   26.58   12.56
  -2   0  12   30.98   26.72
  -2   0  12   20.78   21.82
  -3   4   3    7.54   15.62
  -3   4   3    1.84   13.10
  -3   4   3    2.61   13.84
  -8  -1   8  487.90  280.45
  -8   1   8  415.01   98.56
  -8  -1   8  470.43   85.23
  -8   1   8  516.01   92.73
  -8  -1   8  463.08   88.37
  -6  -2  -6  244.98   68.01
  -6   2  -6  245.83   69.21
  -6  -2  -6   53.59   32.24
  -6  -2  -6  277.19   69.05
  -6   2  -6  219.73   64.55
  -6   2  -6  248.50   64.43
  -7   1  -6  177.21   62.24
  -7  -1  -6  211.69   88.87
  -7   1  -6  186.56   55.38
  -7  -1  -6  176.04   48.02
  -7  -1  -6  169.08   47.76
  -7   1  -6  216.01   66.77
  -7   1  -6  151.47   46.05
   1   4   4  257.11   64.28
  -1   4  -4  200.22   58.17
  -1   4  -4  201.13   56.41
  -1   4  -4  241.37   67.83
  -1   0  12    3.25   12.19
  -1   0  12    0.75    9.61
  -1   0  12    4.30   11.31
   1   0 -12    4.57   10.55
  -1   0  12   -1.46   11.15
  -4   3  -6  345.59   72.28
  -4  -3  -6  339.26   80.26
  -4   3  -6  330.83   72.90
  -4  -3  -6  301.80   68.42
  -4   3  -6  266.72   59.87
  -7   3   2  756.05  113.42
  -7   3   2  808.06  107.24
  -7   3   2  507.38   81.40
  -7   3   2  642.92   97.84
  -7   3   2  795.14  193.15
  -7   3   2  795.85  109.85
  -6  -2   9  699.71  116.17
  -6   2   9  689.52  105.52
  -6   2   9  683.54   99.15
  -6   2   9  833.34  114.76
  -6  -2   9  807.36  120.09
  -6   2   9  726.33  113.91
  -8  -2  -2  506.72   86.16
  -8   2  -2  592.34   95.46
  -8   2  -2  496.65   93.79
  -8   2  -2  472.25   83.29
  -8   2  -2  628.44   93.70
  -5   1  11 1894.92  181.04
  -5   1  11 2106.95  215.95
  -5  -1  11 1781.72  196.20
  -5   1  11 1688.95  178.77
  -5  -1  11 1755.96  177.40
  -5  -1  11 1907.11  342.92
  -5   1  11 1723.09  174.31
  -3   0  12  130.73   70.76
  -3   0  12  179.91   79.45
  -3   0  12  189.17  119.79
  -3   0  12  188.45   60.29
  -7   3   1  639.65   96.08
  -7   3   1  640.84  106.36
  -7   3   1  689.99   99.37
  -7   3   1  547.77   91.01
  -7  -3   1  659.17  101.38
  -7   3   1  655.92  107.48
  -7   3   1  658.43  104.08
  -4   3   8  528.80   94.70
  -4   3   8  463.64   82.11
  -4  -3   8  456.61  247.31
  -4   3   8  480.58   89.47
  -3   3  -7  109.42   37.97
  -3   3  -7  138.13   47.03
  -3  -3  -7  133.39   46.37
  -3  -3  -7   52.83   35.20
  -6   3  -3  315.29   77.67
  -6  -3  -3  258.81  202.11
  -6   3  -3  266.18  159.26
  -6   3  -3  235.57   59.82
  -6   3  -3  314.22   74.92
  -6  -3  -3  257.14   70.88
  -3  -4  -2   30.40   24.34
  -8   2   6  404.67   83.10
  -8   2   6  432.52   81.25
  -8   2   6  398.08  104.99
  -8  -2   6  425.16   84.05
  -8   2   6  384.49  201.04
  -7   0  10 1507.33  172.68
  -7   0  10 1410.32  167.61
  -7   0  10 1487.53  164.32
  -5   0  -9   61.81   34.46
  -5   0  -9   64.00   36.09
  -5   0  -9   76.00   38.29
  -6   3   6 1550.64  160.93
  -6   3   6 1258.53  141.93
  -6   3   6 1300.30  252.61
  -6   3   6 1606.48  171.96
  -7   3   3  220.15   55.91
  -7  -3   3  199.03   60.12
  -7   3   3  178.13   52.25
  -7   3   3  228.52   64.38
  -7   3   3  150.17   46.77
  -7   3   3  216.48   58.82
  -7   3   3  194.62   59.79
  -9   1   6  567.95  113.25
  -9  -1   6  505.16   83.73
  -9  -1   6  501.47  270.63
  -7  -2   8  207.28   62.42
  -7  -2   8  242.59   69.51
  -7   2   8  229.83   61.65
  -7   2   8  217.08   51.81
  -7   2   8  217.84   62.61
  -7   2   8  173.47   57.44
  -7   2   8  133.05   63.22
  -6   0  -8    1.75   11.31
  -6   0  -8    9.60   16.34
  -6   0  -8    8.15   14.90
  -8   0  -5 1192.59  141.80
  -8   0  -5 1306.03  143.54
  -8   0  -5 1071.41  138.60
  -8   0  -5 1327.50  135.12
  -9   0   7   36.20   29.02
  -9   0   7   12.32   29.77
  -7   3   0  342.44   78.91
  -7   3   0  347.90   79.37
  -7   3   0  336.88   69.37
  -7  -3   0  353.03   79.49
  -7   3   0  338.29   74.82
  -7   3   0  292.37   66.84
  -7  -3   0  359.10   77.83
  -5   3  -5  477.14   86.78
  -5   3  -5  285.78   63.29
  -5   3  -5  453.51   89.18
  -5  -3  -5  450.04  148.32
  -5  -3  -5  414.15   78.47
  -4   4   1   -3.15   12.89
  -4  -4   1    6.90   12.32
  -4   4   1    0.34   12.79
  -4   4   1    4.06   14.76
  -4   4   1    3.78   15.71
   0   0 -12  101.81   39.31
   0   0  12   87.88   44.22
   0   0  12   91.56   37.43
  -4   0 -10   14.78   18.02
  -4   0 -10   26.67   26.59
  -4   0 -10   25.59   25.24
  -5  -2  10  118.36   56.43
  -5   2  10  157.80   53.45
  -5   2  10  124.75   45.55
  -5   2  10  122.50   48.91
  -5  -2  10  137.53   54.59
  -5  -2  10  130.33   54.66
  -5   2  10  121.35   47.35
  -3   4   4  105.30   47.47
  -3   4   4   99.89   47.32
  -3   4   4  129.33   53.87
  -6   0  11   12.46    8.28
  -6   0  11    8.47   18.83
  -6   0  11   10.07   19.95
  -6   0  11    4.96   15.93
  -8   0   9  446.79   92.03
  -8   0   9  696.90  101.99
  -8   0   9  697.78  112.95
  -8   0   9  732.61  113.96
   1   4  -5  434.12   80.10
  -1   4   5  443.64   85.63
   1   4  -5  240.79   57.22
  -1   4   5  309.13  211.75
  -9  -1  -2  917.59  123.55
  -9  -1  -2 1102.18  131.36
  -9   1  -2  841.33  119.23
  -9   1  -2  975.54  132.65
  -9   1  -2 1055.75  137.21
  -4   4   0  199.78   61.09
  -4   4   0  197.30   64.17
  -4   4   0  198.31  113.14
  -4  -4   0   13.17   17.79
  -4   4   0  195.75   64.24
  -4   4   2    8.88   17.50
  -4   4   2    8.17   22.26
  -4   4   2    1.02   13.13
  -4   4   2   -0.28   11.68
   0   4   5  507.97   96.73
   0   4   5   72.37   50.93
   0   4  -5  473.11   88.69
   0   4  -5  426.92   79.18
   0   4   5  479.71   86.49
  -4   0  12  162.94   58.37
  -4   0  12  132.90   89.26
  -4   0  12  134.90   53.28
  -4   0  12  167.32  115.20
  -7   3   4   26.08   21.35
  -7   3   4   39.43   32.08
  -7  -3   4   33.05   32.14
  -7   3   4   32.84   28.92
  -7   3   4   16.30   17.79
  -7   3   4   32.57   26.48
  -7   3   4   20.54   20.11
  -2   1 -11  252.51   62.08
  -2  -1 -11  282.92   71.33
   2   1  11  237.08  102.26
  -2  -3  -8   30.59   38.21
  -1   3   9  528.93   94.91
  -1   3   9  538.19   89.46
  -2   2 -10  143.18   50.75
   2   2  10  188.12   53.30
  -2   2 -10  192.12   56.43
  -2   1  12    2.50    9.70
  -2   1  12    8.16   15.30
  -2  -1  12    3.12   14.95
  -2  -1  12    1.72   12.07
  -2  -1  12    5.93   16.22
  -2  -1  12    5.61   13.33
  -2   1  12    9.72   17.16
  -2   3   9   82.47   38.73
  -2   3   9  112.38   49.38
  -2  -3   9  105.97   43.15
  -2   3   9   81.00   35.45
  -2   4  -4   48.98   31.71
  -2   4  -4   59.47   37.49
  -2   4  -4   48.52   33.70
  -2  -4  -4   -4.31   11.08
   2   4   4   45.36   27.36
  -2   4   5  316.63  204.12
  -2   4   5  361.30   79.18
  -2   2  11   25.48   24.92
  -2   2  11   35.39   28.89
  -2  -2  11   14.65   17.62
  -2   2  11   35.69   33.97
  -9   0  -3   29.32   29.89
  -9   0  -3   28.96   16.80
  -9   0  -3   28.68   27.47
  -1   1  12  186.02   56.14
   1   1 -12  181.49   49.61
  -1   1  12  154.33   45.89
  -1  -1  12  188.49   54.44
   1  -1 -12  192.03   56.07
  -1   1  12  219.39  110.22
  -1  -1  12  159.69   52.63
  -1   1  12  204.25   61.77
  -1   2  11  465.98   88.33
  -1   2  11  500.25  106.16
  -7   3  -1   28.39   26.94
  -7   3  -1    7.41   15.12
  -7   3  -1    5.56   13.70
  -7  -3  -1   19.71   21.82
  -7  -3  -1   26.58   25.22
  -7   3  -1   10.51   16.42
  -7   3  -1    9.95   17.12
  -7  -2  -5  170.63   56.20
  -7   2  -5  184.83   56.30
  -7  -2  -5  181.61   58.73
  -7  -2  -5  168.04   61.78
  -7   2  -5  181.41   61.42
  -7   2  -5  151.58   56.57
  -3   4  -3  234.17   65.09
  -3   4  -3  247.73   69.21
  -3   4  -3  276.35   73.12
  -3  -4  -3   26.37   23.70
  -4   4  -1   78.70   44.67
  -4  -4  -1    2.00   10.81
  -4   4  -1   68.70   36.91
  -4   4  -1   75.24   43.45
  -3   1  12  419.46  266.75
  -3  -1  12  327.12   78.65
  -3   1  12  415.07   91.47
  -3  -1  12  389.76   87.64
  -3  -1  12  378.76   86.90
  -3   1  12  418.37   87.29
  -3   1  12  493.47  287.55
  -3  -1  12  397.26   85.86
 -10   0   2 2601.29  209.66
 -10   0   2 2713.90  209.45
  -4   4   3   37.96   34.99
  -4   4   3   22.85   27.47
  -4   4   3   17.55   25.48
 -10   0   3  453.42   87.15
 -10   0   3  427.72   87.88
  -7   0  -7  214.59   57.48
  -7   0  -7  203.82   60.96
  -7   0  -7  171.87   56.22
   0   3   9   36.33   28.73
   0  -3  -9    3.01   10.01
  -7  -1  10  156.75   56.16
  -7   1  10  146.46   53.71
  -7   1  10  165.14   54.49
  -7   1  10  139.19   63.55
  -7  -1  10  152.22   59.69
  -7  -1  10  172.43   97.64
  -5  -1  -9  947.08  112.91
  -5  -1  -9 1303.25  147.07
  -5   1  -9 1128.20  134.98
  -5  -1  -9  972.02  130.07
  -3  -2  11  668.74  111.02
  -3   2  11  653.74  106.82
  -3   2  11  677.94  109.92
  -3   2  11  694.65  105.64
  -8  -2  -3  232.02   60.59
  -8   2  -3  226.04   55.99
  -8   2  -3  282.62   74.09
  -8  -2  -3  258.65  185.55
  -8   2  -3  305.18   70.01
  -1   4  -5  207.88   60.77
  -1  -4  -5    5.24   15.97
   1   4   5  248.45   61.88
  -1   4  -5  214.51   56.00
  -1   4  -5  192.82   55.33
   1   4   5  238.26   63.31
  -3   3   9  198.40   53.94
  -3   3   9  260.04   71.92
  -3  -3   9  190.22   84.20
  -9  -2   2   35.68   37.27
  -9   2   2   32.22   29.27
  -9   2   2   26.08   32.06
 -10   0   1  150.64   52.81
 -10   0   1  187.38   67.15
 -10   0   1  164.47   53.06
  -6  -1  -8  121.23   44.06
  -6   1  -8   72.47   31.40
  -6  -1  -8   80.54   38.68
  -6  -1  -8  102.60   38.28
  -6   1  -8  106.29   43.84
  -6   1  -8   85.64   42.13
  -8   2   7 1075.48  154.04
  -8   2   7 1200.94  134.60
  -8  -2   7 1216.56  186.84
  -8   2   7 1292.13  138.84
 -10   0   4   87.37   52.70
 -10   0   4   62.04   36.08
  -8   1  -5  267.41   76.01
  -8   1  -5  203.39   66.75
  -8   1  -5  169.65   50.18
  -8  -1  -5  203.29   63.56
  -8   1  -5  236.72   61.75
  -9  -1   7  261.49   61.99
  -9  -1   7  218.94   62.42
  -9   1   7  184.72   84.56
  -9   1   7  236.40   58.12
  -9  -2   3  465.76   76.27
  -9   2   3  484.83   93.39
  -9   2   3  400.07  291.68
  -9  -2   3  595.62   96.66
  -6   3  -4  266.74   70.28
  -6   3  -4  198.67   54.93
  -6  -3  -4  211.29   55.33
  -6  -3  -4  219.78  175.66
  -6   3  -4  255.48   69.77
  -6   3  -4  231.00  118.38
  -5   3   8  218.80   58.97
  -5  -3   8  207.17   64.51
  -5   3   8  265.00   64.92
   3   0  11   69.43   35.24
  -3   0 -11   60.62   36.45
  -3   0 -11   80.11   38.63
  -7   3   5  113.50   44.21
  -7  -3   5  146.92   55.73
  -7   3   5  161.96   56.31
  -7   3   5  171.65   54.51
  -7   3   5  154.45   51.15
  -7   3   5  143.23   45.17
   0   2 -11  118.79   40.24
   0   2  11  164.89   61.55
  -9  -2   1  227.99  138.88
  -9  -2   1  143.70   43.59
  -9   2   1  108.03   71.19
  -9   2   1  150.64   54.15
  -1   0 -12   -0.38    6.61
   1   0  12   -1.58   10.67
  -1   0 -12   -0.02    9.22
  -6   3   7  403.22   86.25
  -6   3   7  341.17  256.04
  -6   3   7  405.76   80.80
   0   1  12  745.26  114.46
   0   1 -12  644.34   93.01
   0  -1 -12  652.67   99.13
   0  -1  12  589.22  106.33
   0   1  12  745.90  368.74
  -4  -1 -10  516.76   87.22
  -4  -1 -10  639.91  105.19
  -4  -1 -10  572.66  103.84
  -6   1  11  384.34  131.35
  -6  -1  11  414.23  199.98
  -6   1  11  429.59   88.62
  -6   1  11  447.23   96.55
  -6  -1  11  385.17   76.29
  -6  -1  11  397.48   93.38
  -3   4   5  197.49   62.65
  -3   4   5  164.98  144.05
  -3  -4   5  151.78   51.99
  -8  -1   9   69.46   37.62
  -8  -1   9   78.64   42.47
  -8   1   9   70.54   35.27
  -8  -1   9   52.65   31.73
  -8   1   9   67.13   38.62
  -8   1   9   35.86   36.58
  -8   1   9   50.76   53.02
  -5  -2  -8   28.40   25.74
  -5  -2  -8  431.87   79.65
  -5  -2  -8  384.41   84.39
  -5   2  -8  284.48   68.67
  -4   4  -2 1112.86  143.05
  -4  -4  -2 1112.92  128.12
  -4   4  -2  970.88  132.38
  -4  -4  -2  596.55  100.18
  -4   4  -2 1043.48  139.32
  -4   1  12  909.76  203.64
  -4  -1  12  718.15  118.17
  -4  -1  12  792.28  120.46
  -4   1  12  838.73  272.78
  -4  -1  12  874.34  130.21
  -4   1  12  792.69  124.20
  -9  -2   4  409.86   78.95
  -9  -2   4  337.63   68.64
  -9   2   4  317.44   93.02
  -9   2   4  306.87   74.59
  -4   4   4   80.28   43.24
  -4   4   4   78.06   42.61
  -4   4   4   82.48   44.99
  -4  -2  -9    4.74   10.17
  -4   2  -9  241.99   66.57
  -4  -2  -9  283.20   67.65
  -4  -2  -9  285.16   76.75
  -4   2  -9  196.49   58.04
  -5   0  12    1.52    5.32
  -5   0  12   -5.46   15.32
  -5   0  12    0.32   13.07
  -9   0   8   -0.15   10.04
  -9   0   8    0.70    3.11
  -9   0   8   -6.39   29.31
  -9   0   8   -0.73    7.29
  -9   0   8    5.11   21.01
 -10   0   0  327.22   73.52
 -10   0   0  365.23   70.73
 -10   0   0  303.49   75.84
  -7   3  -2  219.46   67.21
  -7   3  -2  197.11   60.43
  -7   3  -2  178.88   52.97
  -7   3  -2  212.74   62.50
  -7  -3  -2  183.60   74.09
  -7   3  -2  214.34   58.01
  -7  -3  -2  179.14   60.71
  -9   1  -3  465.49  243.37
  -9  -1  -3  517.86  109.41
  -9  -1  -3  404.13   86.16
  -9   1  -3  378.59   79.43
  -9   1  -3  409.52   90.31
  -4   2  11  287.48   73.38
  -4   2  11  213.80   61.59
  -4   2  11  216.11   61.23
  -4  -2  11  230.79   75.71
  -4  -2  11  260.94   71.86
  -4   2  11  239.53   65.85
 -10   0   5  192.55   59.39
 -10   0   5  220.05  141.91
  -9   2   0  111.47   47.02
  -9   2   0  139.70   43.94
  -9   2   0   96.74   60.01
  -9  -2   0  124.65   41.85
  -9  -2   0  213.84  168.65
  -1  -3  -9    8.72   13.94
  -6   2  -7  370.82   81.20
  -6  -2  -7  421.74   84.63
  -6  -2  -7  469.18   88.86
  -6  -2  -7  461.42   75.21
  -6   2  -7  432.85   83.69
  -6  -2  -7  424.84   87.98
  -6   2  -7  419.55   86.04
  -4  -3  -7  597.48   96.73
  -4  -3  -7  564.19  101.10
  -4   3  -7  604.38   93.78
  -4   3  -7  649.48  102.03
  -4   3  -7  522.41   82.40
   1   4  -6  184.01   51.18
  -1   4   6  188.71   56.86
   1   4  -6  164.07   47.81
  -1   4   6  186.77   60.48
  -1   4   6  173.81   53.30
 -10  -1   2  117.54   80.43
 -10  -1   2   98.75   42.00
 -10   1   2   73.34   45.53
 -10  -1   2   92.15   36.67
 -10   1   2   92.44   44.57
 -10   1   3   10.27   19.77
 -10  -1   3    4.80    8.58
 -10  -1   3    4.04   12.90
 -10  -1   3    6.25   11.13
  -7  -1  -7   32.37   22.60
  -7   1  -7   29.29   24.56
  -7   1  -7   41.36   34.10
  -7   1  -7   23.18   19.09
  -7   1  -7   45.01   36.75
  -7  -1  -7   33.31   22.26
  -4   3   9  262.54   60.61
  -4   3   9  289.77   71.13
  -4   3   9  266.68   65.44
  -4  -3   9  275.63  145.45
  -7  -2   9   28.98   23.52
  -7   2   9   35.53   28.73
  -7   2   9   33.16   23.08
  -7   2   9   12.11   16.09
  -7  -2   9   36.99   33.10
  -7   2   9   27.87   23.49
  -7  -2   9   37.43   31.15
  -3   4  -4  206.88   59.20
  -3   4  -4  246.73   66.85
  -3   4  -4  250.12   68.38
  -3  -4  -4    8.36   16.88
  -6  -2  10   31.00   28.90
  -6   2  10   36.01   27.94
  -6   2  10   40.45   28.39
  -6  -2  10   31.79   31.54
  -6   2  10   52.61   32.43
   0   4  -6  300.35   68.87
   0   4   6  307.68   74.49
   0   4   6  291.25   67.26
   2   4   5  141.62   43.63
  -2   4  -5  170.56   54.65
  -2   4  -5  153.89   52.45
  -2   4  -5  157.03   50.10
  -2  -4  -5   13.04   19.86
  -2   4   6 1028.96  397.71
  -2  -4   6  871.17  115.53
  -2   4   6 1049.29  130.17
  -2   4   6 1065.24  137.39
  -5  -3  -6  122.72   41.13
  -5   3  -6   93.41   41.06
  -5  -3  -6  134.58   55.58
  -5   3  -6   84.40   36.06
  -5  -3  -6   99.99   41.84
  -5   3  -6  108.89   45.94
  -3   3  -8  121.53   40.67
  -3  -3  -8   10.13   16.26
  -3   3  -8  148.03   49.18
  -3  -3  -8  162.67   53.91
  -5  -4   1    0.87    6.80
  -5   4   1   14.76   22.65
  -5   4   1   22.70   26.11
 -10   1   1    5.93   17.56
 -10   1   1   15.84   22.71
 -10   1   1   30.78   30.16
 -10  -1   1   10.91   17.16
 -10  -1   1   22.22   32.34
  -9   2   5  465.28  110.27
  -9   2   5  516.19   95.48
  -9  -2   5  533.20   88.21
  -9  -2   5  581.58   92.02
  -8   0  -6    0.81    8.79
  -8   0  -6   -0.48   11.59
  -8   0  -6   -0.79    7.50
  -8   0  -6   -0.19   11.31
 -10   1   4  310.21   80.09
 -10  -1   4  225.07  174.30
  -5   4   2   83.92   45.90
  -5   4   2   67.42   39.80
  -9   0  -4  143.33   51.08
  -9   0  -4  159.43   81.28
  -9   0  -4  140.70   53.79
  -1   2 -11  169.10   53.74
  -1   2 -11  210.83   55.08
   1   2  11  243.86   66.97
  -3  -1 -11  151.29   55.58
  -3  -1 -11  134.66   48.66
  -3   1 -11  127.18   46.21
  -3  -1 -11  144.71   51.09
  -3  -2 -10  134.25   49.83
  -3   2 -10  104.27   44.48
  -3   2 -10  133.92   50.00
  -7   3   6   95.13   41.58
  -7   3   6  158.19   53.34
  -7   3   6  140.67   95.82
  -7   3   6  139.80   45.14
  -7  -3   6  168.23   61.91
  -5   4   0  105.11   46.88
  -5   4   0  108.63   49.75
  -5  -4   0   63.49   33.01
  -7   0  11  204.50   65.68
  -7   0  11  206.06   66.61
  -7   0  11  223.97   66.40
  -1  -1 -12  629.03   97.54
   1   1  12  759.63  111.25
   1   1  12  638.43  327.39
  -1   1 -12  557.59   86.42
  -8   0  10 2281.12  203.92
  -8   0  10 2445.32  237.77
  -8   0  10 2429.34  224.57
 -10   0  -1   95.86   37.65
 -10   0  -1   87.58   41.37
  -4   4  -3  216.10   64.91
  -4   4  -3  208.65   62.65
  -4  -4  -3  194.73   64.06
  -4   4  -3  204.52   64.96
  -9   2  -1  139.82   45.39
  -9  -2  -1  145.79  122.21
  -9   2  -1   86.13   43.69
  -9   2  -1  112.66   48.49
  -9  -2  -1   97.01   37.59
  -8  -2  -4   49.83   31.83
  -8  -2  -4   52.02   41.75
  -8   2  -4   43.64   34.24
  -8   2  -4   63.26   35.81
  -8   2  -4   35.88   23.47
  -4   4   5   81.93   41.99
  -4  -4   5   67.24   38.60
  -5   4   3 1018.44  133.69
  -5   4   3  966.06  126.50
  -5   4   3  925.17  134.06
 -10   0   6   20.39   37.28
  -1   4  -6  151.35   50.49
   1   4   6  137.95   47.54
  -5  -1  12   86.26   45.07
  -5   1  12   90.70   47.01
  -5   1  12  105.17   46.92
  -5  -1  12   87.70   40.98
  -5   1  12   99.72   56.05
  -5   1  12  115.70   53.24
  -5  -1  12   91.99   47.28
  -9   1   8  447.76   82.45
  -9  -1   8  453.11   80.87
  -9   1   8  350.12  104.61
 -10   1   0 1078.23  136.88
 -10   1   0 1234.56  141.10
 -10  -1   0 1338.71  141.96
 -10  -1   0 1017.43  126.16
 -10   1   0 1078.69  137.84
  -8   2   8  310.97   69.62
  -8   2   8  310.71   71.07
  -8   2   8  261.12   69.81
  -8  -2   8  324.00  200.28
  -3   4   6   15.09   13.03
  -3  -4   6   11.75   16.20
  -3   4   6   29.11   28.90
  -7   2  -6   11.01   19.28
  -7   2  -6   47.57   34.36
  -7  -2  -6   31.15   38.96
  -7  -2  -6   39.73   31.03
  -7   2  -6   52.93   34.47
   2   0  12  181.19   56.76
  -2   0 -12  158.25   46.96
  -2   0 -12   88.22   35.56
 -10   1   5   56.28   38.86
 -10  -1   5   40.84   38.36
 -10   1   5   66.49   65.66
  -5  -4  -1  177.35   56.44
  -5  -4  -1  279.48   64.74
  -5   4  -1  316.95   78.73
  -5   4  -1  299.53   73.92
  -7   3  -3   50.65   35.26
  -7   3  -3   18.79   14.53
  -7   3  -3   51.85   37.46
  -7   3  -3   14.72   18.88
  -7  -3  -3   41.31   35.00
  -7  -3  -3   32.93   32.81
  -7   3  -3   49.29   31.84
  -8  -3   2  464.61   94.78
  -8   3   2  349.86  195.20
  -8   3   2  369.91   75.92
  -8   3   2  286.96   66.24
  -8   3   2  234.08   56.37
  -6   3  -5   96.15   46.16
  -6  -3  -5   98.03  102.03
  -6   3  -5   77.04   38.91
  -6   3  -5   70.98   33.90
  -6  -3  -5   74.67   34.72
  -2   0  13    3.81   13.60
  -2   0  13   35.68   30.33
  -2   0  13   30.28   28.88
  -6   0  -9    2.27   11.38
  -6   0  -9   14.42   21.02
  -6   0  -9    4.21   14.32
  -5   0 -10   66.58   37.88
  -5   0 -10   59.49   34.48
  -5   0 -10   65.56   37.23
  -5   2  11    7.12   14.48
  -5   2  11    8.15   15.59
  -5  -2  11    1.78   14.92
  -5   2  11    5.53   13.49
  -5   2  11   10.14   17.32
  -5  -2  11    6.42   16.60
  -5  -2  11    7.40   17.11
  -8   3   1  522.36   89.07
  -8   3   1  603.85  143.91
  -8   3   1  635.65  105.64
  -8   3   1  599.79   95.33
  -8  -3   3  895.00  129.37
  -8   3   3  705.59   98.78
  -8   3   3  608.52   94.89
  -8   3   3  708.63  105.18
  -8   3   3  504.73   84.36
  -8   3   3  756.20  109.63
  -6   3   8   86.89   44.60
  -6   3   8   88.61   39.94
  -6   3   8   75.51   37.66
  -3   0  13 1306.22  258.18
  -3   0  13 1478.52  169.91
  -3   0  13 1589.68  165.33
  -3   0  13 1738.74  201.30
  -2   3  10   18.08   21.05
  -2   3  10   27.33   25.21
  -2  -3  10   21.51   19.84
  -1   0  13   91.03   45.18
  -1   0  13  106.65   43.44
   1   0 -13   94.24   37.36
  -1   0  13   92.91   39.54
  -9   2   6 1096.25  120.56
  -9   2   6 1045.37  152.10
  -9  -2   6 1260.76  134.25
  -9  -2   6 1150.98  130.84
  -9   2   6 1109.96  137.63
  -1   3  10   66.53   34.29
   1  -3 -10    1.44    7.91
  -1   3  10   34.23   26.85
  -6   0  12   -0.32   14.84
  -6   0  12   -0.31    7.67
  -5   4   4   81.99   41.57
  -5   4   4   87.27   47.74
  -5   4   4   81.80   41.71
  -8   1  -6    7.97   12.74
  -8   1  -6   14.76   22.07
  -8   1  -6   18.46   23.65
  -8   1  -6    5.02   12.70
  -5  -3   9   62.66   37.02
  -5   3   9   77.24   41.85
  -5   3   9   78.74   38.28
  -5   3   9   83.68   39.64
  -9   1  -4  427.83   93.95
  -9  -1  -4  379.54   84.24
  -9   1  -4  298.05   67.93
  -9  -1  -4  484.53  111.93
  -9   1  -4  468.88   81.86
  -9   1  -4  433.34  201.55
  -8   3   0  385.52   78.04
  -8   3   0  392.41   81.15
  -8   3   0  352.83   79.47
  -8   3   0  287.74   66.59
  -9   0   9   82.13   35.67
  -9   0   9   52.22   63.60
  -9   0   9   55.46   35.33
  -9   0   9   99.56   44.00
  -3   4  -5   98.46   40.14
  -3   4  -5  116.96   49.56
  -3  -4  -5    8.80   17.96
  -3   4  -5  115.59   46.40
  -7   1  11  117.91   64.84
  -7  -1  11  126.29   57.28
  -7   1  11  120.90   51.18
  -7  -1  11  118.14   78.17
  -7   1  11  114.07   46.79
  -7  -1  11  124.76   52.16
  -8  -3   4   50.06   34.92
  -8   3   4   48.14   34.44
  -8   3   4   52.00   32.90
  -8   3   4   48.39   28.64
  -8   3   4   29.47   24.70
  -8   3   4   33.65   25.28
  -7   0  -8    3.79   11.86
  -7   0  -8    5.29   13.36
  -7   0  -8    1.96   12.04
  -3  -3  10   40.55   29.59
  -3   3  10   24.86   22.66
  -8   1  10   61.23   38.14
  -8   1  10   56.56   32.81
  -8  -1  10   65.32   42.50
  -8  -1  10   55.89   36.66
  -8   1  10   46.13   32.14
  -8  -1  10   65.71   38.21
  -4   0 -11    2.37   10.67
  -4   0 -11   29.17   27.29
 -10   1  -1  624.54  108.78
 -10   1  -1  653.16  112.97
 -10  -1  -1  794.87  126.69
 -10  -1  -1  587.25  102.36
 -10   1  -1  693.32  112.16
  -9   2  -2   64.59   33.68
  -9   2  -2   31.35   28.18
  -9  -2  -2   45.53   28.00
  -9   2  -2   63.47   40.57
  -9  -2  -2   62.31   52.36
 -10   0  -2  251.74   65.47
 -10   0  -2  310.20   67.14
  -1   4   7  133.00   45.79
  -1   4   7  136.03   51.70
   1   4  -7  131.33   42.11
  -1   4   7  138.00   48.68
  -5  -4  -2   63.02   34.99
  -5   4  -2  303.22   71.56
  -5   4  -2  301.85   77.05
  -5   4  -2  243.60   69.34
  -5  -4  -2  255.99   62.06
   0   3  10   92.35   43.28
   0  -3 -10    0.47    6.95
  -2  -2 -11  310.26   70.05
  -2   2 -11  264.68   68.91
   2   2  11  240.76  153.04
  -2   2 -11  312.98   70.31
 -10   1   6   71.10   59.64
 -10  -1   6   93.22   40.87
 -10  -1   6   95.54   52.09
  -7   3   7  122.88  102.07
  -7  -3   7  153.49   57.72
  -7   3   7  134.60   43.55
  -7   3   7  138.42   50.86
   2   4   6   16.50   15.67
  -2   4  -6   22.52   20.61
  -2   4  -6   22.90   22.89
  -4   0  13 1583.88  191.11
  -4   0  13 1286.36  165.05
  -4   0  13 1173.33  169.60
  -4   0  13 1216.44  157.69
  -2   2  12  150.06   55.25
  -2  -2  12  139.32   48.03
  -2   2  12  145.25   52.34
  -2   2  12  153.30   58.72
  -2   4   7  200.56   58.02
  -2   4   7  245.83   69.15
  -2   4   7  197.92   60.43
  -2  -4   7  211.97   58.49
  -4   4  -4  277.39   73.76
  -4   4  -4  260.10   66.52
  -4  -4  -4  298.51   78.22
 -10   0   7   37.92   27.11
 -10   0   7   19.29   39.33
   0   0 -13    1.00    6.29
   0   0 -13   27.47   22.96
   0   0  13   14.19   17.68
   0   0  13   32.08   31.27
  -4  -4   6  238.41   64.80
  -4   4   6  253.58   87.98
  -4   4   6  291.29   72.82
   0  -4  -7    0.30   12.19
   0   4   7  347.19   73.08
   0   4  -7  326.01   69.33
   0   4   7  337.31   76.18
   2   1  12  150.62   50.29
  -2  -1 -12  142.11   50.90
  -2   1 -12  142.41   45.54
  -2  -1 -12  164.14   52.85
  -1   2  12  168.84   55.32
  -1   2  12  192.35   66.82
  -2   1  13   44.71   31.10
  -2  -1  13   43.90   31.77
   2  -1 -13   40.38   27.01
  -2  -1  13   18.22   21.75
  -2  -1  13   45.09   29.90
  -2   1  13   23.31   23.48
  -2   1  13   38.33   27.51
  -6  -1  -9  920.27  125.69
  -6   1  -9  813.06  119.40
  -6   1  -9  687.09  111.78
  -6   1  -9  557.50   83.11
  -6  -1  -9  735.91  102.44
  -6  -1  -9  788.43  122.01
  -5  -1 -10  450.64   93.01
  -5  -1 -10  509.44   95.12
  -3   2  12   44.05   31.24
  -3   2  12   81.71   41.18
  -3  -2  12   98.72   42.80
  -8   3  -1    3.37   12.29
  -8   3  -1   -0.86   10.92
  -8   3  -1    5.38   11.28
  -8   3  -1    7.21   13.05
  -8  -3  -1    4.79   11.87
  -8   3  -1    6.80   17.63
  -9   0  -5  490.22  219.99
  -9   0  -5  486.31   95.81
  -9   0  -5  533.87   97.36
  -7   2  10   57.44   30.64
  -7  -2  10   59.28   38.03
  -7  -2  10   57.36   34.57
  -7   2  10   59.70   30.14
  -7   2  10   61.68   38.69
  -7  -2  10   49.14   34.73
  -5  -2  -9  421.37   92.34
  -5   2  -9  324.51   74.25
  -5  -2  -9  108.28   39.09
  -5  -2  -9  448.02   83.94
  -3   1  13  372.20   87.75
  -3  -1  13  333.32   80.52
  -3   1  13  353.61   81.36
   3  -1 -13  379.87   74.35
  -3   1  13  317.88  215.45
  -3  -1  13  363.64   89.41
  -3   1  13  415.46  232.55
  -3  -1  13  349.57   79.72
  -3  -1  13  296.81   73.97
  -5  -4   5  728.82  120.53
  -5   4   5  784.97  119.69
  -5   4   5  822.39  124.29
  -5   4   5  733.28  118.63
  -8   3   5    3.96   16.14
  -8  -3   5    6.96   15.13
  -8   3   5   20.93   21.96
  -8   3   5   25.82   13.08
  -8   3   5   11.08   14.49
  -1   1  13   90.68   42.34
   1  -1 -13   94.43   42.02
  -1  -1  13   71.07   31.73
  -1   1  13  102.83   65.22
  -4  -3  -8   23.19   22.90
  -4  -3  -8  241.98   64.10
  -4   3  -8  303.89   74.46
  -4   3  -8  204.42   53.10
  -4   3  -8  258.14   63.09
  -6  -1  12  126.30   54.17
  -6   1  12  142.54   57.66
  -6   1  12  147.74   54.25
  -6   1  12  122.50   63.89
  -6  -1  12  137.18   54.20
  -5   3  -7  104.25   38.86
  -5   3  -7  144.39   53.21
  -5  -3  -7    9.46   17.26
  -5  -3  -7  139.83   48.07
  -5   3  -7  127.37   45.84
  -7   3  -4  145.05   83.17
  -7  -3  -4  133.80  107.18
  -7   3  -4  173.58   57.60
  -7   3  -4  126.91   45.74
  -7  -3  -4  131.64   43.02
  -7   3  -4  159.10   55.64
  -7   3  -4  158.83   51.22
  -6   2  -8   80.91   41.33
  -6   2  -8   84.32   41.49
  -6  -2  -8  103.45   37.77
  -6  -2  -8   77.95   41.48
  -6   2  -8  107.39   45.51
  -4   3  10  133.56   45.45
  -4   3  10  155.16   54.44
  -4   3  10  111.98   41.30
  -4   3  10  163.14   55.05
  -4  -3  10  119.66   47.42
  -4   3  10  118.84   44.04
  -8   2  -5   44.54   31.41
  -8  -2  -5   39.28   30.04
  -8  -2  -5   38.80   47.24
  -8   2  -5   16.24   21.62
  -3  -4   7  196.08   58.01
  -3   4   7  226.73   66.99
  -3   4   7  199.28   59.23
  -9   2   7  367.35   73.95
  -9   2   7  375.62   71.10
  -9   2   7  313.18  109.98
  -9  -2   7  463.20   83.45
  -9  -2   7  385.93   78.27
  -9  -1   9    0.37    3.51
  -9   1   9    4.07   50.33
  -9   1   9    2.67   10.34
  -9  -1   9    4.16   10.77
  -9  -1   9    0.99    7.53
  -6  -4   1   36.77   23.94
  -6   4   1   13.23   19.02
  -6   4   1   39.57   29.33
  -6   4   1   41.28   30.03
  -6   4   1   38.07   32.70
  -6   4   2   71.60   42.60
  -6   4   2   60.40   36.47
  -6   4   2   61.88   39.37
  -6   4   2   65.46   38.32
  -7   1  -8  109.12   37.49
  -7  -1  -8  142.84   52.93
  -7  -1  -8  119.92   39.98
  -7  -1  -8  159.14   47.24
  -7   1  -8  154.25   55.51
  -7   1  -8  129.59   50.96
  -7   1  -8  139.32   48.47
   1   3  10   82.70   38.04
  -1  -3 -10   -0.52    6.14
  -1   3 -10   50.13   26.67
   0   2  12  132.74   72.16
   0   2  12  128.05   47.88
  -4  -2 -10  118.28   44.89
  -4   2 -10   75.46   38.93
  -4  -2 -10  119.13   53.44
  -4  -2 -10    0.73    5.23
  -4   2 -10  103.35   45.31
   1   4   7   45.85   27.46
  -1   4  -7   37.78   25.27
  -1  -4  -7    3.03   13.71
  -6  -2  11   42.51   31.34
  -6   2  11   41.47   27.63
  -6   2  11   40.34   28.52
  -6  -2  11   41.20   33.65
  -6  -2  11   33.03   31.60
  -6   2  11   28.52   24.39
  -8   2   9   82.66   38.72
  -8   2   9   72.01   35.72
  -8  -2   9   73.57   49.89
  -4  -1 -11   47.32   29.41
  -4  -1 -11   53.32   34.05
  -4  -1 -11   58.66   38.78
  -4   1 -11   52.76   31.86
  -8   0  -7  268.02   65.18
  -8   0  -7  244.03   64.38
  -8   0  -7  249.59   59.08
  -8   0  -7  187.12   55.28
 -10  -1  -2  420.53  103.37
 -10  -1  -2  347.65   80.33
 -10   1  -2  376.03   83.59
 -10   1  -2  335.28   81.72
 -10   1  -2  317.07   76.89
  -5  -4  -3  114.40   47.52
  -5   4  -3  147.44   54.68
  -5   4  -3  141.32   46.28
  -5   4  -3  111.68   47.77
  -5  -4  -3   79.75   80.82
  -4   2  12   65.01   40.23
  -4   2  12   49.38   31.46
  -4   2  12   54.49   32.97
  -4  -2  12   48.47   35.44
  -4   2  12   46.03   29.26
  -3   0 -12    3.41   13.56
  -3   0 -12    4.37   10.49
  -3   0 -12    1.89   11.33
  -6   4   0  192.02  108.08
  -6   4   0  212.44   95.06
  -6   4   0  212.88   65.98
  -6   4   0  233.43   65.05
  -6  -4   0  177.92   54.00
  -6  -4   0  174.61   54.15
  -3   3  -9   35.93   28.72
  -3   3  -9   21.10   20.06
  -3  -3  -9    3.02    9.86
  -3  -3  -9   39.88   30.74
  -6   4   3 1047.13  142.52
  -6   4   3 1058.76  147.77
  -6   4   3 1139.34  143.96
  -6   4   3 1193.14  146.57
  -5   0  13  373.42   80.75
  -5   0  13  348.45  186.49
  -5   0  13  489.39  360.79
  -4   1  13  128.18   54.00
  -4  -1  13   93.42   44.76
  -4  -1  13  103.80   46.79
  -4  -1  13  113.58   47.71
  -4   1  13  132.57   88.08
  -4   1  13  115.74   59.48
 -10   1   7   59.33   60.45
  -6   3  -6   11.86   14.74
  -6  -3  -6   15.25   20.06
  -6  -3  -6   59.54   37.71
  -6  -3  -6   41.10   26.80
  -6   3  -6   42.25   27.99
   0  -1 -13  217.24   60.38
   0   1  13  233.00   64.34
   0   1 -13  183.49   50.04
   0   1  13  212.30  131.49
  -8   0  11  152.19   58.26
  -8   0  11  148.10   52.33
  -8   0  11  141.21   78.32
  -9   2  -3  152.21   57.31
  -9   2  -3  161.62   74.45
  -9   2  -3  153.82   50.26
  -9   2  -3  108.97   40.18
  -9  -2  -3  124.48   45.19
  -1   0 -13    6.29   10.12
   1   0  13   86.84   41.05
  -1   0 -13   97.36   38.50
 -10   0  -3   30.82   23.86
 -10   0  -3   25.92   26.46
 -10   0  -3   27.26   29.48
  -6  -3   9   35.72   31.85
  -6   3   9   39.23   31.42
  -6   3   9   35.51   27.73
  -6   3   9   53.56   30.64
  -6   3   9   32.11   25.98
  -8  -3  -2  110.15   75.36
  -8   3  -2  114.38   47.37
  -8   3  -2  125.09   48.58
  -8   3  -2  132.24   43.59
  -8   3  -2   89.65   39.14
  -8   3  -2  134.56   48.92
 -10   2   2    6.40   13.62
 -10   2   2   29.48   29.50
 -10  -2   2   12.94   18.81
 -10   2   3   74.22   38.77
 -10  -2   3   76.60   58.76
 -10   2   3   68.86   61.52
  -7   2  -7    7.22   15.01
  -7  -2  -7    2.69   14.33
  -7   2  -7    2.88   12.95
  -7   0  12   43.25   19.76
  -7   0  12   66.16   40.80
  -7   0  12   44.30   33.46
  -8  -3   6   35.63   31.50
  -8   3   6   21.81   25.82
  -8   3   6    7.73   22.60
  -8   3   6   28.40   24.17
 -10   0   8    9.47   24.20
 -10   0   8    1.18    8.60
 -10   0   8    9.21   34.86
  -3   4  -6    7.70   16.49
  -3   4  -6    9.21   15.09
  -3   4  -6    3.47   10.81
  -9   1  -5  374.72   85.56
  -9  -1  -5  382.87   83.56
  -9   1  -5  314.53   66.45
  -9   1  -5  463.99   80.88
  -9   1  -5  395.27  193.05
 -11   0   3   30.26   26.23
 -11   0   3   31.40   19.76
 -11   0   2  229.77   60.12
 -11   0   2  218.11  133.79
  -6  -4  -1    1.66   10.32
  -6  -4  -1   20.30   21.03
  -6   4  -1    6.11   12.67
  -6   4  -1   21.82   26.75
  -6   4  -1   25.18   25.11
  -4  -4  -5   11.91   19.07
  -4   4  -5  104.33   42.01
  -4   4  -5  111.61   47.53
  -7   3   8  433.10   85.45
  -7  -3   8  456.04   93.95
  -7   3   8  425.93   74.66
  -7   3   8  439.52   86.67
 -10  -2   1    1.33    9.16
 -10   2   1    3.42   13.74
 -10   2   1    6.23   15.37
 -10   2   1    0.11   12.83
 -10  -2   1    0.73    6.51
  -6   4   4  674.62  111.53
  -6   4   4  668.92  110.88
  -6   4   4  756.23  107.66
  -6   4   4  659.96  102.86
  -5   4   6   19.79   15.12
  -5  -4   6   13.95   23.39
  -5   4   6   22.45   26.75
  -5   4   6   22.84   26.45
  -4   4   7    4.02   16.83
  -4   4   7   -1.27   11.81
  -4   4   7    4.70    7.30
  -4  -4   7    8.08   17.23
 -10   2   4  131.06   74.39
 -10  -2   4  117.43   85.88
 -10   2   4  103.52   44.76
 -11   0   4   10.18   16.59
 -11   0   4    5.29   19.03
  -9   0  10    1.92   10.39
  -9   0  10    1.64   11.09
  -9   0  10    2.68    6.52
   3   2  11    5.47   12.04
  -3  -2 -11   66.60   34.76
  -3   2 -11   96.05   42.38
  -3   2 -11   59.43   33.71
  -1   2 -12  229.92   55.23
   1   2  12  225.35  140.58
  -1   2 -12  180.08   53.50
   1   2  12  274.11   66.47
 -11   0   1  100.25   44.70
 -11   0   1   94.29   41.02
  -5   3  10   33.79   27.50
  -5   3  10   36.96   25.78
  -5  -3  10   46.11   34.12
  -5   3  10   46.21   29.75
  -1   4   8   64.68   36.64
  -1   4   8   50.40   29.15
   1   4  -8   52.80   27.13
  -1   4   8   61.46   32.31
  -8   1  -7   41.57   31.31
  -8   1  -7   46.37   32.59
  -8   1  -7   42.59   25.45
  -8   1  -7   59.37   31.88
  -2  -4  -7    3.52   14.18
  -2   4  -7   45.62   29.27
  -2   4  -7   40.49   24.33
  -2   4   8  128.43   46.32
  -2  -4   8  150.40   48.01
  -2   4   8  150.60   52.00
  -2   4   8  131.25   44.38
  -3  -1 -12    9.69   15.99
  -3  -1 -12   16.23   18.85
  -3   1 -12   17.39   19.61
  -5  -2  12  251.78   69.42
  -5   2  12  255.34   64.68
  -5   2  12  202.33   56.97
  -5   2  12  223.48   60.13
  -5   2  12  267.15   67.13
  -5  -1  13  202.53   65.51
  -5   1  13  234.28  151.08
  -5   1  13  242.14  124.28
  -5  -1  13  191.95   56.61
  -5  -1  13  200.20   63.27
  -5   1  13  204.34   63.41
  -5   1  13  192.18   59.76
  -5  -1  13  220.00   65.77
  -2   3 -10  153.61   47.00
  -2  -3 -10  160.81   54.91
  -2  -3 -10    4.81   11.36
   2   3  10  126.06   38.99
  -2   3 -10  121.96   39.41
  -9  -2   8  158.31   49.77
  -9   2   8  171.13   47.02
  -9   2   8  159.61   48.84
  -9   2   8  134.70   53.63
 -10   2   0   23.45   26.31
 -10  -2   0   29.42   38.22
 -10   2   0   22.01   23.32
 -10   2   0   11.10   18.16
 -10  -2   0   28.00   20.71
  -8   1  11  112.94   45.95
  -8  -1  11  121.98   51.12
  -8   1  11  110.74   42.60
  -8  -1  11  104.45   68.43
  -8  -1  11  121.24   46.86
  -8   1  11  107.38   45.87
  -2   3  11    3.98    9.44
  -2   3  11    8.65   18.71
   2  -3 -11    0.88    6.09
 -11   0   5   57.42   35.26
 -11   0   5   51.89   30.21
   0   4   8   47.05   28.74
   0   4  -8   41.08   25.70
   0  -4  -8   -2.04   11.21
  -5   4  -4   81.68   41.68
  -5   4  -4   52.77   32.11
  -5   4  -4   66.97   30.34
  -5  -4  -4   80.16   44.38
  -5  -4  -4   45.76   47.10
 -10   2   5   13.71   23.42
 -10   2   5    0.77   46.36
 -10  -2   5    7.31    9.77
   1   1  13  158.70   54.99
  -1   1 -13  130.85   40.82
  -1  -1 -13  114.65   41.69
  -1  -1 -13  146.49   49.54
   1   1  13  153.61   49.85
  -1   1 -13  129.11   50.44
  -6   0 -10   13.11   18.90
  -6   0 -10   22.19   24.28
  -6   0 -10    8.53   15.37
 -10   1  -3   87.65   42.91
 -10   1  -3   89.40   45.61
 -10  -1  -3   46.19   59.76
 -10   1  -3   65.62   34.73
 -10  -1  -3   58.27   35.45
   1  -3 -11    1.04    5.95
  -1   3  11   51.57   34.87
  -7   3  -5   15.19   22.41
  -7   3  -5    8.84   16.20
  -7   3  -5    8.67   13.07
  -7   3  -5   24.69   23.74
  -7  -3  -5   12.09   15.96
  -7  -3  -5   11.54   19.51
  -6   4  -2   94.84   46.83
  -6   4  -2   84.04   34.78
  -6   4  -2   91.72   45.04
  -6  -4  -2   78.82   68.11
  -6  -4  -2   76.82   41.34
 -11   0   0   48.91   29.96
 -11   0   0   56.75   36.06
  -6   4   5  549.68   89.97
  -6   4   5  575.86   95.58
  -7  -1  12  783.74  119.54
  -7   1  12  761.88  114.25
  -7  -1  12  746.94  120.14
  -7   1  12  689.67  108.52
  -7   1  12  642.15  307.84
  -7   1  12  771.43  110.20
  -7  -1  12  738.86  115.92
  -5   0 -11   15.24   23.38
  -5   0 -11   10.57   16.49
  -5   0 -11    6.51   12.52
 -10   1   8  109.04   90.55
 -10  -1   8  127.13   41.13
 -11  -1   3    4.55   15.96
 -11  -1   3   -2.17    8.03
 -11   1   3    0.04   12.92
  -3   4   8  168.58   56.77
  -3   4   8  145.78   48.68
  -3  -4   8  142.74   48.77
  -6   0  13  175.96   57.52
  -6   0  13  186.62   52.82
  -3  -3  11   73.53   37.25
  -3   3  11  115.10   49.77
  -3   3  11   62.06   29.56
  -8   3  -3   10.35   14.68
  -8  -3  -3   27.44   22.61
  -8   3  -3   20.14   23.98
  -8   3  -3   29.77   24.65
  -8   3  -3   42.85   29.19
  -8   3  -3   18.84   22.39
  -9   0  -6 1040.82  125.55
  -9   0  -6  865.29  114.88
  -9   0  -6 1028.81  246.80
 -11   1   2   78.33   52.78
 -11  -1   2   96.44   39.82
 -11   1   2  105.47   44.73
 -11  -1   2  110.73   46.93
  -7   0  -9   22.57   21.53
  -7   0  -9   34.54   27.47
  -7   0  -9   37.30   27.38
  -9   3   2  384.25   72.07
  -9   3   2  242.97   64.79
  -9  -3   2  446.61  325.11
  -9   3   2  337.94   71.47
  -9   3   2  414.22   74.30
  -8  -2  -6   21.31   42.82
  -8   2  -6    8.26   15.17
  -8  -2  -6    2.01   11.59
  -8   2  -6    2.10   13.49
  -8   3   7   32.12   25.21
  -8  -3   7   30.23   28.12
  -8   3   7   23.34   24.22
  -2   0 -13    5.11    9.19
  -2   0 -13   21.17   21.92
   2   0  13   14.54   16.63
  -2   0 -13   14.77   18.29
   0   5   0    6.32   16.58
   0   5   0    2.90   11.07
  -9   3   3  368.47   69.39
  -9   3   3  341.62   71.01
  -9   3   3  249.42   69.40
  -9   3   3  363.08   69.36
  -9  -3   3  457.47   87.62
  -9   2  -4  248.65  106.41
  -9  -2  -4  201.31   55.58
  -9  -2  -4   86.80   44.72
  -9   2  -4  245.83   61.05
  -9   2  -4  168.99   45.20
  -9   2  -4  222.63   66.78
 -11  -1   4   56.84   47.39
 -11   1   4   86.68   42.42
  -9  -1  10    4.13   11.63
  -9  -1  10    5.81   13.97
  -9  -1  10    1.18    4.77
  -9   1  10    1.82    9.77
  -9   1  10    0.51   12.34
  -2   0  14  801.50  111.06
  -2   0  14  739.99  110.47
   0   3  11   61.28   34.14
   0  -3 -11   -0.76    4.63
  -9   3   1  154.56   48.56
  -9   3   1  102.96   41.66
  -9   3   1  154.72   50.08
  -9   3   1  164.40   48.71
  -9  -3   1  211.59  151.57
   0   5  -1  100.25   43.22
   0   5   1   97.40   45.70
   0  -5  -1   -1.05    6.85
  -7   2  11   39.37   26.11
  -7   2  11   50.96   31.57
  -7   2  11   51.32   29.25
  -7   2  11   41.70   30.74
 -11  -1   1  174.05   62.21
 -11  -1   1  131.29   45.36
 -11   1   1  158.50   54.58
 -11   1   1  136.51   68.78
 -10   0  -4  235.45   65.73
 -10   0  -4  257.62   63.99
 -10   0  -4  288.86   61.29
  -1   5   0  181.72   58.19
  -1   5   0  167.62   57.25
  -1   5   0  137.55   43.57
  -3   0  14  443.96   90.14
  -3   0  14  511.54  102.02
  -3   0  14  468.71   93.13
  -3   0  14  496.24   89.45
  -5   3  -8  174.53   48.17
  -5   3  -8  241.67   59.49
  -5  -3  -8   43.66   28.67
  -5  -3  -8  312.39   62.15
  -5  -3  -8  229.44   58.81
  -5   3  -8  281.79   68.98
  -8   2  10   10.69   18.73
  -8  -2  10   11.70   17.67
 -10  -2  -1  151.66   55.60
 -10   2  -1   83.71   59.53
 -10   2  -1  143.91   53.01
 -10  -2  -1  113.58   39.71
 -10   2  -1  134.08   52.03
  -1  -4  -8    0.29   10.43
  -1  -4  -8    1.77    7.28
  -1   4  -8    1.15    8.07
   1   4   8    9.53   13.91
 -11   0   6   -4.15   37.30
   1   5  -1   75.83   34.64
  -1   5   1   62.97   29.85
  -1   5   1   72.37   37.64
  -1   5   1   79.52   42.70
 -10  -2   6   55.34   29.12
 -10   2   6    7.66   55.78
 -10  -2   6   27.72   17.77
  -9   3   4   75.67   36.56
  -9   3   4   77.75   32.34
  -9   3   4   23.17   34.14
  -9  -3   4   98.36   42.54
  -9   3   4   57.16   41.03
  -5  -4   7   39.33   30.00
  -5   4   7   51.90   31.42
  -5   4   7   46.14   50.07
  -4  -3  -9   28.08   23.24
  -4   3  -9   29.84   21.70
  -4  -3  -9    2.85    9.28
  -4  -3  -9   51.42   30.43
  -4   3  -9   45.05   32.79
  -4   3  -9   33.47   26.27
  -1   0  14    3.91   14.51
   1   0 -14    1.69    8.59
  -1   0  14   -2.16    7.63
  -1   5  -1  109.40   39.06
  -1  -5  -1    1.85    8.04
  -1   5  -1  103.78   39.65
   1   5   1  115.77   44.94
  -1   5  -1  133.60   50.89
 -10   0   9   40.91   27.31
 -10   0   9   44.96   52.66
 -11  -1   5  297.43   73.52
 -11   1   5  253.69   87.82
 -11   1   5  310.97   77.87
 -11  -1   5  281.88   61.98
  -4   3  11    0.65   10.19
  -4  -3  11    1.08    9.65
  -4   3  11   -0.07   11.41
  -4   3  11   -0.96    7.87
   0   5   2  221.19   60.49
   0   5  -2  242.95   63.16
   0  -5  -2   -0.99    7.94
   2   2  12    7.06   13.29
   2   2  12   44.70   30.42
  -2   2 -12   46.92   29.49
  -2   2 -12   51.91   27.34
  -2  -2 -12   58.07   32.29
  -4   0 -12    5.14   10.69
  -4   0 -12   26.40   27.29
  -6  -1 -10  114.16   45.21
  -6   1 -10  150.29   50.64
  -6  -1 -10  119.51   39.00
  -6  -1 -10  162.82   50.37
  -6   1 -10  113.46   46.03
  -9   3   0  169.52   49.88
  -9   3   0  128.29   44.79
  -9   3   0  154.64   53.19
  -9   3   0  117.62   70.30
 -11   0  -1   98.91   39.88
 -11   0  -1  110.93   47.90
  -6   3  -7  105.09   38.74
  -6  -3  -7  104.81   39.48
  -6  -3  -7   20.91   24.33
  -6   3  -7  114.82   42.30
  -6  -3  -7  154.53   54.75
  -1   5   2  308.97   74.81
  -1   5   2  107.05   98.23
   1   5  -2  245.99   57.79
  -4   4  -6   67.90   34.05
  -2   2  13  139.25   46.19
  -2   2  13  181.59   86.13
  -2   2  13  138.06   49.69
  -2  -2  13  110.04   36.51
  -6   2  -9  160.44   52.07
  -6   2  -9  167.08   52.96
  -6  -2  -9  202.61   50.53
  -6  -2  -9  172.38   55.97
  -7   4   2  406.06   79.20
  -7   4   2  351.64   75.52
  -7   4   2  386.98   83.73
  -7   4   2  382.71   72.56
  -7  -4   2  429.49   86.73
  -5   2 -10   61.96   36.31
  -5  -2 -10   80.24   35.74
  -5   2 -10   72.38   36.69
  -5  -2 -10   66.93   39.43
  -7   4   1   26.07   21.94
  -7   4   1   22.66   20.28
  -7   4   1   16.53   20.27
  -7  -4   1   31.90   27.73
  -7   4   1   34.21   30.93
  -4   4   8   26.75   25.81
  -4  -4   8    7.50   13.77
  -4   4   8   21.53   24.70
  -4   4   8   17.00   18.67
  -3   4  -7   42.89   26.66
  -3   4  -7   46.28   30.84
  -3  -4  -7   11.25   20.88
  -3   4  -7   51.51   33.83
  -6   4  -3    9.20   15.53
  -6  -4  -3    8.84   15.74
  -6   4  -3   21.77   26.55
  -6  -4  -3    6.77   18.08
  -7   3   9  440.96   86.62
  -7   3   9  426.47   83.20
  -7   3   9  422.93   73.67
  -4   0  14  604.82  106.10
  -4   0  14  587.91   98.01
  -4   0  14  561.76   96.67
  -4   0  14  763.32  128.85
 -11  -1   0  190.50   55.63
 -11  -1   0  257.20   80.76
 -11   1   0  194.31   59.52
 -11   1   0  225.94   59.43
 -11   1   0  190.38  125.67
  -8   0  -8    0.98    9.43
  -8   0  -8    0.22    9.86
  -8   0  -8    2.87    8.95
  -8   0  -8    4.08   10.10
  -5  -1 -11  601.42   86.64
  -5   1 -11  557.27   94.66
  -5  -1 -11  690.04  101.26
  -5  -1 -11  601.45   98.99
  -6   3  10  363.11   72.36
  -6  -3  10  460.50   91.96
  -6   3  10  468.38   79.24
  -6   3  10  429.19   77.99
  -6  -1  13  199.20   61.40
  -6   1  13  194.75   80.25
  -6   1  13  180.47   57.63
  -6   1  13  227.93   62.78
  -6  -1  13  238.36   68.77
  -6   1  13  218.00  131.76
  -3  -2  13    8.96   13.10
  -3   2  13   14.37   17.98
  -2   5   0  206.61   59.53
   2   5   0  207.66   55.70
  -2   5   0  210.95   62.51
  -2   5   0  169.79   49.87
  -2   5   1  814.02  117.55
  -2   5   1  700.01   97.90
  -6   4   6   13.84   22.66
  -6  -4   6    3.56   14.57
  -6   4   6   14.33   16.43
  -9   1  -6   50.24   27.55
  -9   1  -6   45.64   27.37
  -9   1  -6   55.72   34.58
  -9   1  -6   41.87   28.48
  -1   2  13  172.65   96.33
  -1   2  13  132.82   44.42
  -7   4   3  106.90   38.40
  -7   4   3  126.85   46.80
  -7   4   3  118.43   41.40
  -7   4   3  119.73   47.10
  -7   4   3  106.62   45.00
   1   5   2  108.13   42.43
  -1   5  -2  103.04   44.69
  -1   5  -2   95.76   36.52
  -1   5  -2   99.42   37.97
  -1  -5  -2    0.51    8.31
  -6  -2  12    5.66   16.05
  -6   2  12    5.88   12.49
  -6   2  12    4.14   13.30
  -6   2  12    6.15   12.50
  -6   2  12    5.33   13.53
  -7   1  -9   20.03   15.73
  -7  -1  -9   28.69   23.16
  -7   1  -9    4.72   14.95
  -7   1  -9   29.04   26.14
  -7   1  -9   17.21   18.71
  -7  -1  -9   32.83   23.05
  -9   3   5   22.18   20.28
  -9   3   5    6.87    9.37
  -9  -3   5   11.17   16.48
  -9   3   5    2.24   34.97
  -9  -3   5    8.59   13.90
  -2  -1 -13  387.11   71.92
  -2   1 -13  369.67   64.87
  -2  -1 -13  438.48   78.81
   2   1  13  412.71   75.34
  -2  -1 -13  398.00   74.01
  -7   4   0   89.20   45.11
  -7   4   0   86.51   38.65
  -7   4   0   73.98   41.37
  -7  -4   0   88.95   38.49
   1   3  11   18.75   18.71
  -1  -3 -11    1.14    5.36
  -1  -3 -11   14.47   18.64
  -8   0  12   35.27   20.90
  -8   0  12   44.51   30.06
  -8   0  12   36.98   28.22
  -5   4  -5   87.05   38.65
  -5   4  -5  104.37   44.93
  -5  -4  -5   12.28   18.09
   2   5   1  158.66   47.62
  -2   5  -1  145.77   49.56
  -2   5  -1  174.24   57.24
  -2   5  -1  166.74   55.64
  -2   5  -1  145.94   47.07
  -2  -5  -1    0.41    6.33
   0   0  14  222.39   64.49
   0   0 -14  242.01   56.07
  -3   3 -10   64.17   31.67
  -3  -3 -10   99.97   44.98
  -3   3 -10   51.85   25.93
  -3  -3 -10    4.19    8.70
  -3  -3 -10   79.92   34.43
  -3   3 -10   87.78   38.86
  -2   5   2  304.54   72.55
  -2   5   2  244.84   58.63
  -2   5   2  301.83   72.34
   2  -1 -14  136.48   42.89
  -2   1  14  142.45   89.45
  -2   1  14   87.50   38.04
  -2  -1  14  122.35   40.34
  -2   1  14  142.46   49.92
  -2   1  14  116.77   39.91
  -9  -2   9  125.02   44.51
  -9   2   9  113.31   41.48
  -7   2  -8  100.15   42.88
  -7  -2  -8  112.71   44.66
  -7   2  -8  110.36   41.54
 -10   1  -4   18.01   20.06
 -10   1  -4   33.93   29.30
 -10  -1  -4   24.20   25.92
 -10   1  -4   24.03   27.29
   0   5  -3  158.95   49.98
   0   5   3  142.89   48.42
   0  -5  -3   -0.03    9.17
  -1   5   3  412.01   81.72
   1   5  -3  341.90   64.35
  -3  -1  14   77.55   35.54
  -3   1  14   83.17   38.63
  -3   1  14   77.46   37.39
  -3  -1  14   73.14   38.70
   3  -1 -14   85.81   33.18
  -3   1  14   97.84   47.52
  -3   1  14   59.37   33.32
  -4  -2 -11   42.60   26.33
  -4   2 -11   49.48   30.86
  -4   2 -11   48.74   28.40
 -11   1   6   50.24   56.96
 -11  -1   6   23.80   26.40
  -9   0  11  138.37   91.17
  -9   0  11  112.44   43.95
  -9   0  11  118.55   42.68
 -10  -2  -2   33.12   43.87
 -10   2  -2   42.65   32.21
 -10   2  -2   49.51   35.66
 -10  -2  -2   46.35   27.90
 -10   2  -2   18.86   16.41
  -9   3  -1  106.47   43.04
  -9   3  -1  102.86   50.91
  -9   3  -1  105.04   40.22
  -9   3  -1  129.18   43.95
 -11   0   7   64.76   42.34
 -11   0   7   52.93   62.17
  -8   3  -4   -2.15    8.74
  -8  -3  -4    1.69    6.52
  -8  -3  -4   10.08   18.78
  -8   3  -4    2.96   12.72
  -8   3  -4   -0.13    9.60
  -8   3  -4    0.07    5.84
  -8   3  -4    0.64    8.47
  -7   4   4 2072.87  181.73
  -7   4   4 2169.14  227.08
  -7   4   4 2139.84  229.37
  -7   4   4 1970.23  152.61
  -2   4  -8    8.56   11.65
  -2  -4  -8    7.21   17.89
  -2   4  -8    8.93   15.33
  -1   1  14    5.34   14.92
  -1   1  14    2.01   10.75
   1  -1 -14   15.08   16.95
  -4   2  13    7.49   14.32
  -4   2  13   17.62   20.06
  -4  -2  13    9.35   16.45
  -4   2  13    5.59    6.72
  -4   2  13    9.55   17.87
   1  -4  -9   -0.80    8.75
  -1   4   9   69.36   35.21
  -1   4   9   54.38   28.70
 -10   1   9   34.98   59.31
 -10   1   9   61.01   34.26
 -10  -1   9   24.46   23.68
 -10   1   9   39.82   24.70
  -2   4   9   26.95   22.60
  -2   4   9   32.70   27.68
 -10   2   7   34.38   62.50
 -10  -2   7   48.18   26.12
  -8  -3   8  163.70   53.51
  -8   3   8  158.93   49.80
  -8   3   8  172.80   53.56
   0   2  13   80.14   49.21
   0  -2 -13   73.52   37.42
   0   2  13   83.69   37.47
   0   2 -13   46.73   25.97
  -7  -3  -6   56.20   46.43
  -7   3  -6   63.59   34.05
  -7   3  -6   58.55   32.89
  -7   3  -6   59.17   30.40
  -7   3  -6   16.86   12.42
  -7  -3  -6   40.01   23.93
  -7  -3  -6   48.98   30.55
  -4  -1 -12    4.11   12.56
  -4  -1 -12   10.11   19.40
  -4  -1 -12    4.30    9.39
  -4   1 -12    2.19   10.67
 -11  -1  -1  103.18   42.58
 -11   1  -1  128.51   46.77
 -11   1  -1   97.21   44.37
 -11  -1  -1  108.26   62.22
 -11   1  -1   99.44   43.68
   1   5   3  146.30   45.85
  -1  -5  -3   -0.27    8.58
  -1   5  -3  146.88   44.00
  -1   5  -3  150.96   52.47
   1   5   3  137.33   43.69
  -7  -4  -1   44.05   28.48
  -7   4  -1   28.27   25.63
  -7   4  -1   31.65   21.62
  -7   4  -1   47.51   30.01
  -7  -4  -1   41.16   30.04
   2   5   2  238.45   56.24
  -2   5  -2  180.02   52.11
  -2   5  -2  191.56   53.43
  -2   5  -2  228.25   64.61
  -2  -5  -2    0.86    8.03
  -7   0  13   30.27   27.55
  -7   0  13   34.49   29.55
  -7   0  13   14.08   17.25
  -2   5   3  352.73   79.86
  -2   5   3   71.04   90.35
  -5  -3  11    9.07   15.37
  -5   3  11   11.34   15.40
  -5   3  11    9.79   18.05
  -5   3  11   11.74   15.03
  -5   3  11    8.07   13.46
  -5   0  14  734.00  118.04
  -5   0  14  840.73  142.69
  -5   0  14  618.74  104.82
  -5   0  14  701.26  121.29
 -11   0  -2    5.42   12.15
  -4  -1  14   63.21   37.37
  -4   1  14   48.68   29.26
  -4   1  14   83.38   42.57
  -4   1  14   69.64   37.23
  -4  -1  14   74.24   36.80
  -4   1  14   77.09   39.61
  -8   1  -8  165.60   52.97
  -8   1  -8  139.01   50.39
  -8   1  -8  126.53   38.62
  -8  -1  -8  134.43   46.87
  -8   1  -8  167.89   49.32
  -3   5   1  640.23  110.40
  -3   5   1  673.42  107.16
  -3   5   1  750.67  120.53
   0   4  -9   41.01   24.38
   0   4   9   43.88   27.98
   0  -4  -9   -2.24    8.67
   0  -4  -9    2.63    8.35
  -9   2  -5   18.35   21.20
  -9   2  -5   10.73   11.21
  -9   2  -5   14.09   19.80
  -9  -2  -5   -0.42   38.15
  -9  -2  -5    2.64   11.12
  -3   5   0  766.28  116.21
  -3   5   0  872.02  116.83
   3   5   0  855.53   99.51
  -3   5   0  740.18  117.94
  -3   5   0  836.66  128.59
  -3   0 -13   34.75   24.46
  -3   0 -13    3.47    7.78
  -3   0 -13   24.35   22.43
  -9  -3   6   30.09   26.72
  -9  -3   6   23.25   20.25
  -9   3   6   21.18   18.87
  -9   3   6    4.57   39.14
  -9   3   6    8.73    9.50
  -3   4   9   11.05   16.30
  -3   4   9   27.45   24.78
  -3  -4   9   33.55   25.08
  -3   4   9   31.36   24.97
  -3   5   2   38.72   29.24
 -10   0  -5  109.55   37.74
 -10   0  -5   87.02   38.17
 -10   0  -5   71.43   36.27
  -8  -1  12  149.23   54.09
  -8   1  12  163.90   50.82
  -8   1  12  161.35   53.55
  -8  -1  12  152.16   50.66
  -8  -1  12  164.35   55.19
  -6  -4  -4   70.03   38.53
  -6   4  -4   46.88   30.68
  -6   4  -4   70.10   37.70
  -6  -4  -4   39.88   33.51
  -6   4  -4   71.01   36.78
  -5   4   8   23.84   24.02
  -5  -4   8   11.36   15.90
  -5   4   8   15.31   19.97
   1   5  -4   46.26   24.31
   1  -5  -4    2.51   11.97
  -1   5   4   48.82   30.45
  -1   5   4   50.45   32.90
  -7   4   5   40.18   29.68
  -7   4   5   26.51   30.16
  -7   4   5   33.34   22.78
   0  -1 -14   93.32   36.92
   0   1  14  128.53   53.54
   0   1  14  132.98   46.60
   0   1 -14   98.61   34.85
   0  -1 -14  118.37   45.04
   0  -5  -4    2.11   11.15
   0   5   4  226.28   57.82
   0   5   4  254.00   62.18
   0   5  -4  237.90   58.59
  -9   0  -7  242.51  125.31
  -9   0  -7  367.50   73.89
  -9   0  -7  431.25   82.08
  -6  -4   7  116.20   47.38
  -6   4   7  100.59   39.64
  -6   4   7  104.86   44.95
  -3  -5  -1    0.12    5.83
  -3   5  -1  110.69   43.48
  -3   5  -1  116.95   44.80
  -3   5  -1  128.25   48.44
  -3   5  -1  103.57   44.72
   1   0  14    1.62    9.70
  -1   0 -14    0.27    8.62
  -1   0 -14   -2.13    9.13
  -8   2  -7    3.46   13.47
  -8  -2  -7    7.01   14.15
  -8   2  -7    6.12   13.15
  -9   3  -2    4.35   10.74
  -9   3  -2   10.62   15.62
  -9   3  -2    6.26   11.14
  -9   3  -2   11.68   14.53
  -9  -3  -2   12.38   14.45
  -9  -1  11   21.26   21.81
  -9   1  11   27.42   28.42
  -9  -1  11   20.34   20.35
  -9  -1  11   25.20   22.70
  -9   1  11   20.92   19.49
  -9   1  11   21.56   21.17
 -11   1   7   35.81   76.15
 -10   0  10   16.01   14.53
 -10   0  10   17.81   17.56
  -3   2 -12   36.58   25.14
  -3  -2 -12   28.25   22.01
  -3   2 -12   37.95   29.23
  -2  -3 -11    2.01    5.78
  -2   3 -11   93.74   32.99
  -2   3 -11  125.33   39.66
  -2  -3 -11  126.22   48.46
  -5   2  13  156.30  112.30
  -5   2  13  173.09   54.26
  -5   2  13  194.55   91.17
  -5   2  13  150.90   47.29
  -5  -2  13  210.54   60.76
  -2   5  -3   62.32   34.06
  -2   5  -3   60.04   28.92
  -2   5  -3   59.12   30.51
  -2  -5  -3    2.61    9.95
  -2   5   4  116.16   46.77
  -2   5   4   99.67   43.24
  -2   5   4   49.66   45.71
  -2   3  12   86.88   34.37
  -2   3  12   78.21   36.08
  -7  -4  -2   35.79   27.55
  -7   4  -2   33.22   24.14
  -7   4  -2   41.17   28.67
  -7   4  -2   32.90   28.23
  -7  -4  -2   28.81   18.77
  -3   5   3  147.13  140.47
  -8   2  11  117.00   43.70
  -8   2  11  122.37   46.47
  -8   2  11  124.53   40.99
  -8  -2  11  116.92   68.59
  -1  -2 -13   54.10   29.81
  -1   2 -13   69.12   30.03
   1   2  13    7.75   13.21
  -1   2 -13   39.68   24.27
   1   2  13   38.90   33.73
 -11   0   8   -9.04   36.26
  -1  -4  -9   73.90   33.07
   1   4   9   66.50   28.81
  -1  -4  -9    2.79   10.68
  -1   4  -9   61.29   29.94
 -10  -2  -3  324.96   68.86
 -10   2  -3  380.59   84.99
 -10   2  -3  462.89   94.45
 -10   2  -3  406.79   74.71
 -10   2  -3  166.51  114.06
  -1  -5  -4   -3.25    8.80
  -1   5  -4    3.54    8.06
   1   5   4   11.50   13.91
   1   5   4    5.98   12.13
  -1   5  -4    6.82   11.66
  -1   3  12    8.33   14.52
  -1   3  12   48.64   31.35
  -4  -4  -7    9.37   16.40
  -4   4  -7   53.46   28.67
  -7  -1  13  596.52  104.98
  -7   1  13  414.15  190.92
  -7   1  13  586.09   99.12
  -7   1  13  478.38  174.20
  -7  -1  13  577.25  105.11
  -5   1  14   24.90   21.48
  -5  -1  14   35.05   27.71
  -5   1  14   47.53   27.43
  -5   1  14   37.38   16.78
  -5  -1  14   51.59   34.14
  -3   3  12   82.14   33.03
  -3  -3  12  103.87   37.97
  -3   3  12  136.71   50.93
 -11   1  -2  218.64   63.97
 -11   1  -2  228.28   61.03
 -11   1  -2  176.53   56.77
 -11  -1  -2  196.30   57.32
  -4  -4   9   14.03   17.36
  -4   4   9   14.26   17.33
  -4   4   9   17.06   19.56
  -4   4   9   27.26   24.98
  -4   4   9   24.77   26.76
  -6   0 -11  641.85  104.41
  -6   0 -11  490.76   83.86
  -6   0 -11  532.74   93.06
  -7   2  12    0.01    7.79
  -7   2  12   -0.45    5.83
  -7   2  12   -1.71    8.27
  -3   5  -2   40.53   28.04
  -3   5  -2   56.90   34.00
  -3  -5  -2   -0.99    6.70
  -3   5  -2   64.97   35.17
  -3   5  -2   39.52   26.67
 -10   2   8   84.29   32.57
 -10   2   8   84.33   47.49
 -10  -2   8   99.63   36.26
  -7   3  10  517.36   85.44
  -7   3  10  511.19   91.31
  -7   3  10  534.47   96.98
 -11  -2   3    0.73    6.28
 -11   2   3    3.79   37.79
 -11   2   3    5.43   14.60
  -5  -3  -9    2.42   10.16
  -5   3  -9    1.52    7.71
  -5   3  -9    5.33   14.26
  -5  -3  -9    9.53   13.21
  -5  -3  -9    1.61    7.39
  -5   3  -9    5.72   10.32
  -5   4  -6   10.71   18.36
  -5   4  -6    6.15   14.31
  -5   4  -6   13.84   18.31
 -11  -2   2   33.24   26.92
 -11   2   2   11.06   34.12
 -11   2   2   14.57   18.19
  -7   0 -10  146.88   47.98
  -7   0 -10  133.26   45.97
  -7   0 -10  163.06   48.45
  -7   0 -10  119.85   40.73
  -3  -1 -13  170.50   45.55
  -3   1 -13  164.61   44.08
  -3  -1 -13  171.21   48.92
  -3   4  -8  131.16   47.92
  -3   4  -8  124.02   44.72
  -3  -4  -8   17.48   21.08
  -3   4  -8  129.24   41.37
  -6   3  -8    3.55    9.18
  -6  -3  -8   21.64   20.33
  -6   3  -8    4.17   10.23
  -6   3  -8   11.62   17.04
  -6  -3  -8   26.26   21.31
  -8   3  -5   37.02   26.09
  -8  -3  -5   32.45   20.92
  -8   3  -5   40.10   28.85
  -8  -3  -5   32.10   41.98
  -8   3  -5   31.32   23.06
  -8   3  -5   36.34   19.52
  -8   3  -5   34.50   22.30
 -10  -1  -5   46.80   30.64
 -10   1  -5   42.35   33.61
 -10   1  -5   22.63   19.42
 -10   1  -5   36.43   20.98
  -9   3   7   44.28   26.32
  -9  -3   7   30.74   25.17
  -9  -3   7   51.20   28.78
  -9   3   7   41.98   26.04
  -6   0  14   54.80   36.51
  -6   0  14   36.76   23.04
  -6   0  14   39.88   31.52
 -11  -2   4    5.84    6.53
 -11   2   4   17.60   45.70
 -11   2   4    6.14   15.13
  -9  -2  10   57.34   30.86
  -9   2  10   51.14   27.35
 -11   0  -3   27.60   23.77
  -7   4   6   45.17   37.11
  -7   4   6   59.64   31.24
  -7   4   6   43.77   24.20
  -4   5   1  326.44   76.08
  -4   5   1  307.05   72.32
  -4   5   1  269.10   66.79
  -4   5   1  236.74   64.09
  -9   1  -7  106.79   36.67
  -9   1  -7   76.48   30.70
  -9   1  -7   95.98   42.45
  -9   1  -7   94.08   43.24
  -5   0 -12  979.11  113.82
  -5   0 -12  840.35  119.63
  -5   0 -12  716.68   99.75
 -11   2   1    2.41   25.10
 -11   2   1   11.87   17.37
 -11  -2   1   21.40   27.99
   0   3  12   -0.19    7.55
   0   3  12    1.38    9.54
  -4   3 -10   82.99   37.08
  -4  -3 -10   84.77   33.82
  -4  -3 -10    0.99    5.77
  -4   3 -10   66.81   29.72
  -4  -3 -10   61.03   33.17
  -4   3 -10   68.96   31.42
  -3   5   4  114.47   99.71
  -3   5   4  223.34   59.93
  -6   3  11   39.28   27.27
  -6   3  11   51.37   30.94
  -6   3  11   40.47   26.95
  -6  -3  11   55.29   34.12
  -6   3  11   45.08   24.93
  -1  -1 -14   36.27   23.48
  -1   1 -14   31.75   19.88
   1   1  14   42.60   27.52
  -1  -1 -14   48.98   29.60
  -1  -1 -14    7.35   11.55
  -1   1 -14   29.45   25.21
  -8  -3   9  692.74  103.10
  -8   3   9  747.50  102.18
  -8   3   9  675.18   95.65
  -1   5   5  219.22   55.43
  -1   5   5  188.86   52.17
   1  -5  -5   -0.64   11.01
  -4   5   0   85.17   39.02
  -4  -5   0   91.29   33.53
  -4   5   0   86.35   41.37
  -4   5   0  101.08   41.58
  -4   5   0   82.01   39.17
 -10   1  10   18.31   26.50
 -10   1  10  102.20   42.18
 -10  -1  10   45.00   34.50
  -4   5   2  157.72   52.64
  -4   5   2  157.84   51.07
  -4   5   2  179.17   55.98
  -4   5   2  155.41   49.27
 -12   0   3   96.88   62.05
 -12   0   3  111.92   39.22
   0   5   5   73.96   32.10
   0  -5  -5    1.79   11.87
   0   5  -5   78.18   31.48
   0   5   5   68.71   30.60
  -4  -3  12    1.96    8.50
  -4   3  12    2.00    9.11
  -4   3  12   -0.13   10.59
  -4   3  12    1.10    7.27
 -12   0   2   60.53   37.73
 -12   0   2   85.61   34.54
 -12   0   4    5.29   13.82
  -2   5  -4  221.50   54.70
  -2   5  -4  154.38   40.25
  -2   5  -4  201.37   48.14
  -2  -5  -4    1.09    9.00
  -2   5   5  258.58   62.11
  -2   5   5  269.12   62.79
  -9  -3  -3   16.14   22.30
  -9   3  -3   27.03   23.60
  -9   3  -3   23.88   22.24
  -9   3  -3   31.07   21.89
  -9   3  -3   14.36   16.70
 -11   2   5   48.73   53.52
 -11  -2   5   50.31   31.26
  -8   0  -9   37.10   24.81
  -8   0  -9   32.73   22.91
  -8   0  -9   28.02   22.02
  -8   0  -9   38.95   25.33
  -6  -2 -10  347.63   62.16
  -6   2 -10  340.27   70.94
  -6   2 -10  279.72   63.38
  -6  -2 -10  325.90   70.90
 -11   1   8   23.66   29.72
 -11   1   8   38.11   23.57
 -11   1   8   18.38   53.09
  -7   4  -3   33.62   27.99
  -7   4  -3   25.61   22.51
  -7  -4  -3   29.46   25.39
  -7   4  -3   21.63   23.91
  -7  -4  -3   19.55   18.54
  -7   4  -3   13.65   13.80
  -8  -4   2    6.73   13.88
  -8   4   2    6.17   14.54
  -8   4   2    0.47    4.49
  -8   4   2    1.53    9.81
  -3   5  -3   74.56   34.18
  -3   5  -3   61.78   29.01
  -3   5  -3   74.51   33.66
  -3  -5  -3    0.30    7.61
  -3   5  -3   83.64   36.71
  -6   4  -5  131.65   46.06
  -6   4  -5  128.42   45.97
  -6  -4  -5  141.48   47.98
  -6   4  -5  140.86   45.35
  -4  -5  -1    2.14    6.95
  -4   5  -1    6.71   12.41
  -4   5  -1   12.85   19.03
  -4   5  -1   12.26   17.08
 -10   3   2  177.84   49.14
 -10   3   2  139.76   57.70
 -10  -3   2  224.59  143.22
  -4   5   3   29.70   25.59
  -4   5   3   50.75   33.02
  -8   4   1  176.34   52.38
  -8  -4   1  162.43  107.17
  -8   4   1  182.28   51.79
  -8   4   1  198.06   46.71
 -10   3   3   50.44   37.28
 -10   3   3  166.73   46.54
 -10  -3   3  184.02  118.03
  -7  -3  -7   29.53   20.94
  -7   3  -7   40.37   29.17
  -7   3  -7   10.15    9.17
  -7   3  -7   12.31   14.68
  -7   3  -7   30.40   22.68
  -2   0 -14   74.69   32.52
  -2   0 -14   61.62   30.64
  -8   4   3   56.00   32.38
  -8   4   3   43.70   26.18
  -8   4   3   41.45   27.70
  -6   1 -11  137.57   46.81
  -6  -1 -11  147.97   44.31
  -6   1 -11  152.08   47.50
  -6  -1 -11  131.21   43.52
 -11  -2   0  121.12   36.96
 -11   2   0   64.87   52.91
 -11   2   0  111.14   43.15
 -11  -2   0  153.79   57.43
  -9   0  12   73.15   33.10
  -9   0  12   75.67   36.79
  -9   0  12   71.28   40.50
  -2  -4  -9   29.21   27.05
  -5  -2 -11  115.44   36.96
  -5   2 -11  106.02   41.12
  -5   2 -11  107.13   38.41
  -6   4   8  216.86   57.39
  -6   4   8  202.41   49.88
  -6  -4   8  232.06   59.94
 -12   0   1   72.68   45.00
 -12   0   1   75.29   33.18
  -6  -2  13  182.11   54.65
  -6   2  13  194.97   82.35
  -6   2  13  194.40   53.20
  -6   2  13  161.41   47.32
  -6   2  13  148.41   96.24
  -2   0  15  305.47   63.44
   2  -4 -10    1.91    8.67
  -2   4  10  103.04   35.33
  -2   4  10  107.37   39.76
  -9   2  -6   -0.64   10.23
  -9  -2  -6   -0.64    9.08
  -9   2  -6    2.42    9.38
  -9   2  -6    0.52    3.90
  -8   0  13    5.31   16.22
  -8   0  13    5.61    5.35
  -8   0  13    2.34   10.92
  -7   1 -10   83.64   37.38
  -7   1 -10  107.21   39.98
  -7  -1 -10  103.46   34.92
  -7  -1 -10   96.55   38.02
  -7   1 -10   98.27   38.92
  -1   5  -5   74.61   31.82
   1   5   5   54.45   24.17
  -1  -5  -5    3.31   11.17
   1  -4 -10    0.32    7.11
  -1   4  10    3.72   11.31
  -7   2  -9   75.54   33.13
  -7   2  -9   58.70   31.96
  -7  -2  -9   77.43   36.17
  -3   0  15 1466.52  296.61
  -3   0  15 1360.00  139.55
  -3   0  15 1442.72  298.88
 -12   0   5    0.03   30.67
 -10   3   1  319.33   63.54
 -10  -3   1  391.21  227.27
  -5   4   9   -2.49   11.28
  -5   4   9    2.62   10.69
  -5   4   9    0.78    5.90
  -5   4   9    4.12   11.68
  -5  -4   9   -0.36    8.09
 -10   3   4  113.45   69.22
 -10  -3   4  126.07   71.84
  -2   2 -13    6.14   11.32
   2   2  13   -0.93    5.71
  -2   2 -13    3.20    7.95
  -2  -2 -13    1.29   10.16
  -6   1  14   49.77   31.13
  -6  -1  14   64.76   37.01
  -6   1  14   40.86   28.26
  -6   1  14   58.09   34.06
  -6   1  14   54.50   27.38
  -6  -1  14   63.72   35.21
 -11   1  -3   66.73   33.35
 -11  -1  -3   60.39   33.12
 -11   1  -3   55.12   32.70
 -11   1  -3   45.59   27.93
  -3  -3 -11    1.25    4.56
  -3   3 -11   26.62   20.52
  -3  -3 -11   26.26   21.33
  -3  -3 -11   33.05   22.86
  -3   3 -11   15.85   14.93
  -3   3 -11    3.46    7.93
  -8   4   0   34.63   27.51
  -8   4   0   52.19   30.59
  -8   4   0   38.75   22.65
  -8  -4   0   28.50   25.82
  -2   2  14   25.17   21.51
  -2   2  14   34.79   23.03
   2  -2 -14   31.53   20.13
 -11   0   9   -4.35   32.70
 -11   0   9    1.57    2.92
 -10   0  -6  360.58   67.92
 -10   0  -6  440.75   72.45
  -4   0 -13  114.31   31.94
  -4   0 -13  127.94   41.41
  -8   4   4    0.42    5.10
  -8   4   4    4.69   10.27
  -8  -4   4    2.19   12.69
   1   3  12    9.67   13.30
  -1  -3 -12   47.84   28.54
   1   3  12   25.35   17.88
  -1  -3 -12   47.95   28.04
  -5  -1 -12   24.35   17.21
  -5  -1 -12   53.33   27.97
  -5   1 -12   35.90   26.09
  -5  -1 -12   49.42   27.77
 -10   2  -4  484.49   86.78
 -10   2  -4  536.59   76.87
 -10   2  -4  546.91   92.72
 -10  -2  -4  455.29   74.55
   1   0 -15   10.61   13.22
  -1   0  15    2.15    7.27
  -1   0  15    4.89   13.71
  -3   5   5   21.69   19.54
  -3   5   5   50.06   31.47
  -3   5   5   48.84   33.75
  -3   4  10    7.73   12.96
  -3   4  10    8.61   16.20
  -3   4  10    2.98    9.58
   3  -2 -14    1.31    6.39
  -3   2  14    0.01    9.60
  -3   2  14    0.74    5.65
  -3  -2  14    1.16    5.31
 -11   2   6   17.05   52.84
 -12  -1   3   -1.42   16.03
 -12   1   3    8.79   17.34
   0  -4 -10    0.09    6.20
   0  -4 -10    2.94    8.46
   0   4  10    4.43   10.27
   0   4 -10    3.31    6.88
  -4   5  -2  109.85   40.95
  -4   5  -2  107.64   38.35
  -4  -5  -2    2.95    8.29
  -4   5  -2  129.83   41.59
  -4   0  15  280.65   67.02
  -4   0  15  250.33   59.11
  -4   0  15  365.99   79.59
  -4   0  15  304.69   64.98
  -4   5   4    8.13   14.90
  -4   5   4    7.40   12.11
  -7   4   7   68.11   32.88
  -7   4   7   54.14   32.51
  -7   4   7   55.84   25.69
   1  -2 -14   71.50   31.67
  -1   2  14   73.07   32.23
  -1   2  14   89.07   38.62
   1   2 -14   55.36   23.78
  -5  -3  12    2.28    9.72
  -5   3  12   -0.85    7.44
  -5   3  12    3.91   11.25
  -5   3  12   -0.86    6.70
 -10   2   9   51.66   24.73
 -10  -2   9   63.94   28.21
 -12   1   2    7.94   17.47
 -12   1   2    4.71   13.61
 -12  -1   2    4.67    7.14
  -9   3   8   21.03   18.26
  -9  -3   8    9.42   13.89
  -9  -3   8   18.17   16.57
  -9   3   8    8.84   11.43
 -10   0  11    5.85   10.76
 -10   0  11   11.32    9.57
 -10   0  11   16.75   15.24
 -12   0   0   -0.68    7.56
 -12   0   0    0.71    8.04
 -10  -3   0   77.39   54.47
 -10   3   0   80.62   31.39
 -10   3   0   73.27   31.63
 -12  -1   4    3.00   17.79
 -12   1   4    7.96   19.19
  -8   1  -9   88.83   34.22
  -8   1  -9   93.84   37.64
  -8   1  -9   73.84   35.25
  -8  -1  -9   68.05   31.83
 -10  -3   5   26.88   19.24
 -10   3   5   12.87   35.94
  -4   2 -12   13.45   15.39
  -4   2 -12   37.14   26.55
  -4  -2 -12   39.10   24.18
 -12   0   6    3.98   15.06
 -12   0   6   -1.47   31.82
 -11  -2  -1   25.81   17.18
 -11   2  -1   37.24   28.29
 -11   2  -1   34.52   27.74
 -11  -2  -1   17.60   33.78
 -11   2  -1    8.33   13.13
  -1   5   6   28.87   21.51
  -1   5   6   23.56   19.01
   1  -5  -6    1.63   11.35
 -11   0  -4    2.70    8.88
 -11   0  -4    7.60   14.39
  -2   1 -14  356.81   86.22
   2   1  14  278.92   72.45
  -2  -1 -14  331.10   81.04
  -2  -1 -14  324.36   81.71
  -2  -1 -14  468.23   75.76
  -9   0  -8  232.08   53.77
  -9   0  -8  207.39   50.33
  -9   0  -8   91.26   71.54
  -8   4  -1   28.20   24.26
  -8  -4  -1   31.20   27.68
  -8   4  -1   35.78   22.61
  -8   4  -1   28.41   26.46
  -4   2  14   45.35   28.02
  -4   2  14   36.12   24.32
   4  -2 -14   45.78   22.11
  -4  -2  14   41.41   25.64
  -9  -1  12   43.77   28.36
  -9  -1  12   41.10   25.62
  -9  -1  12   50.36   29.49
  -9   1  12   46.25   29.75
  -9   1  12   42.72   23.44
  -9   1  12   43.81   25.29
  -8   2  -8   52.55   29.66
  -8  -2  -8   83.33   34.89
  -8   2  -8   90.50   35.67
  -3   5  -4  212.50   63.05
  -3  -5  -4    8.75   12.80
  -3   5  -4  155.78   48.97
  -3   5  -4  159.94   88.22
  -3   5  -4  172.39   54.90
  -7   0  14   -1.26   10.04
   0   5   6   37.70   22.59
   0  -5  -6   -0.06    9.77
   0   5   6   35.11   22.14
  -2   5  -5   59.36   28.98
  -2   5  -5   49.49   26.02
  -2  -5  -5   -0.78    8.61
 -12  -1   1   13.60    9.76
 -12   1   1   18.57   22.08
 -12   1   1    7.23   14.38
   2  -1 -15    1.81    6.94
  -2   1  15    4.62   11.62
  -2   1  15   15.07   20.54
  -8   4   5   21.19   18.40
  -8  -4   5   41.86   30.99
  -8   4   5   23.13   20.31
  -2   5   6    5.92    8.53
  -2   5   6   18.25   21.51
  -2   5   6    8.45   13.56
  -8   1  13   84.65   36.41
  -8   1  13   94.73   38.29
  -8  -1  13  100.90   44.71
  -8  -1  13   96.36   41.67
  -8  -1  13   89.55   41.91
  -4  -4  -8    5.69   11.69
  -4   4  -8    6.29   10.44
  -4   4  -8   31.89   27.13
  -3   1  15  332.63   87.74
  -3  -1  15  334.93   85.90
 -12  -1   5   30.21   29.07
 -12   1   5   28.11   42.82
  -5   4  -7    3.81   11.61
  -5  -4  -7    1.58   10.41
  -5   4  -7    3.16   10.57
  -5   4  -7    8.40   12.70
  -5   5   1   26.21   22.68
  -5   5   1   31.19   27.39
  -5   5   1   22.88   22.09
  -5   5   1   25.82   24.94
  -5  -5   1   37.87   24.27
   0   0 -15  232.19   64.48
   0   0 -15  177.78   54.85
  -7   4  -4    0.63    4.30
  -7  -4  -4   21.68   20.46
  -7   4  -4   21.61   21.06
  -7  -4  -4   23.26   21.12
  -7   4  -4   15.07   18.52
  -8   3  -6  226.38   63.22
  -8   3  -6  213.39   60.04
  -8   3  -6  163.20   97.23
  -8   3  -6  219.88   66.09
  -8  -3  -6  175.72   51.26
  -8   3  -6  174.07   53.29
  -4   4  10   15.60   17.64
  -4  -4  10   10.13   13.45
  -4   4  10   19.51   21.19
  -4   4  10   13.50   17.13
  -5   5   2   28.42   24.96
  -5  -5   2   33.46   23.92
  -5   5   2   36.84   27.79
  -5   5   2   13.39   18.00
  -5   5   2   14.27   18.58
  -9  -3  -4   39.69   40.58
  -9   3  -4   49.47   31.22
  -9   3  -4   33.48   23.02
  -9   3  -4   48.39   28.61
  -8  -2  12    7.98    8.34
  -8   2  12    7.35   11.50
  -8   2  12    1.90    8.64
  -8   2  12    6.06   12.33
   0  -2 -14   93.39   39.39
   0   2  14   63.18   54.79
   0   2 -14   67.18   28.74
   0  -2 -14   69.03   32.35
   0   2  14   87.70   36.76
  -5   5   0   41.82   27.37
  -5   5   0   41.87   29.36
  -5   5   0   40.91   31.16
  -5  -5   0   49.54   26.30
  -5   5   0   34.99   28.32
 -11   1   9   10.09   13.73
 -11   1   9    0.90   48.97
 -10  -1  -6  123.80   45.75
 -10   1  -6  115.55   41.26
 -10   1  -6   99.27   49.15
 -10   1  -6  138.96   51.47
  -4   1 -13   42.60   24.46
  -4  -1 -13   33.69   21.69
  -4  -1 -13   46.68   26.47
  -4  -1 -13   42.34   25.89
  -7  -3  11   57.18   33.83
  -7   3  11   48.89   27.17
  -7   3  11   55.70   28.48
  -7   3  11   45.83   31.00
   1   4  10   13.09   12.66
  -1  -4 -10   -0.39    5.67
  -1  -4 -10    3.82    8.24
  -1   4 -10    7.07   10.10
   1  -1 -15   16.82   15.23
  -1   1  15   66.91   32.05
   1  -1 -15   66.33   30.27
  -1   1  15   70.01   40.36
  -5   0  15   13.69   20.65
  -5   0  15    6.10   14.21
  -5   0  15   16.57   19.70
  -5   0  15   12.39   15.04
  -8   3  10  685.32  153.36
  -8  -3  10  756.55  411.92
 -10   3  -1   28.08   25.63
 -10   3  -1   32.06   22.02
  -4   5  -3  119.88   43.23
  -4   5  -3  151.89   52.56
  -4   5  -3  151.06   49.46
  -9   2  11    9.38   14.44
  -9  -2  11   27.14   23.00
 -11   2   7   -2.71   17.18
 -11   2   7   23.03   52.28
  -4   5   5   10.29   11.79
  -4   5   5   17.68   19.86
  -4  -1  15  307.07   82.28
  -4   1  15  304.45   81.39
  -4   1  15  272.18   76.65
  -4   1  15  266.04   75.72
  -4   1  15  288.35   79.80
  -5   5   3   27.68   24.78
  -5   5   3   17.64   19.30
  -5   5   3   27.57   23.86
 -12   0  -1    7.07   15.65
 -12   0  -1    5.87   10.48
 -10  -3   6   14.04   11.20
 -10   3   6    4.28   12.44
  -3   4  -9  349.41   86.09
  -3   4  -9  420.78  106.21
  -3  -4  -9    6.28   10.80
  -3  -4  -9  336.28   81.73
  -3  -4  -9  418.26   97.16
  -3   4  -9  405.76  101.42
  -1   5  -6  134.83   42.28
  -1  -5  -6    5.69   12.64
   1   5   6  126.31   39.20
  -1   5  -6  142.50   46.28
 -10  -1  11    7.56    7.28
 -10   1  11   13.96   12.35
 -10   1  11   20.17   17.94
 -12  -1   0  213.13   65.77
 -12   1   0  173.88   96.49
 -12   1   0  241.98   73.22
  -3   5   6   17.04   17.16
  -3   5   6    6.71   12.62
  -3   5   6   23.08   23.26
  -6   4  -6   62.96   33.62
  -6   4  -6   65.25   33.37
  -6   4  -6   59.10   33.61
 -12   0   7   30.35   38.77
   2   3  12    2.28    8.75
  -2   3 -12    5.12    7.71
  -2  -3 -12   14.53   17.92
  -2   3 -12    0.29    4.23
  -2  -3 -12   10.63   12.38
  -5   5  -1    5.67   14.26
  -5   5  -1    6.06   14.51
  -5  -5  -1    0.25    1.47
  -5   5  -1    0.60    7.29
  -5  -5  -1    1.37    5.18
  -5   5  -1    2.99    9.29
 -12   1   6   35.22   47.34
  -7   2  13   83.62   35.18
  -7  -2  13   59.22   35.11
  -7   2  13   66.28   37.91
  -7   2  13   66.43   41.21
  -2   3  13  239.27  116.42
  -6   3  -9    1.37    6.19
  -6   3  -9    6.44   10.26
  -6   3  -9   14.30   16.69
  -6  -3  -9   15.77   17.69
  -6   3  -9    1.69    9.93
  -3   0 -14  276.46   73.38
  -3   0 -14  350.27   87.29
  -6   4   9  104.84   40.23
  -6  -4   9  119.13   47.50
  -6   4   9   65.01   27.18
  -8   4  -2   81.58   33.08
  -8  -4  -2   50.90   52.24
  -8   4  -2   84.85   37.26
  -8   4  -2   75.93   43.80
  -5   3 -10    2.45    7.25
  -5  -3 -10    7.17   10.47
  -5  -3 -10    6.59   12.23
  -5   3 -10    5.53   11.51
  -5   3 -10    6.62   10.26
  -5  -2  14  230.51   67.47
  -5   2  14  175.93   53.47
  -5   2  14  208.55   59.80
  -5   2  14  251.51   73.51
  -5   2  14  230.38  131.36
 -11   2  -2  376.48  100.12
 -11   2  -2  347.29   95.59
 -11  -2  -2  379.53  110.97
 -11   2  -2  101.56   93.49
 -11  -2  -2  271.77   72.08
 -11   1  -4  238.39   67.74
 -11   1  -4  238.88   71.98
 -11   1  -4  193.12   58.81
 -11  -1  -4  213.88   65.06
  -9   1  -8  166.60   55.51
  -9  -1  -8  138.21   47.35
  -9   1  -8  157.18   46.61
  -9   1  -8  122.06   62.77
  -9   1  -8  175.33   51.71
  -7   1  14   84.41   47.73
  -7   1  14   98.95   40.33
  -7  -1  14  106.83   45.10
  -7  -1  14  110.15   44.48
  -7   1  14   86.21   32.57
  -8   4   6   75.60   34.10
  -8  -4   6   88.16   40.18
  -8   4   6   35.44   32.57
  -3   3  13   46.32   24.51
  -3   3  13   54.41   33.91
  -3   3  13   47.18   26.15
  -3  -2 -13  177.77   53.45
  -3   2 -13  155.19   46.48
  -3   2 -13  155.29   51.22
  -3  -2 -13  178.24   56.44
  -1   3  13   80.91   33.99
  -1   3  13   88.01   51.75
  -6   3  12  120.20   45.37
  -6   3  12  144.07   49.28
  -6  -3  12  148.72   53.46
  -6   3  12  145.46   47.31
  -6   3  12  136.07   44.39
  -7   4   8   -0.07    5.64
  -7   4   8   -2.49    8.94
  -7   4   8   -1.34    7.80
 -11   0  10  136.69  154.83
   0   1  15  181.57   61.73
   0  -1 -15  170.24   52.89
   0  -1 -15  140.78   45.00
   0   1 -15  134.59   47.11
   0  -1 -15  125.03   41.53
  -5   5   4  130.98   48.90
  -5   5   4   70.11   59.85
  -5   5   4  137.71   48.90
 -10   2  -5   35.68   28.80
 -10  -2  -5   33.27   21.93
 -10   2  -5   37.21   21.81
 -10   2  -5   36.72   28.64
  -7   0 -11  319.31   78.78
  -7   0 -11  456.69  108.03
  -7   0 -11  333.88   83.55
  -7   0 -11  408.19   99.54
  -9   3   9   46.06   24.84
  -9  -3   9   56.40   31.56
  -1   0 -15  663.62  143.66
  -1   0 -15  496.11  112.66
  -3   5  -5   76.95   30.12
  -3   5  -5   73.13   37.85
  -3   5  -5  106.19   39.64
  -3  -5  -5   13.66   16.37
  -3   5  -5  103.71   37.73
  -9   2  -7   27.00   22.45
  -9   2  -7   36.08   22.43
  -9  -2  -7   34.38   22.85
  -9   2  -7   39.07   23.67
  -7   3  -8    2.19    6.82
  -7  -3  -8    4.35    8.55
  -7   3  -8   12.78   14.90
  -7   3  -8    2.72    3.58
  -6   0 -12  442.36  106.01
  -6   0 -12  291.76   72.40
  -6   0 -12  349.35   88.21
  -5  -4  10    7.04   10.75
  -5   4  10    7.18   11.99
  -5   4  10    2.17    9.20
  -5   4  10    0.72    5.12
  -1   2 -14  190.55   53.41
  -1  -2 -14  274.97   74.00
  -1  -2 -14  240.09   66.77
   1   2  14  176.08   52.01
  -5   1  15   84.83   36.28
  -5   1  15   88.84   37.47
  -5   1  15  107.21   40.99
  -5  -1  15  106.65   42.04
  -4   3 -11   67.11   30.56
  -4   3 -11    6.92    9.59
  -4  -3 -11   71.28   34.47
  -4  -3 -11   75.16   30.95
  -4   3 -11   68.37   30.00
 -10   3  -2    3.65   10.06
 -10  -3  -2    4.23   20.66
 -10   3  -2    2.72    3.03
 -10   3  -2    5.45   11.53
  -1   5   7   74.92   48.17
  -1   5   7   68.08   45.15
 -10  -2  10   36.57   29.19
 -10   2  10   36.39   28.85
 -10   2  10   30.66   28.76
  -5  -5  -2    1.40    5.71
  -5   5  -2    1.06    7.64
  -5   5  -2    3.28    9.78
  -5   5  -2   12.67   17.23
  -5   5  -2    7.46   12.13
 -12   1  -1   95.68   62.82
 -12  -1  -1   89.35   58.22
 -12   1  -1   76.30   61.87
  -2   5  -6   12.10   10.64
  -2  -5  -6    1.33    9.24
  -2   5  -6   13.30   15.57
  -4   3  13    7.57   10.81
  -4   3  13    2.85    8.21
  -4  -3  13    2.18    5.83
  -4   3  13   16.87   21.22
  -2  -4 -10   39.12   29.77
  -2   5   7   30.67   26.82
  -2   5   7   34.37   28.62
  -4   5  -4    4.67    9.47
  -4   5  -4   -1.64    7.81
  -4   5  -4    1.91    6.46
  -4   5  -4    1.52    8.00
  -4  -5  -4    0.19    6.37
 -10  -3   7    0.16    2.86
  -6   0  15    1.84    5.74
  -6   0  15   -0.79    7.84
  -6   0  15   -0.89    8.66
  -9   0  13   16.11   18.04
  -9   0  13   13.89   12.79
  -9   0  13   23.48   23.99
 -10   0  -7  332.74  184.59
 -10   0  -7  286.37  160.84
   0   3  13    0.53    2.84
   0  -3 -13    2.61    9.43
   0   3  13    7.68   13.86
  -2   4  11  171.43  101.65
  -2   4  11  146.68   88.19
   2  -4 -11    0.80    5.32
  -4   5   6   49.61   37.36
  -4   5   6   52.18   39.31
  -4   5   6   47.61   35.95
   0   5   7   47.76   33.04
 -12   0  -2    1.42    6.40
 -12   1   7   18.10   44.91
 -12   1   7   36.72   41.99
  -8   0 -10   24.77   22.88
  -8   0 -10   12.72   17.13
  -8   0 -10   16.12   17.05
  -8   0 -10    6.56   11.34
  -1   4  11   16.66   18.86
   1  -4 -11   17.60   19.05
   1  -4 -11    0.63    5.08
  -1   4  11   17.05   21.17
  -7   4  -5  107.86   66.90
  -7   4  -5  106.15   66.51
 -11   0  -5   12.74   16.30
 -11   0  -5   20.43   20.14
  -3  -1 -14   44.27   30.31
  -3   1 -14   63.00   41.57
  -3  -1 -14   45.34   31.87
  -6   2 -11   15.93   18.00
  -6  -2 -11   89.46   55.27
  -6   2 -11   90.53   60.83
 -12   0   8   12.78   28.83
  -9   3  -5   27.93   24.66
  -9   3  -5   16.65   18.23
  -9   3  -5   23.95   21.95
  -5   0 -13  148.82   88.22
  -5   0 -13  121.37   73.35
  -3   4  11  133.32   80.51
  -3   4  11  119.44   71.51
  -3   4  11  140.70   84.46
   3  -4 -11    0.89    5.47
  -5   5   5    7.80   15.21
  -5   5   5   16.27   23.00
  -5   5   5    3.56    6.20
  -8   4  -3   44.23   31.34
  -8  -4  -3   67.94   45.67
  -8   4  -3   64.78   43.10
  -8   4  -3   51.69   38.08
 -10   0  12    3.76    7.53
 -10   0  12    2.69    6.08
 -10   0  12    2.76    3.69
  -7   2 -10    8.59   13.38
  -7  -2 -10    5.01   11.78
  -7   2 -10    7.83   15.48
  -8   0  14   88.07   58.67
  -8   0  14   96.85   61.27
  -8   0  14   88.83   58.79
  -9   4   2    1.19    4.24
  -9   4   2    3.75    8.13
 -11   1  10    0.02    5.45
  -8  -4   7  103.81   65.03
  -8   4   7   86.46   56.31
  -8   4   7   84.65   54.58
  -3   5   7    1.55    5.59
  -3   5   7    4.15   10.50
  -3   5   7    5.50   11.00
  -9   4   3   39.14   48.05
  -9  -4   3   78.35   78.79
  -6   2  14  239.26  136.88
  -6   2  14  120.11  111.27
  -6   2  14  170.66   99.62
  -6   2  14  169.92  116.79
  -6  -2  14  112.44  110.08
 -11   2  -3  550.25   83.04
 -11   2  -3  644.75   90.79
 -11   2  -3   90.67  119.22
 -11  -2  -3  508.48   68.66
  -7   1 -11   49.73   36.23
  -7  -1 -11   40.11   28.98
  -7  -1 -11   31.55   26.49
  -7   1 -11   47.64   37.39
  -7   1 -11   52.93   39.05
   0  -4 -11    0.73    5.45
   0   4  11    2.51    6.27
   0  -4 -11    1.87    5.72
  -6  -5   1  161.50  118.97
  -6   5   1  264.20  149.99
  -6   5   1  232.66  131.90
  -6   5   1  241.58  138.80
  -9   4   1  222.80  127.18
  -9   4   1  216.38  124.15
  -9  -4   1  107.45  109.36
  -6  -5   2  418.22  230.25
  -6   5   2  352.13  195.44
  -6   5   2  345.65  193.67
  -6   5   2  346.38  191.91
  -1   1 -15   30.20   23.89
  -1  -1 -15   31.61   26.54
   1   1  15   20.17   19.86
  -1  -1 -15   21.89   19.27
  -1  -1 -15   33.76   25.78
  -5  -2 -12   90.72   55.84
  -5   2 -12   73.62   47.25
  -5   2 -12   80.78   53.47
  -5   2 -12   98.46   63.16
  -1   5  -7    2.49    5.36
  -1   5  -7    2.57    5.84
  -6   1 -12   52.66   38.12
  -6   1 -12   36.73   29.77
  -6   1 -12   41.95   33.45
  -6  -1 -12   48.55   35.31
  -6  -1 -12   45.00   32.79
  -5   4  -8   41.29   32.01
  -5   4  -8   28.37   25.54
  -5  -4  -8   26.96   26.33
  -8   3  -7    9.85   10.13
  -8   3  -7   21.61   21.27
  -8   3  -7   27.04   22.29
  -8   3  -7   18.01   18.03
  -8   3  -7   25.66   21.29
  -8  -3  -7   20.04   17.54
  -5   5  -3   13.88   17.92
  -5   5  -3   25.79   25.10
  -5   5  -3   25.23   23.37
  -5   5  -3   12.28   13.01
  -5  -5  -3    5.89   10.45
 -12   2   3   30.35   39.79
 -12   2   3   76.80   53.05
 -12  -2   3  106.77   68.86
  -3   3 -12    4.89    7.98
  -3  -3 -12   20.29   19.14
  -3  -3 -12   22.89   22.68
  -3   3 -12    0.95    3.90
   3   3  12    0.91    5.22
  -6  -5   0  105.87  159.72
  -6   5   0  396.79  220.36
  -6   5   0  382.54  209.61
  -6   5   0  492.26   74.12
  -9  -4   4    0.15    7.16
  -9   4   4    0.09    5.01
  -4   4  -9  167.79   97.28
  -4   4  -9  216.16  124.72
  -4  -4  -9   24.51   22.87
  -6   5   3   97.84   61.10
  -6   5   3   33.23   40.05
  -6  -5   3  111.01   68.88
  -6   5   3   99.06   63.13
  -5   3  13    0.55    6.32
  -5  -3  13    0.94    5.60
  -5   3  13    2.37    8.21
  -5   3  13    4.39    9.14
 -12   2   2    3.50   28.05
 -12   2   2   37.99   33.22
 -12  -2   2   32.66   37.59
 -12   2   4   43.96   47.99
  -6   1  15   16.90   19.86
  -6   1  15   14.99   15.83
  -6  -1  15   18.50   20.13
  -6   1  15    9.92   13.25
  -6   1  15   14.50   19.09
  -9   1  13   21.39   18.84
  -9   1  13   16.00   14.83
  -9  -1  13   23.06   20.71
  -9   1  13   21.73   17.72
  -9  -1  13   21.00   21.07
 -10   1  -7   46.82   34.49
 -10   1  -7   55.57   38.94
 -10   1  -7   35.17   26.05
  -8   3  11   33.49   29.07
  -8   3  11   47.48   34.21
  -8   2  -9    0.89    8.26
  -8  -2  -9    6.36   13.79
  -8   2  -9    0.11    7.52
 -12   1  -2   37.39   31.13
 -12   1  -2   19.52   19.48
 -12  -1  -2   42.32   33.11
   4  -4 -11    1.16    5.50
  -4   4  11    0.37    5.82
  -4   4  11    3.95    9.08
  -1  -3 -13    4.66   10.46
   1   3  13    3.89    8.54
  -1  -3 -13    4.02    9.88
  -9   4   0  100.82   62.60
  -9   4   0   94.97   60.20
  -9  -4   0   71.76   67.10
  -8   1 -10   19.97   21.30
  -8   1 -10   22.98   20.98
  -8  -1 -10   26.15   23.77
  -8   1 -10   10.34   12.81
  -9   0  -9    8.23   11.14
  -9   0  -9   -0.29    5.90
 -10   3  -3    4.52    5.25
 -10   3  -3    4.72    8.57
 -10  -3  -3   12.37   26.47
 -10   3  -3    6.36   11.00
  -6   4  -7    1.71    7.74
  -6   4  -7    5.23   10.97
  -6   4  -7    5.65   10.30
  -6  -4  -7    0.22    7.25
 -11   1  -5    8.42   12.11
 -11  -1  -5   13.10   15.50
 -11   1  -5    1.51    6.01
 -11   1  -5   18.89   20.25
  -2   0 -15  245.82  137.99
  -2   0 -15  190.66  108.24
  -2   2 -14   88.37   54.06
  -2  -2 -14   94.09   58.68
  -7   4   9    8.36   11.06
  -7   4   9   13.99   14.65
  -7   4   9   12.34   15.79
  -7   4   9    5.36   10.47
  -9  -2  12   19.90   21.53
  -9   2  12   13.12   15.02
  -9   2  12   18.74   19.59
 -12   1   8    7.17   39.45
  -7  -3  12    5.11   10.85
  -7   3  12    3.71    8.27
  -7   3  12    1.81    5.40
  -6   4  10   62.69   43.61
  -6  -4  10   62.41   43.68
  -6   4  10   56.84   39.06
 -12  -2   1   73.02   56.79
 -12   2   1   38.22   40.42
 -12   2   1   60.14   43.52
  -3   5  -6    4.05    8.41
  -3   5  -6    6.03    7.76
  -3  -5  -6    3.93   11.55
  -3   5  -6   18.33   17.35
 -11  -3   3   47.70   32.81
 -11   3   3    2.47   16.75
  -5   1 -13    2.31    8.06
  -5   1 -13    3.29    9.21
  -5  -1 -13    1.96    6.35
  -5  -1 -13    1.59    7.35
  -3   0  16  154.34   90.27
  -2   0  16  139.90   81.76
   2  -2 -15    1.09    5.04
   2  -2 -15    0.26    6.88
  -2   2  15   -1.43    6.02
  -2   2  15    1.99    3.33
   2   2 -15    0.25    3.79
 -11   3   2   49.72   34.96
 -11  -3   2   90.97   58.53
 -10   1  12    9.03   11.40
 -10  -1  12    4.64    9.23
 -10   1  12   14.16   13.44
  -8   2  13  211.26  122.07
  -8   2  13  164.07  128.77
  -8   2  13  211.13  118.70
   3  -2 -15    0.31    3.61
   3   2 -15    0.12    3.50
  -3   2  15    5.31   12.06
  -6   5  -1    6.71   13.03
  -6   5  -1    3.52    7.88
  -6   5  -1    1.90    7.60
  -6  -5  -1    0.82    4.01
 -12   2   5   25.12   56.41
  -4  -5  -5    0.77    6.61
  -4   5  -5   12.10   15.91
  -4   5  -5    3.70    7.05
  -4   5  -5    7.74   10.27
  -4   5  -5    2.27    5.76
  -8   1  14   11.74   10.91
  -8  -1  14    8.49   12.12
  -8   1  14   15.99   12.84
  -8  -1  14   12.47   15.90
  -8   1  14   15.09   17.23
  -6   5   4   39.74   50.79
  -6   5   4   71.55   46.97
  -6   5   4   84.44   54.86
  -6  -5   4   97.32   61.75
  -5   5   6  162.42   94.84
  -5   5   6  173.39  101.81
 -12   0  -3    4.74    8.08
  -9  -4   5   22.20   20.40
  -9   4   5    6.45    9.42
  -4   0 -14   34.69   26.45
  -4   0 -14   39.65   30.18
  -4   5   7   57.10   40.66
  -4   5   7   68.55   45.95
 -11   0  11    2.47    4.25
  -1  -4 -11   -0.17    3.38
  -1  -4 -11    7.32    9.57
  -1   4 -11   31.69   18.71
 -11   3   4   18.07   21.84
 -11  -3   4   56.17   59.77
  -9  -3  10   40.52   24.53
  -9   3  10   46.51   26.85
  -9   3  10   40.64   23.02
  -3   4 -10  383.43   96.90
  -3   4 -10  398.10   99.48
  -3  -4 -10  375.51   88.12
  -3  -4 -10    9.16    9.22
 -11   2   9   11.06   13.32
 -10   2  -6   62.44   29.65
 -10   2  -6   72.72   28.20
 -10   2  -6   86.71   36.51
 -10  -2  -6   75.87   31.79
  -4   2 -13    7.69   11.56
  -4  -2 -13    1.33    6.50
  -4   2 -13    6.03    9.87
  -4  -2 -13    4.94    9.26
 -11   3   1   10.65   11.35
 -11  -3   1   26.31   20.42
  -7   0  15   47.77   26.38
   1  -2 -15   25.04   17.07
   1   2 -15    4.26    6.41
   1  -2 -15    9.87   12.83
  -1   2  15    4.48    7.93
  -1   2  15   24.67   19.78
  -4   0  16    2.47    8.35
  -4   0  16    2.26    5.95
  -1   5   8   21.86   16.69
   1  -5  -8    1.18    7.30
 -13   0   3    9.76   23.03
   1   0 -16   25.07   18.68
  -2   5  -7    5.34    4.00
  -2   5  -7    8.76   10.36
  -9   4  -1   89.27   35.32
  -9  -4  -1  106.34   39.77
  -9   4  -1   93.71   35.63
  -8   4  -4   36.36   26.80
  -8   4  -4   79.11   36.68
  -8   4  -4  100.84   36.94
  -8  -4  -4  111.66   40.87
  -2   5   8   82.00   31.19
   2  -5  -8   -0.58    6.88
  -2   5   8   92.84   35.06
 -13   0   4    0.67   22.69
  -4  -2  15    5.30   11.35
   4   2 -15   25.31   14.81
  -4   2  15   32.68   18.90
  -4   2  15   13.39   11.66
 -13   0   2   58.12   52.59
 -10  -2  11   11.56   11.71
 -10   2  11    1.20    7.65
 -10   2  11    5.15    7.97
 -12   2   0   72.45   41.11
 -12   2   0  143.51   50.92
  -8   4   8    6.31    9.90
  -8   4   8   16.33   15.59
  -8  -4   8   10.89   11.80
 -11   3   5    9.49   11.15
 -11  -3   5   23.62   30.23
   0   5   8   21.82   14.78
   0  -5  -8   -1.75    6.34
  -7   4  -6  214.57   60.18
  -7   4  -6  192.37   56.06
  -5   5  -4  107.58   40.61
  -5   5  -4  101.81   38.97
  -5   5  -4   92.59   35.50
  -5  -5  -4   38.55   21.87
  -6   3 -10    0.42    5.60
  -6   3 -10    1.42    7.78
  -6  -3 -10    2.42    6.93
  -6   3 -10    0.13    3.56
  -6   3 -10    0.54    2.23
 -12   2   6    4.33   35.85
 -12   2   6   10.35   19.30
  -9  -1  -9   57.76   26.81
  -9   1  -9   87.15   34.71
  -9   1  -9   51.51   39.25
  -9   1  -9   99.19   33.75
  -5   4  11    7.06   10.72
  -5   4  11    2.61    6.17
   5  -4 -11   -1.32    3.68
  -5   4  11    5.90    9.69
  -6   5  -2    5.30    8.92
  -6   5  -2    3.66    7.87
 -13   0   5   34.86   34.27
 -13   0   5   38.54   23.88
  -2  -1 -15   31.86   17.22
  -2  -1 -15   42.42   23.76
  -2  -1 -15    8.21    7.79
  -2   1 -15   33.52   18.17
 -11  -2  -4  204.37   57.52
 -11   2  -4  220.49   64.47
 -11   2  -4  218.17   64.31
  -9   2  -8    1.37    2.97
  -9  -2  -8    3.26    8.10
  -9   2  -8    1.65    6.59
  -9   2  -8    2.95    8.49
 -11  -3   0   16.30   20.43
 -11   3   0    1.38    5.83
  -6   5   5  161.96   53.17
  -6   5   5  162.69   51.75
  -6   5   5  155.10   46.91
  -7   2  14   53.26   33.51
  -7   2  14   96.27   33.07
  -7  -2  14   32.50   36.22
  -7   2  14   92.07   34.22
  -7   2  14   83.44   34.21
  -5  -3 -11   29.29   20.58
  -5   3 -11    2.85    5.10
  -5   3 -11    7.36   11.36
  -5   3 -11    2.51    5.23
  -5  -3 -11   23.18   14.56
 -11   0  -6    6.30    9.52
 -11   0  -6   18.30   14.23
   3  -5  -8    2.39    7.94
  -3   5   8   56.95   26.47
  -3   5   8   66.28   29.36
  -3   1  16  250.48   66.08
  -6   3  13   69.17   41.17
  -6  -3  13   91.74   35.96
  -6   3  13   78.73   30.15
  -6   3  13   65.78   29.14
   2   1 -16  302.15   78.80
  -2   1  16  232.23   61.45
  -2   1  16  328.94   86.56
 -13   0   1   10.08   12.94
  -9   3  -6   50.11   25.62
  -9   3  -6   48.87   24.16
  -9   3  -6   35.87   18.98
  -9   4   6   -0.91    2.57
  -9   4   6    5.87    7.92
  -9  -4   6    9.06   11.55
  -7   3  -9    9.43   10.92
  -7   3  -9   27.18   17.03
  -7   3  -9   14.79   11.85
  -7   3  -9    4.64    6.67
  -7  -3  -9   10.63   12.00
   0   2  15    6.83    7.84
   0   2  15   14.26   12.17
   0  -2 -15   39.10   21.32
   0  -2 -15   27.46   18.58
   0   2 -15   15.27   11.16
 -12   1  -3   31.90   20.18
 -12  -1  -3   66.33   30.64
 -12   1  -3   64.42   29.50
  -4  -1 -14    1.54    4.83
  -4   1 -14    0.31    6.58
  -4   1 -14    1.48    6.03
  -4  -1 -14    3.19    7.65
   2   3  13    1.29    4.96
  -2  -3 -13    5.45    8.76
  -2  -3 -13   13.16   13.30
  -5   0  16   11.89   13.08
  -5   0  16   17.34   15.48
 -11   1  11    2.82    4.94
   0   0 -16   19.34   11.79
   0   0 -16   29.80   19.92
  -2   3  14   25.95   15.58
  -2   3  14   33.12   20.70
   2  -3 -14   40.95   22.56
   2  -3 -14   37.52   23.74
 -10   0  -8    4.53    8.01
 -10   0  -8    5.27    8.48
 -10   3  -4    4.47    8.20
 -10   3  -4    8.94    5.81
 -10   3  -4    9.79    9.90
  -7  -1  15    7.31   11.07
  -7   1  15    5.21    9.97
  -7   1  15    7.48   10.60
  -7   1  15    7.69    9.63
  -4  -1  16   73.32   27.38
  -4   1  16  124.00   40.46
  -4   1  16  151.41   46.73
  -5  -2  15   12.44   36.75
  -5   2  15   93.72   44.04
  -5   2  15   36.10   30.62
  -5   2  15  158.25   50.11
  -3   3  14   50.88   29.98
   3  -3 -14   84.05   29.96
 -13  -1   3    6.05   15.38
 -12   1   9   37.05   40.24
  -1  -5  -8    0.00    5.74
  -1   5  -8   29.59   15.60
   1  -1 -16   62.63   26.19
   1  -1 -16   65.53   23.52
  -1   1  16   82.26   35.20
   1   1 -16   63.94   30.51
  -9   4  -2   67.59   27.05
  -9   4  -2   83.82   33.33
  -9  -4  -2   93.34   38.04
 -11  -3   6    2.75    6.46
 -13   0   6   27.40   30.83
 -13   1   4   25.56   32.01
   2   4  11  341.97   85.86
  -2  -4 -11    2.91    4.94
  -2   4 -11  224.38   59.80
  -2  -4 -11  295.12   72.15
  -2   4 -11  318.00   80.41
 -12   2  -1    5.77   12.24
 -12   2  -1   -0.31    7.96
  -5   5   7   90.75   35.11
  -5   5   7   73.67   30.27
  -1   3  14    5.47    5.34
   1  -3 -14    6.87    9.72
   1  -3 -14   10.57   11.66
  -1   3  14    4.90    7.91
 -13   1   2    5.48    9.81
 -13  -1   2    7.75   16.63
 -13   1   2    3.72   24.72
 -10   3   9   15.67   12.61
  -2   4  12   45.89   24.71
  -2   4  12   39.19   22.37
  -9   0  14   34.14   20.10
  -9   0  14   42.82   23.46
  -9   0  14   39.43   20.15
 -12   2   7   34.28   46.48
 -12   2   7   53.50   23.69
 -10   0  13   37.69   20.13
 -10   0  13   17.53   11.25
 -10   0  13   37.09   20.00
  -4   3 -12    4.22    7.23
  -4   3 -12    0.94    3.05
  -4  -3 -12   20.09   13.37
  -4  -3 -12   12.33   14.24
 -13   0   0   -1.53    7.89
 -13   0   0    0.79    3.60
 -11   3  -1    5.08    7.99
 -11  -3  -1    7.48   21.11
  -1   4  12    2.31    3.50
   1  -4 -12    0.74    4.35
  -7   0 -12  149.98   44.25
  -7   0 -12  174.46   49.49
  -4   5  -6   53.14   26.42
  -4   5  -6   19.30   12.67
  -4   5  -6   34.86   21.18
  -4  -5  -6    4.33    8.07
  -3  -2 -14   57.17   24.86
  -3   2 -14   34.64   18.16
  -3  -2 -14   62.15   25.96
  -7   5   2   72.41   75.98
  -7  -5   2   50.34   80.12
  -7   5   2  170.91   46.66
 -12   0  -4    9.93    9.47
 -12   0  -4    6.49   11.35
 -13   1   5   15.02   31.30
  -3   4  12   24.05   18.93
  -3   4  12   14.07   13.49
  -3   0 -15    9.18    9.50
  -3   0 -15   21.87   16.52
  -7   5   1  244.93   67.26
  -7  -5   1   89.36  168.20
  -7   5   1  287.58   76.69
  -4   5   8   53.44   25.62
   4  -5  -8    2.20    7.38
  -3   5  -7   46.37   39.28
  -3   5  -7   88.74   32.42
  -6   5  -3   24.13   18.40
  -6   5  -3   34.63   20.74
  -4   3  14   89.47   34.07
  -4   3  14   32.54   16.08
  -4   3  14   64.29   40.99
  -8  -3  -8   73.63   25.35
  -8   3  -8  158.73   47.50
  -8   3  -8  170.90   51.26
  -8   3  -8  128.37   37.87
 -11   1  -6   22.65   17.53
 -11   1  -6    3.46    3.99
 -11  -1  -6   24.52   17.54
 -11   1  -6   27.43   17.07
  -7   4  10   32.40   17.12
  -7   4  10   41.65   23.12
  -5   4  -9    5.14    7.91
  -5   4  -9   15.59   14.09
  -6   5   6  383.26   93.23
  -6   5   6  297.64   77.55
  -6   5   6  327.70   78.94
 -13  -1   1    4.62    8.85
 -13   1   1   16.18   15.99
 -13   1   1   16.91   25.45
  -7   5   3   35.78   18.92
  -7  -5   3   37.00   25.63
  -7   5   3   36.82   17.77
  -8   0 -11    1.97    5.24
  -8   0 -11    1.93    5.02
  -8   0 -11    1.77    4.74
  -6   0 -13 1220.08  252.24
  -6   0 -13  510.85  112.45
 -11   2  10    0.03    4.83
  -6   4  -8    2.88    6.45
  -6   4  -8    1.73    5.89
  -6   4  -8    4.65    9.82
  -8   4  -5   33.83   21.56
  -8   4  -5   35.11   18.12
  -9   4   7   10.95   11.21
  -9  -4   7   14.66   12.45
  -9   4   7   15.27   12.88
  -5   1  16   15.21   12.28
  -5  -1  16    2.05    5.14
  -5   1  16   20.26   16.22
  -5   1  16    4.79    6.55
  -7   5   0  175.96   52.01
  -7  -5   0   33.51   46.27
  -8   3  12   57.57   23.81
  -8   3  12   79.87   32.68
  -5  -5  -5    5.00    7.63
  -5   5  -5   67.06   29.25
  -5   5  -5   78.59   29.74
   0   1 -16   33.83   20.45
   0  -1 -16   39.91   18.36
   0  -1 -16    9.93    8.45
   0  -3 -14   32.07   19.97
   0  -3 -14   49.84   25.10
   0   3  14    6.29    7.84
   0   3  14   14.07   11.07
  -7   2 -11    4.62    8.39
  -7   2 -11    7.32    9.76
  -1  -2 -15   20.82   15.30
  -1   2 -15    3.03    5.12
  -1  -2 -15   22.83   16.30
 -10   1  -8  114.15   35.23
 -10  -1  -8  181.68   52.70
 -10   1  -8  214.38   58.47
   0   4  12    5.45   10.68
   0  -4 -12    1.12    4.18
   0   4 -12    0.90    3.55
   0  -4 -12   13.66   13.48
  -4  -4 -10    0.83    3.34
  -4   4 -10    2.27    4.02
  -4   4 -10    4.53    7.34
  -6   2 -12   21.63   15.72
  -6  -2 -12   19.84   12.00
  -6   2 -12    8.44   10.58
  -6   2 -12   18.55   15.33
;
loop_
_symmetry_equiv_pos_site_id
_space_group_symop_operation_xyz
1 +X,+Y,+Z
2 -X,1/2+Y,-Z
loop_
_atom_site_label
_atom_site_type_symbol
_atom_site_fract_x
_atom_site_fract_y
_atom_site_fract_z
_atom_site_U_iso_or_equiv
_atom_site_adp_type
_atom_site_occupancy
_atom_site_site_symmetry_multiplicity
_atom_site_calc_flag
_atom_site_refinement_flags
O1 O 1.0364(8) 0.847(2) 0.9345(6) 0.050(3) Uani 1 2 d .
C1 C 1.0754(10) 0.711(3) 0.8604(7) 0.029(3) Uani 1 2 d .
C2 C 1.1973(10) 0.754(3) 0.8471(8) 0.035(3) Uani 1 2 d .
C3 C 1.2474(10) 0.627(3) 0.7786(9) 0.039(3) Uani 1 2 d .
C4 C 1.1770(10) 0.415(3) 0.7181(8) 0.036(3) Uani 1 2 d .
C5 C 1.2163(10) 0.259(3) 0.6444(8) 0.038(3) Uani 1 2 d .
C6 C 1.1399(10) 0.075(3) 0.5934(8) 0.035(3) Uani 1 2 d .
C7 C 1.0169(9) 0.039(3) 0.6088(8) 0.032(3) Uani 1 2 d .
C8 C 0.9742(9) 0.189(3) 0.6768(7) 0.028(3) Uani 1 2 d .
C9 C 0.8581(9) 0.218(2) 0.7137(7) 0.025(2) Uani 1 2 d .
C10 C 0.7462(9) 0.075(3) 0.6848(7) 0.025(2) Uani 1 2 d .
C11 C 0.7269(10) -0.122(3) 0.6068(7) 0.034(3) Uani 1 2 d .
C12 C 0.6193(10) -0.256(3) 0.5795(8) 0.040(3) Uani 1 2 d .
C13 C 0.5225(9) -0.201(3) 0.6289(8) 0.039(3) Uani 1 2 d .
C14 C 0.5366(10) -0.017(3) 0.7040(8) 0.036(3) Uani 1 2 d .
C15 C 0.6468(9) 0.126(3) 0.7323(7) 0.029(3) Uani 1 2 d .
C16 C 0.6626(9) 0.339(3) 0.8104(7) 0.029(3) Uani 1 2 d .
C17 C 0.5658(10) 0.401(3) 0.8611(7) 0.031(3) Uani 1 2 d .
C18 C 0.5756(10) 0.598(3) 0.9305(8) 0.033(3) Uani 1 2 d .
C19 C 0.6813(11) 0.753(3) 0.9517(8) 0.039(3) Uani 1 2 d .
C20 C 0.7796(10) 0.693(2) 0.9069(7) 0.029(3) Uani 1 2 d .
C21 C 0.7713(9) 0.491(2) 0.8352(7) 0.028(3) Uani 1 2 d .
C22 C 0.8740(9) 0.416(3) 0.7888(7) 0.024(2) Uani 1 2 d .
C23 C 1.0003(10) 0.517(2) 0.8011(7) 0.028(2) Uani 1 2 d .
C24 C 1.0562(9) 0.385(2) 0.7316(7) 0.027(2) Uani 1 2 d .
H1 H 1.09287 0.94854 0.96354 0.0603 Uiso 1 2 calc R
H2 H 1.24634 0.88161 0.88917 0.0425 Uiso 1 2 calc R
H3 H 1.32751 0.67278 0.76968 0.0465 Uiso 1 2 calc R
H5 H 1.29621 0.28389 0.63091 0.0452 Uiso 1 2 calc R
H6 H 1.16819 -0.03533 0.54581 0.0424 Uiso 1 2 calc R
H7 H 0.96492 -0.09135 0.5707 0.0388 Uiso 1 2 calc R
H11 H 0.79186 -0.16056 0.5732 0.0407 Uiso 1 2 calc R
H12 H 0.60911 -0.38501 0.52739 0.0478 Uiso 1 2 calc R
H13 H 0.44653 -0.29287 0.6095 0.0467 Uiso 1 2 calc R
H14 H 0.47099 0.01448 0.73766 0.0434 Uiso 1 2 calc R
H17 H 0.49164 0.30011 0.84554 0.0367 Uiso 1 2 calc R
H18 H 0.51034 0.62972 0.96443 0.0394 Uiso 1 2 calc R
H19 H 0.68662 0.90018 0.99688 0.0467 Uiso 1 2 calc R
H20 H 0.85411 0.79083 0.92558 0.0350 Uiso 1 2 calc R
loop_
_atom_site_aniso_label
_atom_site_aniso_U_11
_atom_site_aniso_U_22
_atom_site_aniso_U_33
_atom_site_aniso_U_12
_atom_site_aniso_U_13
_atom_site_aniso_U_23
O1 0.038(5) 0.074(8) 0.041(5) -0.006(5) 0.012(4) -0.015(5)
C1 0.026(6) 0.040(7) 0.022(5) -0.005(5) 0.005(4) -0.003(5)
C2 0.026(6) 0.042(8) 0.036(5) -0.012(5) -0.001(4) 0.009(5)
C3 0.022(6) 0.055(9) 0.040(6) -0.017(6) 0.010(5) 0.004(6)
C4 0.019(5) 0.058(8) 0.033(5) -0.002(6) 0.007(4) 0.004(6)
C5 0.020(5) 0.055(8) 0.041(6) 0.005(6) 0.014(5) 0.008(6)
C6 0.022(5) 0.057(8) 0.030(5) -0.003(6) 0.013(4) 0.008(6)
C7 0.017(5) 0.050(7) 0.034(5) -0.000(5) 0.014(4) -0.010(5)
C8 0.017(5) 0.047(7) 0.023(5) 0.006(5) 0.010(4) -0.003(5)
C9 0.019(5) 0.037(6) 0.021(5) 0.008(5) 0.010(4) 0.009(4)
C10 0.014(5) 0.041(7) 0.023(4) 0.005(5) 0.008(3) -0.000(5)
C11 0.025(6) 0.053(8) 0.026(5) -0.010(6) 0.010(4) -0.001(5)
C12 0.024(6) 0.072(9) 0.024(5) -0.003(6) 0.006(4) -0.002(6)
C13 0.018(5) 0.069(9) 0.029(5) -0.002(6) 0.005(4) 0.003(6)
C14 0.019(5) 0.055(8) 0.035(6) 0.005(6) 0.006(4) 0.010(6)
C15 0.018(5) 0.049(8) 0.020(5) 0.005(5) 0.006(4) 0.007(5)
C16 0.019(5) 0.051(8) 0.018(4) 0.003(5) 0.009(4) 0.003(5)
C17 0.021(5) 0.043(7) 0.032(5) -0.001(5) 0.015(4) 0.003(5)
C18 0.026(6) 0.044(7) 0.033(6) 0.008(6) 0.017(4) 0.005(5)
C19 0.035(6) 0.059(9) 0.026(5) 0.012(6) 0.013(5) 0.010(6)
C20 0.021(5) 0.037(7) 0.031(5) 0.003(5) 0.009(4) -0.001(5)
C21 0.023(5) 0.044(7) 0.017(5) 0.015(5) 0.008(4) 0.005(4)
C22 0.017(5) 0.042(6) 0.014(4) 0.002(5) 0.004(3) 0.001(4)
C23 0.023(5) 0.038(6) 0.022(5) -0.001(5) 0.003(4) -0.004(4)
C24 0.014(5) 0.035(6) 0.031(5) -0.005(5) 0.005(4) 0.007(5)
loop_
_atom_type_symbol
_atom_type_description
_atom_type_scat_dispersion_real
_atom_type_scat_dispersion_imag
_atom_type_scat_source
C C 0.0181 0.0091
;
International Tables for Crystallography
(Vol. C, Tables 4.2.6.8 and 6.1.1.4)
;
H H 0.0000 0.0000
;
International Tables for Crystallography
(Vol. C, Table 6.1.1.4)
;
O O 0.0492 0.0322
;
International Tables for Crystallography
(Vol. C, Tables 4.2.6.8 and 6.1.1.4)
;
loop_
_geom_angle_atom_site_label_1
_geom_angle_atom_site_label_2
_geom_angle_atom_site_label_3
_geom_angle
_geom_angle_publ_flag
O1 C1 C2 118.3(10) yes
O1 C1 C23 121.7(10) yes
C2 C1 C23 119.9(10) yes
C1 C2 C3 123.9(11) yes
C2 C3 C4 119.0(11) yes
C3 C4 C5 126.4(11) yes
C3 C4 C24 114.9(11) yes
C5 C4 C24 118.5(11) yes
C4 C5 C6 119.5(11) yes
C5 C6 C7 121.9(12) yes
C6 C7 C8 120.7(10) yes
C7 C8 C9 137.5(10) yes
C7 C8 C24 117.3(10) yes
C9 C8 C24 105.2(9) yes
C8 C9 C10 129.2(10) yes
C8 C9 C22 109.0(9) yes
C10 C9 C22 121.8(10) yes
C9 C10 C11 122.8(10) yes
C9 C10 C15 120.3(10) yes
C11 C10 C15 116.8(10) yes
C10 C11 C12 122.2(11) yes
C11 C12 C13 119.4(12) yes
C12 C13 C14 120.7(11) yes
C13 C14 C15 120.7(11) yes
C10 C15 C14 120.2(10) yes
C10 C15 C16 117.9(9) yes
C14 C15 C16 121.9(10) yes
C15 C16 C17 120.8(10) yes
C15 C16 C21 121.8(9) yes
C17 C16 C21 117.4(10) yes
C16 C17 C18 122.4(10) yes
C17 C18 C19 119.6(11) yes
C18 C19 C20 119.8(12) yes
C19 C20 C21 121.3(10) yes
C16 C21 C20 119.2(10) yes
C16 C21 C22 117.8(10) yes
C20 C21 C22 122.8(9) yes
C9 C22 C21 120.0(9) yes
C9 C22 C23 107.3(9) yes
C21 C22 C23 132.6(10) yes
C1 C23 C22 137.4(10) yes
C1 C23 C24 114.6(10) yes
C22 C23 C24 108.0(9) yes
C4 C24 C8 122.0(10) yes
C4 C24 C23 127.4(10) yes
C8 C24 C23 110.5(9) yes
C1 O1 H1 109.471 no
C1 C2 H2 118.043 no
C3 C2 H2 118.057 no
C2 C3 H3 120.490 no
C4 C3 H3 120.483 no
C4 C5 H5 120.257 no
C6 C5 H5 120.248 no
C5 C6 H6 119.063 no
C7 C6 H6 119.062 no
C6 C7 H7 119.663 no
C8 C7 H7 119.667 no
C10 C11 H11 118.900 no
C12 C11 H11 118.890 no
C11 C12 H12 120.319 no
C13 C12 H12 120.315 no
C12 C13 H13 119.635 no
C14 C13 H13 119.638 no
C13 C14 H14 119.678 no
C15 C14 H14 119.667 no
C16 C17 H17 118.792 no
C18 C17 H17 118.784 no
C17 C18 H18 120.209 no
C19 C18 H18 120.204 no
C18 C19 H19 120.099 no
C20 C19 H19 120.095 no
C19 C20 H20 119.340 no
C21 C20 H20 119.329 no
loop_
_geom_bond_atom_site_label_1
_geom_bond_atom_site_label_2
_geom_bond_distance
_geom_bond_publ_flag
O1 C1 1.362(15) yes
C1 C2 1.418(16) yes
C1 C23 1.418(15) yes
C2 C3 1.342(18) yes
C3 C4 1.461(18) yes
C4 C5 1.410(18) yes
C4 C24 1.398(16) yes
C5 C6 1.344(17) yes
C6 C7 1.435(16) yes
C7 C8 1.351(16) yes
C8 C9 1.483(15) yes
C8 C24 1.435(15) yes
C9 C10 1.416(14) yes
C9 C22 1.411(15) yes
C10 C11 1.433(16) yes
C10 C15 1.413(15) yes
C11 C12 1.351(16) yes
C12 C13 1.407(16) yes
C13 C14 1.361(18) yes
C14 C15 1.400(15) yes
C15 C16 1.488(16) yes
C16 C17 1.426(16) yes
C16 C21 1.406(15) yes
C17 C18 1.351(17) yes
C18 C19 1.384(17) yes
C19 C20 1.389(17) yes
C20 C21 1.389(15) yes
C21 C22 1.461(15) yes
C22 C23 1.466(15) yes
C23 C24 1.400(16) yes
O1 H1 0.840 no
C2 H2 0.950 no
C3 H3 0.950 no
C5 H5 0.950 no
C6 H6 0.950 no
C7 H7 0.950 no
C11 H11 0.950 no
C12 H12 0.950 no
C13 H13 0.950 no
C14 H14 0.950 no
C17 H17 0.950 no
C18 H18 0.950 no
C19 H19 0.950 no
C20 H20 0.950 no
loop_
_geom_contact_atom_site_label_1
_geom_contact_atom_site_label_2
_geom_contact_distance
_geom_contact_publ_flag
_geom_contact_site_symmetry_2
O1 C20 2.906(14) no .
O1 C21 3.470(14) no .
O1 C22 3.219(14) no .
C1 C4 2.846(17) no .
C1 C20 3.471(16) no .
C1 C21 3.500(15) no .
C2 C24 2.707(15) no .
C3 C23 2.875(16) no .
C4 C7 2.796(17) no .
C5 C8 2.834(16) no .
C6 C24 2.742(17) no .
C7 C10 3.378(15) no .
C7 C11 3.314(16) no .
C7 C23 3.575(16) no .
C8 C11 3.130(15) no .
C9 C16 2.826(15) no .
C10 C13 2.805(15) no .
C10 C21 2.890(15) no .
C11 C14 2.765(17) no .
C12 C15 2.794(18) no .
C14 C17 2.958(17) no .
C15 C22 2.874(15) no .
C16 C19 2.799(17) no .
C17 C20 2.743(16) no .
C18 C21 2.800(16) no .
C20 C23 3.207(16) no .
O1 O1 3.248(15) no 2_747
O1 O1 3.248(15) no 2_757
O1 C20 3.178(14) no 2_757
O1 C21 3.532(12) no 2_757
C1 C8 3.479(16) no 1_565
C3 C6 3.408(17) no 1_565
C6 C3 3.408(17) no 1_545
C8 C1 3.479(16) no 1_545
C10 C20 3.549(15) no 1_545
C10 C21 3.523(16) no 1_545
C11 C22 3.538(15) no 1_545
C13 C16 3.506(16) no 1_545
C14 C17 3.568(18) no 1_545
C15 C19 3.493(16) no 1_545
C15 C20 3.336(15) no 1_545
C15 C21 3.596(17) no 1_545
C16 C13 3.506(16) no 1_565
C16 C19 3.466(18) no 1_545
C16 C20 3.596(17) no 1_545
C17 C14 3.568(18) no 1_565
C17 C19 3.574(19) no 1_545
C19 C15 3.493(16) no 1_565
C19 C16 3.466(18) no 1_565
C19 C17 3.574(19) no 1_565
C20 O1 3.178(14) no 2_747
C20 C10 3.549(15) no 1_565
C20 C15 3.336(15) no 1_565
C20 C16 3.596(17) no 1_565
C21 O1 3.532(12) no 2_747
C21 C10 3.523(16) no 1_565
C21 C15 3.596(17) no 1_565
C22 C11 3.538(15) no 1_565
O1 H2 2.5360 no .
O1 H20 2.0247 no .
C1 H3 3.2886 no .
C1 H20 2.8067 no .
C2 H1 2.3586 no .
C3 H5 2.7780 no .
C4 H2 3.2728 no .
C4 H6 3.2373 no .
C5 H3 2.7971 no .
C5 H7 3.2717 no .
C7 H5 3.2883 no .
C7 H11 2.6420 no .
C8 H6 3.2636 no .
C8 H11 2.8242 no .
C9 H7 2.9193 no .
C9 H11 2.6834 no .
C10 H7 3.2473 no .
C10 H12 3.2960 no .
C10 H14 3.2936 no .
C11 H7 2.7901 no .
C11 H13 3.2341 no .
C12 H14 3.2621 no .
C13 H11 3.2380 no .
C14 H12 3.2594 no .
C14 H17 2.6215 no .
C15 H11 3.2831 no .
C15 H13 3.2550 no .
C15 H17 2.6825 no .
C16 H14 2.6937 no .
C16 H18 3.2900 no .
C16 H20 3.2682 no .
C17 H14 2.6314 no .
C17 H19 3.2196 no .
C18 H20 3.2510 no .
C19 H17 3.2172 no .
C20 H18 3.2572 no .
C21 H17 3.2767 no .
C21 H19 3.2743 no .
C22 H20 2.6762 no .
C23 H1 3.1127 no .
C23 H2 3.2988 no .
C23 H20 2.9144 no .
C24 H3 3.2799 no .
C24 H5 3.2759 no .
C24 H7 3.2497 no .
H1 H2 2.1798 no .
H1 H20 2.7154 no .
H2 H3 2.2722 no .
H3 H5 2.6804 no .
H5 H6 2.2843 no .
H6 H7 2.3665 no .
H7 H11 1.9602 no .
H11 H12 2.2898 no .
H12 H13 2.3559 no .
H13 H14 2.3010 no .
H14 H17 2.0266 no .
H17 H18 2.2866 no .
H18 H19 2.3388 no .
H19 H20 2.3315 no .
O1 H1 2.9462 no 2_747
O1 H20 3.4322 no 2_747
O1 H20 3.0096 no 2_757
C1 H1 3.5813 no 2_747
C1 H19 3.3406 no 2_747
C1 H20 3.5606 no 2_747
C2 H18 3.5901 no 1_655
C2 H19 2.8706 no 2_747
C3 H6 3.5676 no 1_565
C3 H13 3.5359 no 1_665
C3 H14 3.2704 no 1_665
C3 H17 3.1340 no 1_655
C3 H18 3.4862 no 1_655
C3 H19 3.2328 no 2_747
C4 H2 3.5138 no 1_545
C4 H6 3.5886 no 1_565
C5 H3 3.4657 no 1_545
C5 H7 3.3224 no 2_756
C5 H11 3.0069 no 2_756
C5 H12 3.4155 no 2_756
C5 H13 3.4833 no 1_665
C5 H14 3.1122 no 1_655
C6 H3 3.4896 no 1_545
C6 H7 2.8533 no 2_756
C6 H11 2.8677 no 2_756
C6 H12 3.5220 no 2_756
C7 H6 3.3825 no 2_756
C7 H7 3.1082 no 2_756
C8 H6 3.4410 no 2_756
C10 H12 3.5790 no 1_565
C10 H20 3.5824 no 1_545
C11 H5 3.2667 no 2_746
C11 H6 3.2988 no 2_746
C12 H5 3.2221 no 2_746
C12 H6 3.4717 no 2_746
C12 H12 3.2368 no 2_656
C12 H13 3.4291 no 2_656
C13 H3 3.2398 no 1_445
C13 H5 3.5782 no 1_445
C13 H5 3.4720 no 1_455
C13 H12 2.8206 no 2_656
C14 H3 3.0619 no 1_445
C14 H5 3.0486 no 1_455
C14 H12 3.3438 no 2_656
C15 H20 3.5657 no 1_545
C16 H19 3.3281 no 1_545
C17 H3 3.0137 no 1_455
C17 H14 3.5262 no 1_565
C17 H18 3.0123 no 2_647
C17 H19 3.2257 no 1_545
C18 H2 3.0488 no 2_747
C18 H3 3.2012 no 1_455
C18 H14 3.3772 no 1_565
C18 H17 3.4602 no 2_657
C18 H18 2.9784 no 2_647
C18 H18 3.2274 no 2_657
C18 H19 3.4037 no 2_647
C19 H1 2.9598 no 2_747
C19 H2 2.8467 no 2_747
C19 H17 3.5557 no 1_565
C19 H18 3.2064 no 2_657
C20 H1 2.3761 no 2_747
C20 H2 3.2615 no 2_747
C21 H1 2.8921 no 2_747
C22 H1 3.3616 no 2_747
C22 H11 3.5964 no 1_565
C24 H7 3.4244 no 1_565
H1 O1 2.9462 no 2_757
H1 C1 3.5813 no 2_757
H1 C19 2.9598 no 2_757
H1 C20 2.3761 no 2_757
H1 C21 2.8921 no 2_757
H1 C22 3.3616 no 2_757
H1 H1 3.4859 no 2_747
H1 H1 3.4859 no 2_757
H1 H19 3.2757 no 2_757
H1 H20 3.5816 no 2_747
H1 H20 2.2739 no 2_757
H2 C4 3.5138 no 1_565
H2 C18 3.0488 no 2_757
H2 C19 2.8467 no 2_757
H2 C20 3.2615 no 2_757
H2 H17 3.5618 no 1_665
H2 H18 3.1670 no 1_655
H2 H18 3.2763 no 2_757
H2 H19 2.8612 no 2_747
H2 H19 3.0146 no 2_757
H2 H20 3.5969 no 2_757
H3 C5 3.4657 no 1_565
H3 C6 3.4896 no 1_565
H3 C13 3.2398 no 1_665
H3 C14 3.0619 no 1_665
H3 C17 3.0137 no 1_655
H3 C18 3.2012 no 1_655
H3 H5 3.5468 no 1_565
H3 H6 3.5454 no 1_565
H3 H13 2.7909 no 1_665
H3 H14 2.4181 no 1_665
H3 H17 2.6539 no 1_655
H3 H18 3.0383 no 1_655
H3 H19 3.5162 no 2_747
H5 C11 3.2667 no 2_756
H5 C12 3.2221 no 2_756
H5 C13 3.4720 no 1_655
H5 C13 3.5782 no 1_665
H5 C14 3.0486 no 1_655
H5 H3 3.5468 no 1_545
H5 H11 2.8030 no 2_756
H5 H12 2.7299 no 2_756
H5 H13 3.3386 no 1_655
H5 H13 2.7238 no 1_665
H5 H14 2.5645 no 1_655
H5 H17 3.3083 no 1_655
H6 C3 3.5676 no 1_545
H6 C4 3.5886 no 1_545
H6 C7 3.3825 no 2_746
H6 C8 3.4410 no 2_746
H6 C11 3.2988 no 2_756
H6 C12 3.4717 no 2_756
H6 H3 3.5454 no 1_545
H6 H7 3.3672 no 2_746
H6 H7 2.9356 no 2_756
H6 H11 3.5580 no 2_746
H6 H11 2.5649 no 2_756
H6 H12 2.9442 no 2_756
H6 H13 3.2990 no 1_655
H7 C5 3.3224 no 2_746
H7 C6 2.8533 no 2_746
H7 C7 3.1082 no 2_746
H7 C24 3.4244 no 1_545
H7 H6 2.9356 no 2_746
H7 H6 3.3672 no 2_756
H7 H7 3.3264 no 2_746
H7 H7 3.3264 no 2_756
H11 C5 3.0069 no 2_746
H11 C6 2.8677 no 2_746
H11 C22 3.5964 no 1_545
H11 H5 2.8030 no 2_746
H11 H6 2.5649 no 2_746
H11 H6 3.5580 no 2_756
H12 C5 3.4155 no 2_746
H12 C6 3.5220 no 2_746
H12 C10 3.5790 no 1_545
H12 C12 3.2368 no 2_646
H12 C13 2.8206 no 2_646
H12 C14 3.3438 no 2_646
H12 H5 2.7299 no 2_746
H12 H6 2.9442 no 2_746
H12 H12 3.4354 no 2_646
H12 H12 3.4354 no 2_656
H12 H13 2.7420 no 2_646
H12 H13 3.4629 no 2_656
H13 C3 3.5359 no 1_445
H13 C5 3.4833 no 1_445
H13 C12 3.4291 no 2_646
H13 H3 2.7909 no 1_445
H13 H5 2.7238 no 1_445
H13 H5 3.3386 no 1_455
H13 H6 3.2990 no 1_455
H13 H12 3.4629 no 2_646
H13 H12 2.7420 no 2_656
H14 C3 3.2704 no 1_445
H14 C5 3.1122 no 1_455
H14 C17 3.5262 no 1_545
H14 C18 3.3772 no 1_545
H14 H3 2.4181 no 1_445
H14 H5 2.5645 no 1_455
H17 C3 3.1340 no 1_455
H17 C18 3.4602 no 2_647
H17 C19 3.5557 no 1_545
H17 H2 3.5618 no 1_445
H17 H3 2.6539 no 1_455
H17 H5 3.3083 no 1_455
H17 H18 2.7528 no 2_647
H17 H19 3.3394 no 1_545
H17 H19 3.2502 no 2_647
H18 C2 3.5901 no 1_455
H18 C3 3.4862 no 1_455
H18 C17 3.0123 no 2_657
H18 C18 3.2274 no 2_647
H18 C18 2.9784 no 2_657
H18 C19 3.2064 no 2_647
H18 H2 3.1670 no 1_455
H18 H2 3.2763 no 2_747
H18 H3 3.0383 no 1_455
H18 H17 2.7528 no 2_657
H18 H18 2.6777 no 2_647
H18 H18 2.6777 no 2_657
H18 H19 2.6098 no 2_647
H19 C1 3.3406 no 2_757
H19 C2 2.8706 no 2_757
H19 C3 3.2328 no 2_757
H19 C16 3.3281 no 1_565
H19 C17 3.2257 no 1_565
H19 C18 3.4037 no 2_657
H19 H1 3.2757 no 2_747
H19 H2 3.0146 no 2_747
H19 H2 2.8612 no 2_757
H19 H3 3.5162 no 2_757
H19 H17 3.3394 no 1_565
H19 H17 3.2502 no 2_657
H19 H18 2.6098 no 2_657
H20 O1 3.0096 no 2_747
H20 O1 3.4322 no 2_757
H20 C1 3.5606 no 2_757
H20 C10 3.5824 no 1_565
H20 C15 3.5657 no 1_565
H20 H1 2.2739 no 2_747
H20 H1 3.5816 no 2_757
H20 H2 3.5969 no 2_747
loop_
_geom_torsion_atom_site_label_1
_geom_torsion_atom_site_label_2
_geom_torsion_atom_site_label_3
_geom_torsion_atom_site_label_4
_geom_torsion
_geom_torsion_publ_flag
O1 C1 C2 C3 178.0(10) no
O1 C1 C23 C22 6(2) no
O1 C1 C23 C24 -176.8(9) no
C2 C1 C23 C22 -178.1(10) no
C2 C1 C23 C24 -0.8(15) no
C23 C1 C2 C3 1.8(17) no
C1 C2 C3 C4 -4.5(18) no
C2 C3 C4 C5 -179.0(11) no
C2 C3 C4 C24 6.0(16) no
C3 C4 C5 C6 -178.8(11) no
C3 C4 C24 C8 179.0(9) no
C3 C4 C24 C23 -5.5(17) no
C5 C4 C24 C8 3.5(17) no
C5 C4 C24 C23 179.0(10) no
C24 C4 C5 C6 -3.9(17) no
C4 C5 C6 C7 2.6(18) no
C5 C6 C7 C8 -0.9(18) no
C6 C7 C8 C9 179.3(11) no
C6 C7 C8 C24 0.5(16) no
C7 C8 C9 C10 1(2) no
C7 C8 C9 C22 179.5(12) no
C7 C8 C24 C4 -1.8(15) no
C7 C8 C24 C23 -178.0(9) no
C9 C8 C24 C4 179.0(8) no
C9 C8 C24 C23 2.9(11) no
C24 C8 C9 C10 179.8(9) no
C24 C8 C9 C22 -1.6(11) no
C8 C9 C10 C11 -3.3(17) no
C8 C9 C10 C15 177.6(9) no
C8 C9 C22 C21 177.6(8) no
C8 C9 C22 C23 -0.2(11) no
C10 C9 C22 C21 -3.6(15) no
C10 C9 C22 C23 178.6(9) no
C22 C9 C10 C11 178.2(9) no
C22 C9 C10 C15 -1.0(15) no
C9 C10 C11 C12 -179.5(9) no
C9 C10 C15 C14 -179.6(9) no
C9 C10 C15 C16 2.0(15) no
C11 C10 C15 C14 1.2(15) no
C11 C10 C15 C16 -177.2(9) no
C15 C10 C11 C12 -0.3(16) no
C10 C11 C12 C13 -0.1(18) no
C11 C12 C13 C14 -0.5(19) no
C12 C13 C14 C15 1.5(18) no
C13 C14 C15 C10 -1.9(17) no
C13 C14 C15 C16 176.5(10) no
C10 C15 C16 C17 179.9(9) no
C10 C15 C16 C21 1.5(15) no
C14 C15 C16 C17 1.5(16) no
C14 C15 C16 C21 -176.9(10) no
C15 C16 C17 C18 -178.2(9) no
C15 C16 C21 C20 178.3(9) no
C15 C16 C21 C22 -5.9(14) no
C17 C16 C21 C20 -0.1(14) no
C17 C16 C21 C22 175.7(8) no
C21 C16 C17 C18 0.2(16) no
C16 C17 C18 C19 2.1(17) no
C17 C18 C19 C20 -4.6(17) no
C18 C19 C20 C21 4.8(17) no
C19 C20 C21 C16 -2.4(15) no
C19 C20 C21 C22 -178.0(9) no
C16 C21 C22 C9 6.9(14) no
C16 C21 C22 C23 -175.9(9) no
C20 C21 C22 C9 -177.5(9) no
C20 C21 C22 C23 -0.3(17) no
C9 C22 C23 C1 179.4(11) no
C9 C22 C23 C24 2.0(11) no
C21 C22 C23 C1 2(2) no
C21 C22 C23 C24 -175.5(10) no
C1 C23 C24 C4 3.0(15) no
C1 C23 C24 C8 178.9(8) no
C22 C23 C24 C4 -178.9(9) no
C22 C23 C24 C8 -3.1(11) no
