#------------------------------------------------------------------------------
#$Date: 2017-07-25 13:46:02 +0300 (Tue, 25 Jul 2017) $
#$Revision: 199327 $
#$URL: file:///home/coder/svn-repositories/cod/cif/1/54/67/1546731.cif $
#------------------------------------------------------------------------------
#
# This file is available in the Crystallography Open Database (COD),
# http://www.crystallography.net/. The original data for this entry
# were provided by IUCr Journals, http://journals.iucr.org/.
#
# The file may be used within the scientific community so long as
# proper attribution is given to the journal article from which the
# data were obtained.
#
data_1546731
loop_
_publ_author_name
'Liebing, Phil'
_publ_section_title
;
 Di-\m-chlorido-bis[bis(tetrahydrothiophene-\k<i>S</i>)silver(I)]
;
_journal_coeditor_code           BT4051
_journal_issue                   6
_journal_name_full               IUCrData
_journal_page_first              x170921
_journal_paper_doi               10.1107/S241431461700921X
_journal_volume                  2
_journal_year                    2017
_chemical_formula_iupac          '[Ag2 Cl2 (C4 H8 S2)4]'
_chemical_formula_moiety         'C16 H32 Ag2 Cl2 S4'
_chemical_formula_sum            'C16 H32 Ag2 Cl2 S4'
_chemical_formula_weight         639.29
_chemical_name_systematic
;
Di-\m-chlorido-bis[bis(tetrahydrothiophene-\k<i>S</i>)silver(I)]
;
_space_group_crystal_system      triclinic
_space_group_IT_number           2
_space_group_name_Hall           '-P 1'
_space_group_name_H-M_alt        'P -1'
_symmetry_space_group_name_Hall  '-P 1'
_symmetry_space_group_name_H-M   'P -1'
_atom_sites_solution_hydrogens   geom
_atom_sites_solution_primary     heavy
_atom_sites_solution_secondary   difmap
_audit_creation_method           SHELXL-2014/7
_cell_angle_alpha                114.710(9)
_cell_angle_beta                 102.121(10)
_cell_angle_gamma                92.239(11)
_cell_formula_units_Z            1
_cell_length_a                   6.1921(8)
_cell_length_b                   9.9443(13)
_cell_length_c                   10.3761(12)
_cell_measurement_reflns_used    5660
_cell_measurement_temperature    200(2)
_cell_measurement_theta_max      29.189
_cell_measurement_theta_min      3.966
_cell_volume                     561.66(13)
_computing_cell_refinement
;
X-AREA (Stoe & Cie, 2002)
;
_computing_data_collection
;
X-AREA (Stoe & Cie, 2002)
;
_computing_data_reduction
;
X-AREA and X-RED (Stoe & Cie, 2002)
;
_computing_molecular_graphics
;
DIAMOND (Brandenburg, 1999)
;
_computing_publication_material
;
publCIF (Westrip, 2010)
;
_computing_structure_refinement
;
SHELXL2014 (Sheldrick, 2015)
;
_computing_structure_solution
;
SIR97 (Altamore et al., 1999)
;
_diffrn_ambient_temperature      200(2)
_diffrn_measured_fraction_theta_full 0.987
_diffrn_measured_fraction_theta_max 0.987
_diffrn_measurement_device_type  'Stoe IPDS 2T'
_diffrn_measurement_method       'area detector'
_diffrn_radiation_type           MoK\a
_diffrn_radiation_wavelength     0.71073
_diffrn_reflns_av_R_equivalents  0.0939
_diffrn_reflns_limit_h_max       7
_diffrn_reflns_limit_h_min       -7
_diffrn_reflns_limit_k_max       11
_diffrn_reflns_limit_k_min       -11
_diffrn_reflns_limit_l_max       12
_diffrn_reflns_limit_l_min       -12
_diffrn_reflns_number            3765
_diffrn_reflns_theta_full        24.996
_diffrn_reflns_theta_max         24.996
_diffrn_reflns_theta_min         3.966
_exptl_absorpt_coefficient_mu    2.352
_exptl_absorpt_correction_T_max  0.910
_exptl_absorpt_correction_T_min  0.398
_exptl_absorpt_correction_type   numerical
_exptl_absorpt_process_details
;
(X-AREA and X-RED; Stoe & Cie, 2002)
;
_exptl_crystal_colour            colorless
_exptl_crystal_density_diffrn    1.890
_exptl_crystal_description       needle
_exptl_crystal_F_000             320
_exptl_crystal_size_max          0.500
_exptl_crystal_size_mid          0.050
_exptl_crystal_size_min          0.050
_refine_diff_density_max         1.391
_refine_diff_density_min         -1.526
_refine_ls_extinction_method     none
_refine_ls_goodness_of_fit_ref   0.875
_refine_ls_hydrogen_treatment    constr
_refine_ls_matrix_type           full
_refine_ls_number_parameters     109
_refine_ls_number_reflns         1954
_refine_ls_number_restraints     0
_refine_ls_restrained_S_all      0.875
_refine_ls_R_factor_all          0.0694
_refine_ls_R_factor_gt           0.0500
_refine_ls_shift/su_max          0.000
_refine_ls_shift/su_mean         0.000
_refine_ls_structure_factor_coef Fsqd
_refine_ls_weighting_details
'w=1/[\s^2^(Fo^2^)+(0.0669P)^2^] where P=(Fo^2^+2Fc^2^)/3'
_refine_ls_weighting_scheme      calc
_refine_ls_wR_factor_gt          0.1208
_refine_ls_wR_factor_ref         0.1251
_reflns_number_gt                1314
_reflns_number_total             1954
_reflns_threshold_expression     'I > 2\s(I)'
_cod_data_source_file            bt4051sup1.cif
_cod_data_source_block           I
_cod_database_code               1546731
_shelx_space_group_comment
;
The symmetry employed for this shelxl refinement is uniquely defined
by the following loop, which should always be used as a source of
symmetry information in preference to the above space-group names.
They are only intended as comments.
;
_shelx_estimated_absorpt_t_min   0.386
_shelx_estimated_absorpt_t_max   0.891
_shelx_hkl_file
;
  -2   0   0 5856.36   76.27   0
   2   0   0 5655.20   81.20   0
  -3   0   0 2392.17   49.65   0
  -4   0   0  354.54   44.80   0
  -5   0   0 2363.43   58.27   0
  -6   0   0   47.54   50.10   0
  -7   0   0  205.57   63.04   0
  -8   0   0   39.92   78.34   0
  -8   1   0   72.05   56.94   0
  -7   1   0    5.46   57.83   0
  -6   1   0  181.57   37.09   0
  -5   1   0   57.62   48.21   0
  -4   1   0  113.83   32.16   0
   4  -1   0  156.62   34.42   0
  -3   1   0 2613.45   58.11   0
   3  -1   0 2556.36   60.47   0
   2  -1   0 2379.44   53.66   0
  -2   1   0 2739.10   55.91   0
  -1  -1   0 1800.16  121.69   0
  -3  -1   0  538.98   37.37   0
  -4  -1   0 3397.42   51.72   0
  -5  -1   0  697.86   40.64   0
  -6  -1   0  271.67   51.79   0
  -7  -1   0  171.53   48.21   0
  -8  -1   0    4.31   87.86   0
  -8  -1   0   21.41   59.97   0
  -8   2   0   -2.92   68.94   0
  -7   2   0  158.99   57.61   0
  -6   2   0  384.82   51.56   0
   6  -2   0  368.85   38.40   0
   5  -2   0    4.39   36.07   0
  -5   2   0    7.43   35.10   0
   4  -2   0  598.54   36.99   0
  -4   2   0  626.07   36.45   0
   3  -2   0 1905.57   45.97   0
  -3   2   0 2022.21   55.77   0
  -2   2   0 1032.67   44.49   0
   2  -2   0  947.23   54.60   0
   1  -2   0 3419.61   68.41   0
  -1   2   0 3629.50   76.64   0
   0  -2   0 1389.20   50.60   0
   0   2   0 1369.79   59.34   0
   1   2   0   65.54   31.23   0
  -1  -2   0   69.76   31.53   0
  -2  -2   0 2342.82   47.97   0
  -3  -2   0  635.02   64.36   0
  -4  -2   0  875.02   59.79   0
  -4  -2   0  797.75   37.35   0
  -5  -2   0   32.67   37.83   0
  -5  -2   0    9.48   54.59   0
  -6  -2   0   34.92   58.51   0
  -6  -2   0   21.82   40.75   0
  -7  -2   0   56.90   87.50   0
  -7  -2   0  109.60   66.99   0
  -8   3   0   15.27   75.90   0
  -7   3   0  397.71   65.01   0
  -6   3   0  301.55   37.57   0
   6  -3   0  280.93   40.54   0
  -5   3   0  191.24   36.42   0
   5  -3   0  168.43   37.48   0
  -4   3   0 3686.61   60.39   0
   4  -3   0 3469.90   62.36   0
   3  -3   0  268.04   44.81   0
  -3   3   0  308.59   32.30   0
  -2   3   0 7575.00   82.28   0
   2  -3   0 6913.55   74.31   0
   1  -3   0  872.68   41.13   0
  -1   3   0 1063.58   54.01   0
   0   3   0 1334.55   52.40   0
   0  -3   0 1157.75   41.02   0
   1   3   0 3349.04   60.40   0
  -1  -3   0 4080.65   63.53   0
  -2  -3   0  113.56   31.00   0
  -3  -3   0 1461.74   39.60   0
  -4  -3   0  -16.29   35.43   0
  -4  -3   0    3.08   41.36   0
  -5  -3   0   15.73   37.03   0
  -5  -3   0   38.29   47.43   0
  -6  -3   0   35.82   51.95   0
  -6  -3   0   59.94   58.10   0
  -7  -3   0    4.18   69.12   0
  -7  -3   0   29.92   72.57   0
  -8   4   0   12.64   56.86   0
   7  -4   0  157.30   51.29   0
  -7   4   0  134.17   60.57   0
  -6   4   0   92.10   48.72   0
   6  -4   0  105.10   39.05   0
  -5   4   0 1302.27   53.99   0
   5  -4   0 1156.81   42.52   0
  -4   4   0 1086.63   38.63   0
   4  -4   0 1011.68   47.84   0
   3  -4   0 1380.89   41.79   0
  -3   4   0 1749.92   52.95   0
   2  -4   0 3184.31   54.09   0
  -2   4   0 3549.83   62.51   0
   1  -4   0   30.37   30.81   0
  -1   4   0   43.42   29.71   0
   0   4   0 6331.88   68.46   0
   0  -4   0 8609.32   83.09   0
  -1  -4   0 2231.91   46.25   0
   1   4   0 1756.51   43.30   0
   2   4   0 2579.68  104.48   0
  -2  -4   0 2338.63   52.88   0
  -3  -4   0  435.59   32.53   0
  -4  -4   0   36.35   44.96   0
  -5  -4   0  519.73   43.80   0
  -5  -4   0  425.37   48.10   0
  -6  -4   0    5.17   62.28   0
  -6  -4   0   35.25   53.52   0
  -7  -4   0   94.59   55.77   0
  -7  -4   0   74.63   57.69   0
  -7   5   0   73.82   52.07   0
   7  -5   0   41.79   63.07   0
   6  -5   0   67.59   56.96   0
  -6   5   0   58.98   39.69   0
  -5   5   0  437.97   50.29   0
   5  -5   0  360.85   37.75   0
   4  -5   0   69.30   46.30   0
  -4   5   0   54.20   43.66   0
  -3   5   0  400.83   34.94   0
   3  -5   0  339.90   35.99   0
   2  -5   0 2895.79   61.10   0
  -2   5   0 2306.84   47.73   0
  -1   5   0  420.14   32.11   0
   1  -5   0  479.20   33.62   0
   0  -5   0 2843.67   48.04   0
   0   5   0 2252.90   44.52   0
  -1  -5   0   53.43   30.37   0
   1   5   0   44.19   29.62   0
   2   5   0  577.53   62.08   0
  -2  -5   0  619.12   32.79   0
  -3  -5   0  389.38   48.19   0
  -4  -5   0  229.91   45.84   0
  -5  -5   0  581.93   46.97   0
  -5  -5   0  411.24   45.66   0
  -6  -5   0   -0.29   63.98   0
  -6  -5   0    4.56   48.54   0
  -7  -5   0   14.73   61.84   0
  -7   6   0   68.73   51.72   0
   7  -6   0   35.28   53.97   0
   6  -6   0  382.11   46.33   0
  -6   6   0  390.96   57.40   0
   5  -6   0    2.78   51.69   0
  -5   6   0   12.96   35.08   0
  -4   6   0  162.69   49.27   0
   4  -6   0  147.95   37.00   0
   3  -6   0  733.24   37.20   0
  -3   6   0  823.93   37.19   0
   2  -6   0   13.55   31.95   0
  -2   6   0    4.48   30.61   0
   1  -6   0 1424.63   40.68   0
  -1   6   0 1265.19   49.07   0
   0  -6   0  -10.32   30.29   0
   0   6   0   -0.70   29.53   0
   1   6   0  113.29   30.69   0
  -1  -6   0  174.97   30.93   0
   2   6   0  359.12   36.10   0
  -2  -6   0  570.01   48.59   0
  -3  -6   0   86.87   47.88   0
  -4  -6   0  237.10   51.23   0
  -5  -6   0   29.93   61.50   0
  -6  -6   0   11.33   64.75   0
  -6  -6   0   -3.92   51.30   0
   7  -7   0  143.49   78.71   0
  -7   7   0  247.47   56.74   0
  -6   7   0  134.67   48.79   0
   6  -7   0  123.07   50.06   0
   5  -7   0    9.80   54.55   0
  -5   7   0    6.61   54.16   0
  -4   7   0  726.05   39.13   0
   4  -7   0  577.75   41.97   0
   3  -7   0  139.17   51.10   0
  -3   7   0  179.84   46.71   0
   2  -7   0 2556.66   48.55   0
  -2   7   0 2513.17   46.97   0
  -1   7   0  190.80   44.94   0
   1  -7   0  264.88   35.47   0
   0   7   0   47.31   42.83   0
   0  -7   0   43.80   34.17   0
  -1  -7   0  580.74   38.62   0
   1   7   0  368.63   37.52   0
   2   7   0   22.58   49.83   0
  -2  -7   0   79.61   35.46   0
  -3  -7   0  366.07   36.50   0
  -4  -7   0   -1.94   52.18   0
  -5  -7   0   10.55   47.11   0
  -6  -7   0   -3.25   54.59   0
  -6  -7   0   18.86   58.49   0
   7  -8   0   43.07   63.58   0
  -6   8   0   97.89   55.06   0
   6  -8   0   99.35   75.65   0
  -5   8   0   81.77   44.63   0
   5  -8   0  124.90   43.64   0
   4  -8   0 1036.31   46.18   0
  -4   8   0 1182.11   44.90   0
   3  -8   0   80.46   54.02   0
  -3   8   0   61.76   50.63   0
   2  -8   0  871.05   41.45   0
  -2   8   0  603.05   38.58   0
   1  -8   0  261.73   50.98   0
  -1   8   0  252.44   51.48   0
   0  -8   0  338.52   37.85   0
   0   8   0  280.23   50.48   0
   1   8   0  640.14   48.59   0
  -1  -8   0 1004.21   41.28   0
  -2  -8   0  291.18   51.49   0
   2   8   0  223.81   54.24   0
  -3  -8   0  279.12   41.94   0
  -4  -8   0    5.25   45.45   0
  -5  -8   0   10.77   52.74   0
  -6   9   0  -10.40   55.81   0
   6  -9   0   -1.71   72.50   0
  -5   9   0  273.50   62.08   0
   5  -9   0  217.18   54.99   0
  -4   9   0   12.68   40.54   0
   4  -9   0   17.88   47.87   0
  -3   9   0  139.61   39.52   0
   3  -9   0  155.37   43.06   0
  -2   9   0  219.51   41.21   0
   2  -9   0  289.93   42.68   0
  -1   9   0   39.25   36.36   0
   1  -9   0   88.34   39.51   0
   0   9   0  755.84   43.93   0
   0  -9   0 1250.69   59.18   0
  -1  -9   0    5.03   57.71   0
   1   9   0   41.11   52.25   0
  -2  -9   0  158.79   56.46   0
   2   9   0  112.82   43.98   0
  -3  -9   0  100.93   47.75   0
  -4  -9   0   -7.63   54.32   0
  -5  10   0  -24.03   69.85   0
   5 -10   0   19.75   62.12   0
  -4  10   0   76.91   49.84   0
   4 -10   0   74.46   71.37   0
  -3  10   0   45.38   53.90   0
   3 -10   0   29.90   46.97   0
  -2  10   0   12.12   40.16   0
   2 -10   0   29.02   43.42   0
   1 -10   0  294.12   43.82   0
  -1  10   0  210.02   41.96   0
   0 -10   0    9.16   44.18   0
   0  10   0    3.19   43.00   0
  -1 -10   0   65.82   47.71   0
   1  10   0   27.37   46.96   0
   2  10   0   11.26   49.56   0
  -2 -10   0   11.79   61.19   0
   2  10   0    2.08   77.53   0
  -3 -10   0   54.02   54.16   0
   4 -11   0   31.87   59.78   0
  -4  11   0   37.62   56.68   0
   3 -11   0   34.39   54.36   0
  -3  11   0   54.96   51.76   0
   2 -11   0  177.23   48.06   0
  -2  11   0   75.65   49.18   0
  -1  11   0  135.57   64.74   0
   1 -11   0  163.38   60.63   0
   0  11   0   37.94   49.06   0
   0 -11   0   27.29   50.87   0
  -1 -11   0  -13.49   52.79   0
   1  11   0    2.52   53.58   0
  -2 -11   0   16.12   56.21   0
   2  11   0    9.23   92.61   0
   3 -12   0   -8.39   65.07   0
  -3  12   0   29.80   59.61   0
   2 -12   0  145.67   74.92   0
  -2  12   0  123.63   58.19   0
   1 -12   0   74.80   69.97   0
  -1  12   0   38.70   55.71   0
   0 -12   0   10.01   70.76   0
   0  12   0    3.14   75.25   0
  -1 -12   1   83.83   59.86   0
   1  12  -1   82.65   71.03   0
   0 -12   1   18.69   58.52   0
   0  12  -1   -4.25   55.69   0
  -1  12  -1   33.45   52.41   0
   1 -12   1  -10.11   65.81   0
   2 -12   1   43.33   53.07   0
  -2  12  -1   -1.10   51.66   0
  -3  12  -1   90.89   54.09   0
   3 -12   1   80.54   55.87   0
  -3 -11   1   13.64   82.26   0
   2  11  -1   15.85   81.99   0
  -2 -11   1   11.05   67.62   0
   2  11  -1   10.75   55.74   0
  -1 -11   1    8.03   67.09   0
   1  11  -1   40.21   61.35   0
   0  11  -1  -28.09   59.02   0
   0 -11   1   20.49   48.18   0
   1 -11   1  129.44   64.44   0
  -1  11  -1   46.43   63.42   0
  -2  11  -1   22.71   46.25   0
   2 -11   1   39.77   66.54   0
   3 -11   1   16.95   46.44   0
  -3  11  -1   13.71   46.97   0
  -4  11  -1   31.92   53.78   0
   4 -11   1   26.40   55.67   0
   5 -11   1    0.18   80.22   0
  -5  11  -1   -1.51   60.82   0
  -4 -10   1   11.88   67.55   0
   3  10  -1   -1.00   95.19   0
  -3 -10   1   56.90   68.15   0
   2  10  -1   11.60   59.10   0
   2  10  -1    6.99   69.27   0
  -2 -10   1    4.78   48.81   0
  -1 -10   1   24.65   44.82   0
   1  10  -1    7.48   55.03   0
   0  10  -1   91.41   44.32   0
   0 -10   1  130.77   54.31   0
  -1  10  -1  -11.68   40.03   0
   1 -10   1  -12.11   40.90   0
  -2  10  -1   11.97   41.08   0
   2 -10   1    5.64   42.64   0
   3 -10   1   24.29   43.67   0
  -3  10  -1   27.16   57.44   0
  -4  10  -1   14.49   62.10   0
   4 -10   1   27.90   66.57   0
   5 -10   1  -14.50   56.46   0
  -5  10  -1  -13.09   55.21   0
  -5  -9   1  -27.55   55.43   0
  -4  -9   1  -33.00   66.32   0
  -3  -9   1   53.79   61.14   0
   3   9  -1   27.29   80.92   0
   2   9  -1   57.99   41.41   0
   2   9  -1   44.98   65.78   0
  -2  -9   1  116.94   41.36   0
   1   9  -1  210.08   55.85   0
  -1  -9   1  356.99   56.75   0
   0   9  -1  137.42   50.42   0
   0  -9   1  193.91   53.68   0
   1  -9   1   62.73   36.24   0
  -1   9  -1   25.20   36.45   0
  -2   9  -1  126.95   51.96   0
   2  -9   1  141.49   36.57   0
  -3   9  -1   27.30   41.20   0
   3  -9   1   31.69   42.37   0
   4  -9   1   18.29   45.61   0
  -4   9  -1   15.56   41.13   0
  -5   9  -1    1.38   61.23   0
   5  -9   1   -9.26   49.19   0
  -6   9  -1  -12.21   57.66   0
   6  -9   1   11.47   58.74   0
  -5  -8   1    9.73   48.18   0
  -4  -8   1   28.36   44.48   0
  -3  -8   1  211.26   40.07   0
   3   8  -1  194.74   68.71   0
  -2  -8   1   45.14   35.74   0
   2   8  -1   20.22   35.13   0
   2   8  -1   30.60   40.40   0
   1   8  -1  288.65   50.55   0
  -1  -8   1  426.92   38.67   0
   0   8  -1   99.32   34.67   0
   0  -8   1  104.53   48.53   0
  -1   8  -1   -7.37   35.15   0
   1  -8   1   15.47   35.74   0
   2  -8   1  709.41   54.53   0
  -2   8  -1  614.78   39.10   0
   3  -8   1   39.21   37.59   0
  -3   8  -1   35.68   35.90   0
   4  -8   1  250.51   44.47   0
  -4   8  -1  295.50   43.18   0
   5  -8   1    9.90   41.16   0
  -5   8  -1   27.97   57.50   0
   6  -8   1   21.31   64.16   0
  -6   8  -1    3.86   49.07   0
   7  -8   1  -10.46   63.13   0
  -7   8  -1   59.23   60.60   0
  -6  -7   1    2.35   57.16   0
  -6  -7   1   41.67   50.91   0
  -5  -7   1   36.95   60.87   0
  -4  -7   1   55.12   51.61   0
  -3  -7   1  285.38   37.19   0
  -2  -7   1   24.47   34.79   0
   2   7  -1   -6.43   60.91   0
   2   7  -1   19.25   34.84   0
   1   7  -1   54.82   33.89   0
  -1  -7   1   55.66   33.50   0
   0   7  -1  563.67   33.35   0
   0  -7   1  863.16   46.92   0
   1  -7   1  270.71   32.64   0
  -1   7  -1  188.26   31.41   0
  -2   7  -1  983.10   39.58   0
   2  -7   1 1001.31   40.81   0
  -3   7  -1   -0.69   34.50   0
   3  -7   1   -0.10   35.98   0
  -4   7  -1  448.88   54.10   0
   4  -7   1  349.82   38.95   0
   5  -7   1  317.17   42.98   0
  -5   7  -1  435.74   51.93   0
   6  -7   1   45.64   45.06   0
  -6   7  -1   43.85   45.10   0
   7  -7   1   46.98   71.49   0
  -7   7  -1   42.07   58.43   0
  -6  -6   1   12.34   51.87   0
  -6  -6   1   24.39   49.54   0
  -5  -6   1    1.07   41.26   0
  -4  -6   1  180.55   38.12   0
  -3  -6   1   69.38   33.96   0
   2   6  -1   66.61   50.07   0
   2   6  -1   48.67   29.72   0
  -2  -6   1   52.00   41.13   0
  -1  -6   1  278.84   42.63   0
   1   6  -1  194.34   40.54   0
   0  -6   1   22.99   30.58   0
   0   6  -1   11.26   29.99   0
  -1   6  -1 1934.02   42.80   0
   1  -6   1 2057.39   43.87   0
   2  -6   1  137.33   32.08   0
  -2   6  -1  150.23   31.46   0
   3  -6   1   22.99   34.52   0
  -3   6  -1   46.40   32.99   0
  -4   6  -1  761.53   40.17   0
   4  -6   1  663.32   41.01   0
  -5   6  -1    5.35   35.52   0
   5  -6   1   14.48   38.81   0
  -6   6  -1  159.03   45.03   0
   6  -6   1  247.12   46.51   0
  -7   6  -1  102.33   52.07   0
   7  -6   1   38.20   52.64   0
  -7  -5   1   50.87   57.99   0
  -7  -5   1   19.26   61.62   0
  -6  -5   1   14.03   59.68   0
  -6  -5   1   18.09   63.71   0
  -5  -5   1  113.82   41.64   0
  -5  -5   1  260.45   40.03   0
  -4  -5   1   -0.19   35.81   0
  -3  -5   1  167.45   30.31   0
  -2  -5   1 1030.99   36.78   0
   2   5  -1  734.48   44.41   0
   2   5  -1 1363.46   64.30   0
  -1  -5   1   51.40   40.21   0
   1   5  -1   30.55   28.74   0
   0   5  -1 1949.00   55.23   0
   0  -5   1 2058.98   46.39   0
   1  -5   1  -24.70   31.30   0
  -1   5  -1   -5.83   30.61   0
   2  -5   1  307.79   33.40   0
  -2   5  -1  388.98   33.51   0
   3  -5   1  757.90   47.84   0
  -3   5  -1  860.70   36.08   0
  -4   5  -1   10.74   33.11   0
   4  -5   1   36.33   46.91   0
   5  -5   1  245.60   37.81   0
  -5   5  -1  265.17   37.11   0
  -6   5  -1   15.16   53.30   0
   6  -5   1   52.46   55.46   0
   7  -5   1   -4.49   48.12   0
  -7   5  -1    6.35   49.48   0
  -7  -4   1   50.63   54.36   0
  -7  -4   1   58.61   53.04   0
  -6  -4   1   -3.20   53.32   0
  -6  -4   1  -10.18   54.84   0
  -5  -4   1  218.74   52.96   0
  -5  -4   1  147.18   35.40   0
  -4  -4   1  200.16   44.81   0
  -3  -4   1  340.34   41.60   0
   2   4  -1 1781.42   69.05   0
  -2  -4   1 1822.75   50.50   0
   2   4  -1 1443.07   40.42   0
  -1  -4   1  491.76   32.68   0
   1   4  -1  437.15   32.60   0
   0  -4   1 3871.19   58.51   0
   0   4  -1 3502.38   63.54   0
   1  -4   1   24.84   30.62   0
  -1   4  -1   30.12   29.86   0
  -2   4  -1 2066.91   46.56   0
   2  -4   1 1978.30   55.85   0
  -3   4  -1 1503.07   40.97   0
   3  -4   1 1372.32   41.12   0
  -4   4  -1 1000.79   47.44   0
   4  -4   1  955.87   48.61   0
   5  -4   1  238.05   38.83   0
  -5   4  -1  226.12   48.61   0
  -6   4  -1  -20.15   39.58   0
   6  -4   1    8.28   39.76   0
  -7   4  -1   73.40   47.74   0
   7  -4   1   73.79   61.94   0
  -8   4  -1   24.01   60.65   0
  -7  -3   1   24.63   62.98   0
  -7  -3   1  -11.10   49.10   0
  -6  -3   1   -3.39   67.63   0
  -6  -3   1   -8.29   54.40   0
  -6  -3   1   25.31   52.36   0
  -5  -3   1  185.44   52.53   0
  -5  -3   1  103.07   35.73   0
  -5  -3   1  129.13   37.91   0
  -4  -3   1   49.46   30.31   0
  -4  -3   1   38.15   36.04   0
  -4  -3   1   59.84   48.13   0
  -3  -3   1 2247.96   76.39   0
  -3  -3   1 1375.66   50.53   0
  -2  -3   1  181.49   42.14   0
  -1  -3   1 1072.74   42.58   0
   1   3  -1 1050.68   51.16   0
   0  -3   1 4607.33   70.28   0
   0   3  -1 4967.40   72.13   0
   1  -3   1  -16.08   42.12   0
  -1   3  -1  -22.82   44.68   0
  -2   3  -1 8165.37   76.91   0
   2  -3   1 7458.90   74.49   0
  -3   3  -1  229.29   31.64   0
   3  -3   1  225.16   32.28   0
   4  -3   1  894.08   49.89   0
  -4   3  -1  925.74   37.13   0
  -5   3  -1  997.11   50.97   0
   5  -3   1  918.69   53.96   0
  -6   3  -1    0.24   54.01   0
   6  -3   1   14.57   39.48   0
  -7   3  -1  346.91   48.19   0
  -8   3  -1   12.40   74.50   0
  -8  -2   1    3.28   92.82   0
  -8  -2   1   39.07   73.53   0
  -8  -2   1    6.41   58.40   0
  -7  -2   1   13.12   50.75   0
  -7  -2   1   19.61   63.44   0
  -6  -2   1   65.91   56.54   0
  -6  -2   1   21.37   39.25   0
  -5  -2   1    4.15   36.32   0
  -5  -2   1   16.08   51.30   0
  -4  -2   1  790.44   51.95   0
  -3  -2   1    5.06   30.31   0
  -2  -2   1  612.23   57.02   0
  -2  -2   1  361.34   42.91   0
  -1  -2   1 1317.57   57.82   0
   1   2  -1 1390.49   67.86   0
   1   2  -1 1170.24   57.41   0
   0  -2   1    5.45   33.13   0
   0   2  -1   -2.41   31.66   0
  -1   2  -1 2973.32   62.86   0
   1  -2   1 2174.08   56.98   0
   2  -2   1 3177.80   64.72   0
  -2   2  -1 3373.43   62.48   0
   3  -2   1  110.04   44.91   0
  -3   2  -1   95.03   31.38   0
   4  -2   1  600.72   35.50   0
  -4   2  -1  620.17   34.89   0
   5  -2   1  269.36   38.03   0
  -5   2  -1  253.23   48.35   0
  -6   2  -1  535.93   41.77   0
  -7   2  -1  173.55   44.69   0
  -8   2  -1   23.79   61.58   0
  -8  -1   1   16.40   58.16   0
  -8  -1   1   -3.16   83.08   0
  -7  -1   1   17.34   63.98   0
  -6  -1   1  341.85   37.88   0
  -5  -1   1  357.54   38.35   0
  -4  -1   1  785.00   38.47   0
  -3  -1   1  374.09   36.86   0
  -2  -1   1 2410.50   56.88   0
  -1  -1   1 2244.36   69.61   0
  -1  -1   1 3040.59   84.19   0
  -1   1  -1  332.66   38.95   0
   1  -1   1  346.57   40.81   0
   2  -1   1  630.77   38.54   0
  -2   1  -1  549.36   39.73   0
  -3   1  -1  967.69   51.08   0
   3  -1   1  975.62   51.98   0
  -4   1  -1  305.15   32.97   0
   4  -1   1  299.34   46.26   0
  -5   1  -1  340.81   50.50   0
  -6   1  -1   97.74   41.28   0
  -7   1  -1  -23.77   60.83   0
  -8   1  -1  -33.60   60.54   0
  -8   0   1   -9.22   76.19   0
  -7   0   1  264.09   62.74   0
  -6   0   1    5.28   49.25   0
  -5   0   1  649.22   38.66   0
  -4   0   1  725.11   38.16   0
   3   0  -1   26.05   31.72   0
  -3   0   1   26.53   30.65   0
   2   0  -1 6525.69   88.08   0
  -2   0   1 7128.09   97.47   0
  -1   0  -1 1254.69   64.60   0
  -2   0  -1 3926.19   63.24   0
  -3   0  -1 3288.67   60.66   0
  -4   0  -1   34.25   31.90   0
  -5   0  -1  395.94   39.90   0
  -6   0  -1  -16.67   42.65   0
  -7   0  -1   26.65   47.61   0
  -8   0  -1   25.49   61.43   0
  -8   1   1   10.46   56.06   0
  -7   1   1   76.13   62.35   0
  -6   1   1  -12.33   34.13   0
  -5   1   1   58.07   44.68   0
   5  -1  -1   59.21   33.25   0
   4  -1  -1  807.68   48.82   0
  -4   1   1  860.24   39.10   0
  -3   1   1  872.98   40.74   0
   3  -1  -1  848.94   51.17   0
   2  -1  -1 2602.94   59.81   0
  -2   1   1 2916.27   61.30   0
   1  -1  -1 3808.15   94.15   0
  -1   1   1 4093.97   88.73   0
  -3  -1  -1  850.41   48.90   0
  -4  -1  -1  387.67   34.52   0
  -5  -1  -1  552.53   54.78   0
  -6  -1  -1   14.54   40.76   0
  -7  -1  -1  305.73   67.79   0
  -7  -1  -1  265.55   88.38   0
  -8   2   1   33.02   56.46   0
  -7   2   1   20.77   47.16   0
   6  -2  -1   19.31   46.00   0
  -6   2   1    7.01   35.11   0
  -5   2   1  194.34   34.70   0
   5  -2  -1  187.23   33.84   0
  -4   2   1  258.34   33.83   0
   4  -2  -1  304.98   47.82   0
   3  -2  -1 2024.58   60.89   0
  -3   2   1 2222.50   60.89   0
   2  -2  -1    2.23   27.63   0
  -2   2   1    1.88   30.01   0
  -1   2   1  499.31   39.65   0
   1  -2  -1  548.41   53.16   0
   0   2   1 2698.49   65.86   0
   0  -2  -1 3127.30   62.75   0
  -1  -2  -1  230.68   30.91   0
  -2  -2  -1 1383.37   47.91   0
  -4  -2  -1  345.83   47.67   0
  -5  -2  -1  547.74   52.26   0
  -6  -2  -1   52.99   55.46   0
  -7  -2  -1   80.81   64.17   0
  -7  -2  -1  100.34   50.83   0
  -8   3   1   17.30   57.51   0
   7  -3  -1  108.64   62.75   0
  -7   3   1  112.93   49.32   0
  -6   3   1  510.18   41.61   0
   6  -3  -1  517.89   41.86   0
   5  -3  -1   45.72   34.42   0
  -5   3   1   32.17   45.23   0
   4  -3  -1 2849.60   51.17   0
  -4   3   1 3237.34   61.73   0
  -3   3   1   88.09   31.60   0
   3  -3  -1   73.18   33.00   0
  -2   3   1 2778.09   52.82   0
   2  -3  -1 2513.88   59.13   0
  -1   3   1 3039.57   62.69   0
   1  -3  -1 3399.45   61.35   0
   0  -3  -1    6.90   30.69   0
   0   3   1    4.84   29.84   0
  -1  -3  -1 3559.92   54.39   0
   1   3   1 2951.57   57.87   0
  -2  -3  -1    1.16   28.26   0
  -3  -3  -1  155.75   29.63   0
  -4  -3  -1  457.91   37.45   0
  -4  -3  -1  747.05   51.21   0
  -5  -3  -1  -21.20   46.13   0
  -5  -3  -1   19.96   36.49   0
  -6  -3  -1  248.36   64.58   0
  -6  -3  -1  109.61   45.93   0
  -7  -3  -1  -23.90   72.90   0
  -7  -3  -1   13.55   51.88   0
  -8   4   1   17.49   59.05   0
  -7   4   1  190.13   64.45   0
   7  -4  -1  174.83   50.01   0
  -6   4   1  269.18   39.54   0
   6  -4  -1  321.69   40.65   0
   5  -4  -1  710.72   51.50   0
  -5   4   1  730.51   38.60   0
  -4   4   1 1206.38   50.81   0
   4  -4  -1 1061.40   40.51   0
   3  -4  -1   -6.58   33.32   0
  -3   4   1   17.21   43.80   0
   2  -4  -1 4246.66   59.22   0
  -2   4   1 4394.62   59.20   0
   1  -4  -1  960.84   40.73   0
  -1   4   1  871.28   49.82   0
   0  -4  -1 5263.16   63.43   0
   0   4   1 3975.71   56.00   0
  -1  -4  -1 1486.55   48.94   0
   1   4   1 1067.54   36.94   0
  -2  -4  -1  348.89   32.10   0
  -3  -4  -1 1468.93   41.05   0
  -4  -4  -1   69.75   48.90   0
  -5  -4  -1  524.52   54.95   0
  -5  -4  -1  348.47   41.30   0
  -6  -4  -1   12.87   47.35   0
  -6  -4  -1    4.40   47.06   0
  -7  -4  -1   33.58   75.89   0
  -7  -4  -1   18.70   58.47   0
   8  -5  -1   51.30   83.71   0
  -7   5   1  104.96   49.79   0
   7  -5  -1  111.17   70.41   0
   6  -5  -1   29.34   59.55   0
  -6   5   1   -4.31   58.21   0
   5  -5  -1  175.64   49.76   0
  -5   5   1  200.32   35.42   0
   4  -5  -1  623.73   38.62   0
  -4   5   1  459.23   36.36   0
   3  -5  -1  147.07   35.63   0
  -3   5   1  153.36   33.76   0
   2  -5  -1 2778.38   51.27   0
  -2   5   1 2055.34   45.54   0
  -1   5   1   63.94   31.02   0
   1  -5  -1   89.02   46.21   0
   0  -5  -1 3177.69   51.55   0
   0   5   1 2353.70   55.56   0
  -1  -5  -1  636.64   45.00   0
   1   5   1  424.26   32.50   0
  -2  -5  -1  413.79   34.43   0
  -3  -5  -1  835.59   38.90   0
  -4  -5  -1  248.05   46.16   0
  -5  -5  -1  244.66   47.22   0
  -5  -5  -1  275.39   43.20   0
  -6  -5  -1   18.60   65.93   0
  -6  -5  -1    2.27   49.88   0
   7  -6  -1  -15.41   72.47   0
  -7   6   1   11.71   51.72   0
  -6   6   1   68.25   45.01   0
   6  -6  -1   37.44   47.76   0
  -5   6   1  109.90   38.94   0
   5  -6  -1   92.44   40.49   0
  -4   6   1    6.79   47.71   0
   4  -6  -1   10.83   49.83   0
   3  -6  -1 1854.13   45.12   0
  -3   6   1 2053.25   54.90   0
   2  -6  -1  148.83   34.41   0
  -2   6   1  143.31   31.67   0
   1  -6  -1  353.18   34.07   0
  -1   6   1  243.86   32.61   0
   0  -6  -1  875.96   47.38   0
   0   6   1  619.30   33.91   0
  -1  -6  -1    5.99   33.26   0
   1   6   1   -9.84   33.05   0
  -2  -6  -1  964.78   39.80   0
  -3  -6  -1   49.65   33.52   0
  -4  -6  -1  114.13   55.75   0
  -5  -6  -1   59.32   49.30   0
  -5  -6  -1  154.46   58.77   0
  -6  -6  -1    3.53   55.19   0
  -6  -6  -1   19.95   68.21   0
   7  -7  -1  125.13   72.69   0
  -7   7   1   36.28   59.33   0
  -6   7   1  410.92   50.88   0
   6  -7  -1  314.10   53.10   0
  -5   7   1   41.17   42.52   0
   5  -7  -1   31.95   56.68   0
  -4   7   1 1318.49   42.66   0
   4  -7  -1 1308.77   43.65   0
   3  -7  -1  262.54   39.13   0
  -3   7   1  221.26   46.49   0
  -2   7   1  522.83   37.77   0
   2  -7  -1  577.29   49.98   0
   1  -7  -1 1012.84   51.23   0
  -1   7   1  802.62   48.33   0
   0  -7  -1    4.65   34.54   0
   0   7   1    7.63   32.93   0
   1   7   1  863.02   40.23   0
  -1  -7  -1 1232.87   43.23   0
  -2  -7  -1  163.74   51.83   0
  -3  -7  -1  114.37   40.15   0
  -4  -7  -1   94.36   48.04   0
  -5  -7  -1  -12.19   52.56   0
   6  -8  -1  301.61   56.61   0
  -6   8   1  333.88   53.59   0
   5  -8  -1   54.11   51.18   0
  -5   8   1   85.14   49.38   0
   4  -8  -1  657.47   48.94   0
  -4   8   1  625.30   45.91   0
   3  -8  -1   16.02   38.31   0
  -3   8   1   -6.36   49.08   0
   2  -8  -1  669.31   49.67   0
  -2   8   1  591.94   51.05   0
   1  -8  -1  790.57   43.17   0
  -1   8   1  593.79   40.86   0
   0  -8  -1  788.33   52.92   0
   0   8   1  558.89   40.18   0
   1   8   1  425.03   39.97   0
  -1  -8  -1  647.07   42.64   0
  -2  -8  -1   74.71   40.25   0
  -3  -8  -1  297.83   62.03   0
  -4  -8  -1   34.02   50.24   0
  -5  -8  -1   78.32   60.17   0
   6  -9  -1    9.17   86.72   0
  -6   9   1   12.82   59.42   0
   5  -9  -1   94.88   56.80   0
  -5   9   1   17.99   50.23   0
  -4   9   1  100.82   56.32   0
   4  -9  -1  162.61   51.47   0
   3  -9  -1    1.42   41.20   0
  -3   9   1  -14.76   38.40   0
  -2   9   1  620.60   56.41   0
   2  -9  -1  766.30   44.97   0
   1  -9  -1   29.72   42.32   0
  -1   9   1   11.83   40.83   0
   0  -9  -1  496.66   45.19   0
   0   9   1  320.15   42.14   0
   1   9   1   74.46   45.45   0
  -1  -9  -1  176.13   44.35   0
  -2  -9  -1   30.35   48.40   0
  -3  -9  -1  238.24   52.25   0
  -4  -9  -1    6.18   59.22   0
  -5  10   1   32.70   69.10   0
   5 -10  -1  -28.77   64.46   0
   4 -10  -1   12.73   72.96   0
  -4  10   1   14.13   53.44   0
   3 -10  -1  150.51   50.93   0
  -3  10   1  140.49   48.00   0
  -2  10   1  112.44   58.54   0
   2 -10  -1  129.84   59.37   0
  -1  10   1   65.03   43.49   0
   1 -10  -1  119.69   45.31   0
   0  10   1   32.25   45.46   0
   0 -10  -1   42.85   48.72   0
  -1 -10  -1   17.01   51.54   0
   1  10   1   24.71   45.81   0
   2  10   1   -6.24   89.90   0
  -2 -10  -1  140.68   54.38   0
  -3 -10  -1   53.20   59.87   0
  -4  11   1   14.22   77.12   0
   4 -11  -1   96.75   83.77   0
  -3  11   1  105.33   56.98   0
   3 -11  -1  125.73   60.79   0
   2 -11  -1  110.28   57.71   0
  -2  11   1  118.54   65.10   0
   1 -11  -1   49.60   53.42   0
  -1  11   1   88.07   52.67   0
   0 -11  -1   13.01   70.24   0
   0  11   1   -5.38   52.00   0
  -1 -11  -1  130.15   74.76   0
   1  11   1   16.54   54.79   0
   1 -13   2   40.79   59.94   0
  -1  13  -2   32.76   58.61   0
   2  12  -2   17.66   69.85   0
  -2 -12   2    7.31   61.23   0
   2  12  -2   45.25   74.86   0
   1  12  -2  107.91   55.85   0
  -1 -12   2  165.74   69.22   0
   0 -12   2   88.97   52.44   0
   0  12  -2   78.39   54.07   0
  -1  12  -2  278.02   72.44   0
   1 -12   2  362.26   53.56   0
  -2  12  -2   72.49   50.60   0
   2 -12   2  112.11   54.24   0
   3 -12   2   66.32   53.54   0
  -3  12  -2   25.09   50.53   0
  -4  12  -2   79.35   69.07   0
   4 -12   2   42.66   56.84   0
   3  11  -2    8.47   94.28   0
  -3 -11   2    1.62   53.56   0
  -2 -11   2  -33.66   64.23   0
   2  11  -2   29.41   49.54   0
   2  11  -2   19.11   72.97   0
  -1 -11   2  230.06   50.01   0
   1  11  -2  148.78   61.56   0
   0  11  -2   32.55   64.81   0
   0 -11   2   30.69   47.61   0
  -1  11  -2   95.87   61.78   0
   1 -11   2  219.55   62.42   0
   2 -11   2   15.35   45.74   0
  -2  11  -2    9.56   45.47   0
  -3  11  -2   51.77   49.45   0
   3 -11   2   66.11   50.90   0
   4 -11   2  219.73   54.17   0
  -4  11  -2  315.15   51.16   0
   5 -11   2   14.63   76.17   0
  -5  11  -2   -6.25   59.83   0
  -4 -10   2    7.50   52.17   0
   3  10  -2   10.18   82.68   0
  -3 -10   2   16.57   47.77   0
   2  10  -2   36.35   50.18   0
  -2 -10   2  142.96   44.15   0
   2  10  -2   73.21   47.33   0
   1  10  -2   24.49   56.73   0
  -1 -10   2   14.45   42.44   0
   0 -10   2  165.66   41.18   0
   0  10  -2   98.34   41.23   0
  -1  10  -2  -14.50   39.51   0
   1 -10   2   -9.23   39.50   0
  -2  10  -2  -10.10   39.79   0
   2 -10   2    3.86   51.52   0
  -3  10  -2   54.16   43.34   0
   3 -10   2   85.13   44.54   0
   4 -10   2  -27.84   50.99   0
  -4  10  -2  -17.46   64.05   0
   5 -10   2   80.95   53.29   0
  -5  10  -2   64.74   69.93   0
  -5  -9   2   22.76   65.89   0
  -4  -9   2   43.84   45.60   0
  -3  -9   2  466.45   45.52   0
   3   9  -2  381.56   78.48   0
   2   9  -2   77.71   56.71   0
  -2  -9   2  139.69   40.89   0
   2   9  -2   90.20   65.95   0
  -1  -9   2  521.98   49.87   0
   1   9  -2  320.70   52.53   0
   0   9  -2  138.50   50.34   0
   0  -9   2  176.82   36.21   0
  -1   9  -2   12.78   44.11   0
   1  -9   2   -7.25   34.27   0
  -2   9  -2  559.97   38.15   0
   2  -9   2  603.52   41.49   0
  -3   9  -2   64.18   51.38   0
   3  -9   2   60.48   42.22   0
  -4   9  -2  166.67   45.00   0
   4  -9   2  204.57   56.43   0
  -5   9  -2    5.81   62.70   0
   5  -9   2   30.92   46.13   0
  -6   9  -2   22.62   54.09   0
   6  -9   2  -21.97   67.17   0
  -6  -8   2   24.02   64.76   0
  -6  -8   2    3.38   80.04   0
  -5  -8   2  126.31   58.87   0
  -4  -8   2   48.35   41.28   0
  -3  -8   2  473.81   41.01   0
   3   8  -2  493.08   68.85   0
   2   8  -2    6.70   38.91   0
   2   8  -2    8.46   56.93   0
  -2  -8   2   24.06   35.02   0
  -1  -8   2  557.05   49.60   0
   1   8  -2  402.74   51.63   0
   0   8  -2  830.73   40.00   0
   0  -8   2  975.82   41.10   0
  -1   8  -2  587.49   50.61   0
   1  -8   2  662.01   39.44   0
  -2   8  -2 1323.37   53.09   0
   2  -8   2 1303.81   52.41   0
  -3   8  -2   56.23   46.51   0
   3  -8   2   63.49   36.25   0
  -4   8  -2  187.88   39.60   0
   4  -8   2  263.43   42.01   0
  -5   8  -2    6.87   56.30   0
   5  -8   2   28.45   61.42   0
   6  -8   2   60.77   50.38   0
  -6   8  -2  123.79   49.32   0
  -7   8  -2   62.86   76.03   0
   7  -8   2  109.02   64.49   0
  -6  -7   2   17.60   53.73   0
  -6  -7   2  -19.32   56.03   0
  -5  -7   2   -2.29   44.14   0
  -4  -7   2  205.04   49.78   0
   3   7  -2    6.82   53.86   0
  -3  -7   2   12.52   35.12   0
  -2  -7   2   17.36   33.27   0
   2   7  -2   21.78   34.54   0
   2   7  -2    0.88   59.10   0
  -1  -7   2 1099.76   36.75   0
   1   7  -2  698.40   34.72   0
   0   7  -2  257.03   31.17   0
   0  -7   2  313.26   31.68   0
   1  -7   2 1197.97   37.69   0
  -1   7  -2 1164.66   37.10   0
   2  -7   2   44.96   44.32   0
  -2   7  -2   30.78   45.23   0
   3  -7   2   83.10   37.26   0
  -3   7  -2   81.53   46.15   0
   4  -7   2  698.41   54.67   0
  -4   7  -2  844.58   50.96   0
   5  -7   2   38.60   42.70   0
  -5   7  -2   83.28   56.01   0
  -6   7  -2  355.39   45.99   0
   6  -7   2  292.74   64.18   0
  -7   7  -2  -19.94   57.04   0
   7  -7   2   30.91   66.93   0
  -7  -6   2   41.17   77.99   0
  -7  -6   2   29.79   76.12   0
  -6  -6   2    4.45   65.01   0
  -6  -6   2   14.35   50.79   0
  -5  -6   2  373.60   40.24   0
  -4  -6   2   13.08   46.96   0
  -3  -6   2    5.52   32.41   0
   3   6  -2   10.78   49.02   0
  -2  -6   2  251.60   31.16   0
   2   6  -2  180.24   39.95   0
   2   6  -2  184.33   31.93   0
  -1  -6   2   53.95   44.17   0
   1   6  -2   47.57   31.65   0
   0   6  -2 1505.54   40.44   0
   0  -6   2 1898.40   52.53   0
   1  -6   2   48.04   30.84   0
  -1   6  -2   45.15   30.91   0
   2  -6   2   64.94   31.50   0
  -2   6  -2   90.57   30.65   0
  -3   6  -2  286.97   44.57   0
   3  -6   2  240.31   35.95   0
  -4   6  -2  195.26   36.48   0
   4  -6   2  227.87   37.68   0
   5  -6   2   21.72   50.91   0
  -5   6  -2   34.96   35.89   0
   6  -6   2   -1.13   61.81   0
  -6   6  -2   35.61   43.03   0
  -7   6  -2    1.35   53.74   0
   7  -6   2   26.68   53.84   0
  -7  -5   2   83.19   54.82   0
  -7  -5   2   66.28   58.29   0
  -6  -5   2    6.84   43.28   0
  -6  -5   2   24.41   63.55   0
  -5  -5   2  196.76   35.49   0
  -4  -5   2   10.87   44.55   0
  -3  -5   2  415.37   33.46   0
  -2  -5   2 1077.88   46.76   0
   2   5  -2 1438.29   60.79   0
   2   5  -2  780.28   37.07   0
   1   5  -2 1213.35   48.43   0
  -1  -5   2 1393.78   39.88   0
   0  -5   2 1783.34   54.86   0
   0   5  -2 1494.33   43.25   0
   1  -5   2  -63.48   45.10   0
  -1   5  -2  -86.10   45.46   0
   2  -5   2  281.71   45.10   0
  -2   5  -2  237.65   32.09   0
  -3   5  -2  636.56   45.50   0
   3  -5   2  612.64   34.59   0
  -4   5  -2  401.19   36.91   0
   4  -5   2  461.64   50.48   0
  -5   5  -2    3.02   53.43   0
   5  -5   2   11.90   37.70   0
   6  -5   2   15.80   43.66   0
  -6   5  -2    6.08   40.29   0
   7  -5   2   -3.82   59.62   0
  -7   5  -2    4.80   48.72   0
  -7  -4   2   25.94   51.65   0
  -7  -4   2    4.01   48.24   0
  -6  -4   2   -8.58   62.27   0
  -6  -4   2   -4.07   43.56   0
  -5  -4   2   73.49   34.10   0
  -5  -4   2  138.74   50.06   0
  -4  -4   2   67.41   30.90   0
  -3  -4   2 1356.20   40.20   0
   2   4  -2  304.54   37.67   0
   2   4  -2  173.61   43.58   0
  -2  -4   2  239.36   41.99   0
   1   4  -2  286.27   32.48   0
  -1  -4   2  378.10   42.93   0
   0  -4   2 1303.60   50.82   0
   0   4  -2 1177.64   42.70   0
   1  -4   2  243.36   32.52   0
  -1   4  -2  221.07   32.30   0
  -2   4  -2 3342.63   52.88   0
   2  -4   2 4319.20   57.78   0
  -3   4  -2   39.22   41.05   0
   3  -4   2   15.10   44.54   0
   4  -4   2  312.82   46.79   0
  -4   4  -2  321.34   47.39   0
   5  -4   2   31.68   37.19   0
  -5   4  -2   20.67   36.23   0
   6  -4   2  -31.56   60.61   0
  -6   4  -2   10.15   52.92   0
   7  -4   2   88.91   61.39   0
  -7   4  -2   86.52   49.47   0
  -8  -3   2   49.51   81.82   0
  -8  -3   2   -1.47   60.66   0
  -7  -3   2    5.48   65.55   0
  -7  -3   2    4.16   48.08   0
  -7  -3   2   19.54   60.71   0
  -6  -3   2   20.94   60.51   0
  -6  -3   2   20.55   40.78   0
  -6  -3   2    7.28   48.99   0
  -5  -3   2  107.23   49.65   0
  -5  -3   2  124.22   49.58   0
  -5  -3   2   45.83   46.43   0
  -4  -3   2  150.74   35.89   0
  -4  -3   2   78.87   32.18   0
  -4  -3   2  150.87   49.09   0
  -3  -3   2  313.68   45.25   0
  -3  -3   2  526.53   48.96   0
   2   3  -2  175.28   34.95   0
  -2  -3   2  138.44   39.30   0
  -2  -3   2  161.28   35.49   0
  -1  -3   2  558.60   37.24   0
   1   3  -2  647.12   58.33   0
   0  -3   2 5373.16   77.84   0
   0   3  -2 5091.93   76.67   0
   1  -3   2  310.38   33.54   0
  -1   3  -2  405.80   46.42   0
  -2   3  -2 2029.52   54.07   0
   2  -3   2 1837.37   44.35   0
   3  -3   2   25.49   30.88   0
  -3   3  -2   46.95   40.99   0
  -4   3  -2  237.92   32.03   0
   4  -3   2  224.31   46.18   0
  -5   3  -2  814.42   40.80   0
   5  -3   2  848.17   41.27   0
  -6   3  -2   74.19   56.80   0
   6  -3   2   78.34   42.61   0
  -7   3  -2   16.86   46.04   0
  -8  -2   2   40.58   58.87   0
  -8  -2   2   29.80   73.04   0
  -8  -2   2   24.53   83.04   0
  -7  -2   2   33.40   66.91   0
  -7  -2   2   12.77   50.00   0
  -6  -2   2   38.67   38.72   0
  -6  -2   2   25.80   55.13   0
  -5  -2   2  220.55   36.24   0
  -5  -2   2  241.74   40.56   0
  -4  -2   2  291.30   46.15   0
  -4  -2   2  251.67   35.88   0
  -3  -2   2   28.47   43.37   0
  -2  -2   2    2.38   30.84   0
  -2  -2   2    6.46   26.67   0
   1   2  -2  776.76   52.28   0
  -1  -2   2  757.59   51.62   0
  -1  -2   2  532.74   40.29   0
   0  -2   2 1106.56   51.45   0
   1  -2   2 1622.00   50.17   0
  -1   2  -2 1688.30   59.76   0
   2  -2   2    3.17   43.45   0
  -2   2  -2  -12.30   40.82   0
  -3   2  -2  177.82   31.19   0
   3  -2   2  243.19   32.04   0
  -4   2  -2 1123.29   47.44   0
   4  -2   2 1162.56   50.47   0
  -5   2  -2   58.57   36.26   0
   5  -2   2   69.99   50.21   0
  -6   2  -2   36.23   41.71   0
  -7   2  -2    6.52   62.99   0
  -8  -1   2  -16.38   56.96   0
  -8  -1   2   -0.86   71.94   0
  -7  -1   2  208.00   60.86   0
  -6  -1   2   10.37   48.43   0
  -5  -1   2  168.25   33.81   0
  -4  -1   2  109.10   47.09   0
  -3  -1   2    5.90   45.03   0
  -2  -1   2 2521.72   72.78   0
  -1  -1   2  404.04   61.43   0
  -1  -1   2  273.65   53.91   0
   0  -1   2 1048.14   67.44   0
   0   1  -2 1082.09   67.30   0
   0  -1   2   -2.65   36.79   0
  -1   1  -2  206.42   39.51   0
   1  -1   2  176.03   43.81   0
  -2   1  -2   90.40   31.71   0
   2  -1   2   99.66   32.04   0
  -3   1  -2   52.27   30.32   0
   3  -1   2   42.49   41.14   0
  -4   1  -2    3.68   31.96   0
  -5   1  -2  165.84   47.45   0
  -6   1  -2   16.73   41.96   0
  -7   1  -2   39.31   47.43   0
  -8   0   2  -11.16   75.75   0
  -7   0   2   96.37   44.54   0
  -6   0   2   -4.08   37.47   0
  -5   0   2   88.02   31.86   0
  -4   0   2 1347.50   52.15   0
  -3   0   2 1060.68   54.15   0
   3   0  -2 1048.84   44.04   0
  -2   0   2 6359.79   98.32   0
   2   0  -2 6712.87  100.81   0
   1   0  -2  400.16   67.75   0
  -1   0   2  512.76   66.67   0
  -1   0  -2 3004.84   81.36   0
  -1   0  -2 1915.93   53.89   0
  -2   0  -2  547.92   36.45   0
  -3   0  -2 1703.72   42.66   0
  -4   0  -2  198.77   36.05   0
  -5   0  -2   23.87   45.45   0
  -6   0  -2   65.25   57.60   0
  -7   0  -2  -27.68   65.93   0
  -8   1   2    3.75   75.00   0
  -7   1   2   30.64   44.56   0
  -6   1   2    8.92   37.37   0
  -5   1   2  363.06   34.43   0
   5  -1  -2  550.02   36.44   0
   4  -1  -2  115.88   48.21   0
  -4   1   2   91.07   33.68   0
   3  -1  -2 1320.20   53.65   0
  -3   1   2 1457.74   53.65   0
   2  -1  -2  617.30   52.74   0
  -2   1   2  720.71   51.08   0
  -1   1   2    9.12   43.40   0
   1  -1  -2    0.03   48.41   0
   0   1   2 6363.42   97.06   0
   0  -1  -2 7530.45  105.18   0
   1   1   2   48.27   56.84   0
  -2  -1  -2 3710.15   56.12   0
  -2  -1  -2 4110.54  118.41   0
  -3  -1  -2  705.69   58.43   0
  -3  -1  -2  324.04   34.29   0
  -4  -1  -2   47.33   36.88   0
  -5  -1  -2  599.45   55.85   0
  -6  -1  -2   23.81   43.28   0
  -7  -1  -2   82.00   64.49   0
  -8   2   2   22.34   75.06   0
  -7   2   2   28.52   55.75   0
  -6   2   2   46.13   51.28   0
   6  -2  -2    1.85   39.71   0
  -5   2   2   11.90   31.11   0
   5  -2  -2   14.07   32.11   0
  -4   2   2  424.76   46.46   0
   4  -2  -2  378.29   36.18   0
  -3   2   2   13.03   31.04   0
   3  -2  -2   16.91   32.82   0
   2  -2  -2   34.21   30.44   0
  -2   2   2   34.41   36.90   0
  -1   2   2  526.56   37.21   0
   1  -2  -2  780.23   44.23   0
   0   2   2  724.82   40.22   0
   0  -2  -2  829.29   42.87   0
   1   2   2 1099.94   65.03   0
  -1  -2  -2  750.26   36.75   0
  -2  -2  -2   87.48   29.20   0
  -3  -2  -2  229.52   32.77   0
  -4  -2  -2  183.21   37.23   0
  -5  -2  -2  398.97   39.72   0
  -6  -2  -2   23.13   45.89   0
  -7  -2  -2   39.81   70.96   0
  -7  -2  -2   29.53   64.59   0
  -8   3   2   24.27   68.31   0
  -7   3   2   42.48   44.95   0
   7  -3  -2   12.63   46.28   0
  -6   3   2  320.81   56.18   0
   6  -3  -2  237.23   53.06   0
   5  -3  -2  268.91   35.83   0
  -5   3   2  315.82   44.65   0
  -4   3   2  347.69   33.90   0
   4  -3  -2  288.31   35.31   0
   3  -3  -2  101.00   48.32   0
  -3   3   2  144.95   33.79   0
   2  -3  -2  713.84   40.80   0
  -2   3   2  718.01   40.37   0
   1  -3  -2 1894.43   49.23   0
  -1   3   2 1322.52   41.82   0
   0   3   2  834.28   36.75   0
   0  -3  -2 1126.85   40.18   0
  -1  -3  -2   68.19   29.56   0
  -2  -3  -2  161.32   31.14   0
  -3  -3  -2   20.96   43.61   0
  -4  -3  -2  121.76   45.58   0
  -4  -3  -2  124.99   48.73   0
  -5  -3  -2   25.17   40.92   0
  -5  -3  -2   16.11   42.28   0
  -6  -3  -2    0.52   49.02   0
  -6  -3  -2   15.91   64.72   0
  -7  -3  -2   20.99   57.70   0
  -7  -3  -2  -33.45   68.95   0
  -8   4   2    1.47   59.14   0
   8  -4  -2   15.11   60.86   0
  -7   4   2   42.17   45.64   0
   7  -4  -2   52.90   63.13   0
  -6   4   2  115.41   55.78   0
   6  -4  -2   50.86   41.72   0
   5  -4  -2   90.05   47.56   0
  -5   4   2  120.30   35.82   0
   4  -4  -2  676.46   37.12   0
  -4   4   2  885.10   37.62   0
   3  -4  -2   18.44   46.68   0
  -3   4   2   26.42   31.41   0
   2  -4  -2 3864.57   69.16   0
  -2   4   2 3543.99   56.02   0
  -1   4   2  260.46   43.65   0
   1  -4  -2  352.26   44.73   0
   0  -4  -2  596.21   47.78   0
   0   4   2  413.98   42.73   0
   1   4   2  288.77   32.32   0
  -1  -4  -2  419.69   33.49   0
  -2  -4  -2   -4.52   41.45   0
  -3  -4  -2 1054.16   40.07   0
  -4  -4  -2   -1.51   37.15   0
  -5  -4  -2   57.34   42.68   0
  -5  -4  -2   35.84   43.93   0
  -6  -4  -2   31.31   70.94   0
  -6  -4  -2  -11.40   65.53   0
   7  -5  -2   -1.09   49.96   0
  -7   5   2    4.37   48.90   0
   6  -5  -2   16.61   56.97   0
  -6   5   2    8.80   40.55   0
  -5   5   2   48.37   39.32   0
   5  -5  -2   59.85   55.00   0
   4  -5  -2  779.82   47.77   0
  -4   5   2  909.08   45.81   0
  -3   5   2  193.47   32.80   0
   3  -5  -2  173.40   34.15   0
   2  -5  -2  618.76   39.95   0
  -2   5   2  539.54   35.62   0
  -1   5   2   12.48   30.16   0
   1  -5  -2   23.05   32.12   0
   0  -5  -2  640.79   46.53   0
   0   5   2  397.59   32.87   0
   1   5   2  774.38   34.48   0
  -1  -5  -2 1099.36   37.20   0
   2   5   2  876.04   94.23   0
  -2  -5  -2  786.43   38.52   0
  -3  -5  -2  345.88   47.17   0
  -4  -5  -2  -15.78   39.92   0
  -5  -5  -2   16.78   47.57   0
  -5  -5  -2   70.68   46.46   0
  -6  -5  -2   20.88   58.48   0
  -6  -5  -2   41.34   60.36   0
  -7   6   2   32.65   71.52   0
   7  -6  -2    7.01   54.75   0
  -6   6   2   20.75   57.77   0
   6  -6  -2  -24.53   61.04   0
  -5   6   2   44.59   39.86   0
   5  -6  -2   44.49   41.40   0
  -4   6   2   18.11   35.31   0
   4  -6  -2    5.77   38.85   0
   3  -6  -2   37.63   47.93   0
  -3   6   2   38.41   33.39   0
   2  -6  -2  103.26   48.05   0
  -2   6   2   53.76   44.15   0
   1  -6  -2    2.69   46.92   0
  -1   6   2    7.70   30.56   0
   0  -6  -2 1022.01   51.98   0
   0   6   2  638.58   36.50   0
   1   6   2   33.44   45.00   0
  -1  -6  -2   33.00   46.34   0
  -2  -6  -2  165.64   35.72   0
  -3  -6  -2    4.34   39.65   0
  -4  -6  -2   13.18   43.89   0
  -5  -6  -2  189.49   52.15   0
  -5  -6  -2  119.22   67.25   0
   7  -7  -2   20.87   59.78   0
  -7   7   2  -37.65   81.60   0
  -6   7   2   70.78   48.98   0
   6  -7  -2   58.62   67.14   0
  -5   7   2    7.02   43.76   0
   5  -7  -2   -3.07   63.24   0
   4  -7  -2  309.34   42.89   0
  -4   7   2  312.82   40.03   0
   3  -7  -2   88.47   49.34   0
  -3   7   2   57.58   35.88   0
  -2   7   2  -14.27   46.62   0
   2  -7  -2    5.05   49.62   0
  -1   7   2  397.76   49.29   0
   1  -7  -2  582.83   53.72   0
   0   7   2    8.38   35.10   0
   0  -7  -2    0.84   37.46   0
  -1  -7  -2  186.74   36.73   0
   1   7   2   91.46   49.65   0
  -2  -7  -2   18.71   51.47   0
  -3  -7  -2    8.20   44.05   0
  -4  -7  -2  111.60   66.95   0
  -5  -7  -2    9.47   79.53   0
  -5  -7  -2   17.09   59.35   0
   6  -8  -2  130.81   61.88   0
  -6   8   2   81.37   57.21   0
  -5   8   2   -2.06   46.26   0
   5  -8  -2   21.27   50.76   0
   4  -8  -2  144.68   50.51   0
  -4   8   2  128.83   44.47   0
  -3   8   2  258.21   53.83   0
   3  -8  -2  273.35   44.94   0
  -2   8   2  346.03   49.98   0
   2  -8  -2  403.32   49.59   0
   1  -8  -2  310.45   55.57   0
  -1   8   2  205.40   38.55   0
   0  -8  -2   91.03   38.97   0
   0   8   2   50.91   50.20   0
  -1  -8  -2  183.24   41.65   0
   1   8   2   87.40   40.15   0
  -2  -8  -2   61.71   44.37   0
  -3  -8  -2   82.26   67.13   0
  -4  -8  -2   50.09   56.39   0
   6  -9  -2   24.68   66.32   0
  -6   9   2   52.35   75.05   0
  -5   9   2   17.39   65.25   0
   5  -9  -2   -5.06   59.98   0
  -4   9   2  337.41   60.58   0
   4  -9  -2  358.39   56.95   0
  -3   9   2   21.94   60.26   0
   3  -9  -2   47.71   48.82   0
   2  -9  -2  417.43   48.42   0
  -2   9   2  337.07   44.65   0
   1  -9  -2  156.03   59.85   0
  -1   9   2   66.75   38.88   0
   0   9   2   18.94   52.54   0
   0  -9  -2   33.87   42.22   0
  -1  -9  -2  552.58   48.43   0
   1   9   2  300.57   57.72   0
  -2  -9  -2    0.91   45.68   0
  -3  -9  -2  293.69   55.12   0
   5 -10  -2   79.19   89.73   0
  -5  10   2   44.14   61.20   0
  -4  10   2   31.14   62.15   0
   4 -10  -2   16.15   58.05   0
  -3  10   2   60.39   62.27   0
   3 -10  -2   64.22   69.01   0
   2 -10  -2   64.66   53.90   0
  -2  10   2    8.24   51.41   0
  -1  10   2    3.94   67.51   0
   1 -10  -2   11.82   70.75   0
   0  10   2   73.44   47.38   0
   0 -10  -2  256.98   51.66   0
  -1 -10  -2  145.05   71.46   0
   1  10   2   84.05   48.17   0
   2  10   2   20.86  106.00   0
  -2 -10  -2   55.83   55.45   0
   2  10   2    0.84  118.04   0
  -3  11   2   85.91   69.32   0
   3 -11  -2   45.81   74.42   0
  -2  11   2   -3.66   69.19   0
   2 -11  -2   11.80   82.73   0
   1 -11  -2   63.22   71.80   0
  -1  11   2   28.41   57.65   0
   0  11   2   -3.93   73.20   0
   0 -11  -2   75.79   61.11   0
   1  13  -3    1.81   81.88   0
   0  13  -3  113.57   60.64   0
   0 -13   3  233.40   59.03   0
  -1  13  -3   -8.33   81.56   0
   1 -13   3   11.83   60.60   0
  -2  13  -3    9.77   74.08   0
   2 -13   3  135.79   82.12   0
   2  12  -3   22.22   82.48   0
   2  12  -3   22.36   68.01   0
  -2 -12   3   55.88   53.86   0
  -1 -12   3  395.38   74.70   0
   1  12  -3  221.08   67.81   0
   0 -12   3  139.00   51.76   0
   0  12  -3  100.28   69.14   0
  -1  12  -3  282.32   50.07   0
   1 -12   3  395.96   67.77   0
   2 -12   3  213.42   52.49   0
  -2  12  -3  109.35   52.27   0
   3 -12   3   -5.94   55.94   0
  -3  12  -3    3.25   66.97   0
   4 -12   3  290.36   62.35   0
  -4  12  -3   90.54   60.25   0
  -4 -11   3   19.50   61.06   0
  -3 -11   3  105.16   51.95   0
   3  11  -3   79.48   91.56   0
   2  11  -3   60.86   69.59   0
  -2 -11   3   54.86   46.49   0
   2  11  -3   69.44   66.68   0
  -1 -11   3  556.62   64.57   0
   1  11  -3  347.36   47.16   0
   0  11  -3    5.97   46.13   0
   0 -11   3   28.38   45.71   0
  -1  11  -3  179.79   44.92   0
   1 -11   3  347.96   45.65   0
   2 -11   3  271.02   47.88   0
  -2  11  -3  214.14   47.20   0
  -3  11  -3  106.89   47.61   0
   3 -11   3  140.99   48.20   0
   4 -11   3  335.03   72.28   0
  -4  11  -3  428.64   73.54   0
   5 -11   3   27.91   78.93   0
  -5  11  -3   47.14   76.65   0
  -4 -10   3   83.26   52.69   0
  -3 -10   3  -10.10   43.54   0
   3  10  -3   -8.36   77.97   0
  -2 -10   3  524.40   46.25   0
   2  10  -3  368.00   60.89   0
   2  10  -3  312.24   46.92   0
  -1 -10   3    0.90   40.81   0
   1  10  -3  -15.52   41.38   0
   0  10  -3   53.07   40.58   0
   0 -10   3   95.11   40.04   0
   1 -10   3  312.25   52.42   0
  -1  10  -3  180.72   41.18   0
  -2  10  -3   10.60   39.82   0
   2 -10   3    8.04   40.42   0
   3 -10   3  457.66   47.47   0
  -3  10  -3  463.99   59.02   0
   4 -10   3   -7.72   47.37   0
  -4  10  -3   -8.24   46.60   0
  -5  10  -3   23.06   51.80   0
   5 -10   3   30.26   73.89   0
  -5  -9   3  223.87   54.86   0
  -4  -9   3   80.19   44.27   0
   3   9  -3  545.64   43.81   0
   3   9  -3  660.37   62.26   0
  -3  -9   3  816.37   43.75   0
   2   9  -3  159.85   39.06   0
  -2  -9   3  180.49   38.46   0
   2   9  -3  219.74   58.94   0
   1   9  -3   87.56   37.23   0
  -1  -9   3  152.76   37.62   0
   0  -9   3 1046.46   39.80   0
   0   9  -3  796.66   50.98   0
   1  -9   3   53.34   46.11   0
  -1   9  -3   31.68   49.96   0
  -2   9  -3 1081.50   40.69   0
   2  -9   3 1107.68   51.03   0
   3  -9   3   79.21   57.64   0
  -3   9  -3   77.17   53.00   0
   4  -9   3  137.50   45.78   0
  -4   9  -3  149.03   42.58   0
  -5   9  -3  159.47   51.17   0
   5  -9   3  143.63   68.75   0
   6  -9   3   27.87   66.34   0
  -6   9  -3   -0.01   66.79   0
  -6  -8   3   37.84   54.79   0
  -5  -8   3  298.01   48.18   0
  -4  -8   3  142.14   51.00   0
   3   8  -3  409.11   37.64   0
   3   8  -3  679.80   66.00   0
  -3  -8   3  537.51   37.49   0
  -2  -8   3  125.02   37.26   0
   2   8  -3  105.95   47.74   0
   2   8  -3  120.71   45.95   0
   1   8  -3  617.60   38.23   0
  -1  -8   3  934.87   39.11   0
   0   8  -3 1207.68   41.17   0
   0  -8   3 1915.08   52.89   0
  -1   8  -3 1262.34   41.79   0
   1  -8   3 1440.57   42.36   0
   2  -8   3 2231.38   59.60   0
  -2   8  -3 2342.67   55.89   0
  -3   8  -3   -4.00   50.03   0
   3  -8   3   -1.93   35.83   0
   4  -8   3  547.33   54.94   0
  -4   8  -3  553.75   43.63   0
   5  -8   3  239.12   47.13   0
  -5   8  -3  290.40   44.43   0
   6  -8   3  224.76   52.42   0
  -6   8  -3  221.61   52.32   0
  -6  -7   3  149.03   72.49   0
  -6  -7   3  116.14   63.41   0
  -5  -7   3   19.95   57.43   0
  -4  -7   3   31.31   44.60   0
   3   7  -3  216.30   59.64   0
  -3  -7   3  190.62   35.40   0
  -2  -7   3    0.13   32.97   0
   2   7  -3  -24.75   45.23   0
   2   7  -3   11.22   40.28   0
  -1  -7   3 2351.88   44.63   0
   1   7  -3 1905.68   51.29   0
   0  -7   3   42.90   30.73   0
   0   7  -3   41.39   30.52   0
   1  -7   3 1057.67   46.77   0
  -1   7  -3 1000.03   46.24   0
   2  -7   3 1011.34   39.29   0
  -2   7  -3 1072.26   39.89   0
   3  -7   3   56.21   49.52   0
  -3   7  -3   89.78   35.54   0
   4  -7   3  935.10   55.43   0
  -4   7  -3 1060.84   54.27   0
   5  -7   3   -3.74   43.47   0
  -5   7  -3  -10.75   40.40   0
  -6   7  -3  389.52   48.87   0
   6  -7   3  379.59   49.43   0
   7  -7   3   25.42   75.55   0
  -7   7  -3   43.81   74.98   0
  -7  -6   3  104.59   59.06   0
  -7  -6   3   48.36   62.45   0
  -6  -6   3   -6.85   47.70   0
  -6  -6   3   -2.88   50.38   0
  -5  -6   3   95.35   38.48   0
  -4  -6   3  138.41   34.35   0
   3   6  -3  127.13   55.76   0
  -3  -6   3  113.49   33.20   0
   2   6  -3  942.38   49.54   0
   2   6  -3  749.37   43.93   0
  -2  -6   3 1121.92   38.28   0
  -1  -6   3  583.83   44.48   0
   1   6  -3  479.10   44.78   0
   0   6  -3  121.55   44.83   0
   0  -6   3  152.96   44.96   0
  -1   6  -3  319.12   33.45   0
   1  -6   3  279.12   32.69   0
   2  -6   3  185.13   31.59   0
  -2   6  -3  207.34   43.34   0
   3  -6   3  600.38   37.30   0
  -3   6  -3  730.73   47.67   0
   4  -6   3  378.65   38.45   0
  -4   6  -3  403.74   37.41   0
   5  -6   3   35.20   40.96   0
  -5   6  -3   34.19   54.83   0
  -6   6  -3   47.72   45.44   0
   6  -6   3   75.47   46.39   0
   7  -6   3   37.37   72.24   0
  -7   6  -3    5.87   52.15   0
  -7  -5   3   99.84   75.30   0
  -7  -5   3  118.50   64.92   0
  -6  -5   3   41.77   57.55   0
  -6  -5   3    4.28   54.87   0
  -5  -5   3  234.52   38.26   0
  -4  -5   3  936.44   38.07   0
  -3  -5   3 1086.35   38.89   0
   2   5  -3 2315.20   68.97   0
   2   5  -3 1382.75   42.90   0
  -2  -5   3 1593.56   42.62   0
   1   5  -3  308.55   32.76   0
  -1  -5   3  462.94   33.41   0
   0   5  -3 1334.43   42.03   0
   0  -5   3 2084.39   56.22   0
   1  -5   3 2077.62   52.49   0
  -1   5  -3 2273.81   46.36   0
   2  -5   3 1755.36   42.39   0
  -2   5  -3 2013.86   43.98   0
   3  -5   3  712.74   45.16   0
  -3   5  -3  838.99   35.16   0
   4  -5   3   38.46   50.75   0
  -4   5  -3   25.48   34.95   0
   5  -5   3  168.54   50.26   0
  -5   5  -3  162.39   36.86   0
   6  -5   3    4.23   45.98   0
  -6   5  -3   -2.41   43.32   0
  -7   5  -3   20.75   50.84   0
   7  -5   3   -3.21   69.45   0
  -7  -4   3   49.44   69.87   0
  -7  -4   3  -19.87   67.57   0
  -7  -4   3   36.30   69.46   0
  -6  -4   3    3.10   54.48   0
  -6  -4   3   -4.96   53.41   0
  -6  -4   3   -6.70   44.14   0
  -5  -4   3 1107.70   43.44   0
  -5  -4   3 1294.97   61.22   0
  -5  -4   3  780.02   37.37   0
  -4  -4   3    7.09   42.50   0
  -4  -4   3   16.83   51.33   0
  -3  -4   3 2103.70   53.66   0
  -3  -4   3 1981.91   51.92   0
   2   4  -3  681.46   43.52   0
  -2  -4   3  497.81   36.42   0
  -1  -4   3 1032.96   47.54   0
   1   4  -3 1025.65   44.20   0
   0   4  -3 9856.63   91.08   0
   0  -4   3 9999.99   90.71   0
  -1   4  -3   59.31   30.79   0
   1  -4   3   57.92   30.90   0
   2  -4   3 5717.72   62.18   0
  -2   4  -3 5741.41   61.84   0
   3  -4   3  145.87   32.13   0
  -3   4  -3  194.24   43.90   0
  -4   4  -3  678.78   39.34   0
   4  -4   3  621.31   39.74   0
  -5   4  -3  525.10   52.79   0
   5  -4   3  476.88   52.38   0
   6  -4   3   59.87   43.53   0
  -6   4  -3   73.45   54.62   0
  -7   4  -3  198.42   51.16   0
  -8  -3   3   25.76   83.40   0
  -8  -3   3   12.90   61.34   0
  -8  -3   3   -6.64   58.92   0
  -7  -3   3   12.92   46.22   0
  -7  -3   3   22.57   47.31   0
  -7  -3   3   34.73   66.50   0
  -6  -3   3  118.77   41.38   0
  -6  -3   3  158.91   55.66   0
  -6  -3   3   79.47   39.70   0
  -5  -3   3  333.42   51.74   0
  -5  -3   3  195.61   33.83   0
  -5  -3   3  336.44   36.91   0
  -4  -3   3  311.97   44.92   0
  -4  -3   3  365.22   36.41   0
  -4  -3   3  503.55   39.67   0
  -3  -3   3  206.43   44.18   0
  -3  -3   3  338.89   48.38   0
  -2  -3   3  667.11   44.58   0
  -2  -3   3  904.07   51.83   0
   2   3  -3  852.23   42.69   0
  -1  -3   3 4474.56   81.13   0
   1   3  -3 4448.85   80.41   0
   0  -3   3 5909.60   87.58   0
   1  -3   3 2981.90   55.97   0
  -1   3  -3 3275.63   57.39   0
   2  -3   3 1377.71   42.21   0
  -2   3  -3 1308.14   41.30   0
   3  -3   3  259.24   33.50   0
  -3   3  -3  254.09   45.29   0
  -4   3  -3 1261.61   41.17   0
   4  -3   3 1413.85   53.33   0
  -5   3  -3   89.80   35.82   0
   5  -3   3  109.95   36.57   0
  -6   3  -3  324.20   58.52   0
  -7   3  -3   62.47   62.57   0
  -8  -2   3   35.62   75.94   0
  -8  -2   3   20.60   80.25   0
  -8  -2   3   14.58   57.64   0
  -7  -2   3  198.91   61.65   0
  -7  -2   3  135.81   46.50   0
  -6  -2   3  191.72   41.86   0
  -6  -2   3  159.81   38.59   0
  -5  -2   3  311.65   34.78   0
  -5  -2   3  299.94   38.25   0
  -4  -2   3  480.50   47.25   0
  -4  -2   3  365.17   36.32   0
  -3  -2   3  522.97   37.86   0
  -3  -2   3  293.12   32.88   0
  -3  -2   3  526.06   39.47   0
  -2  -2   3  352.51   34.61   0
  -2  -2   3  549.93   39.15   0
  -1  -2   3 5496.57  111.91   0
   1   2  -3 5082.38   82.36   0
   1   2  -3 3673.11   93.92   0
  -1  -2   3 4874.80   74.37   0
   0  -2   3  197.01   49.77   0
   0   2  -3  184.59   38.54   0
   1  -2   3  554.63   37.30   0
  -1   2  -3  580.89   49.10   0
  -2   2  -3  535.77   35.59   0
   2  -2   3  520.69   35.50   0
  -3   2  -3  300.87   45.71   0
   3  -2   3  333.00   46.16   0
  -4   2  -3  716.86   37.69   0
   4  -2   3 1212.33   50.26   0
  -5   2  -3   -3.58   50.36   0
  -6   2  -3   26.04   55.41   0
  -7   2  -3   35.52   52.58   0
  -8  -1   3   -5.64   75.65   0
  -8  -1   3   21.76   54.51   0
  -7  -1   3  543.17   47.42   0
  -6  -1   3    2.17   39.03   0
  -5  -1   3  693.84   37.76   0
  -4  -1   3 1533.26   45.31   0
  -3  -1   3   63.09   31.26   0
  -2  -1   3 7713.57  124.07   0
  -1  -1   3  722.27   56.96   0
   0   1  -3 5775.22  101.04   0
   0  -1   3 5667.40   84.37   0
   0   1  -3 5889.70   92.95   0
   0  -1   3 5574.96  100.41   0
  -1   1  -3 1150.04   43.54   0
  -1   1  -3 1204.66   48.67   0
   1  -1   3 1186.99   46.95   0
  -2   1  -3   -2.10   31.57   0
   2  -1   3   20.29   32.49   0
  -3   1  -3 2262.30   56.14   0
  -4   1  -3   32.06   35.28   0
  -5   1  -3   27.20   38.04   0
  -6   1  -3   13.67   44.11   0
  -7   1  -3   31.67   65.12   0
  -8   0   3  129.15   55.78   0
  -7   0   3   58.52   58.73   0
  -6   0   3   11.23   51.51   0
  -5   0   3 1109.89   53.64   0
  -4   0   3  627.58   49.37   0
   3   0  -3 3612.56   72.26   0
  -3   0   3 3917.94   72.81   0
   2   0  -3 3009.39   87.07   0
  -2   0   3 3482.89   91.36   0
   1   0  -3  854.47   81.29   0
  -1   0   3  407.00   62.18   0
  -1   0  -3 1269.83   48.80   0
  -1   0  -3 1212.88   43.85   0
  -2   0  -3 2970.70   75.92   0
  -2   0  -3 1692.06   45.09   0
  -3   0  -3  431.79   34.76   0
  -4   0  -3  465.95   39.51   0
  -5   0  -3  255.73   39.97   0
  -6   0  -3   -7.81   57.80   0
  -7   0  -3   85.51   75.20   0
  -7   0  -3   32.59   94.73   0
  -8   1   3    6.66   65.65   0
  -7   1   3   -2.49   55.64   0
  -6   1   3   41.70   50.42   0
  -5   1   3  426.98   37.28   0
   5  -1  -3  451.29   40.71   0
  -4   1   3  400.99   46.37   0
   4  -1  -3  369.08   47.55   0
   3  -1  -3 1184.55   51.87   0
  -3   1   3 1336.69   52.18   0
   2  -1  -3  468.27   38.26   0
  -2   1   3  550.32   47.70   0
   1  -1  -3  368.96   51.38   0
  -1   1   3  246.68   35.35   0
   0  -1  -3 2824.15   59.35   0
   1   1   3  409.81   39.92   0
  -2  -1  -3 1945.00   44.66   0
  -3  -1  -3   73.65   57.65   0
  -3  -1  -3   66.55   32.11   0
  -4  -1  -3  239.56   61.25   0
  -4  -1  -3  241.42   36.59   0
  -5  -1  -3  429.38   54.10   0
  -5  -1  -3  501.73   90.86   0
  -6  -1  -3   50.99   47.48   0
  -7  -1  -3   60.31   79.09   0
  -8   2   3   30.26   72.93   0
  -7   2   3   13.34   45.57   0
  -6   2   3  451.28   42.47   0
   6  -2  -3  388.73   56.72   0
  -5   2   3  294.40   48.94   0
   5  -2  -3  243.49   36.45   0
  -4   2   3  201.89   41.03   0
   4  -2  -3  183.50   45.53   0
   3  -2  -3    7.42   42.87   0
  -3   2   3   33.36   40.65   0
  -2   2   3   33.46   29.91   0
   2  -2  -3   31.72   30.58   0
   1  -2  -3 1427.07   46.95   0
  -1   2   3 1070.14   47.94   0
   0   2   3   44.17   40.57   0
   0  -2  -3   68.75   31.18   0
   1   2   3  160.54   34.25   0
  -1  -2  -3  112.33   41.47   0
  -2  -2  -3  115.41   30.96   0
  -3  -2  -3    2.24   32.74   0
  -3  -2  -3    4.13   35.23   0
  -4  -2  -3  276.71   51.91   0
  -5  -2  -3   24.38   53.71   0
  -5  -2  -3   24.45   40.45   0
  -6  -2  -3   16.48   50.09   0
  -6  -2  -3   12.83   66.27   0
  -7  -2  -3    1.25   81.30   0
  -7  -2  -3   15.59   60.01   0
  -8   3   3    9.71   57.41   0
  -7   3   3  206.20   47.74   0
   7  -3  -3  254.23   48.78   0
  -6   3   3   92.67   54.64   0
   6  -3  -3   58.14   39.81   0
  -5   3   3  331.47   50.10   0
   5  -3  -3  304.66   39.15   0
  -4   3   3  303.05   32.83   0
   4  -3  -3  286.41   46.87   0
  -3   3   3  120.99   32.10   0
   3  -3  -3  120.83   33.49   0
  -2   3   3 1505.77   55.38   0
   2  -3  -3 1731.88   49.66   0
   1  -3  -3  139.09   34.10   0
  -1   3   3  104.25   43.10   0
   0   3   3  445.12   33.26   0
   0  -3  -3  628.20   47.12   0
   1   3   3  110.78   43.90   0
  -1  -3  -3  104.08   32.00   0
  -2  -3  -3   51.13   30.46   0
  -3  -3  -3   77.30   34.47   0
  -4  -3  -3    1.29   35.29   0
  -4  -3  -3   20.62   39.43   0
  -5  -3  -3   -1.84   58.62   0
  -5  -3  -3   -4.49   40.63   0
  -6  -3  -3  -14.60   53.26   0
  -6  -3  -3   -2.21   65.67   0
   8  -4  -3   15.46   61.48   0
  -8   4   3  -10.71   60.31   0
  -7   4   3  192.82   64.61   0
   7  -4  -3  146.37   51.48   0
   6  -4  -3  -13.43   52.54   0
  -6   4   3   22.73   56.14   0
   5  -4  -3   35.13   52.05   0
  -5   4   3   36.29   36.21   0
   4  -4  -3 1108.06   44.38   0
  -4   4   3 1311.50   53.88   0
  -3   4   3  411.90   34.53   0
   3  -4  -3  386.55   46.29   0
  -2   4   3 2088.56   46.83   0
   2  -4  -3 2419.56   53.14   0
   1  -4  -3    6.62   46.55   0
  -1   4   3   -0.28   29.89   0
   0  -4  -3  309.25   45.68   0
   0   4   3  215.10   31.92   0
  -1  -4  -3 1211.28   49.41   0
  -2  -4  -3  169.84   33.82   0
  -3  -4  -3  143.61   49.94   0
  -4  -4  -3   30.80   57.15   0
  -4  -4  -3   -1.68   40.74   0
  -5  -4  -3   -0.31   46.71   0
  -5  -4  -3   18.78   49.65   0
  -6  -4  -3   16.52   56.57   0
  -6  -4  -3   56.40   57.89   0
   7  -5  -3   24.66   64.27   0
  -7   5   3   -3.25   50.37   0
   6  -5  -3  -14.48   43.77   0
  -6   5   3   -2.35   53.07   0
  -5   5   3   88.62   51.67   0
   5  -5  -3  104.88   59.10   0
  -4   5   3   20.18   46.41   0
   4  -5  -3   19.48   37.03   0
  -3   5   3  361.88   42.83   0
   3  -5  -3  392.22   50.02   0
  -2   5   3  168.35   41.40   0
   2  -5  -3  242.51   49.70   0
   1  -5  -3   97.09   48.77   0
  -1   5   3   55.48   31.83   0
   0  -5  -3  783.69   37.36   0
   0   5   3  489.18   34.18   0
  -1  -5  -3  109.42   44.57   0
  -2  -5  -3  545.00   38.86   0
   2   5   3  520.52   89.38   0
  -3  -5  -3  115.67   36.76   0
  -4  -5  -3    5.32   54.75   0
  -5  -5  -3  131.61   53.20   0
  -5  -5  -3   48.30   64.80   0
   7  -6  -3    6.47   75.33   0
  -7   6   3   -0.19   57.37   0
   6  -6  -3    1.33   49.37   0
  -6   6   3   29.54   58.89   0
   5  -6  -3   40.84   55.16   0
  -5   6   3   36.54   40.59   0
   4  -6  -3   72.33   42.95   0
  -4   6   3   63.59   53.14   0
  -3   6   3   63.59   33.45   0
   3  -6  -3   53.35   51.92   0
   2  -6  -3   26.33   45.63   0
  -2   6   3   29.28   32.40   0
   1  -6  -3   28.97   48.23   0
  -1   6   3  -11.55   41.69   0
   0  -6  -3  271.51   37.01   0
   0   6   3  138.78   34.15   0
  -1  -6  -3   35.26   36.27   0
  -2  -6  -3   -0.09   36.41   0
   2   6   3   -0.43   71.69   0
  -3  -6  -3  148.13   58.40   0
  -4  -6  -3   23.41   46.19   0
  -5  -6  -3   29.12   77.13   0
  -5  -6  -3    3.98   57.79   0
   7  -7  -3   38.16   64.36   0
  -7   7   3   19.37   62.69   0
   6  -7  -3   79.18   55.24   0
  -6   7   3  109.56   52.32   0
   5  -7  -3   31.86   61.76   0
  -5   7   3   12.95   45.59   0
   4  -7  -3   44.73   46.39   0
  -4   7   3   51.29   54.68   0
  -3   7   3   58.80   54.75   0
   3  -7  -3   66.62   60.22   0
  -2   7   3   60.15   36.00   0
   2  -7  -3   71.48   54.92   0
   1  -7  -3  350.05   49.73   0
  -1   7   3  192.28   45.53   0
   0   7   3    6.60   43.30   0
   0  -7  -3    1.24   47.04   0
  -1  -7  -3  -17.12   53.15   0
  -2  -7  -3    5.94   56.84   0
   2   7   3   11.46   82.79   0
  -3  -7  -3   22.99   48.43   0
  -4  -7  -3   22.88   53.07   0
  -6   8   3   -5.42   69.96   0
   6  -8  -3  -37.35   75.49   0
   5  -8  -3   12.17   76.26   0
  -5   8   3   18.84   50.24   0
   4  -8  -3  189.69   54.64   0
  -4   8   3  184.02   43.64   0
  -3   8   3   47.27   58.91   0
   3  -8  -3   23.23   66.81   0
  -2   8   3  386.31   57.01   0
   2  -8  -3  561.34   48.17   0
   1  -8  -3   57.85   45.01   0
  -1   8   3   48.14   40.80   0
   0   8   3   25.87   39.01   0
   0  -8  -3   75.25   54.93   0
  -1  -8  -3  136.08   53.05   0
  -2  -8  -3   57.87   46.04   0
   2   8   3    8.27   99.29   0
  -3  -8  -3  118.58   49.69   0
   5  -9  -3   -6.16   67.49   0
  -5   9   3    4.57   72.12   0
   4  -9  -3   77.41   82.63   0
  -4   9   3  113.38   62.90   0
  -3   9   3   42.02   62.86   0
   3  -9  -3   78.07   73.67   0
   2  -9  -3   77.31   65.82   0
  -2   9   3   16.74   47.30   0
  -1   9   3   21.67   46.29   0
   1  -9  -3   60.93   49.40   0
   0  -9  -3   34.58   50.43   0
   0   9   3   32.35   60.38   0
  -1  -9  -3  103.03   63.75   0
  -2  -9  -3   22.42   52.24   0
   4 -10  -3  -11.91   95.06   0
  -4  10   3   56.63   78.34   0
   3 -10  -3  -13.74   63.29   0
  -3  10   3   -4.66   75.10   0
  -2  10   3   26.25   64.36   0
   2 -10  -3  -42.87   76.17   0
   1 -10  -3   48.41   56.35   0
  -1  10   3   27.27   53.31   0
   0 -10  -3   86.81   71.69   0
   0  10   3  -13.63   74.75   0
  -1 -10  -3   45.33   81.02   0
   1  13  -4   24.32   55.68   0
   1  13  -4   14.31   61.26   0
  -1 -13   4   18.22   55.70   0
   0  13  -4   70.44   75.99   0
   0 -13   4  120.89   54.75   0
  -1  13  -4   17.14   58.54   0
   1 -13   4   26.36   58.47   0
   2 -13   4  -14.56   59.79   0
  -2  13  -4   -5.33   57.76   0
  -3 -12   4  113.23   81.51   0
   3  12  -4   76.30  102.53   0
  -2 -12   4   45.10   50.84   0
   2  12  -4  -20.47   53.68   0
   2  12  -4   17.90   72.36   0
   1  12  -4  172.52   48.98   0
  -1 -12   4  237.73   48.60   0
   0  12  -4   89.73   48.81   0
   0 -12   4   95.23   49.10   0
  -1  12  -4  -18.68   49.45   0
   1 -12   4  -11.14   49.41   0
  -2  12  -4  151.12   51.77   0
   2 -12   4  242.69   69.86   0
   3 -12   4   33.02   74.85   0
  -3  12  -4    1.30   54.14   0
   4 -12   4  121.92   74.37   0
  -4  12  -4   29.75   73.85   0
  -4 -11   4   -0.50   60.55   0
  -3 -11   4  236.15   51.24   0
   3  11  -4  106.24   53.11   0
   3  11  -4  111.87   98.17   0
   2  11  -4    7.93   46.58   0
  -2 -11   4   30.27   62.39   0
   2  11  -4   11.46   50.26   0
   1  11  -4  102.92   55.48   0
  -1 -11   4  208.00   42.49   0
   0  11  -4  149.44   45.16   0
   0 -11   4  213.93   59.33   0
  -1  11  -4  214.90   43.68   0
   1 -11   4  257.56   60.71   0
   2 -11   4  604.55   58.68   0
  -2  11  -4  593.20   64.18   0
   3 -11   4   88.10   48.12   0
  -3  11  -4   35.88   61.20   0
   4 -11   4  219.72   55.69   0
  -4  11  -4  234.80   54.65   0
   5 -11   4   19.79   62.72   0
  -5  11  -4    2.34   59.92   0
  -5 -10   4  -44.30   56.15   0
  -4 -10   4  100.88   48.87   0
   3  10  -4   21.78   56.90   0
  -3 -10   4   16.51   45.04   0
   3  10  -4    6.92  110.94   0
   2  10  -4   26.93   46.76   0
  -2 -10   4   13.81   40.37   0
   2  10  -4   49.97   58.19   0
  -1 -10   4  150.32   42.81   0
   1  10  -4   67.41   59.86   0
   0 -10   4    8.86   37.65   0
   0  10  -4   12.05   50.57   0
  -1  10  -4  493.89   42.35   0
   1 -10   4  555.53   54.26   0
  -2  10  -4   -1.08   41.13   0
   2 -10   4  -18.66   41.21   0
  -3  10  -4   79.48   44.48   0
   3 -10   4   72.61   59.98   0
  -4  10  -4  445.32   49.03   0
   4 -10   4  296.48   49.28   0
  -5  10  -4  -32.14   67.03   0
   5 -10   4    7.11   54.68   0
  -5  -9   4  122.49   51.18   0
  -4  -9   4   36.06   43.17   0
  -3  -9   4  130.19   53.25   0
   3   9  -4   70.07   40.24   0
   3   9  -4  122.85   59.57   0
  -2  -9   4  249.45   38.97   0
   2   9  -4  156.10   38.39   0
   2   9  -4  205.77   42.68   0
  -1  -9   4  -13.86   35.80   0
   1   9  -4   -2.14   36.63   0
   0  -9   4 1187.56   41.85   0
   0   9  -4  958.19   49.91   0
  -1   9  -4   64.15   50.43   0
   1  -9   4   84.33   35.57   0
  -2   9  -4  128.13   36.78   0
   2  -9   4  101.47   39.71   0
  -3   9  -4  143.76   41.35   0
   3  -9   4   95.52   55.16   0
  -4   9  -4   41.13   41.09   0
   4  -9   4   16.18   44.29   0
  -5   9  -4  245.21   69.91   0
   5  -9   4  225.95   52.41   0
   6  -9   4   -8.19   59.30   0
  -6   9  -4    7.15   76.59   0
  -6  -8   4    8.09   54.60   0
  -5  -8   4  184.70   48.73   0
  -4  -8   4   16.13   39.02   0
   3   8  -4  351.69   37.32   0
  -3  -8   4  558.29   36.98   0
   3   8  -4  610.68   64.01   0
   2   8  -4  796.93   41.85   0
  -2  -8   4 1155.29   41.14   0
   2   8  -4 1229.12   65.66   0
  -1  -8   4  776.29   49.90   0
   1   8  -4  568.81   38.94   0
   0   8  -4 1455.07   49.98   0
   0  -8   4 1734.64   43.66   0
   1  -8   4  -20.17   47.23   0
  -1   8  -4    6.53   35.07   0
  -2   8  -4 1158.50   52.47   0
   2  -8   4 1074.82   42.65   0
  -3   8  -4  354.55   37.63   0
   3  -8   4  396.51   40.54   0
   4  -8   4  761.84   58.31   0
  -4   8  -4  869.46   44.26   0
   5  -8   4  275.37   46.63   0
  -5   8  -4  321.09   62.77   0
   6  -8   4   -1.00   72.16   0
  -6   8  -4   -4.63   66.26   0
  -6  -7   4   60.77   72.91   0
  -6  -7   4   33.37   67.12   0
  -5  -7   4  145.24   54.98   0
  -4  -7   4    7.25   34.45   0
   3   7  -4  775.66   50.22   0
   3   7  -4 1388.23   55.27   0
  -3  -7   4 1161.04   40.04   0
   2   7  -4  138.41   33.08   0
  -2  -7   4  211.04   46.73   0
   2   7  -4  137.93   38.25   0
  -1  -7   4 1582.46   41.74   0
   1   7  -4 1161.02   49.32   0
   0  -7   4  899.19   37.68   0
   0   7  -4  919.42   48.88   0
  -1   7  -4  544.24   34.84   0
   1  -7   4  529.49   44.45   0
   2  -7   4 3730.91   61.49   0
  -2   7  -4 4141.23   54.36   0
   3  -7   4    3.10   35.74   0
  -3   7  -4   -9.63   45.71   0
  -4   7  -4 1434.39   45.08   0
   4  -7   4 1292.79   57.74   0
   5  -7   4   62.37   57.21   0
  -5   7  -4  102.35   56.89   0
   6  -7   4   38.52   62.30   0
  -6   7  -4   34.25   49.94   0
   7  -7   4  181.13   60.36   0
  -7   7  -4   64.49   73.50   0
  -7  -6   4   57.43   60.13   0
  -7  -6   4   53.18   69.73   0
  -6  -6   4   12.92   43.02   0
  -6  -6   4   28.51   47.41   0
  -5  -6   4   21.51   38.41   0
  -4  -6   4  428.29   44.75   0
   3   6  -4  108.80   39.88   0
  -3  -6   4   94.80   32.16   0
   2   6  -4  445.52   36.20   0
  -2  -6   4  681.45   36.61   0
   2   6  -4  762.06   56.83   0
  -1  -6   4 1526.15   42.84   0
   1   6  -4 1173.67   52.92   0
   1   6  -4 1377.02   57.01   0
   0   6  -4  197.79   34.40   0
   0  -6   4  245.58   44.38   0
  -1   6  -4 3533.50   61.11   0
   1  -6   4 3161.95   59.28   0
   2  -6   4  774.16   36.11   0
  -2   6  -4  943.91   36.93   0
   3  -6   4  354.61   37.26   0
  -3   6  -4  497.19   49.59   0
   4  -6   4  609.75   38.59   0
  -4   6  -4  731.92   52.42   0
   5  -6   4   46.06   41.34   0
  -5   6  -4   59.05   40.90   0
   6  -6   4  424.51   66.47   0
  -6   6  -4  411.77   50.47   0
   7  -6   4  111.70   58.36   0
  -7   6  -4   77.39   57.04   0
  -7  -5   4   72.41   55.16   0
  -7  -5   4   58.89   52.24   0
  -6  -5   4   78.14   42.87   0
  -6  -5   4   98.11   53.69   0
  -5  -5   4  460.05   51.66   0
  -5  -5   4  336.41   43.39   0
  -5  -5   4  574.85   43.71   0
  -4  -5   4  592.87   45.03   0
  -3  -5   4  455.13   45.36   0
   2   5  -4 2619.08   56.30   0
  -2  -5   4 2261.58   48.40   0
   1   5  -4  329.25   50.45   0
  -1  -5   4  321.58   33.88   0
   0   5  -4 3950.50   67.38   0
   0  -5   4 3844.66   64.79   0
   1  -5   4 1490.79   51.54   0
  -1   5  -4 1748.46   43.15   0
  -2   5  -4  532.04   34.68   0
   2  -5   4  620.58   35.41   0
   3  -5   4  965.88   51.13   0
  -3   5  -4 1127.19   50.74   0
   4  -5   4  105.86   37.04   0
  -4   5  -4   74.42   36.09   0
  -5   5  -4  242.44   41.36   0
   5  -5   4  270.18   57.00   0
   6  -5   4  209.55   46.98   0
  -6   5  -4  215.43   47.83   0
   7  -5   4   46.32   56.10   0
  -7   5  -4   34.92   69.80   0
  -8  -4   4   -6.25   76.21   0
  -7  -4   4  155.97   70.62   0
  -7  -4   4   95.65   60.47   0
  -7  -4   4  146.60   51.50   0
  -6  -4   4   27.45   50.17   0
  -6  -4   4  -12.23   54.25   0
  -6  -4   4   -3.63   41.37   0
  -5  -4   4  969.42   42.28   0
  -5  -4   4 1685.06   62.20   0
  -5  -4   4 1466.79   57.05   0
  -4  -4   4   56.36   39.74   0
  -4  -4   4  112.18   52.10   0
  -3  -4   4  708.16   46.94   0
  -3  -4   4 1025.69   52.49   0
   2   4  -4 4534.02   75.39   0
  -2  -4   4 3961.06   67.44   0
  -2  -4   4 2612.48   54.78   0
  -1  -4   4 1211.54   50.77   0
   1   4  -4 1107.26   56.51   0
   0  -4   4 8346.18   84.08   0
   1  -4   4  103.91   32.47   0
  -1   4  -4  111.14   32.88   0
   2  -4   4 2270.31   54.64   0
  -2   4  -4 1379.70   41.08   0
  -3   4  -4 1719.96   41.44   0
   3  -4   4 1527.40   41.07   0
  -4   4  -4  687.10   38.47   0
   4  -4   4  735.80   39.95   0
  -5   4  -4  872.61   54.59   0
   5  -4   4  756.56   44.15   0
  -6   4  -4   30.38   45.10   0
   6  -4   4   38.72   45.36   0
  -7   4  -4   33.27   56.67   0
  -8  -3   4   38.49   59.71   0
  -8  -3   4   47.20   82.58   0
  -8  -3   4    5.73   73.29   0
  -7  -3   4   88.96   48.61   0
  -7  -3   4   43.21   62.98   0
  -7  -3   4   76.98   68.21   0
  -6  -3   4  238.81   41.28   0
  -6  -3   4  134.10   39.07   0
  -6  -3   4  246.42   40.38   0
  -5  -3   4  364.49   53.44   0
  -5  -3   4  198.74   49.35   0
  -5  -3   4  328.94   51.40   0
  -4  -3   4   53.63   48.58   0
  -4  -3   4   39.20   29.43   0
  -4  -3   4   79.78   32.84   0
  -3  -3   4 1655.27   52.04   0
  -3  -3   4 2599.81   64.73   0
  -2  -3   4 1687.05   49.53   0
   2   3  -4 1676.59   60.84   0
   2   3  -4 1055.57   53.81   0
  -2  -3   4 1456.88   55.82   0
   1   3  -4 3034.63   66.08   0
   1   3  -4 2616.45   70.87   0
  -1  -3   4 2908.72   65.34   0
  -1  -3   4 3462.88   76.22   0
   0   3  -4 3075.41   65.35   0
   0  -3   4 3166.64   62.05   0
   1  -3   4   64.84   30.89   0
  -1   3  -4   83.37   30.62   0
  -2   3  -4 6332.76   65.07   0
   2  -3   4 5936.76   71.73   0
  -3   3  -4  437.83   45.45   0
   3  -3   4  428.49   46.51   0
  -4   3  -4 1433.51   43.32   0
   4  -3   4 1323.34   55.44   0
  -5   3  -4  224.21   40.75   0
   5  -3   4  194.45   51.40   0
  -6   3  -4  100.61   44.86   0
  -7   3  -4  127.48   58.17   0
  -8  -2   4   10.55   68.30   0
  -8  -2   4   22.54   58.11   0
  -8  -2   4   38.93   71.17   0
  -7  -2   4  145.15   63.54   0
  -7  -2   4  125.28   59.54   0
  -7  -2   4   60.67   56.83   0
  -6  -2   4  220.42   40.13   0
  -6  -2   4  238.75   48.91   0
  -5  -2   4  -26.56   50.75   0
  -5  -2   4   -8.80   49.39   0
  -4  -2   4  319.19   48.90   0
  -4  -2   4  285.63   36.14   0
  -4  -2   4  167.27   41.81   0
  -3  -2   4 1800.02   46.02   0
  -3  -2   4 1829.66   57.66   0
  -3  -2   4 1100.25   41.92   0
  -2  -2   4 2080.23   49.34   0
  -2  -2   4 1757.77   67.60   0
  -1  -2   4 3225.52   95.24   0
  -1  -2   4 3065.54   64.94   0
   1   2  -4 2887.37   99.12   0
   1   2  -4 3086.87   57.00   0
   0  -2   4 1338.58   55.93   0
   0   2  -4 1456.09   59.09   0
   0   2  -4 1356.13   56.43   0
   1  -2   4 1280.64   40.67   0
  -1   2  -4 1502.02   54.70   0
  -2   2  -4 3537.44   53.37   0
   2  -2   4 3371.21   61.58   0
  -3   2  -4  393.36   33.57   0
   3  -2   4  551.19   35.19   0
  -4   2  -4  445.33   38.36   0
  -5   2  -4  158.44   37.02   0
  -6   2  -4  253.65   59.34   0
  -7   2  -4  190.37   59.40   0
  -8  -1   4   22.38   56.84   0
  -8  -1   4  -18.09   56.16   0
  -7  -1   4  102.87   48.05   0
  -6  -1   4   75.27   50.85   0
  -5  -1   4  389.34   36.83   0
  -4  -1   4 2382.81   53.68   0
  -3  -1   4  385.18   46.19   0
  -2  -1   4 2744.06  125.88   0
  -2  -1   4 4245.56  150.15   0
  -2  -1   4 3697.79   63.14   0
  -1  -1   4  846.20   52.05   0
   0   1  -4 1494.27   60.79   0
   0  -1   4 1474.08   48.99   0
   0   1  -4 1558.75   48.68   0
  -1   1  -4 3367.94   61.10   0
  -2   1  -4  881.81   42.55   0
  -2   1  -4  879.03   49.01   0
  -3   1  -4  986.48   38.38   0
  -4   1  -4  207.25   47.66   0
  -5   1  -4   40.30   40.77   0
  -6   1  -4  110.57   47.41   0
  -7   1  -4   18.68   70.51   0
  -7   1  -4   -2.45   83.05   0
  -8   0   4   24.96   67.99   0
  -7   0   4  180.95   46.06   0
  -6   0   4  105.15   37.86   0
  -5   0   4 1195.56   46.11   0
  -4   0   4 1517.63   55.89   0
  -3   0   4  993.13   53.21   0
   3   0  -4  860.63   52.65   0
  -2   0   4 2171.48   94.52   0
   2   0  -4 2246.82   97.15   0
  -1   0   4   24.42   47.18   0
   1   0  -4   30.23   50.89   0
   0   0  -4 6745.77   88.60   0
  -1   0  -4  799.47   41.84   0
  -2   0  -4 1811.64   60.43   0
  -2   0  -4 1677.62   44.22   0
  -3   0  -4  602.41   45.15   0
  -3   0  -4  628.31   53.60   0
  -4   0  -4   34.75   49.22   0
  -4   0  -4    6.65   56.91   0
  -5   0  -4  795.40   59.79   0
  -5   0  -4  798.16   68.11   0
  -6   0  -4   19.05   65.58   0
  -6   0  -4   13.55   80.61   0
  -7   0  -4   58.61   79.51   0
  -8   1   4   -0.71   68.28   0
  -7   1   4  283.19   45.97   0
  -6   1   4   39.61   36.13   0
  -5   1   4  653.48   50.86   0
   5  -1  -4  548.00   41.90   0
  -4   1   4  217.00   46.77   0
   4  -1  -4  202.30   44.41   0
   3  -1  -4 1029.96   52.98   0
  -3   1   4 1290.34   55.02   0
  -2   1   4 3390.60   79.83   0
   2  -1  -4 4083.16   82.59   0
   1  -1  -4  934.10   53.19   0
  -1   1   4  571.85   46.76   0
   0  -1  -4 3145.26   59.59   0
   1   1   4  142.47   47.32   0
  -1  -1  -4   92.02   40.74   0
  -2  -1  -4 1404.36   41.78   0
  -3  -1  -4 1195.16   41.31   0
  -4  -1  -4  527.65   53.49   0
  -5  -1  -4  301.71   42.61   0
  -6  -1  -4   -2.96   65.73   0
  -8   2   4  116.27   55.16   0
  -7   2   4   51.35   44.56   0
  -6   2   4  303.21   49.40   0
   6  -2  -4  266.16   50.18   0
  -5   2   4   39.09   37.74   0
   5  -2  -4   46.11   49.09   0
   4  -2  -4  223.73   47.77   0
  -4   2   4  291.88   43.75   0
  -3   2   4 1645.20   48.35   0
   3  -2  -4 1538.66   56.21   0
  -2   2   4    6.75   37.01   0
   2  -2  -4   -5.71   40.24   0
   1  -2  -4 1909.36   57.76   0
  -1   2   4 1234.32   42.81   0
   0  -2  -4  632.28   48.39   0
  -1  -2  -4  121.75   32.15   0
   1   2   4  158.76   45.69   0
  -2  -2  -4 1219.23   48.02   0
  -3  -2  -4   41.42   36.40   0
  -3  -2  -4   12.26   34.50   0
  -4  -2  -4  456.01   51.40   0
  -4  -2  -4  719.18   40.35   0
  -5  -2  -4   37.26   46.15   0
  -5  -2  -4   18.23   45.35   0
  -6  -2  -4  -10.45   65.92   0
  -6  -2  -4   11.12   66.85   0
  -8   3   4   44.56   79.20   0
  -7   3   4  347.58   49.16   0
   7  -3  -4  360.59   50.21   0
  -6   3   4  174.54   43.32   0
   6  -3  -4  129.98   57.68   0
   5  -3  -4   19.07   49.63   0
  -5   3   4   23.50   35.63   0
  -4   3   4 2140.86   64.19   0
   4  -3  -4 1882.20   61.87   0
   3  -3  -4   94.29   44.17   0
  -3   3   4   75.30   41.72   0
  -2   3   4 1534.24   43.93   0
   2  -3  -4 2227.90   61.47   0
  -1   3   4  363.77   42.05   0
   1  -3  -4  559.98   38.88   0
   0  -3  -4   23.31   31.51   0
   1   3   4 1701.56   60.87   0
  -1  -3  -4 1290.71   41.57   0
  -2  -3  -4   21.84   32.31   0
  -3  -3  -4  397.61   37.29   0
  -3  -3  -4  526.04   39.31   0
  -4  -3  -4   71.86   41.36   0
  -4  -3  -4   44.63   40.35   0
  -5  -3  -4   -3.40   45.83   0
  -5  -3  -4   28.61   47.23   0
  -6  -3  -4   32.53   57.34   0
  -6  -3  -4   59.09   57.68   0
   8  -4  -4   15.95   64.53   0
  -7   4   4  135.67   68.07   0
   7  -4  -4  113.63   51.26   0
   6  -4  -4  220.89   63.61   0
  -6   4   4  268.94   56.49   0
  -5   4   4  605.16   41.39   0
   5  -4  -4  525.19   51.40   0
  -4   4   4 1417.33   59.85   0
   4  -4  -4 1282.29   56.41   0
   3  -4  -4  183.76   38.58   0
  -3   4   4  169.79   48.53   0
  -2   4   4 1135.86   49.60   0
   2  -4  -4 1715.08   62.11   0
   1  -4  -4  295.04   49.01   0
  -1   4   4  156.38   43.12   0
   0   4   4 1341.84   50.18   0
   0  -4  -4 2069.37   45.80   0
   1   4   4 1043.81   59.96   0
  -1  -4  -4  910.28   37.30   0
  -2  -4  -4  265.99   36.36   0
  -3  -4  -4  241.87   37.53   0
  -4  -4  -4   14.94   43.52   0
  -4  -4  -4   -9.81   44.55   0
  -5  -4  -4   60.48   64.89   0
  -5  -4  -4   85.14   51.05   0
  -7   5   4   64.07   55.07   0
   7  -5  -4   42.05   73.49   0
   6  -5  -4   23.22   63.19   0
  -6   5   4   25.82   44.20   0
   5  -5  -4  422.52   43.90   0
  -5   5   4  454.62   53.17   0
   4  -5  -4    6.95   40.40   0
  -4   5   4   10.78   36.85   0
   3  -5  -4  208.24   55.64   0
  -3   5   4  162.81   33.61   0
  -2   5   4  913.46   47.87   0
   2  -5  -4 1309.36   57.66   0
   1  -5  -4    3.72   33.77   0
  -1   5   4  -13.92   41.80   0
   0   5   4 1105.69   39.24   0
   0  -5  -4 1777.42   53.51   0
  -1  -5  -4    9.85   44.78   0
  -2  -5  -4  122.55   45.26   0
  -3  -5  -4  262.73   43.22   0
  -4  -5  -4   47.34   46.91   0
  -4  -5  -4   78.70   66.17   0
  -5  -5  -4  180.86   74.91   0
  -5  -5  -4   49.54   55.95   0
   7  -6  -4    4.49   81.81   0
  -7   6   4   12.88   72.89   0
   6  -6  -4  136.61   70.61   0
  -6   6   4  213.54   51.27   0
   5  -6  -4    0.17   57.74   0
  -5   6   4   -8.56   43.86   0
   4  -6  -4   39.58   56.39   0
  -4   6   4   34.52   51.73   0
  -3   6   4  274.20   39.90   0
   3  -6  -4  308.84   65.06   0
  -2   6   4   58.93   38.78   0
   2  -6  -4  104.78   58.12   0
   1  -6  -4  369.44   39.51   0
  -1   6   4  215.33   36.16   0
   0   6   4   16.25   33.93   0
   0  -6  -4   44.00   49.39   0
  -1  -6  -4    0.40   37.09   0
  -2  -6  -4  263.13   39.77   0
  -3  -6  -4   26.15   43.46   0
  -4  -6  -4  119.53   49.40   0
  -4  -6  -4   45.06   49.19   0
   6  -7  -4  173.07   74.26   0
  -6   7   4  186.27   56.59   0
   5  -7  -4   10.91   52.25   0
  -5   7   4   12.59   48.17   0
   4  -7  -4  183.43   50.52   0
  -4   7   4  207.57   42.62   0
  -3   7   4  109.11   39.75   0
   3  -7  -4  136.21   51.53   0
  -2   7   4  298.95   51.37   0
   2  -7  -4  458.79   47.36   0
   1  -7  -4  168.16   54.97   0
  -1   7   4   99.06   39.49   0
   0   7   4  -11.49   38.41   0
   0  -7  -4   -4.38   52.72   0
  -1  -7  -4   57.46   52.69   0
  -2  -7  -4  102.37   45.01   0
  -3  -7  -4   51.98   62.07   0
  -4  -7  -4   12.24   68.39   0
   6  -8  -4   36.46   90.62   0
  -6   8   4   53.53   61.16   0
   5  -8  -4   49.20   62.24   0
  -5   8   4   17.54   66.21   0
  -4   8   4  319.40   61.63   0
   4  -8  -4  400.45   86.32   0
   3  -8  -4   48.74   53.64   0
  -3   8   4   20.50   44.39   0
   2  -8  -4  395.22   69.87   0
  -2   8   4  241.85   53.81   0
   1  -8  -4   61.41   64.86   0
  -1   8   4   19.67   59.69   0
   0   8   4   29.91   62.36   0
   0  -8  -4   92.10   61.20   0
  -1  -8  -4  339.82   50.58   0
  -2  -8  -4    4.49   54.50   0
  -3  -8  -4   42.98   58.19   0
  -5   9   4   -5.95   73.70   0
   5  -9  -4   27.95  104.76   0
  -4   9   4  -10.27   73.52   0
   4  -9  -4   60.60  107.21   0
  -3   9   4   13.27   70.69   0
   3  -9  -4   19.08   65.49   0
  -2   9   4   50.55   50.32   0
   2  -9  -4   95.54   75.65   0
  -1   9   4   -0.00   65.40   0
   1  -9  -4   37.21   52.22   0
   0   9   4   79.03   51.79   0
   0  -9  -4  145.23   56.44   0
  -1  -9  -4   61.17   59.49   0
   3 -10  -4    2.01   88.30   0
  -3  10   4   58.41   59.89   0
  -2  10   4   30.72   72.00   0
   2 -10  -4   35.88   79.83   0
  -1  10   4    9.34   80.90   0
   1 -10  -4  -18.07   63.96   0
   2  13  -5  -21.60   65.50   0
   1  13  -5   23.09   74.22   0
  -1 -13   5   58.92   57.40   0
   1  13  -5   58.75   58.93   0
   0  13  -5    5.73   52.32   0
   0 -13   5  -25.25   53.34   0
  -1  13  -5   -7.25   64.77   0
   1 -13   5   40.14   68.81   0
   2 -13   5   19.29   57.41   0
  -2  13  -5   10.64   79.86   0
  -3 -12   5  199.36   70.94   0
   3  12  -5   14.01   76.71   0
   3  12  -5  125.37   77.07   0
  -2 -12   5   23.74   52.47   0
   2  12  -5   18.55   57.19   0
   2  12  -5    3.31   78.82   0
   1  12  -5   55.63   61.84   0
   1  12  -5   63.08   71.43   0
  -1 -12   5   63.18   45.51   0
   0  12  -5   25.54   62.97   0
   0 -12   5  100.54   57.46   0
   1 -12   5   37.58   57.85   0
  -1  12  -5  -14.45   58.48   0
   2 -12   5  256.42   53.06   0
  -2  12  -5  233.13   52.00   0
   3 -12   5    4.96   55.37   0
  -3  12  -5   23.11   66.70   0
   4 -12   5   44.62   62.32   0
  -4  12  -5   20.20   61.32   0
  -4 -11   5   73.15   56.23   0
   3  11  -5   27.58   56.83   0
  -3 -11   5    6.39   52.06   0
   3  11  -5    0.86   89.72   0
  -2 -11   5   16.80   46.21   0
   2  11  -5   -4.01   48.92   0
   2  11  -5    0.89   50.62   0
   1  11  -5  107.09   45.02   0
   1  11  -5  111.49   53.27   0
  -1 -11   5  133.17   57.00   0
   0 -11   5  198.39   40.96   0
   0  11  -5  132.91   43.75   0
   1 -11   5  269.57   54.53   0
  -1  11  -5  303.59   59.11   0
   2 -11   5  168.25   62.58   0
  -2  11  -5   97.06   46.37   0
  -3  11  -5    5.89   49.38   0
   3 -11   5   13.37   66.59   0
  -4  11  -5  164.58   75.11   0
   4 -11   5  127.96   75.18   0
  -5  11  -5   -0.03   61.34   0
   5 -11   5    5.62   75.53   0
  -5 -10   5   54.96   79.31   0
  -4 -10   5   -1.49   49.12   0
  -3 -10   5   22.42   45.71   0
   3  10  -5  -16.36   81.59   0
   3  10  -5   -1.95   64.85   0
  -2 -10   5   11.92   38.01   0
   2  10  -5    9.34   41.10   0
   2  10  -5   13.07   45.87   0
   1  10  -5  188.52   36.96   0
   1  10  -5  231.04   43.71   0
  -1 -10   5  286.26   38.48   0
   0 -10   5   43.48   38.33   0
   0  10  -5   39.89   38.93   0
   1 -10   5   80.34   55.55   0
  -1  10  -5   69.67   50.39   0
  -2  10  -5  -11.07   52.53   0
   2 -10   5   27.69   41.92   0
  -3  10  -5    7.03   44.53   0
   3 -10   5  -14.72   60.98   0
  -4  10  -5  239.62   51.36   0
   4 -10   5  240.78   71.04   0
  -5  10  -5   -7.99   55.97   0
   5 -10   5   14.31   75.99   0
  -6  -9   5    9.76   59.15   0
  -5  -9   5   84.15   68.76   0
  -4  -9   5  -11.98   59.53   0
  -3  -9   5   -1.43   53.38   0
   3   9  -5    8.67   41.72   0
   3   9  -5   -5.90   66.69   0
   2   9  -5  518.33   60.56   0
   2   9  -5  307.44   53.92   0
  -2  -9   5  499.18   37.05   0
   1   9  -5   75.00   36.84   0
   1   9  -5   86.74   46.05   0
  -1  -9   5   74.67   48.02   0
   0  -9   5  241.70   36.92   0
   0   9  -5  240.47   37.21   0
  -1   9  -5   19.45   38.42   0
   1  -9   5  -16.84   36.12   0
  -2   9  -5   -0.64   48.37   0
   2  -9   5    3.67   39.18   0
  -3   9  -5  296.56   52.51   0
   3  -9   5  313.36   56.69   0
  -4   9  -5   38.22   43.20   0
   4  -9   5   11.52   44.06   0
   5  -9   5  -21.88   49.68   0
  -5   9  -5   -0.24   62.15   0
   6  -9   5   -9.93   82.62   0
  -6   9  -5    9.32   73.70   0
  -6  -8   5   25.58   54.30   0
  -5  -8   5   92.21   60.00   0
  -4  -8   5   83.05   51.90   0
   3   8  -5  416.40   54.96   0
  -3  -8   5  630.81   41.51   0
   3   8  -5  687.53   48.90   0
  -2  -8   5  383.60   36.33   0
   2   8  -5  257.52   38.05   0
   2   8  -5  402.97   42.04   0
   1   8  -5  716.37   38.56   0
   1   8  -5  890.30   53.34   0
  -1  -8   5  868.58   37.96   0
   0  -8   5  752.63   38.20   0
   0   8  -5  473.96   37.42   0
  -1   8  -5  154.86   37.05   0
   1  -8   5  168.50   36.42   0
  -2   8  -5  997.37   54.56   0
   2  -8   5  859.14   53.97   0
   3  -8   5  202.59   39.21   0
  -3   8  -5  259.64   39.92   0
   4  -8   5  303.64   57.13   0
  -4   8  -5  332.07   41.99   0
   5  -8   5   20.33   65.02   0
  -5   8  -5   11.41   66.16   0
   6  -8   5   15.92   53.98   0
  -6   8  -5   10.93   66.13   0
  -7  -7   5    9.47   57.48   0
  -7  -7   5  -17.46   61.82   0
  -6  -7   5   -2.55   48.76   0
  -6  -7   5   17.93   54.89   0
  -5  -7   5   95.32   51.35   0
  -4  -7   5   51.15   37.97   0
  -3  -7   5  700.64   47.34   0
   3   7  -5  428.27   36.59   0
   3   7  -5  791.97   63.14   0
  -2  -7   5  -16.59   43.52   0
   2   7  -5   -5.30   51.28   0
   2   7  -5  -14.40   45.74   0
   1   7  -5  136.59   34.58   0
   1   7  -5  175.72   52.98   0
  -1  -7   5  238.30   46.03   0
   0   7  -5 1604.60   52.44   0
   0  -7   5 1830.45   44.05   0
  -1   7  -5  210.10   33.72   0
   1  -7   5  201.54   35.22   0
   2  -7   5 1835.67   55.61   0
  -2   7  -5 2190.75   46.21   0
   3  -7   5   44.25   47.10   0
  -3   7  -5   53.16   36.10   0
   4  -7   5  365.09   56.78   0
  -4   7  -5  419.71   53.33   0
   5  -7   5  313.11   63.41   0
  -5   7  -5  429.64   63.08   0
  -6   7  -5   12.50   54.56   0
   6  -7   5   33.28   52.03   0
  -7  -6   5  -26.34   57.64   0
  -7  -6   5   13.67   53.67   0
  -6  -6   5   30.88   62.05   0
  -6  -6   5   37.83   61.30   0
  -5  -6   5    5.90   38.28   0
  -4  -6   5   91.48   44.53   0
  -3  -6   5    8.98   30.33   0
   3   6  -5   -1.63   52.38   0
  -2  -6   5   41.10   31.18   0
   2   6  -5   76.34   49.83   0
   1   6  -5  324.59   37.28   0
  -1  -6   5  370.39   34.66   0
   0   6  -5  161.97   46.97   0
   0  -6   5  205.14   45.15   0
   1  -6   5 1062.03   49.93   0
  -1   6  -5 1201.52   40.57   0
   2  -6   5  240.42   33.52   0
  -2   6  -5  274.27   42.27   0
   3  -6   5   -3.51   34.95   0
  -3   6  -5    0.01   34.49   0
   4  -6   5  321.18   38.17   0
  -4   6  -5  359.36   38.05   0
  -5   6  -5  209.12   56.21   0
   5  -6   5  159.86   45.38   0
  -6   6  -5  111.37   50.10   0
   6  -6   5  133.27   49.84   0
  -7  -5   5   73.05   55.96   0
  -7  -5   5   68.36   62.64   0
  -7  -5   5   73.79   59.27   0
  -6  -5   5   79.48   44.72   0
  -6  -5   5   58.32   51.97   0
  -6  -5   5   80.91   44.74   0
  -5  -5   5  191.17   37.74   0
  -5  -5   5  297.94   53.74   0
  -5  -5   5  294.33   40.39   0
  -4  -5   5   33.39   35.30   0
  -4  -5   5   45.20   49.69   0
  -3  -5   5   16.29   28.75   0
   2   5  -5  484.27   49.33   0
  -2  -5   5  776.16   48.60   0
   2   5  -5  620.97   41.24   0
   1   5  -5  702.00   51.98   0
  -1  -5   5  747.59   38.60   0
   0  -5   5 1200.70   41.75   0
   0   5  -5 1123.55   41.73   0
   1  -5   5  171.04   33.54   0
  -1   5  -5  183.06   33.62   0
   2  -5   5   63.42   44.06   0
  -2   5  -5   42.84   32.22   0
   3  -5   5  109.93   35.43   0
  -3   5  -5  128.60   35.14   0
   4  -5   5  401.85   41.12   0
  -4   5  -5  266.05   36.86   0
  -5   5  -5   37.67   40.57   0
   5  -5   5   -2.64   41.09   0
  -6   5  -5   20.19   49.00   0
   6  -5   5    7.77   61.28   0
  -7   5  -5   18.93   59.99   0
  -8  -4   5    4.59   62.59   0
  -7  -4   5   82.99   51.57   0
  -7  -4   5  145.64   66.90   0
  -7  -4   5  133.09   73.25   0
  -6  -4   5   12.91   53.66   0
  -6  -4   5   -7.11   41.07   0
  -6  -4   5  -24.00   60.56   0
  -5  -4   5  117.55   52.94   0
  -5  -4   5   83.69   35.72   0
  -5  -4   5  123.26   38.11   0
  -4  -4   5  580.06   37.46   0
  -4  -4   5  925.05   54.06   0
  -3  -4   5  584.01   53.15   0
  -3  -4   5  442.77   33.83   0
   2   4  -5 3463.69   56.82   0
  -2  -4   5 3674.33   64.41   0
   2   4  -5 2269.34   63.32   0
  -2  -4   5 3528.78   67.02   0
   1   4  -5  141.66   43.86   0
   1   4  -5  135.74   46.01   0
  -1  -4   5  171.23   41.58   0
   0  -4   5 2734.16   54.46   0
   0   4  -5 2544.64   49.72   0
   1  -4   5  849.40   38.61   0
  -1   4  -5  922.43   49.58   0
   2  -4   5  429.76   35.47   0
  -2   4  -5  497.15   34.47   0
   3  -4   5 1226.54   41.52   0
  -3   4  -5 1325.29   40.75   0
  -4   4  -5   71.14   36.11   0
   4  -4   5   48.89   36.38   0
  -5   4  -5  375.64   42.46   0
   5  -4   5  343.13   45.07   0
  -6   4  -5  -10.16   66.15   0
  -7   4  -5   29.50   80.58   0
  -8  -3   5   -6.01   60.27   0
  -8  -3   5   13.68   86.51   0
  -8  -3   5  -24.15   76.96   0
  -7  -3   5   29.56   62.77   0
  -7  -3   5    5.08   48.14   0
  -7  -3   5   11.46   47.41   0
  -6  -3   5   -0.89   52.23   0
  -6  -3   5    8.30   37.93   0
  -6  -3   5   15.22   39.28   0
  -5  -3   5  165.02   39.80   0
  -5  -3   5  183.17   50.78   0
  -5  -3   5  268.06   49.82   0
  -4  -3   5  285.92   45.39   0
  -4  -3   5  447.64   50.09   0
  -4  -3   5  421.19   50.99   0
  -3  -3   5 2101.46   59.28   0
  -3  -3   5 2749.11   60.57   0
  -2  -3   5 1046.84   55.53   0
  -2  -3   5  918.52   51.73   0
   2   3  -5  581.26   48.82   0
   1   3  -5  226.84   49.30   0
  -1  -3   5  210.89   46.17   0
   1   3  -5  214.11   37.88   0
  -1  -3   5  235.96   37.72   0
   0  -3   5 3226.43   61.48   0
   0   3  -5 3747.24   65.51   0
   0   3  -5 3444.43   67.46   0
   1  -3   5  506.51   46.03   0
  -1   3  -5  442.08   36.45   0
  -2   3  -5 3934.85   55.16   0
   2  -3   5 4037.74   55.69   0
  -3   3  -5  357.87   43.31   0
   3  -3   5  362.29   33.96   0
  -4   3  -5  609.79   53.36   0
   4  -3   5  572.28   39.41   0
  -5   3  -5  519.53   43.43   0
  -6   3  -5    7.11   49.01   0
  -7   3  -5  126.00   60.41   0
  -8  -2   5   18.95   67.90   0
  -8  -2   5   31.23   57.33   0
  -8  -2   5   18.51   78.48   0
  -7  -2   5   -9.85   61.61   0
  -7  -2   5  -24.37   56.17   0
  -7  -2   5   -3.81   47.93   0
  -6  -2   5  -11.01   52.31   0
  -6  -2   5    4.66   40.05   0
  -6  -2   5    2.66   38.03   0
  -5  -2   5  432.77   54.00   0
  -5  -2   5  404.09   50.00   0
  -5  -2   5  265.27   38.84   0
  -4  -2   5  399.38   50.42   0
  -4  -2   5  231.91   45.79   0
  -4  -2   5  369.46   37.64   0
  -3  -2   5  211.48   45.06   0
  -3  -2   5  144.43   40.37   0
  -3  -2   5  182.42   35.29   0
  -2  -2   5  371.83   85.40   0
  -2  -2   5  329.82   36.06   0
  -1  -2   5  673.36   67.79   0
   1   2  -5  693.02   61.02   0
   1   2  -5  722.72   51.82   0
  -1  -2   5  640.18   52.12   0
   0  -2   5 2447.06   52.89   0
   0   2  -5 2580.09   66.54   0
   0   2  -5 2487.99   51.62   0
   0  -2   5 2360.72   57.89   0
  -1   2  -5 1347.41   44.83   0
   1  -2   5 1290.42   43.96   0
  -2   2  -5 2122.81   56.38   0
  -2   2  -5 2110.51   61.85   0
   2  -2   5 2035.98   57.04   0
  -3   2  -5  109.83   44.43   0
  -3   2  -5  129.92   49.13   0
  -4   2  -5  398.76   37.52   0
  -5   2  -5  354.76   42.12   0
  -6   2  -5   55.92   62.84   0
  -6   2  -5   67.04   69.64   0
  -7   2  -5   95.69   60.07   0
  -7   2  -5  107.33   79.77   0
  -8  -1   5   38.49   70.92   0
  -8  -1   5  -24.38   70.50   0
  -7  -1   5   30.14   46.47   0
  -6  -1   5  467.94   51.80   0
  -5  -1   5   48.68   49.72   0
  -4  -1   5  890.34   51.85   0
  -3  -1   5    5.80   47.39   0
  -3  -1   5   11.49   45.74   0
  -3  -1   5   14.60   33.62   0
  -2  -1   5  273.40   47.88   0
   1   1  -5 4767.20  128.40   0
   1   1  -5 2977.03  107.90   0
  -1  -1   5 4166.70   60.46   0
   0   1  -5  308.15   46.79   0
   0   1  -5  356.63   51.41   0
   0  -1   5  356.51   50.57   0
  -1   1  -5 1857.24   49.50   0
  -2   1  -5   53.25   44.80   0
  -2   1  -5   40.56   47.91   0
  -3   1  -5   18.12   49.67   0
  -3   1  -5   19.91   46.82   0
  -4   1  -5  489.26   38.43   0
  -4   1  -5  688.06   55.18   0
  -5   1  -5   -0.95   52.08   0
  -5   1  -5    5.43   55.50   0
  -6   1  -5  148.80   49.37   0
  -6   1  -5   88.99   76.21   0
  -8   0   5   38.11   55.91   0
  -7   0   5  317.27   49.56   0
  -6   0   5  165.44   38.68   0
  -5   0   5  686.10   53.73   0
  -4   0   5 1141.43   53.90   0
  -3   0   5   71.58   41.54   0
   2   0  -5 6362.11  199.65   0
   1   0  -5  353.20   47.63   0
  -1   0   5  388.59   36.20   0
   1   0  -5  407.61   48.33   0
   0   0  -5 1966.19   50.63   0
   0   0  -5 2438.72   54.22   0
   1   0   5  663.74   43.41   0
  -2   0  -5   77.99   34.54   0
  -2   0  -5   84.00   33.71   0
  -3   0  -5 1777.44   45.20   0
  -3   0  -5 2034.54   68.31   0
  -4   0  -5   -0.84   37.46   0
  -4   0  -5   17.81   60.65   0
  -5   0  -5  218.92   45.90   0
  -5   0  -5  250.76   66.43   0
  -6   0  -5   45.23   53.05   0
  -8   1   5   16.65   75.33   0
  -7   1   5  112.53   62.16   0
  -6   1   5   13.43   53.95   0
  -5   1   5  400.90   39.41   0
   5  -1  -5  470.17   52.04   0
  -4   1   5 1288.29   56.69   0
   4  -1  -5 1028.47   57.57   0
   3  -1  -5  870.13   53.32   0
  -3   1   5  871.43   50.68   0
  -2   1   5 2453.59   71.28   0
   2  -1  -5 4454.61   93.39   0
   1  -1  -5  414.50   43.55   0
   0  -1  -5 1909.20   48.84   0
  -1  -1  -5  697.17   36.99   0
   1   1   5 1099.72   57.51   0
  -2  -1  -5 1621.20   43.35   0
  -3  -1  -5 1440.45   43.47   0
  -4  -1  -5  333.70   51.12   0
  -5  -1  -5  182.76   57.86   0
  -6  -1  -5   16.03   54.30   0
  -8   2   5   41.41   72.25   0
  -7   2   5   21.33   60.33   0
  -6   2   5   18.37   51.46   0
   6  -2  -5   10.77   52.35   0
  -5   2   5  366.10   53.19   0
   5  -2  -5  270.74   38.43   0
   4  -2  -5   37.51   37.14   0
  -4   2   5   28.60   49.53   0
   3  -2  -5 1353.27   57.72   0
  -3   2   5 1184.12   53.98   0
  -2   2   5   -1.29   37.22   0
   2  -2  -5    0.49   29.67   0
   1  -2  -5  339.18   48.03   0
   0  -2  -5 1431.22   52.55   0
   1   2   5   26.00   36.88   0
  -1  -2  -5   12.24   31.79   0
  -2  -2  -5 2011.48   46.62   0
  -2  -2  -5 1439.38   42.18   0
  -3  -2  -5    2.77   38.60   0
  -3  -2  -5    7.35   52.91   0
  -4  -2  -5   78.92   39.99   0
  -4  -2  -5  149.05   41.44   0
  -5  -2  -5  163.77   48.20   0
  -5  -2  -5  148.50   47.76   0
  -6  -2  -5   19.90   58.67   0
  -6  -2  -5   21.42   79.99   0
  -8   3   5   13.45   62.53   0
   7  -3  -5    3.00   60.34   0
  -7   3   5    4.34   60.55   0
  -6   3   5  408.51   60.05   0
   6  -3  -5  304.15   55.30   0
   5  -3  -5   11.29   36.11   0
  -5   3   5    3.73   36.41   0
   4  -3  -5  730.01   55.37   0
  -4   3   5  761.72   54.22   0
   3  -3  -5   66.03   50.12   0
  -3   3   5   51.20   36.14   0
  -2   3   5  147.35   32.13   0
   2  -3  -5  241.11   40.39   0
   1  -3  -5 1028.12   51.02   0
  -1   3   5  597.67   45.43   0
   0  -3  -5   56.68   30.82   0
   0   3   5   35.34   33.86   0
  -1  -3  -5  682.60   35.01   0
   1   3   5  842.88   59.04   0
  -2  -3  -5   16.00   47.11   0
  -3  -3  -5   36.93   37.11   0
  -3  -3  -5   52.78   50.59   0
  -4  -3  -5   58.95   40.64   0
  -4  -3  -5   41.41   56.11   0
  -5  -3  -5   60.58   51.09   0
  -5  -3  -5   40.21   51.19   0
  -7   4   5   83.00   73.66   0
   7  -4  -5   45.41   73.44   0
   6  -4  -5  342.90   66.38   0
  -6   4   5  445.66   67.22   0
   5  -4  -5  273.11   56.71   0
  -5   4   5  293.80   41.96   0
   4  -4  -5  719.51   43.17   0
  -4   4   5  579.84   40.40   0
  -3   4   5   93.65   36.83   0
   3  -4  -5  152.44   42.23   0
  -2   4   5  661.28   49.57   0
   2  -4  -5 1050.78   66.28   0
   1  -4  -5 1162.38   47.61   0
  -1   4   5  675.59   49.34   0
   0  -4  -5  790.26   36.76   0
  -1  -4  -5  343.72   35.65   0
   1   4   5  311.71   40.95   0
  -2  -4  -5    3.32   33.92   0
  -3  -4  -5  221.56   40.59   0
  -3  -4  -5  199.34   40.35   0
  -4  -4  -5  117.75   46.37   0
  -4  -4  -5  104.92   46.65   0
  -5  -4  -5   40.12   73.33   0
  -5  -4  -5   37.80   52.72   0
  -7   5   5  106.66   58.42   0
   7  -5  -5  164.78   70.40   0
   6  -5  -5   11.23   63.79   0
  -6   5   5   -5.58   48.69   0
   5  -5  -5   93.02   62.66   0
  -5   5   5  108.36   54.39   0
   4  -5  -5  727.32   57.82   0
  -4   5   5  644.74   52.84   0
  -3   5   5   21.88   47.11   0
   3  -5  -5   -1.43   57.33   0
  -2   5   5 1057.21   42.51   0
   2  -5  -5 1665.75   67.00   0
  -1   5   5   -2.92   34.99   0
   1  -5  -5   10.69   52.84   0
   0  -5  -5  920.92   55.44   0
  -1  -5  -5  514.68   38.06   0
   1   5   5  502.39   59.05   0
  -2  -5  -5   80.83   40.10   0
  -3  -5  -5  498.37   46.53   0
  -4  -5  -5    9.55   49.37   0
  -4  -5  -5   -7.50   50.44   0
   6  -6  -5   14.63   75.42   0
  -6   6   5   11.37   51.96   0
   5  -6  -5    7.81   65.23   0
  -5   6   5   23.37   45.91   0
  -4   6   5   13.92   42.73   0
   4  -6  -5   46.09   49.44   0
  -3   6   5  388.84   40.51   0
   3  -6  -5  491.19   54.85   0
  -2   6   5   68.35   37.83   0
   2  -6  -5   94.70   47.89   0
   1  -6  -5   98.40   44.79   0
  -1   6   5   50.62   55.28   0
   0  -6  -5  355.02   56.08   0
   1   6   5  103.26   60.22   0
  -1  -6  -5  106.03   56.90   0
  -2  -6  -5  385.27   46.63   0
  -3  -6  -5   27.63   49.73   0
  -4  -6  -5   87.03   79.16   0
  -4  -6  -5   41.50   58.14   0
   6  -7  -5   41.45   77.36   0
  -6   7   5   40.32   57.74   0
   5  -7  -5   68.53   60.07   0
  -5   7   5   55.45   72.14   0
  -4   7   5  230.09   46.00   0
   4  -7  -5  280.12   59.45   0
  -3   7   5   63.61   55.52   0
   3  -7  -5  105.32   82.54   0
  -2   7   5   14.92   38.50   0
   2  -7  -5   -9.33   62.53   0
   1  -7  -5   64.44   45.36   0
  -1   7   5   30.83   40.94   0
   0  -7  -5  107.24   63.79   0
   1   7   5   86.39   66.16   0
  -1  -7  -5  170.90   49.27   0
  -2  -7  -5   31.38   51.06   0
  -3  -7  -5  -10.17   58.95   0
  -5   8   5   18.35   58.04   0
   5  -8  -5   11.89   69.12   0
  -4   8   5  258.30   55.71   0
   4  -8  -5  354.33  105.73   0
   3  -8  -5    5.09   71.59   0
  -3   8   5    9.93   49.71   0
  -2   8   5   37.58   47.63   0
   2  -8  -5  102.94   76.19   0
   1  -8  -5  449.83   71.19   0
  -1   8   5  121.86   64.63   0
   0  -8  -5   32.19   70.88   0
   1   8   5   89.21   68.84   0
  -1  -8  -5  329.84   55.80   0
  -2  -8  -5    7.17   79.74   0
  -4   9   5   36.14   72.99   0
   4  -9  -5   55.40  132.18   0
  -3   9   5   24.29   70.53   0
   3  -9  -5   33.63   73.99   0
   2  -9  -5  375.31   83.48   0
  -2   9   5  105.49   56.54   0
   1  -9  -5   45.36   59.65   0
  -1   9   5   27.50   54.95   0
   0  -9  -5  265.89   77.34   0
  -2 -13   6    3.60   59.98   0
   2  13  -6   10.90   63.47   0
   2  13  -6   13.59   67.00   0
   1  13  -6   92.79   80.62   0
   1  13  -6   67.99   58.37   0
  -1 -13   6  135.46   70.45   0
   0 -13   6   47.24   54.07   0
   0  13  -6   29.55   54.67   0
  -1  13  -6   10.68   72.19   0
   1 -13   6  -26.49   52.24   0
   2 -13   6  102.54   55.35   0
  -2  13  -6  193.55   54.53   0
   3  12  -6   44.63   85.03   0
  -3 -12   6  120.39   56.86   0
   3  12  -6   71.21   92.65   0
   2  12  -6   22.55   74.76   0
   2  12  -6  -17.60   56.67   0
  -2 -12   6   25.31   53.83   0
   1  12  -6  151.50   68.58   0
   1  12  -6  122.00   52.66   0
  -1 -12   6  198.08   48.13   0
   0  12  -6   95.54   48.17   0
   0 -12   6   92.97   61.67   0
   1 -12   6  327.97   49.09   0
  -1  12  -6  264.10   61.47   0
   2 -12   6  223.67   47.93   0
  -2  12  -6  236.48   49.63   0
   3 -12   6   36.42   54.05   0
  -3  12  -6   25.88   54.37   0
  -4 -11   6   34.87   76.98   0
   3  11  -6   32.43   55.59   0
   3  11  -6   -3.97   64.58   0
  -3 -11   6   15.79   47.08   0
  -2 -11   6   -9.24   47.74   0
   2  11  -6  -22.37   50.47   0
   2  11  -6  -10.60   61.99   0
   1  11  -6  257.02   45.79   0
   1  11  -6   91.13   58.08   0
  -1 -11   6  327.84   59.00   0
   0  11  -6   -4.71   55.12   0
   0 -11   6   37.06   51.99   0
  -1  11  -6  355.56   44.21   0
   1 -11   6  379.25   57.22   0
   2 -11   6   19.71   63.41   0
  -2  11  -6   77.00   63.63   0
  -3  11  -6   47.97   58.96   0
   3 -11   6   37.95   64.75   0
  -4  11  -6  149.76   67.96   0
   4 -11   6  152.39   54.56   0
  -5 -10   6   62.53   56.89   0
  -4 -10   6    2.95   48.67   0
  -3 -10   6   17.30   43.48   0
   3  10  -6  -19.73   64.71   0
   3  10  -6    6.68   74.17   0
  -2 -10   6  194.75   42.26   0
   2  10  -6  187.13   62.61   0
   2  10  -6  137.76   45.16   0
   1  10  -6   11.09   37.41   0
  -1 -10   6   23.70   36.07   0
   1  10  -6   11.86   40.49   0
   0 -10   6  121.46   51.64   0
   0  10  -6  123.64   53.02   0
   1 -10   6   87.48   38.60   0
  -1  10  -6   55.65   39.54   0
  -2  10  -6   61.54   42.67   0
   2 -10   6   60.06   40.12   0
  -3  10  -6   56.44   43.60   0
   3 -10   6   56.74   62.11   0
  -4  10  -6   10.27   50.60   0
   4 -10   6    2.50   66.36   0
  -5  10  -6   -1.06   58.94   0
   5 -10   6  -24.47   57.57   0
  -6  -9   6   80.52   70.19   0
  -5  -9   6   41.29   49.70   0
  -4  -9   6   26.61   60.41   0
  -3  -9   6  309.37   53.86   0
   3   9  -6  171.07   63.85   0
   3   9  -6  223.18   51.77   0
  -2  -9   6  422.21   54.14   0
   2   9  -6  386.16   46.82   0
   2   9  -6  320.88   59.85   0
   1   9  -6  234.22   37.04   0
   1   9  -6  271.39   38.97   0
  -1  -9   6  289.83   35.34   0
   0  -9   6  120.78   34.70   0
   0   9  -6  101.44   48.22   0
  -1   9  -6   12.20   46.43   0
   1  -9   6    7.92   34.81   0
  -2   9  -6  244.28   40.11   0
   2  -9   6  170.48   52.09   0
  -3   9  -6  106.78   45.13   0
   3  -9   6   80.20   42.81   0
   4  -9   6   39.95   46.24   0
  -4   9  -6    9.34   45.77   0
   5  -9   6   16.10   71.37   0
  -5   9  -6    5.86   64.06   0
  -6  -8   6    7.66   64.11   0
  -5  -8   6  167.47   62.70   0
  -4  -8   6   34.28   38.55   0
   3   8  -6  779.19   50.15   0
  -3  -8   6 1023.85   57.22   0
   3   8  -6  569.81   47.66   0
  -2  -8   6   -0.32   35.35   0
   2   8  -6    7.57   39.58   0
   2   8  -6   14.78   35.72   0
   1   8  -6  194.70   33.66   0
   1   8  -6  216.40   38.83   0
  -1  -8   6  314.07   45.21   0
   0   8  -6  723.07   38.21   0
   0  -8   6  792.79   38.02   0
  -1   8  -6   81.09   51.69   0
   1  -8   6   97.49   46.60   0
  -2   8  -6 1207.16   43.31   0
   2  -8   6  927.10   41.27   0
   3  -8   6  -21.10   50.60   0
  -3   8  -6   25.76   39.96   0
   4  -8   6   30.01   56.15   0
  -4   8  -6   23.89   42.57   0
   5  -8   6   11.42   62.28   0
  -5   8  -6   30.80   66.55   0
  -6   8  -6   20.81   57.36   0
   6  -8   6    5.75   58.21   0
  -7  -7   6    4.33   70.47   0
  -7  -7   6  -38.10   61.12   0
  -6  -7   6    3.44   70.38   0
  -6  -7   6  -27.77   64.10   0
  -5  -7   6  140.33   56.59   0
  -4  -7   6   54.07   50.67   0
  -3  -7   6   99.27   46.22   0
   3   7  -6   89.56   38.07   0
  -2  -7   6    7.46   31.32   0
   2   7  -6   -0.06   36.03   0
   1   7  -6  430.32   38.71   0
  -1  -7   6  464.34   46.88   0
   0  -7   6 1139.47   48.23   0
   0   7  -6 1143.82   51.53   0
   0   7  -6  926.94   42.31   0
  -1   7  -6  413.54   35.82   0
   1  -7   6  399.85   48.06   0
   2  -7   6  354.95   50.86   0
  -2   7  -6  273.59   37.37   0
   3  -7   6   -5.13   35.95   0
  -3   7  -6   -0.93   45.93   0
   4  -7   6  237.21   43.00   0
  -4   7  -6  134.24   42.62   0
   5  -7   6   56.90   58.08   0
  -5   7  -6   49.23   57.62   0
   6  -7   6   40.80   78.57   0
  -6   7  -6   97.80   57.91   0
  -7  -6   6    7.08   57.22   0
  -7  -6   6    9.31   72.76   0
  -6  -6   6   35.01   57.87   0
  -6  -6   6   38.10   65.96   0
  -5  -6   6   87.98   47.88   0
  -4  -6   6   25.39   44.79   0
  -3  -6   6   -9.71   35.40   0
   3   6  -6  -12.18   38.54   0
   3   6  -6   -0.96   35.65   0
  -2  -6   6   60.63   43.39   0
   2   6  -6   44.12   36.69   0
   2   6  -6   29.56   46.59   0
   1   6  -6  496.02   38.69   0
  -1  -6   6 1024.85   39.40   0
   0  -6   6   -8.62   43.97   0
   0   6  -6   -9.62   33.28   0
   1  -6   6   66.19   46.87   0
  -1   6  -6   64.70   46.73   0
   2  -6   6  292.09   46.79   0
  -2   6  -6  299.26   35.71   0
   3  -6   6    9.80   36.28   0
  -3   6  -6   15.15   35.92   0
   4  -6   6  439.89   55.92   0
  -4   6  -6  505.34   55.01   0
  -5   6  -6   -3.10   45.03   0
   5  -6   6   20.68   57.15   0
  -6   6  -6   15.98   72.15   0
   6  -6   6  -10.66   53.06   0
  -7  -5   6  192.89   74.98   0
  -7  -5   6  162.38   52.82   0
  -7  -5   6  203.12   68.30   0
  -6  -5   6    3.79   44.88   0
  -6  -5   6   14.09   63.02   0
  -6  -5   6    3.74   64.21   0
  -5  -5   6  186.03   36.04   0
  -5  -5   6  265.94   56.52   0
  -5  -5   6  212.04   39.03   0
  -4  -5   6  138.02   49.11   0
  -4  -5   6  128.73   36.18   0
  -3  -5   6   -2.98   34.40   0
  -3  -5   6   11.18   30.39   0
  -2  -5   6 1316.96   44.48   0
   2   5  -6 1221.67   44.20   0
   2   5  -6  748.46   54.45   0
   1   5  -6   34.67   35.79   0
   1   5  -6   31.23   45.06   0
  -1  -5   6   45.92   42.49   0
   0  -5   6  574.79   48.51   0
   0   5  -6  543.24   50.44   0
   1  -5   6  170.05   46.67   0
  -1   5  -6  207.77   33.51   0
  -1   5  -6  156.08   34.61   0
   2  -5   6   28.74   32.66   0
  -2   5  -6   25.40   41.90   0
   3  -5   6  288.62   37.61   0
  -3   5  -6  336.86   36.99   0
  -4   5  -6   54.60   38.43   0
   4  -5   6   18.53   38.96   0
  -5   5  -6  -12.83   44.65   0
   5  -5   6   14.97   44.82   0
  -6   5  -6  -11.64   51.12   0
   6  -5   6   -1.70   51.78   0
  -7  -4   6   55.86   63.82   0
  -7  -4   6   42.48   61.12   0
  -7  -4   6   65.62   64.65   0
  -6  -4   6   13.68   58.53   0
  -6  -4   6   11.62   44.56   0
  -6  -4   6   12.36   41.73   0
  -5  -4   6  128.14   36.30   0
  -5  -4   6  191.02   42.48   0
  -5  -4   6  206.42   52.32   0
  -4  -4   6  369.51   49.28   0
  -4  -4   6  433.76   37.54   0
  -4  -4   6  421.50   41.79   0
  -3  -4   6  942.07   41.44   0
  -3  -4   6  977.93   42.18   0
   2   4  -6  973.26   54.32   0
   2   4  -6 1414.74   43.82   0
  -2  -4   6 1435.31   43.81   0
  -2  -4   6 1705.87   59.36   0
   1   4  -6  692.97   51.36   0
  -1  -4   6  677.85   47.87   0
   1   4  -6  653.47   39.11   0
   0  -4   6 1271.33   54.22   0
   0   4  -6 1330.67   42.58   0
   0   4  -6 1470.08   54.24   0
   1  -4   6  437.68   46.29   0
  -1   4  -6  471.15   50.74   0
   2  -4   6 1208.72   53.21   0
  -2   4  -6 1360.04   41.18   0
  -3   4  -6  372.85   37.92   0
   3  -4   6  328.57   48.39   0
  -4   4  -6   44.43   46.30   0
   4  -4   6   54.17   50.48   0
  -5   4  -6   -7.21   44.39   0
   5  -4   6   -1.48   44.58   0
  -6   4  -6   23.06   63.31   0
  -8  -3   6   -5.90   61.00   0
  -8  -3   6   -3.69   61.30   0
  -8  -3   6    0.36   74.52   0
  -7  -3   6   10.32   65.45   0
  -7  -3   6   -2.17   65.45   0
  -7  -3   6    9.39   49.67   0
  -6  -3   6   51.05   41.24   0
  -6  -3   6   36.53   51.35   0
  -6  -3   6   54.53   41.00   0
  -5  -3   6  268.03   47.61   0
  -5  -3   6  384.67   51.27   0
  -5  -3   6  383.17   38.60   0
  -4  -3   6   -0.66   34.41   0
  -4  -3   6   -6.23   43.20   0
  -4  -3   6    1.48   36.61   0
  -3  -3   6  483.40   49.08   0
  -3  -3   6  449.41   49.45   0
  -3  -3   6  461.18   52.16   0
  -2  -3   6  352.09   49.69   0
  -2  -3   6  333.83   49.85   0
  -1  -3   6  362.01   45.14   0
   1   3  -6  420.67   50.63   0
   1   3  -6  397.91   35.84   0
  -1  -3   6  367.49   36.28   0
   0  -3   6 2405.72   54.87   0
   0   3  -6 2311.96   47.71   0
   0   3  -6 2772.93   64.94   0
  -1   3  -6   13.66   35.04   0
   1  -3   6  -10.66   33.01   0
  -2   3  -6  953.68   39.27   0
  -2   3  -6  959.27   41.49   0
   2  -3   6  909.53   52.63   0
  -3   3  -6   79.57   46.36   0
  -3   3  -6   45.37   36.83   0
   3  -3   6   63.63   37.13   0
  -4   3  -6  229.71   51.00   0
  -4   3  -6  215.53   46.42   0
  -5   3  -6  227.42   44.62   0
  -5   3  -6  200.80   63.56   0
  -6   3  -6   19.44   52.66   0
  -6   3  -6    7.68   73.12   0
  -8  -2   6   -2.30   60.08   0
  -8  -2   6   28.16   84.87   0
  -8  -2   6   12.55   59.93   0
  -7  -2   6   -5.70   47.49   0
  -7  -2   6    2.13   59.78   0
  -7  -2   6  -18.38   67.58   0
  -6  -2   6   13.86   55.59   0
  -6  -2   6   21.08   50.92   0
  -6  -2   6   28.99   57.11   0
  -5  -2   6   12.28   47.91   0
  -5  -2   6    4.35   50.14   0
  -5  -2   6   -2.84   48.31   0
  -4  -2   6  218.49   34.94   0
  -4  -2   6  219.72   48.09   0
  -4  -2   6  158.26   44.46   0
  -3  -2   6   78.23   33.51   0
  -2  -2   6  333.53   47.75   0
   1   2  -6  330.76   35.39   0
  -1  -2   6  299.24   35.77   0
   1   2  -6  375.76   55.11   0
   0   2  -6  653.02   39.04   0
   0   2  -6  631.77   46.03   0
   0  -2   6  612.72   53.90   0
  -1   2  -6  168.71   36.52   0
  -2   2  -6  340.69   36.97   0
  -2   2  -6  325.79   48.21   0
  -3   2  -6  160.63   49.82   0
  -3   2  -6  158.18   55.10   0
  -4   2  -6  372.89   39.75   0
  -4   2  -6  364.97   55.99   0
  -5   2  -6  203.63   44.41   0
  -5   2  -6  200.23   58.72   0
  -6   2  -6  -10.03   71.73   0
  -6   2  -6   -0.00   69.73   0
  -8  -1   6   14.21   70.66   0
  -8  -1   6   11.77   59.84   0
  -8  -1   6   11.90   79.26   0
  -7  -1   6   98.39   63.51   0
  -7  -1   6  145.80   67.70   0
  -7  -1   6   99.85   47.94   0
  -6  -1   6  164.27   57.04   0
  -5  -1   6  508.82   50.19   0
  -4  -1   6   79.51   35.97   0
  -4  -1   6   91.46   53.75   0
  -4  -1   6   49.44   44.33   0
  -3  -1   6  149.33   47.53   0
  -2  -1   6  864.82   38.69   0
   1   1  -6  241.83   45.56   0
   1   1  -6  356.16   48.03   0
  -1  -1   6  346.24   37.30   0
   0   1  -6  291.88   44.66   0
   0  -1   6  284.21   38.90   0
  -1   1  -6  325.28   50.62   0
  -2   1  -6  369.64   34.56   0
  -2   1  -6  370.41   48.37   0
  -3   1  -6   89.23   35.97   0
  -3   1  -6   69.56   38.14   0
  -4   1  -6   64.63   39.89   0
  -4   1  -6   84.12   59.87   0
  -5   1  -6   10.99   45.35   0
  -5   1  -6   15.93   61.12   0
  -6   1  -6  -19.67   63.91   0
  -6   1  -6   -3.20   82.86   0
  -8   0   6  -12.00   81.14   0
  -7   0   6  168.39   61.89   0
  -6   0   6   -6.50   57.13   0
  -5   0   6   61.36   49.92   0
  -4   0   6  436.08   52.37   0
  -2   0   6 2056.33   45.39   0
   1   0  -6   -5.39   39.51   0
  -1   0   6  -14.50   33.93   0
   1   0  -6   -3.83   27.94   0
   0   0  -6  370.43   42.15   0
   0   0   6  558.46   52.84   0
   0   0  -6  429.09   36.46   0
  -2   0  -6  106.76   34.80   0
  -3   0  -6  227.20   37.16   0
  -4   0  -6   11.18   56.31   0
  -5   0  -6  -12.21   62.62   0
  -6   0  -6   36.84   66.17   0
  -8   1   6   -0.53   81.30   0
  -7   1   6    4.03   48.10   0
  -6   1   6   33.21   42.61   0
  -5   1   6   22.78   53.60   0
  -4   1   6  628.65   57.30   0
   4  -1  -6  557.48   51.94   0
   3  -1  -6  480.61   59.01   0
  -3   1   6  312.35   45.87   0
   2  -1  -6  394.60   51.33   0
  -1   1   6  106.64   34.81   0
   1  -1  -6  115.08   42.02   0
   0  -1  -6  729.49   37.80   0
  -1  -1  -6  335.14   45.30   0
   1   1   6  447.89   54.81   0
  -2  -1  -6  361.23   34.84   0
  -2  -1  -6  564.09   46.65   0
  -3  -1  -6   82.17   33.81   0
  -3  -1  -6  128.12   35.16   0
  -4  -1  -6   -5.76   40.15   0
  -4  -1  -6   13.81   39.08   0
  -5  -1  -6  186.75   66.11   0
  -5  -1  -6   97.28   47.41   0
  -6  -1  -6  -26.98   67.94   0
  -7   2   6   15.04   72.59   0
  -6   2   6   -2.86   55.48   0
   6  -2  -6  -18.84   55.36   0
  -5   2   6  113.37   56.25   0
   5  -2  -6  105.74   54.99   0
   4  -2  -6    7.22   35.21   0
  -4   2   6    6.05   44.10   0
   3  -2  -6   56.51   48.38   0
  -3   2   6   39.35   45.13   0
  -2   2   6  176.19   43.63   0
   2  -2  -6  377.52   54.99   0
  -1   2   6   17.27   33.47   0
   1  -2  -6    7.49   33.68   0
   0  -2  -6  746.69   38.11   0
   1   2   6    2.57   40.43   0
  -1  -2  -6   -8.28   30.10   0
  -2  -2  -6  128.29   34.90   0
  -2  -2  -6  233.02   36.07   0
  -3  -2  -6  190.86   51.97   0
  -3  -2  -6  125.01   36.69   0
  -4  -2  -6   -3.80   43.96   0
  -4  -2  -6   -1.93   41.23   0
  -5  -2  -6   98.22   48.57   0
  -5  -2  -6  153.82   51.33   0
  -7   3   6   12.19   76.22   0
  -6   3   6  198.87   47.47   0
   6  -3  -6  161.15   63.11   0
   5  -3  -6    3.76   56.63   0
  -5   3   6    1.13   55.88   0
   4  -3  -6  120.86   50.49   0
  -4   3   6   96.68   48.21   0
   3  -3  -6   43.77   49.91   0
  -3   3   6   27.90   44.95   0
  -2   3   6   20.24   34.58   0
   2  -3  -6   50.27   65.48   0
   1  -3  -6  632.84   41.76   0
   0  -3  -6   -9.99   49.56   0
   0   3   6   10.40   37.97   0
  -1  -3  -6   56.57   44.13   0
   1   3   6   50.36   37.13   0
  -2  -3  -6  162.60   47.08   0
  -2  -3  -6  171.58   36.41   0
  -3  -3  -6   64.06   41.06   0
  -3  -3  -6   48.69   41.36   0
  -4  -3  -6   49.25   45.43   0
  -4  -3  -6   41.46   44.28   0
  -5  -3  -6   47.19   70.60   0
  -5  -3  -6   14.77   58.01   0
  -7   4   6   99.90   59.76   0
   7  -4  -6   84.83   57.95   0
   6  -4  -6   73.20   64.00   0
  -6   4   6   92.67   69.33   0
   5  -4  -6   14.22   57.32   0
  -5   4   6   -1.53   55.42   0
  -4   4   6  205.40   53.10   0
   4  -4  -6  272.65   61.15   0
   3  -4  -6  131.87   56.88   0
  -3   4   6   87.12   50.41   0
  -2   4   6  427.33   47.98   0
   2  -4  -6  662.73   54.24   0
   1  -4  -6  488.47   42.96   0
   0   4   6   41.40   47.63   0
   0  -4  -6   58.66   52.68   0
  -1  -4  -6  219.29   40.40   0
   1   4   6  195.15   60.95   0
  -2  -4  -6   58.42   41.19   0
  -3  -4  -6  110.41   47.36   0
  -3  -4  -6  175.83   63.60   0
  -4  -4  -6   23.25   54.95   0
  -4  -4  -6    8.52   72.78   0
   7  -5  -6   11.42   85.75   0
   6  -5  -6   19.85   53.24   0
  -6   5   6   32.95   63.42   0
   5  -5  -6  -11.52   66.19   0
  -5   5   6   -9.87   58.63   0
  -4   5   6  392.46   58.09   0
   4  -5  -6  509.78   59.63   0
  -3   5   6    0.38   52.16   0
   3  -5  -6   -4.81   62.05   0
  -2   5   6  365.65   48.74   0
   2  -5  -6  676.73   69.72   0
   1  -5  -6  100.65   57.69   0
   0   5   6   82.60   37.74   0
   0  -5  -6  132.17   41.41   0
   1   5   6  433.48   63.98   0
  -1  -5  -6  466.22   55.85   0
  -2  -5  -6   64.47   47.35   0
  -3  -5  -6  219.93   51.71   0
  -3  -5  -6  261.40   70.66   0
  -4  -5  -6   27.52   59.81   0
  -4  -5  -6   17.07   81.01   0
   6  -6  -6   40.15   74.82   0
  -6   6   6   30.21   78.50   0
  -5   6   6   45.03   67.15   0
   5  -6  -6   54.73   74.41   0
   4  -6  -6   22.49   66.06   0
  -4   6   6   45.73   57.11   0
   3  -6  -6    2.30   87.95   0
  -3   6   6   10.95   59.44   0
  -2   6   6   57.76   54.19   0
   2  -6  -6  149.37   54.86   0
   1  -6  -6   19.19   45.89   0
   0  -6  -6  365.42   47.75   0
   0   6   6  260.22   62.04   0
   1   6   6   27.08   60.71   0
  -1  -6  -6   72.71   49.49   0
  -2  -6  -6   97.12   69.63   0
  -3  -6  -6   51.93   76.60   0
  -3  -6  -6   49.04   55.68   0
   5  -7  -6   18.91   62.74   0
  -5   7   6   42.41   69.15   0
   4  -7  -6   27.58   64.48   0
  -4   7   6   53.33   51.90   0
  -3   7   6   31.10   65.56   0
   3  -7  -6   36.11   99.27   0
  -2   7   6    4.35   57.78   0
   2  -7  -6   33.66   69.21   0
   1  -7  -6  101.28   72.61   0
   0  -7  -6   96.21   51.92   0
   0   7   6   15.78   71.35   0
  -1  -7  -6  -20.13   70.67   0
   1   7   6   23.88   77.02   0
  -2  -7  -6   43.07   57.54   0
  -4   8   6   45.36   76.93   0
   4  -8  -6   59.59   97.42   0
  -3   8   6   67.17   67.48   0
   3  -8  -6  107.42   74.22   0
  -2   8   6    5.79   55.21   0
   2  -8  -6    7.18   76.47   0
   1  -8  -6  263.49   61.88   0
   0  -8  -6  -15.94   58.79   0
   0   8   6   12.55   72.12   0
   1   8   6   -1.21   85.89   0
   2  13  -7    2.95   62.27   0
   2  13  -7   27.57   63.33   0
  -2 -13   7   19.32   78.48   0
   1  13  -7   24.70   59.05   0
  -1 -13   7   -5.61   76.80   0
   1  13  -7  -15.59   71.18   0
   0  13  -7  112.32   59.28   0
   0 -13   7  293.26   70.50   0
   0  13  -7  196.09   76.30   0
   1 -13   7  -13.97   57.02   0
  -1  13  -7   -8.30   69.89   0
   2 -13   7   94.03   79.17   0
  -2  13  -7   59.96   58.60   0
  -3 -12   7  205.97   57.70   0
   3  12  -7   62.54   64.79   0
   3  12  -7  132.89   80.42   0
   2  12  -7   29.41   55.99   0
   2  12  -7   62.52   74.08   0
  -2 -12   7  121.90   51.27   0
   1  12  -7  296.79   73.34   0
  -1 -12   7  319.35   48.82   0
   1  12  -7  207.92   72.42   0
   0  12  -7  247.80   50.74   0
   0  12  -7  239.38   51.83   0
   0 -12   7  338.74   67.90   0
   1 -12   7  195.28   49.68   0
  -1  12  -7  226.55   51.05   0
   2 -12   7  153.25   53.88   0
  -2  12  -7   95.42   52.46   0
   3 -12   7   -1.27   72.34   0
  -3  12  -7   21.29   54.95   0
  -4 -11   7   16.40   70.31   0
  -3 -11   7  424.13   51.79   0
   3  11  -7  207.58   83.08   0
   3  11  -7  238.64   75.33   0
   2  11  -7  -21.57   64.53   0
  -2 -11   7   -0.16   43.72   0
   2  11  -7   -7.33   52.00   0
   1  11  -7  535.16   50.46   0
   1  11  -7  578.13   63.96   0
  -1 -11   7  732.83   48.27   0
   0 -11   7   44.58   42.98   0
   0  11  -7   42.22   44.93   0
   0  11  -7    5.39   56.90   0
   1 -11   7  227.76   44.82   0
  -1  11  -7  165.56   45.63   0
   2 -11   7  541.09   57.93   0
  -2  11  -7  544.37   63.27   0
  -3  11  -7   31.20   66.19   0
   3 -11   7   38.66   66.44   0
  -4  11  -7  572.87   76.63   0
   4 -11   7  429.95   56.97   0
  -5 -10   7   35.63   56.68   0
  -4 -10   7  106.55   51.60   0
   3  10  -7   27.67   56.15   0
  -3 -10   7   21.98   44.92   0
   3  10  -7   19.30   54.96   0
   2  10  -7  223.15   47.32   0
  -2 -10   7  336.65   43.16   0
   2  10  -7  211.20   59.58   0
   1  10  -7   56.11   54.21   0
  -1 -10   7  111.03   38.50   0
   1  10  -7   52.46   56.60   0
   0  10  -7    4.42   50.12   0
   0 -10   7   37.14   38.88   0
   0  10  -7  -22.82   40.32   0
  -1  10  -7  503.46   53.16   0
   1 -10   7  570.30   55.15   0
  -2  10  -7  167.70   44.96   0
   2 -10   7  162.80   43.57   0
  -3  10  -7  495.88   46.24   0
   3 -10   7  449.64   57.06   0
  -4  10  -7   69.20   49.87   0
   4 -10   7   97.05   66.46   0
  -5  10  -7  -19.64   70.79   0
   5 -10   7   -5.34   54.94   0
  -6  -9   7  -10.57   80.52   0
  -5  -9   7  121.72   68.39   0
  -4  -9   7  135.40   45.85   0
  -3  -9   7  587.61   58.03   0
   3   9  -7  545.91   61.65   0
   2   9  -7  238.32   60.38   0
   2   9  -7  151.24   62.05   0
  -2  -9   7  250.17   50.80   0
   1   9  -7   -2.85   38.77   0
  -1  -9   7   17.63   50.53   0
   1   9  -7   -6.79   36.87   0
   0   9  -7  679.62   41.95   0
   0  -9   7  756.94   40.39   0
   0   9  -7  678.01   56.66   0
  -1   9  -7  311.30   37.62   0
   1  -9   7  285.52   36.94   0
  -2   9  -7  431.82   39.36   0
   2  -9   7  349.37   40.46   0
  -3   9  -7   56.11   40.60   0
   3  -9   7   49.23   41.78   0
   4  -9   7    9.22   44.79   0
  -4   9  -7   -5.12   44.82   0
   5  -9   7   29.72   71.50   0
  -5   9  -7   74.19   66.49   0
  -6  -8   7    4.64   52.96   0
  -6  -8   7   14.50   78.84   0
  -5  -8   7  550.82   49.76   0
  -4  -8   7   -2.38   41.92   0
  -3  -8   7  814.75   42.48   0
   3   8  -7  720.39   60.84   0
   2   8  -7  866.88   56.97   0
  -2  -8   7  871.11   39.24   0
  -1  -8   7  333.51   46.96   0
   1   8  -7  323.48   40.53   0
   0   8  -7 1460.24   43.17   0
   0  -8   7 1869.50   53.99   0
   0   8  -7 1742.54   56.33   0
  -1   8  -7  197.61   36.38   0
   1  -8   7  181.94   45.43   0
   2  -8   7  975.76   39.43   0
  -2   8  -7 1154.71   41.01   0
   3  -8   7   38.06   39.91   0
  -3   8  -7   67.28   39.47   0
   4  -8   7  156.96   43.21   0
  -4   8  -7  178.20   44.93   0
   5  -8   7  149.37   51.85   0
  -5   8  -7  110.86   52.66   0
  -7  -7   7   38.95   62.79   0
  -7  -7   7   -6.35   71.54   0
  -6  -7   7  182.27   50.74   0
  -6  -7   7  201.68   71.88   0
  -5  -7   7  132.55   54.50   0
  -4  -7   7   51.53   35.06   0
  -3  -7   7  806.21   41.54   0
   3   7  -7  460.01   56.37   0
   3   7  -7  721.53   43.52   0
   2   7  -7  247.01   60.61   0
   2   7  -7  376.46   40.43   0
  -2  -7   7  419.17   48.42   0
  -1  -7   7 2862.67   52.83   0
   1   7  -7 2650.03   52.77   0
   0  -7   7  473.82   34.94   0
   0   7  -7  414.70   55.32   0
  -1   7  -7  561.62   35.80   0
   1  -7   7  494.54   34.75   0
   2  -7   7 1268.15   42.39   0
  -2   7  -7 1580.90   54.83   0
   3  -7   7   61.29   45.58   0
  -3   7  -7   44.83   35.28   0
   4  -7   7  907.92   46.13   0
  -4   7  -7 1000.70   47.18   0
  -5   7  -7   59.65   46.50   0
   5  -7   7   37.05   60.13   0
  -6   7  -7   51.04   58.08   0
   6  -7   7   94.30   69.26   0
  -7  -6   7   51.20   80.68   0
  -7  -6   7   72.59   74.86   0
  -6  -6   7   51.70   50.08   0
  -6  -6   7   40.34   46.07   0
  -6  -6   7   66.96   62.13   0
  -5  -6   7   43.87   54.51   0
  -5  -6   7   41.97   41.92   0
  -5  -6   7   21.88   43.63   0
  -4  -6   7  179.73   37.10   0
  -3  -6   7  334.90   38.21   0
   3   6  -7  177.32   39.79   0
   3   6  -7  284.40   39.33   0
   2   6  -7  594.64   60.22   0
  -2  -6   7 1043.29   56.87   0
   2   6  -7  921.65   54.08   0
  -1  -6   7  832.04   39.77   0
   1   6  -7  602.56   39.63   0
   1   6  -7  811.68   42.01   0
   0  -6   7   -1.29   44.25   0
   0   6  -7  -18.01   37.25   0
   1  -6   7  595.20   47.34   0
  -1   6  -7  563.83   41.17   0
  -1   6  -7  705.57   36.63   0
   2  -6   7  670.99   38.80   0
  -2   6  -7  704.52   38.77   0
   3  -6   7  377.91   51.20   0
  -3   6  -7  423.91   37.11   0
  -4   6  -7  376.76   41.26   0
   4  -6   7  350.57   41.30   0
  -5   6  -7  -22.07   58.02   0
   5  -6   7   17.75   46.45   0
  -6   6  -7   87.08   67.27   0
   6  -6   7   39.73   74.97   0
  -7  -5   7  134.38   67.71   0
  -7  -5   7  109.98   71.02   0
  -7  -5   7  143.28   70.12   0
  -6  -5   7   20.39   44.92   0
  -6  -5   7   -1.30   53.78   0
  -6  -5   7    3.10   58.99   0
  -5  -5   7  315.17   44.48   0
  -5  -5   7  277.43   53.02   0
  -5  -5   7  298.32   62.16   0
  -4  -5   7  559.89   48.79   0
  -4  -5   7  544.91   38.99   0
  -3  -5   7  493.07   53.22   0
  -3  -5   7  465.51   53.07   0
   2   5  -7 1785.93   44.56   0
  -2  -5   7 1944.15   59.26   0
   2   5  -7 1271.57   62.91   0
  -1  -5   7   91.21   32.72   0
   1   5  -7  104.06   48.65   0
   1   5  -7  117.23   33.77   0
   0  -5   7  278.00   33.71   0
   0   5  -7  333.76   49.83   0
   0   5  -7  373.61   46.98   0
   1  -5   7  938.43   38.79   0
  -1   5  -7 1016.55   42.63   0
  -2   5  -7  282.24   33.23   0
   2  -5   7  314.90   48.23   0
  -2   5  -7  329.85   39.63   0
  -3   5  -7  210.51   35.51   0
   3  -5   7  414.16   36.70   0
  -4   5  -7   22.79   39.18   0
   4  -5   7   19.66   49.74   0
  -5   5  -7  -17.93   61.77   0
   5  -5   7    1.72   44.74   0
  -6   5  -7   63.04   54.06   0
  -7  -4   7   63.99   70.80   0
  -7  -4   7   37.00   53.42   0
  -7  -4   7   52.40   68.89   0
  -6  -4   7   -1.36   59.23   0
  -6  -4   7   10.51   56.64   0
  -6  -4   7   -4.34   44.32   0
  -5  -4   7  748.93   56.07   0
  -5  -4   7  808.12   61.15   0
  -5  -4   7  888.08   45.06   0
  -4  -4   7  124.61   47.79   0
  -4  -4   7  140.43   37.51   0
  -4  -4   7  126.29   50.86   0
  -3  -4   7 1319.83   42.54   0
  -3  -4   7 1573.09   71.55   0
  -2  -4   7  892.96   55.87   0
   2   4  -7  853.45   52.29   0
   2   4  -7  596.37   61.91   0
  -2  -4   7  862.05   52.15   0
  -1  -4   7   32.91   29.74   0
   1   4  -7   31.71   41.38   0
   1   4  -7   44.29   34.04   0
   0  -4   7 2500.39   53.97   0
   0   4  -7 2714.15   48.84   0
   0   4  -7 2965.66   66.16   0
   1  -4   7    6.10   31.84   0
  -1   4  -7    0.18   34.79   0
  -2   4  -7 1707.45   53.23   0
  -2   4  -7 1670.96   57.15   0
   2  -4   7 1614.92   44.14   0
  -3   4  -7   58.95   34.91   0
  -3   4  -7   73.05   39.70   0
   3  -4   7   40.58   48.20   0
  -4   4  -7   24.63   53.99   0
  -4   4  -7    9.33   57.37   0
   4  -4   7   13.63   39.97   0
  -5   4  -7   43.99   44.43   0
  -5   4  -7  104.33   66.76   0
  -6   4  -7   50.97   64.64   0
  -6   4  -7   -2.52   85.78   0
  -7  -3   7   35.96   64.53   0
  -7  -3   7   32.94   52.30   0
  -7  -3   7   14.64   64.46   0
  -6  -3   7   63.69   59.66   0
  -6  -3   7   96.49   58.85   0
  -6  -3   7   62.88   60.19   0
  -5  -3   7  275.58   54.58   0
  -5  -3   7  307.38   55.10   0
  -5  -3   7  366.22   52.04   0
  -4  -3   7    1.74   51.47   0
  -4  -3   7    2.47   49.95   0
  -4  -3   7   30.06   50.85   0
  -3  -3   7  502.75   39.65   0
  -2  -3   7  509.53   36.78   0
   1   3  -7  979.24   57.18   0
   1   3  -7  825.03   38.50   0
  -1  -3   7  767.88   39.15   0
  -1  -3   7  802.66   59.44   0
   0   3  -7 2784.86   62.43   0
   0   3  -7 2620.81   60.17   0
   0  -3   7 2441.87   55.18   0
  -1   3  -7  465.66   48.81   0
   1  -3   7  388.07   35.92   0
  -2   3  -7  671.67   36.13   0
  -2   3  -7  687.66   38.52   0
   2  -3   7  633.86   49.18   0
  -3   3  -7  284.77   48.48   0
  -3   3  -7  267.72   52.87   0
  -4   3  -7  165.44   55.06   0
  -4   3  -7  161.57   44.13   0
  -5   3  -7  165.52   45.31   0
  -5   3  -7  187.35   52.07   0
  -6   3  -7  137.33   55.63   0
  -6   3  -7   65.60   80.86   0
  -8  -2   7  -13.23   80.96   0
  -8  -2   7   15.45   61.33   0
  -8  -2   7   -5.18   83.51   0
  -7  -2   7   32.75   49.47   0
  -7  -2   7   15.85   58.67   0
  -7  -2   7    8.14   64.98   0
  -6  -2   7   73.06   51.51   0
  -6  -2   7  122.36   52.65   0
  -6  -2   7  135.84   60.33   0
  -5  -2   7   50.44   54.83   0
  -5  -2   7   67.61   50.30   0
  -5  -2   7   36.25   53.46   0
  -4  -2   7   26.04   49.18   0
  -3  -2   7  368.61   39.17   0
  -2  -2   7   67.94   33.60   0
   1   2  -7 1394.36   70.43   0
  -1  -2   7 1208.14   54.15   0
   0   2  -7   86.50   41.99   0
   0   2  -7   61.80   49.33   0
   0  -2   7   71.43   51.58   0
  -1   2  -7   -2.85   48.36   0
  -2   2  -7  328.30   33.54   0
  -2   2  -7  462.26   42.31   0
  -3   2  -7   -3.35   34.06   0
  -3   2  -7   -5.62   48.54   0
  -4   2  -7  407.89   55.94   0
  -4   2  -7  420.92   57.10   0
  -5   2  -7   -3.75   61.35   0
  -5   2  -7    4.43   63.04   0
  -6   2  -7    6.91   76.90   0
  -6   2  -7   -9.47   55.81   0
  -8  -1   7    7.08   82.09   0
  -8  -1   7   26.62   75.44   0
  -8  -1   7    1.92   81.30   0
  -7  -1   7   66.22   69.22   0
  -7  -1   7  194.81   68.11   0
  -7  -1   7   88.55   65.77   0
  -6  -1   7  -12.27   43.54   0
  -6  -1   7   -1.07   56.47   0
  -6  -1   7    2.42   57.01   0
  -5  -1   7  142.04   39.88   0
  -5  -1   7  104.49   51.14   0
  -5  -1   7  212.77   63.97   0
  -4  -1   7  547.02   52.59   0
  -3  -1   7    8.17   36.69   0
  -2  -1   7  906.66   38.79   0
   1   1  -7   31.08   50.01   0
  -1  -1   7   -5.02   48.94   0
   1   1  -7   26.33   41.76   0
   0   1  -7  159.21   48.11   0
   0  -1   7  162.76   53.14   0
  -2   1  -7   24.35   31.89   0
  -2   1  -7   35.87   54.11   0
  -3   1  -7  311.61   47.81   0
  -3   1  -7  355.32   51.20   0
  -4   1  -7   17.53   40.83   0
  -4   1  -7    9.35   54.86   0
  -5   1  -7   -8.23   45.17   0
  -5   1  -7    0.08   69.68   0
  -8   0   7   16.05   81.65   0
  -8   0   7   20.24   82.82   0
  -8   0   7   31.91   62.65   0
  -7   0   7   45.68   63.31   0
  -6   0   7   19.02   57.03   0
  -5   0   7  215.57   64.92   0
  -3   0   7  516.19   40.95   0
  -2   0   7  377.12   34.78   0
   1   0  -7    7.74   41.05   0
   1   0  -7    9.45   40.67   0
  -1   0   7   15.52   35.18   0
   0   0  -7  591.25   45.88   0
   0   0   7  815.30   40.95   0
   0   0  -7  784.52   40.14   0
  -1   0  -7  323.25   47.97   0
  -2   0  -7  451.23   36.57   0
  -3   0  -7   62.62   35.35   0
  -4   0  -7  -21.72   56.88   0
  -5   0  -7  -12.32   53.20   0
  -7   1   7   24.70   64.24   0
  -6   1   7   20.63   62.83   0
  -5   1   7  310.22   56.75   0
  -4   1   7   15.63   60.80   0
   3  -1  -7  101.23   56.45   0
  -2   1   7  575.96   39.33   0
   2  -1  -7  771.16   61.25   0
  -1   1   7  -20.57   48.83   0
   1  -1  -7   -5.48   52.56   0
   0  -1  -7 1104.13   53.17   0
   0  -1  -7 1058.14   46.33   0
  -1  -1  -7   21.66   45.68   0
   1   1   7   30.33   53.36   0
  -2  -1  -7  169.91   37.19   0
  -2  -1  -7  226.87   38.15   0
  -3  -1  -7   99.54   41.66   0
  -3  -1  -7   79.71   54.21   0
  -4  -1  -7    2.12   60.19   0
  -4  -1  -7   17.35   59.17   0
  -5  -1  -7   42.11   75.25   0
  -5  -1  -7   29.00   75.84   0
  -7   2   7   -8.07   73.61   0
  -6   2   7   56.76   62.67   0
  -5   2   7    5.54   55.59   0
   5  -2  -7    2.51   56.69   0
   4  -2  -7   53.41   58.87   0
  -4   2   7   48.79   53.90   0
   3  -2  -7   48.37   48.55   0
  -3   2   7   23.83   46.66   0
   2  -2  -7  457.02   68.75   0
   1  -2  -7  497.15   54.08   0
  -1   2   7  412.52   45.90   0
   0  -2  -7  177.84   38.90   0
   1   2   7   13.18   38.54   0
  -1  -2  -7   14.88   48.29   0
  -2  -2  -7   52.63   54.29   0
  -2  -2  -7   43.90   38.64   0
  -3  -2  -7  129.07   44.51   0
  -3  -2  -7  166.54   44.04   0
  -4  -2  -7   77.35   66.76   0
  -4  -2  -7   33.32   68.75   0
  -5  -2  -7   53.25   60.28   0
  -5  -2  -7   11.20   83.24   0
  -7   3   7   37.11   73.60   0
  -6   3   7   54.88   66.17   0
   6  -3  -7   39.09   61.06   0
   5  -3  -7   69.46   63.55   0
  -5   3   7   71.03   61.97   0
   4  -3  -7  119.82   61.03   0
  -4   3   7   87.85   53.28   0
  -3   3   7   58.90   50.81   0
   3  -3  -7  112.31   55.59   0
   2  -3  -7  268.09   62.40   0
   1  -3  -7   95.10   50.90   0
  -1   3   7   56.82   37.10   0
   0   3   7   64.21   37.06   0
   0  -3  -7   43.56   50.97   0
  -1  -3  -7   17.59   40.40   0
   1   3   7   -6.76   59.80   0
  -2  -3  -7   80.45   43.83   0
  -2  -3  -7  108.29   43.85   0
  -3  -3  -7   32.41   48.17   0
  -3  -3  -7   28.75   66.32   0
  -4  -3  -7   37.43   69.99   0
  -4  -3  -7   41.85   56.64   0
  -7   4   7   30.72   83.89   0
   7  -4  -7    6.60   85.04   0
   6  -4  -7   11.73   65.49   0
  -6   4   7   11.05   71.65   0
   5  -4  -7    4.30   59.43   0
  -5   4   7   14.93   57.25   0
   4  -4  -7  205.62   63.71   0
  -4   4   7  112.80   43.05   0
  -3   4   7    4.73   50.58   0
   3  -4  -7    7.64   58.19   0
   2  -4  -7  422.29   62.14   0
   1  -4  -7    6.02   39.99   0
   0  -4  -7   29.08   40.53   0
   0   4   7   12.81   40.58   0
  -1  -4  -7  213.48   42.99   0
   1   4   7  246.95   61.71   0
  -2  -4  -7   21.71   46.79   0
  -2  -4  -7  -10.43   61.73   0
  -3  -4  -7   61.10   51.54   0
  -3  -4  -7   84.34   50.91   0
  -4  -4  -7    3.70   59.31   0
   6  -5  -7    4.99   71.86   0
  -6   5   7   44.23   69.97   0
   5  -5  -7   14.36   55.08   0
  -5   5   7   15.22   63.15   0
  -4   5   7   34.17   45.68   0
   4  -5  -7   29.18   68.84   0
  -3   5   7   16.50   52.81   0
   3  -5  -7   24.20   66.99   0
   2  -5  -7   71.93   77.38   0
   1  -5  -7  159.46   49.49   0
   0  -5  -7  124.24   60.76   0
   0   5   7   62.46   60.40   0
   1   5   7   61.84   62.61   0
  -1  -5  -7   71.75   62.28   0
  -2  -5  -7   40.15   50.64   0
  -3  -5  -7   12.86   55.89   0
  -3  -5  -7   -7.69   68.83   0
   5  -6  -7    6.96   59.82   0
  -5   6   7   17.68   75.97   0
  -4   6   7    5.91   51.30   0
   4  -6  -7   11.44   57.85   0
  -3   6   7  -11.13   59.51   0
   3  -6  -7    6.67   60.34   0
   2  -6  -7   71.44   57.51   0
   1  -6  -7    0.61   69.49   0
   0  -6  -7   97.07   62.70   0
   0   6   7   54.32   52.37   0
  -1  -6  -7   -3.48   55.38   0
   1   6   7   -7.87   72.18   0
  -2  -6  -7  -23.89   74.01   0
   4  -7  -7   10.64   83.88   0
  -4   7   7   11.34   76.39   0
   3  -7  -7    5.21   75.59   0
  -3   7   7    7.15   72.55   0
   2  -7  -7   -0.01   61.91   0
   1  -7  -7   59.22   57.87   0
   0  -7  -7    5.95   72.23   0
   0   7   7   11.90   71.49   0
  -1  -7  -7    9.78   75.78   0
   1   7   7   -5.76   83.65   0
   2  13  -8   42.36   80.30   0
   2  13  -8   54.72   63.65   0
   1  13  -8  -35.61   61.25   0
  -1 -13   8   -9.84   79.09   0
   1  13  -8    5.68   59.83   0
   0  13  -8  137.81   56.96   0
   0 -13   8  171.37   55.12   0
   0  13  -8  116.79   58.29   0
  -1  13  -8  -27.83   58.86   0
   1 -13   8   -5.11   57.21   0
  -1  13  -8   -3.95   78.21   0
   3  12  -8   36.14   94.60   0
   3  12  -8  103.97   78.98   0
  -3 -12   8  128.05   56.65   0
   2  12  -8  121.01   82.70   0
   2  12  -8   79.24   71.00   0
  -2 -12   8  234.73   56.59   0
   1  12  -8  258.25   51.79   0
  -1 -12   8  381.10   67.41   0
   1  12  -8  277.27   55.11   0
   0 -12   8  245.38   51.30   0
   0  12  -8  137.12   52.53   0
   0  12  -8  152.04   50.70   0
   1 -12   8    8.23   73.68   0
  -1  12  -8    1.87   67.96   0
   2 -12   8  262.41   57.12   0
  -2  12  -8  317.98   58.64   0
   3 -12   8   50.25   72.68   0
  -3  12  -8   57.34   61.06   0
  -4 -11   8   12.16   69.58   0
   3  11  -8  233.51   67.41   0
   3  11  -8  384.89   81.18   0
  -3 -11   8  468.22   70.29   0
   2  11  -8    6.36   49.50   0
  -2 -11   8  -12.87   45.33   0
   2  11  -8   -4.01   69.54   0
   1  11  -8  361.73   60.37   0
  -1 -11   8  444.00   61.62   0
   1  11  -8  357.40   50.29   0
   0 -11   8  250.13   64.50   0
   0  11  -8  187.95   47.55   0
   0  11  -8  234.28   60.53   0
   1 -11   8   41.79   48.49   0
  -1  11  -8   64.19   49.49   0
   2 -11   8  781.09   54.09   0
  -2  11  -8  740.64   71.27   0
  -3  11  -8    1.56   56.15   0
   3 -11   8    8.72   67.35   0
  -4  11  -8  198.49   62.44   0
   4 -11   8  151.15   60.72   0
  -5 -10   8   -8.03   71.37   0
  -4 -10   8  260.03   50.39   0
   3  10  -8   13.45   52.19   0
  -3 -10   8   23.70   45.41   0
   2  10  -8   34.50   48.13   0
  -2 -10   8   52.54   42.01   0
   1  10  -8  154.86   42.68   0
  -1 -10   8  281.42   43.04   0
   1  10  -8  267.32   55.93   0
   0 -10   8  112.35   43.42   0
   0  10  -8  148.86   55.02   0
   0  10  -8  134.08   42.62   0
  -1  10  -8  607.18   59.74   0
   1 -10   8  654.81   61.73   0
  -1  10  -8  490.12   48.97   0
  -2  10  -8  119.06   44.60   0
   2 -10   8   89.21   55.87   0
  -3  10  -8  142.07   51.78   0
   3 -10   8  132.88   49.40   0
  -4  10  -8  327.39   56.96   0
   4 -10   8  223.76   75.29   0
  -6  -9   8   18.02   61.30   0
  -5  -9   8  235.21   54.35   0
  -4  -9   8  117.22   48.35   0
   3   9  -8   30.94   65.63   0
   3   9  -8   18.62   65.81   0
  -3  -9   8   36.03   44.06   0
   2   9  -8  224.86   43.95   0
  -2  -9   8  207.14   53.69   0
   1   9  -8   81.02   38.66   0
  -1  -9   8  107.68   39.68   0
   0  -9   8  529.03   58.61   0
   0   9  -8  492.24   44.75   0
   0   9  -8  460.08   43.45   0
  -1   9  -8  437.86   43.93   0
   1  -9   8  417.32   41.05   0
  -1   9  -8  378.82   55.18   0
  -2   9  -8   73.05   44.72   0
   2  -9   8   71.26   44.42   0
   3  -9   8  134.60   46.57   0
  -3   9  -8  152.17   43.74   0
   4  -9   8   79.67   50.62   0
  -4   9  -8  137.20   63.24   0
   5  -9   8   54.86   80.65   0
  -5   9  -8   12.31   58.71   0
  -6  -8   8   20.93   75.81   0
  -6  -8   8   27.29   81.81   0
  -5  -8   8  311.52   49.57   0
  -4  -8   8   17.51   58.29   0
   3   8  -8  279.26   56.46   0
   3   8  -8  175.05   64.26   0
  -3  -8   8  325.29   40.46   0
   2   8  -8  904.41   70.14   0
   2   8  -8 1399.25   45.50   0
  -2  -8   8 1587.36   57.79   0
  -1  -8   8  342.80   50.82   0
   1   8  -8  326.21   40.86   0
   0  -8   8 1838.13   57.84   0
   0   8  -8 1619.51   45.90   0
  -1   8  -8   10.55   38.14   0
   1  -8   8   35.09   38.88   0
  -1   8  -8    7.19   39.98   0
   2  -8   8  337.90   39.57   0
  -2   8  -8  436.52   40.66   0
   3  -8   8  286.01   43.86   0
  -3   8  -8  371.83   55.40   0
   4  -8   8   93.26   48.94   0
  -4   8  -8  129.70   63.19   0
  -5   8  -8  243.86   74.23   0
   5  -8   8  153.45   68.33   0
  -6  -7   8    6.72   63.06   0
  -6  -7   8   32.47   66.60   0
  -5  -7   8   96.38   55.87   0
  -4  -7   8   47.31   53.87   0
   3   7  -8 1070.75   63.99   0
   3   7  -8 1555.60   46.45   0
  -3  -7   8 1837.02   51.09   0
   2   7  -8  183.16   54.69   0
   2   7  -8  251.44   56.62   0
  -2  -7   8  329.35   48.83   0
  -1  -7   8 1091.41   54.90   0
   1   7  -8 1107.34   57.39   0
   1   7  -8  935.95   60.55   0
   0  -7   8 1034.53   54.74   0
   0   7  -8 1062.85   44.43   0
   1  -7   8   87.43   37.40   0
  -1   7  -8  117.04   51.33   0
  -1   7  -8  107.56   37.67   0
   2  -7   8 1553.78   44.92   0
  -2   7  -8 1352.77   44.22   0
  -2   7  -8 1461.95   57.13   0
   3  -7   8   71.66   56.42   0
  -3   7  -8   71.07   40.92   0
  -4   7  -8  601.00   59.46   0
   4  -7   8  583.66   64.30   0
  -5   7  -8  139.47   54.00   0
   5  -7   8  149.54   73.31   0
  -7  -6   8   27.33   58.95   0
  -7  -6   8    9.65   69.51   0
  -7  -6   8   13.04   78.09   0
  -6  -6   8   11.12   63.38   0
  -6  -6   8   -4.46   61.42   0
  -6  -6   8   12.59   50.27   0
  -5  -6   8  116.23   57.85   0
  -5  -6   8  129.77   42.27   0
  -5  -6   8  137.80   60.44   0
  -4  -6   8  189.84   52.36   0
  -4  -6   8  188.45   41.07   0
  -3  -6   8  577.40   41.82   0
   2   6  -8  179.14   40.69   0
  -2  -6   8  178.35   49.96   0
   2   6  -8  119.61   67.14   0
  -1  -6   8  310.60   52.72   0
   1   6  -8  317.40   57.06   0
   1   6  -8  328.35   41.31   0
   0   6  -8  584.09   52.22   0
   0  -6   8  498.94   50.37   0
   0   6  -8  509.25   41.20   0
   1  -6   8  715.05   38.67   0
  -1   6  -8  753.94   43.70   0
   2  -6   8  825.29   41.44   0
  -2   6  -8 1042.43   43.91   0
  -2   6  -8  890.11   42.26   0
  -3   6  -8  106.67   37.30   0
  -3   6  -8   93.11   41.23   0
   3  -6   8   92.29   48.93   0
  -4   6  -8  394.45   56.74   0
  -4   6  -8  291.70   64.50   0
   4  -6   8  352.87   46.58   0
  -5   6  -8   62.55   53.01   0
  -5   6  -8    9.02   71.15   0
   5  -6   8   39.92   53.40   0
  -7  -5   8    4.01   58.89   0
  -7  -5   8   28.60   57.27   0
  -7  -5   8    4.56   68.75   0
  -6  -5   8  212.63   66.68   0
  -6  -5   8  196.80   63.47   0
  -6  -5   8  200.57   61.42   0
  -5  -5   8   51.13   57.83   0
  -5  -5   8   72.74   56.43   0
  -5  -5   8   99.92   53.65   0
  -4  -5   8  971.58   63.84   0
  -4  -5   8  819.26   54.20   0
  -4  -5   8  705.27   63.99   0
  -3  -5   8   78.37   46.44   0
  -3  -5   8   34.91   38.54   0
  -2  -5   8  258.36   48.86   0
   2   5  -8  258.37   53.20   0
   2   5  -8  182.71   55.05   0
   1   5  -8  694.96   51.56   0
  -1  -5   8  773.32   56.94   0
   1   5  -8  717.51   48.02   0
   0  -5   8  240.56   37.02   0
   0   5  -8  282.42   38.90   0
   0   5  -8  315.30   48.65   0
   1  -5   8 1022.07   50.69   0
  -1   5  -8 1160.40   56.82   0
  -2   5  -8  -34.37   47.20   0
  -2   5  -8   17.94   49.73   0
   2  -5   8   -9.05   34.60   0
  -3   5  -8  184.57   51.48   0
  -3   5  -8  145.88   40.88   0
   3  -5   8  202.32   52.60   0
  -4   5  -8  122.61   53.41   0
  -4   5  -8  113.93   61.29   0
   4  -5   8  104.04   43.29   0
  -5   5  -8   10.95   69.45   0
  -5   5  -8    7.61   50.81   0
  -7  -4   8  179.62   65.32   0
  -7  -4   8  117.11   66.44   0
  -7  -4   8  156.33   75.23   0
  -6  -4   8   81.63   64.40   0
  -6  -4   8   55.87   46.88   0
  -6  -4   8   72.89   62.13   0
  -5  -4   8  990.45   72.34   0
  -5  -4   8 1055.92   74.65   0
  -5  -4   8 1005.09   56.64   0
  -4  -4   8  250.90   66.21   0
  -4  -4   8  291.55   38.82   0
  -4  -4   8  349.20   72.76   0
  -3  -4   8  274.65   39.61   0
  -2  -4   8 2162.16   99.63   0
   2   4  -8 1443.17   88.92   0
  -2  -4   8 2084.21   60.19   0
   1   4  -8  196.04   49.87   0
   1   4  -8  163.10   37.70   0
  -1  -4   8  174.36   45.75   0
   0   4  -8 3453.13   53.35   0
   0   4  -8 3874.88   66.29   0
   0  -4   8 3419.95   72.57   0
  -1   4  -8  286.51   39.02   0
   1  -4   8  240.49   51.29   0
  -2   4  -8  329.78   48.54   0
  -2   4  -8  346.95   38.36   0
   2  -4   8  309.95   46.09   0
  -3   4  -8  632.27   41.03   0
  -3   4  -8  550.07   45.77   0
   3  -4   8  491.95   42.23   0
  -4   4  -8   27.45   53.67   0
  -4   4  -8    3.79   64.21   0
  -5   4  -8  127.75   52.26   0
  -5   4  -8  224.92   68.44   0
  -7  -3   8   90.32   70.68   0
  -7  -3   8  116.17   73.28   0
  -7  -3   8  136.64   74.42   0
  -6  -3   8   84.77   69.01   0
  -6  -3   8   92.41   62.57   0
  -6  -3   8  127.26   48.42   0
  -5  -3   8  340.18   76.93   0
  -5  -3   8  307.64   49.98   0
  -5  -3   8  301.14   76.14   0
  -4  -3   8  158.15   38.42   0
  -3  -3   8 1027.01   43.28   0
  -2  -3   8 2350.92   60.42   0
   1   3  -8 1166.35   42.91   0
  -1  -3   8 1106.26   43.11   0
   1   3  -8 1349.52   64.83   0
   0   3  -8 1838.68   52.84   0
   0   3  -8 1749.04   44.40   0
  -1   3  -8    0.19   48.78   0
  -1   3  -8    6.34   46.75   0
  -2   3  -8 1762.71   54.55   0
  -2   3  -8 1823.95   60.19   0
  -3   3  -8  558.28   51.85   0
  -3   3  -8  593.64   56.44   0
  -4   3  -8  347.56   44.25   0
  -4   3  -8  430.66   51.69   0
  -5   3  -8  214.31   71.45   0
  -5   3  -8  218.37   73.33   0
  -7  -2   8   -3.35   51.91   0
  -7  -2   8   23.68   78.95   0
  -7  -2   8    8.27   76.01   0
  -6  -2   8   62.54   70.40   0
  -6  -2   8   80.07   60.78   0
  -6  -2   8   79.95   73.01   0
  -5  -2   8  120.85   37.75   0
  -4  -2   8  -15.54   53.43   0
  -3  -2   8 1011.83   42.67   0
  -2  -2   8   -0.13   38.15   0
   1   2  -8  764.72   55.01   0
   1   2  -8 1227.18   63.16   0
  -1  -2   8 1145.92   52.39   0
   0   2  -8  389.04   53.67   0
   0  -2   8  345.01   38.60   0
  -1   2  -8   99.12   50.15   0
  -1   2  -8   95.62   46.57   0
  -2   2  -8 1630.47   59.81   0
  -2   2  -8 1668.91   59.86   0
  -3   2  -8   12.13   51.65   0
  -3   2  -8  -15.47   51.51   0
  -4   2  -8  289.80   46.63   0
  -4   2  -8  301.51   65.30   0
  -5   2  -8   40.14   54.98   0
  -5   2  -8   25.91   77.49   0
  -7  -1   8   59.30   83.65   0
  -7  -1   8   18.38   64.92   0
  -7  -1   8   88.39   79.45   0
  -6  -1   8  156.48   85.02   0
  -6  -1   8  131.61   42.49   0
  -6  -1   8   86.61   80.46   0
  -5  -1   8   -9.78   54.08   0
  -4  -1   8 1029.56   41.45   0
  -3  -1   8   29.52   37.41   0
  -2  -1   8  717.59   41.93   0
   1   1  -8  542.48   51.73   0
   1   1  -8  403.05   57.77   0
  -1  -1   8  516.48   39.80   0
   0   1  -8   19.97   47.52   0
   0   1  -8   27.44   45.52   0
   0  -1   8   45.87   49.77   0
  -1   1  -8  937.51   55.15   0
  -2   1  -8   34.20   39.16   0
  -3   1  -8  153.99   55.92   0
  -4   1  -8   66.51   60.61   0
  -5   1  -8   -9.04   56.77   0
  -7   0   8  130.79   78.91   0
  -7   0   8   88.48   86.72   0
  -7   0   8   35.08   54.47   0
  -6   0   8  150.61   55.63   0
  -6   0   8  100.35   77.57   0
  -6   0   8  158.64   87.37   0
  -5   0   8  714.41   58.31   0
  -4   0   8  735.90   41.73   0
  -3   0   8  117.89   37.25   0
  -2   0   8 1300.56   44.59   0
   1   0  -8  200.14   45.77   0
  -1   0   8  197.93   47.45   0
   1   0  -8  214.28   48.12   0
   0   0  -8 1172.52   46.38   0
   0   0  -8  834.50   54.24   0
   0   0   8 1178.70   55.49   0
  -1   0  -8  625.89   52.99   0
  -1   0  -8  413.39   39.03   0
  -2   0  -8  332.21   58.51   0
  -2   0  -8  229.24   41.76   0
  -3   0  -8  242.07   45.61   0
  -3   0  -8  173.95   44.60   0
  -4   0  -8   -4.76   67.26   0
  -4   0  -8   25.19   50.95   0
  -5   0  -8   61.15   60.98   0
  -5   0  -8   58.78   74.34   0
  -7   1   8   67.69   85.90   0
  -6   1   8   -1.79   83.67   0
  -3   1   8  132.52   38.04   0
  -2   1   8 1287.35   44.26   0
   2  -1  -8 1593.53   75.22   0
   2  -1  -8 1415.13   65.00   0
  -1   1   8   90.59   36.17   0
   1  -1  -8  127.67   52.71   0
   1  -1  -8  144.18   46.47   0
   0  -1  -8 1106.65   53.85   0
   0  -1  -8 1338.22   57.86   0
  -1  -1  -8   14.02   37.40   0
   1   1   8   15.48   38.94   0
  -2  -1  -8  314.24   41.31   0
  -2  -1  -8  281.18   55.47   0
  -3  -1  -8  305.75   59.15   0
  -3  -1  -8  242.34   58.48   0
  -4  -1  -8   35.24   71.38   0
  -4  -1  -8   41.56   53.00   0
  -7   2   8   -5.51   82.64   0
  -6   2   8   79.02   79.66   0
  -5   2   8    2.30   72.52   0
   4  -2  -8    2.84   63.02   0
   3  -2  -8  474.25   68.45   0
  -2   2   8   36.32   34.76   0
   2  -2  -8   15.43   68.71   0
   1  -2  -8  386.61   42.92   0
  -1   2   8  339.84   40.95   0
   0  -2  -8  181.09   50.22   0
   0  -2  -8  228.98   37.72   0
  -1  -2  -8   -6.26   39.39   0
   1   2   8    0.68   54.23   0
  -2  -2  -8  242.36   43.00   0
  -2  -2  -8  271.25   54.97   0
  -3  -2  -8   10.22   48.92   0
  -3  -2  -8   14.64   67.39   0
  -4  -2  -8   51.06   55.39   0
  -4  -2  -8   40.68   55.60   0
  -6   3   8   35.84   77.86   0
   6  -3  -8    1.70   75.77   0
   5  -3  -8   -6.63   65.70   0
  -5   3   8   -6.95   62.47   0
   4  -3  -8  189.24   63.63   0
  -4   3   8  115.72   60.09   0
   3  -3  -8  131.59   60.50   0
  -2   3   8  241.85   39.64   0
   2  -3  -8  338.58   72.44   0
   1  -3  -8   63.90   44.20   0
  -1   3   8   75.57   40.96   0
   0   3   8   -4.91   43.87   0
   0  -3  -8   11.31   59.12   0
  -1  -3  -8  103.41   42.67   0
   1   3   8   41.90   56.38   0
  -2  -3  -8   33.59   46.26   0
  -2  -3  -8   32.45   45.89   0
  -3  -3  -8   69.66   71.44   0
  -3  -3  -8   52.37   52.01   0
  -6   4   8   65.88   77.69   0
   6  -4  -8   48.52   83.74   0
   5  -4  -8   34.87   70.33   0
  -5   4   8   18.97   64.45   0
   4  -4  -8  509.87   70.40   0
  -4   4   8  241.53   66.55   0
   3  -4  -8   31.22   69.72   0
  -2   4   8   81.62   44.72   0
   2  -4  -8  176.28   77.81   0
   1  -4  -8  109.75   59.59   0
   0  -4  -8  126.70   46.51   0
   0   4   8   67.85   48.58   0
   1   4   8  115.14   64.20   0
  -1  -4  -8  183.63   49.49   0
  -1  -4  -8  178.25   48.80   0
  -2  -4  -8    3.27   54.56   0
  -2  -4  -8   -4.13   72.70   0
  -3  -4  -8   16.24   82.03   0
  -3  -4  -8   30.81   58.68   0
   5  -5  -8  117.86   71.67   0
  -5   5   8   55.81   69.05   0
   4  -5  -8   38.68   54.87   0
  -4   5   8   41.00   68.82   0
   3  -5  -8   15.90   71.20   0
   2  -5  -8  216.16   59.76   0
   1  -5  -8   56.47   71.17   0
   0  -5  -8  429.85   70.46   0
   0   5   8  284.27   69.44   0
   1   5   8   11.19   57.59   0
  -1  -5  -8   29.62   70.47   0
  -2  -5  -8  -56.58   79.15   0
  -2  -5  -8    7.57   59.98   0
   4  -6  -8  -26.16   85.05   0
  -4   6   8  -16.18   58.04   0
   3  -6  -8   25.92   82.51   0
   2  -6  -8   96.60   76.19   0
   1  -6  -8   52.70   59.29   0
  -1   6   8   20.97   73.91   0
   0  -6  -8   60.49   78.75   0
   0   6   8   20.07   77.26   0
  -1  -6  -8    0.31   62.28   0
   1   6   8   -0.42   88.90   0
   2  -7  -8   -4.68   84.46   0
   1  13  -9   14.42   75.77   0
  -1 -13   9   29.11   58.15   0
   1  13  -9   34.21   84.81   0
   0  13  -9   11.09   84.51   0
   0 -13   9   22.26   58.26   0
   0  13  -9   21.19   73.08   0
  -1  13  -9   12.97   73.25   0
  -1  13  -9  -13.21   82.46   0
   3  12  -9   94.24   91.12   0
   3  12  -9   85.22   64.14   0
  -3 -12   9  172.06   71.88   0
   2  12  -9   15.27   59.04   0
  -2 -12   9   -4.63   53.93   0
   2  12  -9    6.22   61.11   0
   1  12  -9   62.79   55.81   0
  -1 -12   9   45.99   51.73   0
   1  12  -9   19.58   74.02   0
   0 -12   9   55.28   72.28   0
   0  12  -9   20.24   64.14   0
   0  12  -9   44.13   75.36   0
   1 -12   9   15.70   52.89   0
  -1  12  -9  -15.99   70.04   0
  -1  12  -9    7.12   72.23   0
   2 -12   9  131.12   75.58   0
  -2  12  -9   27.19   58.06   0
  -2  12  -9   67.84   59.57   0
  -4 -11   9  -16.80   78.07   0
   3  11  -9   55.20   72.90   0
  -3 -11   9   88.46   69.59   0
   2  11  -9   37.06   51.86   0
  -2 -11   9   39.15   47.55   0
   1  11  -9   32.11   62.44   0
  -1 -11   9   34.11   64.08   0
   1  11  -9   27.26   62.49   0
   0 -11   9  311.55   58.10   0
   0  11  -9  269.11   48.74   0
   0  11  -9  292.44   60.81   0
   1 -11   9  130.53   48.52   0
  -1  11  -9  123.35   62.75   0
  -1  11  -9   80.51   62.01   0
   2 -11   9   94.45   69.85   0
  -2  11  -9  111.86   53.74   0
  -2  11  -9   79.82   53.08   0
  -3  11  -9   11.81   58.55   0
   3 -11   9    6.70   57.07   0
  -5 -10   9   14.44   80.93   0
  -4 -10   9   18.16   52.71   0
   3  10  -9   -0.52   98.87   0
   3  10  -9   11.32   51.93   0
  -3 -10   9   50.47   61.96   0
   2  10  -9   26.48   61.28   0
  -2 -10   9    8.68   60.60   0
   2  10  -9   19.76   67.66   0
  -1 -10   9  365.14   59.97   0
   1  10  -9  327.99   44.47   0
   0 -10   9   68.34   57.62   0
   0  10  -9   55.70   59.03   0
   0  10  -9   81.91   58.98   0
   1 -10   9   88.25   60.97   0
  -1  10  -9   79.35   47.34   0
  -1  10  -9   79.11   47.18   0
  -2  10  -9  153.64   50.65   0
   2 -10   9  126.86   49.16   0
  -2  10  -9  164.61   67.54   0
  -3  10  -9   46.02   75.11   0
   3 -10   9   63.92   73.74   0
  -4  10  -9  201.12   76.57   0
   4 -10   9  176.67   62.00   0
  -5  -9   9   81.55   67.33   0
  -4  -9   9   -1.87   48.16   0
   3   9  -9   -1.96   57.98   0
   3   9  -9   10.83   68.54   0
  -3  -9   9   -5.25   42.48   0
   2   9  -9  193.63   59.30   0
  -2  -9   9  197.34   60.00   0
   2   9  -9  156.93   76.22   0
  -1  -9   9   72.88   41.52   0
   1   9  -9   81.76   42.93   0
   1   9  -9   30.12   59.73   0
   0  -9   9   72.54   55.31   0
   0   9  -9   76.21   42.66   0
  -1   9  -9   20.97   52.15   0
   1  -9   9   13.41   54.89   0
  -1   9  -9   24.58   45.40   0
  -2   9  -9   67.15   63.77   0
   2  -9   9   20.54   44.83   0
  -2   9  -9   12.54   47.30   0
   3  -9   9  176.63   68.62   0
  -3   9  -9  163.07   46.87   0
  -3   9  -9  202.51   50.51   0
   4  -9   9   39.09   77.96   0
  -4   9  -9   92.32   57.78   0
  -6  -8   9   17.04   77.98   0
  -6  -8   9  -10.70   78.69   0
  -5  -8   9   91.18   71.86   0
  -4  -8   9  227.28   59.28   0
   3   8  -9  103.13   46.51   0
   3   8  -9   68.13   61.47   0
  -3  -8   9  134.03   55.18   0
   2   8  -9  229.90   56.85   0
  -2  -8   9  419.29   54.96   0
   2   8  -9  380.82   54.24   0
  -1  -8   9   58.06   49.91   0
   1   8  -9   64.19   38.31   0
   1   8  -9   49.63   38.92   0
   0  -8   9  351.00   40.42   0
   0   8  -9  357.28   44.77   0
  -1   8  -9  165.71   57.30   0
   1  -8   9  148.63   40.53   0
  -1   8  -9  129.40   44.48   0
   2  -8   9  125.50   58.61   0
  -2   8  -9  150.89   44.39   0
  -2   8  -9  206.10   59.38   0
   3  -8   9  224.24   59.86   0
  -3   8  -9  140.87   47.97   0
  -3   8  -9  217.03   49.26   0
  -4   8  -9    6.08   52.84   0
  -4   8  -9   31.77   65.23   0
   4  -8   9   21.41   66.04   0
  -6  -7   9    1.78   75.00   0
  -6  -7   9   -2.74   57.34   0
  -5  -7   9  225.07   66.69   0
  -5  -7   9  175.18   67.53   0
  -4  -7   9  130.38   59.33   0
   3   7  -9  328.45   62.66   0
   3   7  -9  500.95   43.25   0
  -3  -7   9  588.85   59.90   0
   2   7  -9  203.41   69.70   0
  -2  -7   9  347.12   53.05   0
   2   7  -9  308.43   42.56   0
  -1  -7   9  111.60   36.60   0
   1   7  -9   98.28   39.79   0
   1   7  -9   75.05   56.61   0
   0   7  -9 1417.23   47.62   0
   0  -7   9 1337.62   56.55   0
   0   7  -9 1323.24   56.85   0
   1  -7   9   46.62   40.57   0
  -1   7  -9   34.52   40.33   0
   2  -7   9  814.25   56.75   0
  -2   7  -9  862.17   59.76   0
  -2   7  -9 1016.07   58.22   0
  -3   7  -9   36.03   46.28   0
  -3   7  -9   41.31   62.27   0
   3  -7   9   26.06   46.22   0
  -4   7  -9   21.64   69.10   0
  -4   7  -9   63.97   50.59   0
   4  -7   9   34.65   52.52   0
  -5   7  -9  153.03   60.45   0
  -5   7  -9  123.72   65.75   0
   5  -7   9   77.67   82.49   0
  -7  -6   9    1.96   77.55   0
  -7  -6   9    9.47   85.59   0
  -7  -6   9    0.88   61.55   0
  -6  -6   9   14.02   65.95   0
  -6  -6   9   10.83   69.25   0
  -6  -6   9   -8.75   69.88   0
  -5  -6   9   92.86   64.56   0
  -5  -6   9   26.63   46.51   0
  -5  -6   9   71.35   60.74   0
  -4  -6   9   94.63   58.53   0
  -4  -6   9   93.98   40.30   0
  -3  -6   9  276.81   56.67   0
  -2  -6   9  216.06   48.62   0
   2   6  -9  219.33   38.92   0
   2   6  -9  155.44   65.34   0
  -1  -6   9  704.04   42.47   0
   1   6  -9  717.87   56.78   0
   1   6  -9  723.19   51.75   0
   0   6  -9  759.12   56.13   0
   0  -6   9  657.18   41.49   0
   0   6  -9  689.25   54.24   0
   1  -6   9  193.09   39.16   0
  -1   6  -9  219.76   37.99   0
  -2   6  -9  673.51   44.06   0
  -2   6  -9  619.98   52.80   0
   2  -6   9  611.84   53.27   0
  -3   6  -9    8.04   43.34   0
  -3   6  -9   77.98   56.64   0
   3  -6   9   47.14   44.53   0
  -4   6  -9  284.51   61.53   0
  -4   6  -9  248.92   52.98   0
   4  -6   9  307.44   68.06   0
  -5   6  -9  174.75   60.66   0
  -5   6  -9  130.29   60.81   0
  -7  -5   9   17.75   81.29   0
  -7  -5   9   23.84   77.80   0
  -7  -5   9   34.57   73.57   0
  -6  -5   9  109.90   81.20   0
  -6  -5   9  145.14   74.37   0
  -6  -5   9  154.85   61.08   0
  -5  -5   9   59.64   71.70   0
  -5  -5   9   87.28   45.61   0
  -5  -5   9   98.86   70.49   0
  -4  -5   9  178.18   90.23   0
  -4  -5   9  202.11   91.17   0
  -4  -5   9  176.27   37.85   0
  -3  -5   9   82.04   87.01   0
  -3  -5   9  103.93   49.32   0
  -3  -5   9   77.62   90.73   0
  -2  -5   9  185.01   49.27   0
   2   5  -9  121.76   59.46   0
   2   5  -9  182.18   38.57   0
  -1  -5   9  706.29   57.09   0
   1   5  -9  736.26   47.70   0
   1   5  -9  801.26   54.25   0
   0   5  -9  101.66   50.39   0
   0   5  -9   78.22   52.90   0
   0  -5   9   64.43   51.94   0
  -1   5  -9  330.16   49.30   0
  -1   5  -9  362.56   51.23   0
   1  -5   9  319.03   51.31   0
  -2   5  -9  186.18   41.39   0
  -2   5  -9  161.32   52.42   0
   2  -5   9  158.54   57.39   0
  -3   5  -9   94.72   60.00   0
  -3   5  -9   60.04   58.39   0
   3  -5   9   29.69   60.11   0
  -4   5  -9  351.35   50.33   0
  -4   5  -9  378.66   51.00   0
  -5   5  -9   20.66   58.63   0
  -5   5  -9   24.60   78.28   0
  -7  -4   9  136.30   95.99   0
  -7  -4   9  154.91   94.60   0
  -7  -4   9   46.20   59.76   0
  -6  -4   9    9.76   90.10   0
  -6  -4   9    6.05   82.48   0
  -6  -4   9   -0.40   66.09   0
  -5  -4   9  132.83   41.91   0
  -4  -4   9  417.54   42.25   0
  -3  -4   9   34.52   52.58   0
  -2  -4   9 1713.10   47.68   0
   1   4  -9  -11.00   47.32   0
   1   4  -9   -1.59   37.71   0
   0   4  -9  654.37   52.58   0
   0   4  -9  710.33   54.59   0
   0  -4   9  623.94   42.07   0
  -1   4  -9  770.11   41.90   0
  -1   4  -9  724.55   40.23   0
  -2   4  -9   65.07   57.48   0
  -3   4  -9  518.86   61.50   0
  -3   4  -9  510.79   59.57   0
  -4   4  -9  -12.41   48.12   0
  -4   4  -9    5.47   50.09   0
  -5   4  -9   16.46   69.89   0
  -5   4  -9    8.45   75.24   0
  -7  -3   9   20.09  100.32   0
  -7  -3   9   66.54   57.71   0
  -7  -3   9   35.02  102.17   0
  -6  -3   9   17.71   49.29   0
  -5  -3   9  123.09   42.18   0
  -4  -3   9  357.55   39.76   0
  -3  -3   9  644.93   41.23   0
  -2  -3   9  994.06   53.63   0
  -1  -3   9    6.91   52.90   0
   1   3  -9   69.38   47.84   0
   0   3  -9 1342.26   49.11   0
   0   3  -9 1303.47   56.61   0
  -1   3  -9  390.49   48.72   0
  -1   3  -9  426.80   50.66   0
  -2   3  -9  919.23   47.32   0
  -3   3  -9  176.12   43.54   0
  -3   3  -9  176.70   45.68   0
  -4   3  -9  115.43   67.98   0
  -4   3  -9  102.80   49.86   0
  -5   3  -9  153.12   58.42   0
  -5   3  -9   93.30   75.17   0
  -7  -2   9    6.27   56.11   0
  -6  -2   9   11.39   65.00   0
  -5  -2   9  257.17   44.51   0
  -4  -2   9   25.30   39.07   0
  -3  -2   9  458.04   53.84   0
  -2  -2   9  227.71   38.99   0
   1   2  -9   33.84   51.70   0
   1   2  -9   47.65   51.82   0
  -1  -2   9   36.33   49.72   0
   0   2  -9 1330.91   48.12   0
  -1   2  -9  118.48   36.96   0
  -2   2  -9  532.12   43.39   0
  -3   2  -9   65.61   56.51   0
  -3   2  -9   69.06   57.61   0
  -4   2  -9  102.29   51.52   0
  -4   2  -9   78.79   72.30   0
  -7  -1   9   -4.08   58.84   0
  -6  -1   9  136.32   64.43   0
  -5  -1   9  -24.11   43.28   0
  -4  -1   9  234.33   43.40   0
  -3  -1   9  129.26   53.10   0
  -2  -1   9    9.79   37.78   0
   1   1  -9  607.51   57.14   0
   1   1  -9  720.03   55.90   0
  -1  -1   9  658.79   40.73   0
   0   1  -9   56.74   47.79   0
   0  -1   9   42.47   38.53   0
   0   1  -9   24.42   44.37   0
  -1   1  -9  408.63   38.25   0
  -1   1  -9  286.87   46.91   0
  -3   1  -9   -0.80   55.29   0
  -4   1  -9   66.64   65.16   0
  -7   0   9    7.09   59.16   0
  -6   0   9  132.05   47.76   0
  -5   0   9  139.84   46.61   0
  -4   0   9  293.85   42.62   0
  -3   0   9    6.45   52.33   0
  -2   0   9  894.72   42.03   0
   1   0  -9  417.05   52.69   0
  -1   0   9  389.15   52.49   0
   1   0  -9  402.94   59.54   0
   0   0  -9  501.14   52.27   0
   0   0   9  485.41   44.50   0
   0   0  -9  379.97   56.47   0
  -1   0  -9  251.53   53.52   0
  -1   0  -9  158.84   38.52   0
  -2   0  -9   11.46   42.32   0
  -3   0  -9  260.19   59.15   0
  -3   0  -9  119.31   47.44   0
  -4   0  -9   -7.78   68.54   0
  -4   0  -9   13.69   70.17   0
  -7   1   9    6.24   59.26   0
  -6   1   9  -12.35   70.13   0
  -5   1   9   38.27   46.78   0
  -4   1   9  410.66   57.74   0
  -3   1   9   72.83   42.32   0
   2  -1  -9  793.79   64.74   0
  -2   1   9  774.53   57.52   0
   2  -1  -9  982.82   82.08   0
   1  -1  -9   23.72   59.66   0
  -1   1   9    8.47   40.23   0
   1  -1  -9   12.82   51.39   0
   0  -1  -9  449.91   53.95   0
   0  -1  -9  388.06   57.44   0
  -1  -1  -9  270.12   56.34   0
  -1  -1  -9  220.22   45.41   0
  -2  -1  -9  112.99   57.09   0
  -2  -1  -9   71.25   63.21   0
  -3  -1  -9  263.12   54.65   0
  -3  -1  -9  200.31   56.14   0
  -4  -1  -9   51.96   75.08   0
  -4   2   9   94.78   55.47   0
   3  -2  -9  263.36   77.44   0
  -3   2   9  245.61   41.07   0
   3  -2  -9  239.00   79.49   0
  -2   2   9  213.47   41.98   0
   2  -2  -9  227.62   58.89   0
   2  -2  -9  271.41   62.79   0
   1  -2  -9    4.74   45.42   0
  -1   2   9    0.05   57.58   0
   1  -2  -9  -14.86   56.83   0
   0   2   9  438.32   57.18   0
   0  -2  -9  429.81   45.58   0
   0  -2  -9  413.59   46.24   0
  -1  -2  -9   39.12   62.36   0
  -1  -2  -9   28.76   45.06   0
  -2  -2  -9  341.86   69.64   0
  -2  -2  -9  289.31   52.41   0
  -3  -2  -9   35.14   56.30   0
  -3  -2  -9   61.69   76.06   0
   4  -3  -9  119.54   71.72   0
   3  -3  -9   96.55   69.27   0
  -3   3   9   43.52   44.82   0
  -2   3   9   22.92   56.21   0
   2  -3  -9   18.73   67.12   0
   1  -3  -9  362.42   50.18   0
  -1   3   9  205.77   56.61   0
   0   3   9  144.71   65.23   0
   0  -3  -9   86.77   59.91   0
   0  -3  -9   62.43   57.90   0
  -1  -3  -9   94.10   68.12   0
   1   3   9   33.61   54.34   0
  -2  -3  -9   74.56   53.09   0
  -2  -3  -9   70.52   54.65   0
   5  -4  -9    5.50   85.34   0
   4  -4  -9   55.42   83.15   0
  -3   4   9   15.93   62.96   0
   3  -4  -9   23.51   72.55   0
  -2   4   9  121.93   60.27   0
   2  -4  -9  206.04   74.45   0
   1  -4  -9  440.70   70.14   0
   0  -4  -9   40.00   65.77   0
   0   4   9   23.26   53.07   0
   0  -4  -9   18.10   50.64   0
   1   4   9   60.33   74.41   0
  -1  -4  -9   76.18   69.78   0
  -2  -4  -9   37.10   74.32   0
  -2  -4  -9   49.62   72.74   0
   4  -5  -9   67.79   83.91   0
  -3   5   9  -14.98   51.30   0
   3  -5  -9    3.12   84.36   0
  -2   5   9  235.07   68.60   0
   2  -5  -9  431.22   68.16   0
   1  -5  -9   26.02   81.00   0
  -1   5   9    6.32   67.17   0
   0  -5  -9  125.22   80.61   0
   0   5   9   20.27   81.35   0
  -2 -12  10    8.45   58.36   0
   2  12 -10   22.34   60.27   0
   1  12 -10   39.84   70.53   0
  -1 -12  10   32.13   56.42   0
   1  12 -10   42.05   57.89   0
   0 -12  10  149.87   73.54   0
   0  12 -10  162.32   73.03   0
   0  12 -10   79.21   57.02   0
   1 -12  10   19.48   68.77   0
  -1  12 -10   29.27   57.72   0
  -1  12 -10   33.61   76.05   0
  -4 -11  10   27.76   61.26   0
   3  11 -10   31.71   70.00   0
   3  11 -10   34.92   62.57   0
  -3 -11  10   45.10   55.87   0
  -2 -11  10   52.47   71.27   0
   2  11 -10   87.26   77.51   0
   2  11 -10   50.95   63.03   0
  -1 -11  10  293.96   50.45   0
   1  11 -10  246.99   65.69   0
   0 -11  10   85.88   69.46   0
   0  11 -10   80.94   52.42   0
   0  11 -10   78.78   49.73   0
   1 -11  10  163.71   53.74   0
  -1  11 -10  144.03   54.95   0
  -1  11 -10  109.00   54.98   0
   2 -11  10   89.80   69.50   0
  -2  11 -10   69.32   73.15   0
  -2  11 -10   64.44   56.98   0
  -4 -10  10    5.76   66.46   0
   3  10 -10   39.09   64.54   0
   3  10 -10   95.73   54.90   0
  -3 -10  10   91.14   60.28   0
  -2 -10  10   45.23   61.06   0
   2  10 -10   21.62   50.36   0
   2  10 -10    3.35   68.64   0
  -1 -10  10  204.54   62.21   0
   1  10 -10  190.66   47.57   0
   1  10 -10  173.29   63.61   0
   0 -10  10   23.36   46.28   0
   0  10 -10   39.41   65.34   0
   1 -10  10   16.02   59.33   0
  -1  10 -10   14.14   66.48   0
  -1  10 -10   44.24   62.82   0
   2 -10  10  114.22   52.86   0
  -2  10 -10  180.91   53.81   0
  -2  10 -10  178.61   54.94   0
  -3  10 -10    2.24   58.14   0
   3 -10  10   10.98   56.55   0
  -3  10 -10    2.71   54.81   0
  -5  -9  10   21.26   77.32   0
  -4  -9  10   54.07   52.29   0
   3   9 -10   16.63   50.39   0
   3   9 -10   24.09   76.89   0
  -3  -9  10   37.60   59.86   0
  -2  -9  10  306.35   59.54   0
   2   9 -10  162.06   75.59   0
   2   9 -10  312.60   45.25   0
  -1  -9  10   44.23   59.71   0
   1   9 -10    7.94   44.79   0
   1   9 -10   44.60   46.88   0
   0  -9  10    6.53   60.29   0
   0   9 -10   20.79   45.30   0
   0   9 -10   27.90   47.15   0
   1  -9  10   48.85   45.56   0
  -1   9 -10   52.27   47.17   0
  -2   9 -10    1.93   46.99   0
   2  -9  10   14.05   46.49   0
  -2   9 -10   -9.20   48.36   0
   3  -9  10   45.08   51.97   0
  -3   9 -10   48.49   55.79   0
  -3   9 -10   36.40   69.78   0
  -4   9 -10   15.15   60.44   0
   4  -9  10   21.34   61.17   0
  -6  -8  10    1.35   84.73   0
  -6  -8  10    5.98   86.01   0
  -5  -8  10  142.90   70.12   0
  -5  -8  10   94.92   74.52   0
  -4  -8  10   79.89   65.30   0
   3   8 -10  294.85   63.25   0
   3   8 -10  453.50   44.67   0
  -3  -8  10  552.47   63.91   0
  -2  -8  10   80.00   56.85   0
   2   8 -10   84.54   47.82   0
   2   8 -10   59.71   70.44   0
  -1  -8  10   40.75   56.27   0
   1   8 -10   46.28   42.86   0
   1   8 -10   34.63   59.14   0
   0  -8  10  127.69   60.56   0
   0   8 -10  146.13   58.43   0
   0   8 -10  170.92   60.25   0
   1  -8  10   40.52   53.82   0
  -1   8 -10   76.78   60.85   0
   2  -8  10  450.74   57.95   0
  -2   8 -10  413.26   46.17   0
  -2   8 -10  514.59   48.13   0
  -3   8 -10   22.57   51.95   0
  -3   8 -10  -19.37   50.23   0
   3  -8  10  -15.89   68.08   0
  -4   8 -10    9.48   57.01   0
  -4   8 -10  -34.27   81.07   0
   4  -8  10  -14.91   58.34   0
  -6  -7  10    8.23   78.72   0
  -6  -7  10  -11.68   80.15   0
  -5  -7  10  233.68   74.11   0
  -5  -7  10  180.03   78.89   0
  -4  -7  10   17.66   63.91   0
  -3  -7  10  148.48   58.45   0
  -2  -7  10  149.22   53.25   0
   2   7 -10  118.54   42.87   0
   2   7 -10  106.12   75.82   0
  -1  -7  10  128.66   43.54   0
   1   7 -10  125.61   59.02   0
   1   7 -10  109.85   62.57   0
   0  -7  10  852.56   55.90   0
   0   7 -10  962.15   62.05   0
   0   7 -10  864.16   47.50   0
   1  -7  10   77.09   42.60   0
  -1   7 -10   98.84   43.33   0
  -1   7 -10   72.51   43.05   0
  -2   7 -10  294.29   61.82   0
  -2   7 -10  343.57   43.71   0
   2  -7  10  298.90   54.90   0
  -3   7 -10   19.97   48.13   0
  -3   7 -10   -1.78   69.91   0
   3  -7  10   18.21   47.75   0
  -4   7 -10   18.49   73.52   0
  -4   7 -10   30.63   57.02   0
   4  -7  10    7.96   74.12   0
  -6  -6  10    8.70   96.66   0
  -6  -6  10   47.21   79.82   0
  -6  -6  10   10.40   89.29   0
  -5  -6  10   63.79   50.29   0
  -4  -6  10   30.06   43.77   0
  -3  -6  10   19.52   70.34   0
  -2  -6  10   13.21   58.41   0
   2   6 -10   18.12   57.25   0
   2   6 -10   18.64   70.53   0
  -1  -6  10  454.90   57.18   0
   1   6 -10  484.75   63.27   0
   1   6 -10  480.36   55.50   0
   0   6 -10   89.18   39.90   0
   0   6 -10   75.67   40.14   0
   0  -6  10   88.19   41.58   0
  -1   6 -10  139.54   41.11   0
  -1   6 -10  126.12   55.65   0
   1  -6  10  110.28   41.05   0
  -2   6 -10  101.93   56.68   0
   2  -6  10  108.45   42.85   0
  -3   6 -10   62.77   46.04   0
  -3   6 -10   55.91   66.97   0
   3  -6  10   49.82   46.04   0
  -4   6 -10  131.51   52.39   0
  -4   6 -10  109.72   57.92   0
  -6  -5  10    5.38   65.74   0
  -5  -5  10   32.75   47.27   0
  -4  -5  10   16.63   41.40   0
  -3  -5  10   36.83   54.45   0
   1   5 -10   -3.58   60.13   0
   1   5 -10    9.19   55.32   0
  -1  -5  10   -0.15   56.49   0
   0   5 -10    0.60   37.10   0
   0  -5  10    3.59   48.84   0
   0   5 -10   11.85   49.85   0
  -1   5 -10   19.77   41.04   0
  -1   5 -10  -14.32   50.71   0
   1  -5  10    2.51   51.12   0
  -2   5 -10   21.50   56.87   0
  -3   5 -10   41.55   45.97   0
  -3   5 -10    7.19   48.13   0
  -4   5 -10   76.74   53.10   0
  -4   5 -10   20.32   70.10   0
  -7  -4  10    2.20   61.15   0
  -6  -4  10    3.72   55.78   0
  -5  -4  10   17.79   60.73   0
  -4  -4  10  306.41   63.44   0
  -3  -4  10   97.84   42.35   0
  -2  -4  10  211.50   56.29   0
   1   4 -10    0.57   67.91   0
   0   4 -10   51.18   47.83   0
   0   4 -10   41.21   53.47   0
  -1   4 -10  129.16   53.84   0
  -1   4 -10  136.37   41.08   0
  -2   4 -10   38.72   57.78   0
  -3   4 -10  111.13   46.65   0
  -3   4 -10  124.85   51.05   0
  -4   4 -10   -7.45   68.44   0
  -4   4 -10   21.23   55.30   0
  -7  -3  10   32.11   59.54   0
  -6  -3  10   38.54   51.62   0
  -5  -3  10  230.82   45.03   0
  -4  -3  10  127.81   45.09   0
  -3  -3  10   88.39   42.98   0
  -2  -3  10  157.42   41.68   0
   1   3 -10   21.00   60.61   0
  -1  -3  10   44.41   53.80   0
   1   3 -10   56.01   54.37   0
   0   3 -10 1148.67   63.28   0
  -1   3 -10  108.75   55.29   0
  -1   3 -10   99.45   41.41   0
  -2   3 -10  151.98   44.48   0
  -3   3 -10  126.93   48.74   0
  -3   3 -10  118.96   61.10   0
  -4   3 -10   23.73   55.80   0
  -4   3 -10  -24.64   81.14   0
  -7  -2  10   17.69   60.30   0
  -6  -2  10  -29.66   49.75   0
  -5  -2  10   -3.57   46.79   0
  -4  -2  10   -3.33   42.59   0
  -3  -2  10   -0.82   42.96   0
  -2  -2  10  313.52   39.55   0
   1   2 -10   81.59   63.31   0
   1   2 -10  119.80   62.46   0
  -1  -2  10  116.93   53.30   0
   0   2 -10  539.84   60.90   0
   0   2 -10  341.02   58.68   0
  -1   2 -10   14.32   57.33   0
  -3   2 -10  109.71   68.07   0
  -4   2 -10   44.75   58.30   0
  -7  -1  10   20.09   62.11   0
  -6  -1  10   29.01   49.73   0
  -5  -1  10   31.08   57.99   0
  -4  -1  10   15.05   53.85   0
  -3  -1  10  116.21   42.04   0
  -2  -1  10    7.97   55.27   0
   1   1 -10  238.69   57.54   0
  -1  -1  10  229.36   37.63   0
   1   1 -10  220.10   60.21   0
   0   1 -10    6.94   56.26   0
   0   1 -10    7.59   51.72   0
   0  -1  10    6.51   44.26   0
  -1   1 -10   -7.46   58.96   0
  -1   1 -10    4.26   58.50   0
  -2   1 -10  107.06   61.60   0
  -3   1 -10   27.27   51.40   0
  -3   1 -10    3.77   63.95   0
  -6   0  10  -15.57   72.37   0
  -5   0  10   10.20   49.50   0
  -4   0  10  166.06   45.08   0
  -3   0  10   57.47   59.11   0
  -2   0  10  329.57   41.93   0
   1   0 -10   26.49   53.16   0
   1   0 -10   40.51   56.70   0
  -1   0  10   52.52   42.62   0
   0   0 -10    5.15   55.58   0
   0   0 -10    7.03   41.32   0
   0   0  10   36.92   60.22   0
  -1   0 -10  179.02   58.29   0
  -1   0 -10  135.07   61.48   0
  -2   0 -10   47.41   49.12   0
  -3   0 -10   41.10   55.16   0
  -3   0 -10   27.64   54.71   0
  -6   1  10   46.16   58.33   0
  -5   1  10   48.68   69.83   0
  -4   1  10  298.93   65.83   0
  -3   1  10   26.74   41.63   0
   2  -1 -10  255.71   73.33   0
  -2   1  10  227.03   59.78   0
   2  -1 -10  283.57   80.22   0
   1  -1 -10   47.12   63.56   0
   1  -1 -10   30.74   69.21   0
  -1   1  10   62.47   43.30   0
   0  -1 -10  103.79   44.62   0
   0  -1 -10  134.32   60.69   0
  -1  -1 -10  386.67   65.18   0
  -1  -1 -10  335.93   48.87   0
  -2  -1 -10   39.77   73.87   0
  -3  -1 -10   47.73   62.67   0
  -3  -1 -10   42.75   62.50   0
  -6   2  10   25.43   59.08   0
  -5   2  10   53.12   73.40   0
  -4   2  10    3.23   65.35   0
  -3   2  10    1.29   47.32   0
  -2   2  10  156.57   64.66   0
   2  -2 -10  219.97   71.66   0
   2  -2 -10  166.58   64.69   0
   1  -2 -10   19.59   68.74   0
  -1   2  10    3.30   46.97   0
   1  -2 -10    4.71   62.81   0
   0   2  10  308.96   70.13   0
   0  -2 -10  350.78   72.26   0
   0  -2 -10  329.97   51.03   0
  -1  -2 -10   35.16   50.78   0
  -1  -2 -10   22.98   65.75   0
  -2  -2 -10   43.06   77.37   0
  -5   3  10   22.88   53.36   0
  -4   3  10   13.12   53.09   0
   3  -3 -10   24.69   86.21   0
  -3   3  10   20.59   66.96   0
   3  -3 -10   -1.14   75.22   0
  -2   3  10   25.57   50.28   0
   2  -3 -10   44.43   74.24   0
   2  -3 -10   16.61   67.16   0
   1  -3 -10   74.24   78.76   0
   1  -3 -10   28.94   71.53   0
   0  -3 -10   25.76   65.36   0
   0   3  10   -9.05   55.22   0
   0  -3 -10    3.61   61.31   0
  -1  -3 -10   32.90   57.48   0
  -1  -3 -10    5.13   75.31   0
   4  -4 -10   -4.23   98.68   0
  -4   4  10   36.47   60.17   0
   3  -4 -10   42.98   81.18   0
  -3   4  10   24.05   56.08   0
  -2   4  10   41.22   70.12   0
   2  -4 -10   54.60   87.51   0
   1  -4 -10   57.27   76.72   0
   1  -4 -10   51.89   76.42   0
   0  -4 -10   36.00   77.63   0
   0   4  10    7.62   84.10   0
   0  -4 -10   -0.69   59.25   0
   1  12 -11  120.18   83.18   0
  -1 -12  11  142.77   78.91   0
   1  12 -11   80.00   75.85   0
   0 -12  11  163.41   82.21   0
   0  12 -11  249.72   59.58   0
   0  12 -11   84.87   63.63   0
   3  11 -11   51.20   95.87   0
   3  11 -11  242.14   80.35   0
  -3 -11  11  246.73   74.12   0
  -2 -11  11    4.04   74.71   0
   2  11 -11   20.13   59.61   0
   2  11 -11   -1.82   65.30   0
   1  11 -11  357.25   59.60   0
  -1 -11  11  485.60   68.77   0
   1  11 -11  442.88   55.65   0
   0 -11  11   80.36   55.63   0
   0  11 -11   65.88   55.04   0
   1 -11  11  105.23   56.88   0
  -1  11 -11   86.35   77.09   0
  -1  11 -11   83.95   58.15   0
   2 -11  11  195.09   61.57   0
  -2  11 -11  247.29   65.81   0
  -2  11 -11  144.07   82.11   0
  -4 -10  11   44.04   78.53   0
  -3 -10  11  122.88   68.00   0
   3  10 -11   56.56   66.36   0
   3  10 -11   88.80   58.65   0
  -2 -10  11   75.71   64.73   0
   2  10 -11   46.62   63.86   0
   2  10 -11   76.97   79.28   0
   1  10 -11   95.04   68.14   0
  -1 -10  11   82.39   63.33   0
   1  10 -11   95.70   50.43   0
   0 -10  11   -2.34   50.20   0
   0  10 -11   23.63   50.90   0
   0  10 -11   22.62   68.83   0
   1 -10  11  170.81   52.16   0
  -1  10 -11  107.16   68.17   0
   2 -10  11   75.93   54.24   0
  -2  10 -11   92.73   70.79   0
  -2  10 -11   92.26   55.39   0
  -5  -9  11   16.08   80.93   0
  -5  -9  11    9.17   81.65   0
  -4  -9  11  200.97   74.18   0
   3   9 -11   35.71   66.86   0
  -3  -9  11   82.72   66.63   0
   3   9 -11  115.14   51.46   0
  -2  -9  11  162.45   48.39   0
   2   9 -11  182.58   60.47   0
   2   9 -11   93.33   53.28   0
  -1  -9  11  -30.39   65.82   0
   1   9 -11    9.27   49.82   0
   1   9 -11   16.97   50.36   0
   0  -9  11   82.15   62.82   0
   0   9 -11  116.85   65.43   0
   0   9 -11  101.59   69.53   0
   1  -9  11  294.24   68.01   0
  -1   9 -11  208.57   70.52   0
   2  -9  11   37.95   64.51   0
  -2   9 -11   27.72   52.18   0
  -2   9 -11   -1.57   51.03   0
  -3   9 -11   14.93   82.93   0
  -3   9 -11   36.67   80.28   0
   3  -9  11   21.27   58.56   0
  -5  -8  11  210.07   97.43   0
  -5  -8  11  172.97   92.46   0
  -4  -8  11   -1.40   73.69   0
  -3  -8  11  367.61   68.45   0
  -2  -8  11  203.86   60.05   0
   2   8 -11  219.82   48.44   0
   2   8 -11  130.42   68.04   0
  -1  -8  11   35.06   54.09   0
   1   8 -11   16.63   46.88   0
   1   8 -11   18.41   60.98   0
   0  -8  11  705.23   51.98   0
   0   8 -11  781.12   52.44   0
   0   8 -11  522.75   50.26   0
   1  -8  11    8.93   63.63   0
  -1   8 -11  -11.60   48.66   0
  -1   8 -11  -26.00   46.92   0
  -2   8 -11  163.35   72.34   0
   2  -8  11  180.47   51.19   0
  -3   8 -11    5.88   56.96   0
  -3   8 -11   66.81   58.25   0
   3  -8  11   39.21   68.98   0
  -3  -7  11  183.12   80.16   0
  -2  -7  11  298.30   63.95   0
   2   7 -11  300.76   47.48   0
   2   7 -11  218.82   77.23   0
  -1  -7  11  316.09   63.82   0
   1   7 -11  314.52   62.28   0
   1   7 -11  291.36   63.61   0
   0   7 -11  456.87   62.87   0
   0   7 -11  390.76   46.11   0
   0  -7  11  406.82   54.98   0
  -1   7 -11  141.91   61.41   0
  -1   7 -11   75.71   45.79   0
   1  -7  11   88.72   47.50   0
  -2   7 -11  246.08   51.54   0
   2  -7  11  220.38   48.79   0
  -3   7 -11   85.22   74.41   0
  -3   7 -11   57.73   56.17   0
   3  -7  11   48.07   54.47   0
  -6  -6  11   67.47   80.97   0
  -5  -6  11  -11.12   52.48   0
  -4  -6  11   16.64   44.96   0
   2   6 -11    2.42   78.77   0
   1   6 -11  331.86   60.70   0
   1   6 -11  362.28   55.26   0
  -1  -6  11  324.00   60.05   0
   0   6 -11   31.83   54.45   0
   0   6 -11   53.18   43.79   0
   0  -6  11   30.89   57.03   0
  -1   6 -11   94.03   57.45   0
  -1   6 -11   69.68   62.03   0
   1  -6  11   41.95   44.43   0
  -2   6 -11  368.11   51.96   0
  -3   6 -11   14.58   65.19   0
  -3   6 -11    5.23   75.84   0
  -6  -5  11   -1.84   57.06   0
  -5  -5  11   61.18   70.30   0
  -4  -5  11  123.14   67.52   0
  -3  -5  11    5.17   46.32   0
   1   5 -11   24.73   62.94   0
   0   5 -11    3.46   53.21   0
   0   5 -11   26.14   58.61   0
  -1   5 -11  219.58   56.90   0
  -1   5 -11  183.07   44.17   0
  -2   5 -11   50.25   47.93   0
  -2   5 -11   83.65   65.86   0
  -3   5 -11   71.77   71.25   0
  -3   5 -11   56.89   52.64   0
  -6  -4  11   48.52   58.45   0
  -5  -4  11  191.63   49.66   0
  -4  -4  11  238.82   59.40   0
  -3  -4  11  273.40   45.54   0
  -2  -4  11  340.49   43.62   0
   1   4 -11   24.50   69.10   0
   1   4 -11   21.54   63.77   0
   0   4 -11  357.60   61.97   0
  -1   4 -11   92.94   57.58   0
  -1   4 -11  107.63   58.99   0
  -2   4 -11  118.94   48.33   0
  -2   4 -11  124.44   61.33   0
  -3   4 -11    6.15   53.44   0
  -3   4 -11   21.70   55.93   0
  -6  -3  11   33.73   55.34   0
  -5  -3  11  209.68   48.38   0
  -4  -3  11   50.32   46.40   0
  -3  -3  11  169.75   47.10   0
  -2  -3  11  339.72   56.44   0
   1   3 -11   65.16   74.75   0
   1   3 -11   40.12   68.77   0
   0   3 -11  337.62   58.75   0
   0   3 -11  574.11   63.68   0
  -1   3 -11    9.12   61.67   0
  -2   3 -11  193.78   62.64   0
  -3   3 -11   94.77   54.53   0
  -6  -2  11   30.53   55.28   0
  -5  -2  11  -19.08   68.66   0
  -4  -2  11   38.51   63.06   0
  -3  -2  11   38.24   46.29   0
  -2  -2  11   23.02   56.78   0
   1   2 -11  259.02   74.82   0
   1   2 -11  309.36   75.54   0
  -1  -2  11  265.51   57.57   0
   0   2 -11   39.78   58.17   0
   0   2 -11   72.53   56.98   0
  -1   2 -11    9.43   47.38   0
  -1   2 -11   13.97   47.12   0
  -2   2 -11   79.19   51.99   0
  -2   2 -11  115.80   70.89   0
  -3   2 -11   -3.26   71.95   0
  -3   2 -11    5.10   58.56   0
  -6  -1  11   23.10   67.94   0
  -5  -1  11    9.62   52.06   0
  -4  -1  11   -4.14   49.07   0
  -3  -1  11   72.34   56.84   0
  -2  -1  11  103.29   42.25   0
   1   1 -11   10.62   71.51   0
   1   1 -11   12.47   66.47   0
  -1  -1  11   31.27   46.81   0
   0   1 -11   10.48   63.36   0
   0   1 -11   -2.95   62.06   0
  -1   1 -11   10.28   68.27   0
  -1   1 -11   13.96   61.64   0
  -2   1 -11  -11.99   54.45   0
  -2   1 -11    5.56   53.74   0
  -6   0  11   -1.27   60.04   0
  -5   0  11   31.06   73.63   0
  -4   0  11  215.06   67.64   0
  -3   0  11   38.52   47.85   0
  -2   0  11  101.80   58.47   0
   1   0 -11   14.14   62.35   0
   1   0 -11    4.13   71.28   0
  -1   0  11  -10.37   46.81   0
   0   0 -11   23.72   65.98   0
   0   0 -11   16.08   60.18   0
   0   0  11   16.78   51.24   0
  -1   0 -11  127.40   67.78   0
  -1   0 -11   70.94   51.56   0
  -2   0 -11   15.01   68.60   0
  -2   0 -11   -2.83   76.18   0
  -5   1  11   70.30   72.45   0
  -4   1  11   37.15   66.38   0
  -3   1  11   22.33   50.29   0
   2  -1 -11   46.65  107.58   0
  -2   1  11   44.97   66.45   0
   2  -1 -11   39.93  115.64   0
   1  -1 -11   -7.54   62.57   0
   1  -1 -11   11.41   74.66   0
  -1   1  11   22.54   49.94   0
   0  -1 -11  147.01   65.43   0
   0  -1 -11  209.11   66.94   0
  -1  -1 -11   13.86   56.36   0
  -1  -1 -11  -11.02   70.81   0
  -4   2  11   10.57   68.38   0
  -3   2  11   -0.64   55.38   0
   2  -2 -11   28.07   73.15   0
  -2   2  11   23.10   53.31   0
   2  -2 -11   22.23   86.47   0
   1  -2 -11   -8.67   64.13   0
   1  -2 -11    5.03   77.56   0
  -1   2  11   -5.19   54.22   0
   0  -2 -11   46.82   58.61   0
   0  -2 -11   40.89   81.54   0
   0   2  11   59.71   75.85   0
  -1  -2 -11   13.62   73.77   0
  -3   3  11  -26.33   71.57   0
   2  -3 -11    8.38   79.41   0
  -2   3  11  -17.91   57.57   0
   2  -3 -11    2.10   83.85   0
   1  -3 -11    6.04   72.82   0
   1  -3 -11   12.37   87.98   0
  -2 -11  12   34.23   62.12   0
   2  11 -12   79.01   87.16   0
   2  11 -12   20.84   81.63   0
   1  11 -12   86.15   79.14   0
  -1 -11  12  111.16   62.25   0
   1  11 -12  116.18   56.72   0
   0 -11  12  232.46   72.90   0
   0  11 -12  159.59   74.81   0
   0  11 -12  117.63   61.49   0
   3  10 -12   17.32   93.53   0
  -3 -10  12   61.61   83.98   0
   3  10 -12  120.55   63.49   0
  -2 -10  12   13.27   76.35   0
   2  10 -12   -2.18   55.01   0
   2  10 -12   -1.73   74.53   0
   1  10 -12  215.52   59.72   0
  -1 -10  12  240.43   74.34   0
   1  10 -12  103.71   70.17   0
   0 -10  12  224.70   57.25   0
   0  10 -12  196.80   59.76   0
   0  10 -12  181.13   79.36   0
   1 -10  12  148.54   71.45   0
  -1  10 -12  188.90   61.87   0
  -1  10 -12  163.12   59.44   0
  -4  -9  12   81.25   87.09   0
  -3  -9  12   21.88   79.69   0
  -2  -9  12   94.12   68.15   0
   2   9 -12   98.12   54.00   0
   2   9 -12   76.42   75.16   0
  -1  -9  12  277.35   66.45   0
   1   9 -12  228.12   68.44   0
   1   9 -12  242.58   78.91   0
   0  -9  12   33.08   50.54   0
   0   9 -12   55.26   66.58   0
   0   9 -12   83.80   73.78   0
   1  -9  12  148.68   75.35   0
  -1   9 -12  158.45   70.63   0
  -1   9 -12  177.29   54.34   0
  -2   9 -12   17.67   61.22   0
   2  -9  12   -4.72   72.05   0
  -3  -8  12   10.33   93.08   0
  -2  -8  12  422.90   69.87   0
   2   8 -12  326.80   84.92   0
   2   8 -12  591.81   72.04   0
  -1  -8  12   32.74   65.16   0
   1   8 -12   -1.06   50.96   0
   1   8 -12   28.41   64.18   0
   0   8 -12  598.33   78.44   0
   0   8 -12  554.43   53.31   0
   0  -8  12  515.84   55.93   0
  -1   8 -12   53.64   53.23   0
  -1   8 -12   40.42   52.23   0
   1  -8  12   43.58   71.29   0
  -2   8 -12   37.22   59.84   0
   2  -8  12    7.88   77.24   0
   2   7 -12  200.85   83.13   0
   1   7 -12  274.96   65.28   0
   1   7 -12  205.87   72.52   0
  -1  -7  12  205.90   70.84   0
   0   7 -12  439.10   67.25   0
   0   7 -12  468.99   65.92   0
   0  -7  12  391.41   70.74   0
  -1   7 -12   54.00   51.73   0
   1  -7  12   12.25   61.94   0
  -1   7 -12   36.19   65.12   0
  -2   7 -12  444.84   58.39   0
  -2   7 -12  462.30   70.13   0
  -5  -6  12   47.18   71.61   0
   1   6 -12  242.54   48.19   0
   1   6 -12  194.74   74.05   0
   0   6 -12  527.64   65.15   0
   0   6 -12  473.67   61.11   0
  -1   6 -12   75.53   51.14   0
  -1   6 -12   84.42   52.27   0
  -2   6 -12  461.12   57.30   0
  -2   6 -12  396.39   57.55   0
  -5  -5  12   29.44   53.20   0
  -4  -5  12  325.35   52.96   0
  -3  -5  12   48.51   49.37   0
   1   5 -12  283.25   82.12   0
   0   5 -12   -2.12   65.68   0
  -1   5 -12  465.12   52.69   0
  -1   5 -12  446.18   55.41   0
  -2   5 -12   10.16   69.94   0
  -2   5 -12   12.10   54.89   0
  -5  -4  12  143.46   54.29   0
  -4  -4  12  114.82   53.00   0
  -3  -4  12   33.07   48.04   0
  -2  -4  12  332.15   49.94   0
   1   4 -12   29.46   86.93   0
   1   4 -12   22.65   80.40   0
   0   4 -12  596.70   72.05   0
  -1   4 -12   75.44   71.58   0
  -2   4 -12   42.86   55.18   0
  -5  -3  12    1.21   69.94   0
  -4  -3  12   -7.33   68.77   0
  -3  -3  12  142.46   48.33   0
  -2  -3  12  511.46   65.52   0
   1   3 -12   41.99   92.00   0
   1   3 -12   46.13   89.79   0
   0   3 -12  238.50   51.44   0
   0   3 -12  329.75   70.11   0
  -1   3 -12   20.15   52.69   0
  -1   3 -12   28.19   64.39   0
  -2   3 -12   62.17   58.19   0
  -5  -2  12   75.41   57.62   0
  -4  -2  12    7.20   54.15   0
  -3  -2  12  301.89   66.76   0
  -2  -2  12   63.10   48.52   0
   1   2 -12   74.93   99.25   0
  -1  -2  12   57.42   50.45   0
   1   2 -12   83.44   90.75   0
   0   2 -12  161.50   64.40   0
   0   2 -12  127.16   69.10   0
  -1   2 -12    3.48   70.25   0
  -1   2 -12   16.18   67.74   0
  -2   2 -12  167.84   60.69   0
  -2   2 -12  212.57   80.94   0
  -5  -1  12  -15.09   72.93   0
  -4  -1  12   62.65   71.39   0
  -3  -1  12   28.03   49.69   0
  -2  -1  12   65.01   69.48   0
   1   1 -12   74.93   91.68   0
   1   1 -12   64.38   86.86   0
  -1  -1  12   80.44   50.04   0
   0   1 -12   16.72   65.18   0
   0   1 -12   33.75   65.07   0
  -1   1 -12   86.83   74.83   0
  -1   1 -12  104.97   58.52   0
  -4   0  12   99.44   68.31   0
  -3   0  12   17.48   55.88   0
  -2   0  12  105.68   73.15   0
   1   0 -12   96.28   96.26   0
   1   0 -12   76.81   77.29   0
  -1   0  12   66.82   71.02   0
   0   0 -12   35.76   60.53   0
   0   0 -12   72.26   81.62   0
  -1   0 -12   60.63   74.79   0
  -1   0 -12   54.90   85.99   0
  -4   1  12    4.80   74.64   0
  -3   1  12    4.47   56.90   0
  -2   1  12  174.77   80.54   0
   1  -1 -12   -2.04   89.19   0
   1  -1 -12    9.96   80.00   0
  -1   1  12  -45.15   59.27   0
   0  -1 -12   66.38   75.14   0
   0  -1 -12  125.44   84.66   0
   2  10 -13   -8.41   80.35   0
  -2 -10  13   32.05   77.19   0
   2  10 -13   29.99   59.03   0
  -1 -10  13   73.87   84.22   0
   1  10 -13  105.94   79.56   0
   1  10 -13   73.69   74.73   0
  -3  -9  13   10.41  124.37   0
  -2  -9  13   13.67   84.76   0
   2   9 -13    9.61   85.56   0
   2   9 -13   23.69   59.50   0
   1   9 -13  105.53   82.91   0
   1   9 -13  127.85   82.00   0
  -1  -9  13  107.90   80.41   0
   0   9 -13    2.80   83.70   0
   0   9 -13   48.48   77.85   0
   0  -9  13   19.68   71.00   0
   2   8 -13  146.71   98.30   0
   1   8 -13    0.05   56.88   0
  -1  -8  13   10.30   67.78   0
   1   8 -13  -20.68   75.17   0
   0   8 -13   32.14   73.33   0
   0   8 -13   48.79   55.50   0
   0  -8  13   15.29   71.40   0
  -1   8 -13   75.26   77.98   0
  -1   8 -13  117.94   80.54   0
   1  -8  13   66.64   74.29   0
   1   7 -13   10.88   78.65   0
   0   7 -13  334.42   83.24   0
   0   7 -13  253.58   72.91   0
  -1   7 -13   54.78   59.12   0
  -1   7 -13   45.31   63.40   0
   1   6 -13   36.15   87.49   0
   0   6 -13  360.37   58.86   0
  -1   6 -13  -10.47   56.42   0
  -1   6 -13   19.24   59.79   0
  -4  -5  13   22.71   59.68   0
   0   5 -13   21.94   69.17   0
  -1   5 -13   60.28   59.27   0
  -4  -4  13   24.34   58.65   0
  -3  -4  13   60.23   55.24   0
   0   4 -13   29.75   74.48   0
   0   4 -13   16.30   73.90   0
  -1   4 -13   43.26   78.85   0
  -1   4 -13   60.15   58.76   0
  -4  -3  13  258.07   59.31   0
  -3  -3  13   26.79   65.58   0
  -2  -3  13  201.46   67.77   0
   0   3 -13  156.67   79.79   0
   0   3 -13  111.77   79.76   0
  -1   3 -13  129.75   77.10   0
  -1   3 -13  114.91   77.58   0
  -4  -2  13  -32.55   58.09   0
  -3  -2  13  198.31   54.80   0
  -2  -2  13   87.56   71.34   0
   0   2 -13  175.17   82.93   0
   0   2 -13  254.31   83.21   0
  -3  -1  13   39.28   59.67   0
  -2  -1  13  -17.09   56.60   0
   1   7 -14   -2.81  114.53   0
;
_shelx_hkl_checksum              88565
_shelx_res_file
;
    C:\Users\Liebing\Desktop\AgCl-tht\i2t1102.res created by SHELXL-2014/7
TITL                         TEST STRUCTURE G:\ACDATEN\Z\I2T1102
CELL  0.71073  6.19210  9.94430 10.37610 114.71000 102.12100 92.23900
ZERR 1  0.00080  0.00130  0.00120  0.00900  0.01000  0.01100
LATT 1
SFAC C H S CL AG
UNIT 16 32 4 2 2
PLAN 30
SIZE 0.50 0.05 0.05
TEMP -73
FMAP 2
L.S. 15
OMIT -6 50
BOND
CONF
ACTA
FREE H5A H5B
WGHT    0.066900
FVAR       0.83861
C1    1    0.313700    0.160183   -0.335374    11.00000    0.03570    0.03031 =
         0.03499    0.00874    0.00691    0.01151
AFIX  23
H1B   2    0.464115    0.170582   -0.273036    11.00000   -1.20000
H1A   2    0.286042    0.063650   -0.424063    11.00000   -1.20000
AFIX   0
C2    1    0.294588    0.288452   -0.376389    11.00000    0.03243    0.04967 =
         0.03875    0.02600    0.01384    0.00539
AFIX  23
H2B   2    0.372915    0.275576   -0.453847    11.00000   -1.20000
H2A   2    0.359882    0.384536   -0.290162    11.00000   -1.20000
AFIX   0
C3    1    0.046192    0.285076   -0.431746    11.00000    0.04989    0.05699 =
         0.03544    0.02588    0.00895    0.02046
AFIX  23
H3B   2   -0.011947    0.198757   -0.528686    11.00000   -1.20000
H3A   2    0.017834    0.377914   -0.441860    11.00000   -1.20000
AFIX   0
C4    1   -0.068222    0.271521   -0.320364    11.00000    0.02737    0.04665 =
         0.03406    0.01577    0.00225    0.01314
AFIX  23
H4B   2   -0.221006    0.216163   -0.369501    11.00000   -1.20000
H4A   2   -0.078102    0.371900   -0.245488    11.00000   -1.20000
AFIX   0
C5    1    0.148750    0.172586    0.171485    11.00000    0.03397    0.04236 =
         0.04699    0.02855    0.00472    0.00103
AFIX  23
H5B   2    0.076482    0.156138    0.241238    11.00000   -1.20000
H5A   2    0.034218    0.148915    0.079780    11.00000   -1.20000
AFIX   0
C6    1    0.328356    0.080245    0.142202    11.00000    0.05085    0.03244 =
         0.12168    0.01431    0.00748    0.00868
AFIX  23
H6B   2    0.284300   -0.017207    0.140848    11.00000   -1.20000
H6A   2    0.350132    0.060807    0.044438    11.00000   -1.20000
AFIX   0
C7    1    0.533767    0.151533    0.250331    11.00000    0.04724    0.04166 =
         0.08177    0.02835    0.00613    0.02678
AFIX  23
H7B   2    0.659553    0.112011    0.207694    11.00000   -1.20000
H7A   2    0.538036    0.126835    0.333812    11.00000   -1.20000
AFIX   0
C8    1    0.562826    0.317044    0.304879    11.00000    0.02819    0.03778 =
         0.02689    0.01632   -0.00403    0.00249
AFIX  23
H8B   2    0.670218    0.348812    0.261011    11.00000   -1.20000
H8A   2    0.619712    0.366788    0.412786    11.00000   -1.20000
AFIX   0
S1    3    0.101976    0.170222   -0.235512    11.00000    0.03743    0.03366 =
         0.03844    0.01970    0.01284    0.00657
S2    3    0.288227    0.366185    0.250866    11.00000    0.03349    0.03286 =
         0.03007    0.01703    0.00894    0.01210
CL    4    0.264358    0.636307   -0.008218    11.00000    0.03430    0.03531 =
         0.04099    0.02270    0.01301    0.01339
AG    5    0.299188    0.392881    0.017883    11.00000    0.05084    0.04154 =
         0.03399    0.02399    0.00970    0.01313
HKLF 4
REM                          TEST STRUCTURE G:\ACDATEN\Z\I2T1102
REM R1 =  0.0500 for    1314 Fo > 4sig(Fo)  and  0.0694 for all    1954 data
REM    109 parameters refined using      0 restraints
END
WGHT      0.0668      0.0000
REM Highest difference peak  1.391,  deepest hole -1.526,  1-sigma level  0.186
Q1    1   0.4290  0.4676  0.1162  11.00000  0.05    1.39
Q2    1   0.1847  0.3192 -0.0839  11.00000  0.05    1.27
Q3    1   0.1289  0.5594 -0.1137  11.00000  0.05    0.74
Q4    1   0.3883  0.7204  0.0872  11.00000  0.05    0.70
Q5    1   0.3414  0.0832  0.2364  11.00000  0.05    0.69
Q6    1   0.2544  0.5562  0.0854  11.00000  0.05    0.67
Q7    1   0.3708  0.2490 -0.0558  11.00000  0.05    0.65
Q8    1   0.2091  0.2654  0.2322  11.00000  0.05    0.54
Q9    1   0.4755  0.0799 -0.0217  11.00000  0.05    0.52
Q10   1   0.4380  0.5039 -0.1942  11.00000  0.05    0.52
Q11   1   0.4679  0.4234  0.3579  11.00000  0.05    0.52
Q12   1  -0.0255  0.0561 -0.0215  11.00000  0.05    0.50
Q13   1   0.3990  0.5047 -0.1041  11.00000  0.05    0.49
Q14   1   0.1752  0.2969  0.1581  11.00000  0.05    0.47
Q15   1   0.0680  0.7174  0.0614  11.00000  0.05    0.47
Q16   1   0.1815  0.6654  0.1157  11.00000  0.05    0.44
Q17   1   0.4331  0.1668 -0.0366  11.00000  0.05    0.43
Q18   1   0.1740  0.8002  0.1160  11.00000  0.05    0.43
Q19   1   0.1897  0.4444 -0.1804  11.00000  0.05    0.42
Q20   1   0.1966  0.4069 -0.1413  11.00000  0.05    0.42
Q21   1  -0.1150  0.1441 -0.0403  11.00000  0.05    0.40
Q22   1   0.0879 -0.0031 -0.4379  11.00000  0.05    0.40
Q23   1  -0.0768  0.0865 -0.3570  11.00000  0.05    0.39
Q24   1   0.0376  0.0320 -0.0956  11.00000  0.05    0.38
Q25   1   0.0772  0.4719 -0.4466  11.00000  0.05    0.38
Q26   1   0.1820  0.4775 -0.2671  11.00000  0.05    0.38
Q27   1   0.3469  0.1558  0.0647  11.00000  0.05    0.37
Q28   1  -0.1029  0.1783  0.1014  11.00000  0.05    0.37
Q29   1  -0.2102  0.3189 -0.3066  11.00000  0.05    0.37
Q30   1   0.2351  0.0427  0.1020  11.00000  0.05    0.37
;
_shelx_res_checksum              87767
loop_
_space_group_symop_operation_xyz
'x, y, z'
'-x, -y, -z'
loop_
_atom_site_type_symbol
_atom_site_label
_atom_site_fract_x
_atom_site_fract_y
_atom_site_fract_z
_atom_site_U_iso_or_equiv
_atom_site_adp_type
_atom_site_calc_flag
_atom_site_occupancy
C C1 0.3137(14) 0.1602(9) -0.3354(9) 0.0357(19) Uani d 1
H H1B 0.4641 0.1706 -0.2730 0.043 Uiso calc 1
H H1A 0.2860 0.0636 -0.4241 0.043 Uiso calc 1
C C2 0.2946(13) 0.2885(10) -0.3764(10) 0.037(2) Uani d 1
H H2B 0.3729 0.2756 -0.4538 0.045 Uiso calc 1
H H2A 0.3599 0.3845 -0.2902 0.045 Uiso calc 1
C C3 0.0462(15) 0.2851(11) -0.4317(10) 0.045(2) Uani d 1
H H3B -0.0119 0.1988 -0.5287 0.054 Uiso calc 1
H H3A 0.0178 0.3779 -0.4419 0.054 Uiso calc 1
C C4 -0.0682(13) 0.2715(10) -0.3204(9) 0.037(2) Uani d 1
H H4B -0.2210 0.2162 -0.3695 0.045 Uiso calc 1
H H4A -0.0781 0.3719 -0.2455 0.045 Uiso calc 1
C C5 0.1488(14) 0.1726(10) 0.1715(10) 0.039(2) Uani d 1
H H5B 0.0765 0.1561 0.2412 0.047 Uiso calc 1
H H5A 0.0342 0.1489 0.0798 0.047 Uiso calc 1
C C6 0.3284(17) 0.0802(12) 0.1422(17) 0.077(4) Uani d 1
H H6B 0.2843 -0.0172 0.1408 0.093 Uiso calc 1
H H6A 0.3501 0.0608 0.0444 0.093 Uiso calc 1
C C7 0.5338(16) 0.1515(11) 0.2503(13) 0.057(3) Uani d 1
H H7B 0.6596 0.1120 0.2077 0.069 Uiso calc 1
H H7A 0.5380 0.1268 0.3338 0.069 Uiso calc 1
C C8 0.5628(12) 0.3170(9) 0.3049(8) 0.0320(18) Uani d 1
H H8B 0.6702 0.3488 0.2610 0.038 Uiso calc 1
H H8A 0.6197 0.3668 0.4128 0.038 Uiso calc 1
S S1 0.1020(3) 0.1702(2) -0.2355(2) 0.0345(5) Uani d 1
S S2 0.2882(3) 0.3662(2) 0.2509(2) 0.0306(5) Uani d 1
Cl Cl 0.2644(3) 0.6363(2) -0.0082(2) 0.0339(5) Uani d 1
Ag Ag 0.29919(12) 0.39288(8) 0.01788(7) 0.0394(3) Uani d 1
loop_
_atom_site_aniso_label
_atom_site_aniso_U_11
_atom_site_aniso_U_22
_atom_site_aniso_U_33
_atom_site_aniso_U_12
_atom_site_aniso_U_13
_atom_site_aniso_U_23
C1 0.036(4) 0.030(5) 0.035(4) 0.012(4) 0.007(4) 0.009(4)
C2 0.032(4) 0.050(6) 0.039(5) 0.005(4) 0.014(4) 0.026(4)
C3 0.050(5) 0.057(6) 0.035(5) 0.020(5) 0.009(4) 0.026(5)
C4 0.027(4) 0.047(5) 0.034(5) 0.013(4) 0.002(4) 0.016(4)
C5 0.034(4) 0.042(5) 0.047(5) 0.001(4) 0.005(4) 0.029(4)
C6 0.051(7) 0.032(6) 0.122(11) 0.009(5) 0.007(7) 0.014(7)
C7 0.047(6) 0.042(6) 0.082(8) 0.027(5) 0.006(5) 0.028(6)
C8 0.028(4) 0.038(5) 0.027(4) 0.002(4) -0.004(3) 0.016(4)
S1 0.0374(11) 0.0337(12) 0.0384(12) 0.0066(9) 0.0128(9) 0.0197(10)
S2 0.0335(11) 0.0329(11) 0.0301(10) 0.0121(9) 0.0089(8) 0.0170(9)
Cl 0.0343(10) 0.0353(11) 0.0410(11) 0.0134(9) 0.0130(9) 0.0227(10)
Ag 0.0508(4) 0.0415(4) 0.0340(4) 0.0131(3) 0.0097(3) 0.0240(3)
loop_
_atom_type_symbol
_atom_type_description
_atom_type_scat_dispersion_real
_atom_type_scat_dispersion_imag
_atom_type_scat_source
C C 0.0033 0.0016 'International Tables Vol C Tables 4.2.6.8 and 6.1.1.4'
H H 0.0000 0.0000 'International Tables Vol C Tables 4.2.6.8 and 6.1.1.4'
S S 0.1246 0.1234 'International Tables Vol C Tables 4.2.6.8 and 6.1.1.4'
Cl Cl 0.1484 0.1585 'International Tables Vol C Tables 4.2.6.8 and 6.1.1.4'
Ag Ag -0.8971 1.1015 'International Tables Vol C Tables 4.2.6.8 and 6.1.1.4'
loop_
_geom_angle_atom_site_label_1
_geom_angle_atom_site_label_2
_geom_angle_atom_site_label_3
_geom_angle_site_symmetry_3
_geom_angle
C2 C1 S1 . 105.2(5)
C1 C2 C3 . 105.4(7)
C2 C3 C4 . 107.4(6)
C3 C4 S1 . 106.6(5)
C6 C5 S2 . 104.7(7)
C7 C6 C5 . 111.7(10)
C6 C7 C8 . 112.4(7)
C7 C8 S2 . 106.7(6)
C1 S1 C4 . 93.7(4)
C1 S1 Ag . 100.2(3)
C4 S1 Ag . 99.8(3)
C8 S2 C5 . 93.4(4)
C8 S2 Ag . 103.5(3)
C5 S2 Ag . 100.4(3)
Ag Cl Ag 2_665 79.35(5)
S2 Ag Cl . 123.95(7)
S2 Ag S1 . 118.30(7)
Cl Ag S1 . 107.93(7)
S2 Ag Cl 2_665 101.61(6)
Cl Ag Cl 2_665 100.65(5)
S1 Ag Cl 2_665 98.94(7)
loop_
_geom_bond_atom_site_label_1
_geom_bond_atom_site_label_2
_geom_bond_site_symmetry_2
_geom_bond_distance
C1 C2 . 1.506(11)
C1 S1 . 1.816(9)
C2 C3 . 1.518(12)
C3 C4 . 1.524(12)
C4 S1 . 1.826(7)
C5 C6 . 1.470(14)
C5 S2 . 1.837(9)
C6 C7 . 1.430(15)
C7 C8 . 1.489(12)
C8 S2 . 1.827(7)
S1 Ag . 2.623(2)
S2 Ag . 2.5541(19)
Cl Ag . 2.5581(19)
Cl Ag 2_665 2.748(2)
Ag Cl 2_665 2.748(2)
loop_
_geom_torsion_atom_site_label_1
_geom_torsion_atom_site_label_2
_geom_torsion_atom_site_label_3
_geom_torsion_atom_site_label_4
_geom_torsion
S1 C1 C2 C3 -44.4(8)
C1 C2 C3 C4 48.3(9)
C2 C3 C4 S1 -29.5(9)
S2 C5 C6 C7 34.5(12)
C5 C6 C7 C8 -34.4(15)
C6 C7 C8 S2 16.3(12)
C2 C1 S1 C4 23.9(6)
C2 C1 S1 Ag -76.7(6)
C3 C4 S1 C1 3.1(7)
C3 C4 S1 Ag 104.1(6)
C7 C8 S2 C5 3.3(7)
C7 C8 S2 Ag -98.2(6)
C6 C5 S2 C8 -20.9(8)
C6 C5 S2 Ag 83.5(8)

_cod_database_fobs_code 1546731
