#------------------------------------------------------------------------------
#$Date: 2017-09-12 07:07:32 +0300 (Tue, 12 Sep 2017) $
#$Revision: 200755 $
#$URL: file:///home/coder/svn-repositories/cod/cif/1/54/65/1546501.cif $
#------------------------------------------------------------------------------
#
# This file is available in the Crystallography Open Database (COD),
# http://www.crystallography.net/
#
# All data on this site have been placed in the public domain by the
# contributors.
#
data_1546501
loop_
_publ_author_name
'Nguyen, Thanh Binh'
'Retailleau, Pascal'
_publ_section_title
;
 Elemental Sulfur-Promoted Oxidative Rearranging Coupling between
 o-Aminophenols and Ketones: A Synthesis of 2-Alkyl benzoxazoles under
 Mild Conditions.
;
_journal_issue                   14
_journal_name_full               'Organic letters'
_journal_page_first              3887
_journal_page_last               3890
_journal_paper_doi               10.1021/acs.orglett.7b01775
_journal_volume                  19
_journal_year                    2017
_chemical_formula_moiety         'C14 H10 Br N O'
_chemical_formula_sum            'C14 H10 Br N O'
_chemical_formula_weight         288.14
_space_group_crystal_system      triclinic
_space_group_IT_number           2
_space_group_name_Hall           '-P 1'
_space_group_name_H-M_alt        'P -1'
_symmetry_space_group_name_Hall  '-P 1'
_symmetry_space_group_name_H-M   'P -1'
_atom_sites_solution_hydrogens   geom
_atom_sites_solution_primary     dual
_atom_sites_solution_secondary   difmap
_audit_creation_method           SHELXL-2016/6
_cell_angle_alpha                83.908(5)
_cell_angle_beta                 86.040(5)
_cell_angle_gamma                82.465(5)
_cell_formula_units_Z            2
_cell_length_a                   6.6243(3)
_cell_length_b                   8.5016(5)
_cell_length_c                   10.8522(7)
_cell_measurement_reflns_used    4388
_cell_measurement_temperature    293(2)
_cell_measurement_theta_max      26.3050
_cell_measurement_theta_min      3.2080
_cell_volume                     601.52(6)
_computing_cell_refinement       'CrysAlisPro 1.171.39.7b (Rigaku OD, 2015)'
_computing_data_collection       'CrysAlisPro 1.171.39.7b (Rigaku OD, 2015)'
_computing_data_reduction        'CrysAlisPro 1.171.39.7b (Rigaku OD, 2015)'
_computing_structure_refinement  'SHELXL-2016/6 (Sheldrick, 2015)'
_computing_structure_solution    'SHELXT 2014/5 (Sheldrick, 2015)'
_diffrn_ambient_environment      air
_diffrn_ambient_temperature      293(2)
_diffrn_detector                 'Dectris HPAD Pilatus 3R 200K'
_diffrn_measured_fraction_theta_full 0.997
_diffrn_measured_fraction_theta_max 0.997
_diffrn_measurement_device       'four-circle diffractometer'
_diffrn_measurement_device_type  'XtaLAB Pro: Kappa single'
_diffrn_radiation_monochromator
'Rigaku doublebounce MaxFlux multilayer optic'
_diffrn_radiation_probe          x-ray
_diffrn_radiation_type           'Mo K\a'
_diffrn_radiation_wavelength     0.71073
_diffrn_reflns_av_R_equivalents  0.0342
_diffrn_reflns_av_unetI/netI     0.0247
_diffrn_reflns_Laue_measured_fraction_full 0.997
_diffrn_reflns_Laue_measured_fraction_max 0.997
_diffrn_reflns_limit_h_max       7
_diffrn_reflns_limit_h_min       -7
_diffrn_reflns_limit_k_max       10
_diffrn_reflns_limit_k_min       -10
_diffrn_reflns_limit_l_max       13
_diffrn_reflns_limit_l_min       -13
_diffrn_reflns_number            11061
_diffrn_reflns_point_group_measured_fraction_full 0.997
_diffrn_reflns_point_group_measured_fraction_max 0.997
_diffrn_reflns_theta_full        25.242
_diffrn_reflns_theta_max         25.350
_diffrn_reflns_theta_min         3.221
_diffrn_source                   'microfocus sealed X-ray tube'
_diffrn_source_type              'Rigaku mm003 (Mo) X-ray Source'
_exptl_absorpt_coefficient_mu    3.398
_exptl_absorpt_correction_T_max  1.00000
_exptl_absorpt_correction_T_min  0.65477
_exptl_absorpt_correction_type   multi-scan
_exptl_absorpt_process_details
;
CrysAlisPro 1.171.39.7b (Rigaku Oxford Diffraction, 2015)
Empirical absorption correction using spherical harmonics,
 implemented in SCALE3 ABSPACK scaling algorithm.
;
_exptl_crystal_colour            colourless
_exptl_crystal_density_diffrn    1.591
_exptl_crystal_description       prism
_exptl_crystal_F_000             288
_exptl_crystal_size_max          0.21
_exptl_crystal_size_mid          0.14
_exptl_crystal_size_min          0.09
_refine_diff_density_max         0.277
_refine_diff_density_min         -0.345
_refine_diff_density_rms         0.041
_refine_ls_extinction_coef       0.0145(16)
_refine_ls_extinction_expression Fc^*^=kFc[1+0.001xFc^2^\l^3^/sin(2\q)]^-1/4^
_refine_ls_extinction_method     'SHELXL-2016/6 (Sheldrick 2016)'
_refine_ls_goodness_of_fit_ref   1.043
_refine_ls_hydrogen_treatment    constr
_refine_ls_matrix_type           full
_refine_ls_number_parameters     174
_refine_ls_number_reflns         2182
_refine_ls_number_restraints     51
_refine_ls_restrained_S_all      1.034
_refine_ls_R_factor_all          0.0309
_refine_ls_R_factor_gt           0.0255
_refine_ls_shift/su_max          0.000
_refine_ls_shift/su_mean         0.000
_refine_ls_structure_factor_coef Fsqd
_refine_ls_weighting_details
'w=1/[\s^2^(Fo^2^)+(0.0203P)^2^+0.2825P] where P=(Fo^2^+2Fc^2^)/3'
_refine_ls_weighting_scheme      calc
_refine_ls_wR_factor_gt          0.0567
_refine_ls_wR_factor_ref         0.0582
_reflns_Friedel_coverage         0.000
_reflns_number_gt                1947
_reflns_number_total             2186
_reflns_threshold_expression     'I > 2\s(I)'
_cod_data_source_file            ol7b01775_si_002.cif
_cod_data_source_block           exp_1
_cod_depositor_comments          'Adding full bibliography for 1546501.cif.'
_cod_database_code               1546501
_shelx_shelxl_version_number     2016/6
_shelx_space_group_comment
;
The symmetry employed for this shelxl refinement is uniquely defined
by the following loop, which should always be used as a source of
symmetry information in preference to the above space-group names.
They are only intended as comments.
;
_shelx_res_file
;
TITL exp_1_a.res in P-1
    exp_1.res
    created by SHELXL-2016/6 at 11:44:33 on 09-Jun-2017
REM Old TITL exp_1 in P1
REM SHELXT solution in P-1
REM R1 0.162, Rweak 0.020, Alpha 0.058, Orientation as input
REM Formula found by SHELXT: C14 Br N O
CELL 0.71073 6.6243 8.5016 10.8522 83.908 86.04 82.465
ZERR 2 0.0003 0.0005 0.0007 0.005 0.005 0.005
LATT 1
SFAC C H Br N O
UNIT 28 20 2 2 2
L.S. 20
PLAN  20
BOND $H
list 4
fmap 2
SHEL 999 0.83
acta
OMIT 2 -8 8
OMIT 0 -4 13
OMIT 1 -11 1
OMIT 1 -8 9
REM <olex2.extras>
REM <HklSrc "%.\\exp_1.hkl">
REM </olex2.extras>
RIGU N2 O1 N2B O1B C1 C2 C7
REM SADI 0.04 C1 O1B C1 O1 O1B C2 O1 C7
REM SADI 0.04 C1 N2B C1 N2 N2 C2 N2B C7
WGHT    0.020300    0.282500
EXTI    0.014527
FVAR       0.83704   0.71773
BR1   3   -0.191287    0.178793   -0.052348    11.00000    0.07623    0.05821 =
         0.05314   -0.01404   -0.02345   -0.01147
PART 1
N2    4    0.222394    0.317261    0.521879    21.00000    0.03576    0.05364 =
         0.05452   -0.00841    0.00126   -0.00951
O1    5    0.525291    0.317407    0.423557    21.00000    0.03789    0.05497 =
         0.03892   -0.00885    0.00439   -0.01081
PART 2
N2B   4    0.533731    0.321507    0.405337   -21.00000    0.04931    0.05802 =
         0.03034   -0.00074   -0.00892   -0.00083
O1B   5    0.219843    0.345781    0.517082   -21.00000    0.04888    0.05578 =
         0.03199   -0.00932   -0.01278    0.00657

PART 0
C1    1    0.329986    0.379748    0.423988    11.00000    0.04666    0.04595 =
         0.04391   -0.01550   -0.01097   -0.00744
C2    1    0.358676    0.217897    0.588640    11.00000    0.04766    0.05452 =
         0.03787   -0.01333   -0.00621   -0.01108
C3    1    0.333103    0.124562    0.700076    11.00000    0.08000    0.08238 =
         0.04527   -0.00982    0.00278   -0.02716
AFIX  43
H3    2    0.207278    0.126443    0.743940    11.00000   -1.20000
AFIX   0
C4    1    0.503764    0.028753    0.742597    11.00000    0.11407    0.06137 =
         0.05072    0.00278   -0.03003   -0.02880
AFIX  43
H4    2    0.491971   -0.035397    0.817026    11.00000   -1.20000
AFIX   0
C5    1    0.689462    0.024979    0.679023    11.00000    0.09568    0.04697 =
         0.07653   -0.00947   -0.04616   -0.00457
AFIX  43
H5    2    0.800111   -0.041689    0.711211    11.00000   -1.20000
AFIX   0
C6    1    0.716939    0.117560    0.568308    11.00000    0.05278    0.05803 =
         0.07376   -0.01680   -0.01653    0.00022
AFIX  43
H6    2    0.843095    0.115677    0.524831    11.00000   -1.20000
AFIX   0
C7    1    0.546082    0.213137    0.525905    11.00000    0.04524    0.04445 =
         0.03945   -0.01224   -0.00886   -0.00771
C8    1    0.249792    0.496392    0.321132    11.00000    0.05509    0.04564 =
         0.05244   -0.00667   -0.01419   -0.00979
AFIX  23
H8A   2    0.361344    0.547358    0.278646    11.00000   -1.20000
H8B   2    0.152903    0.578401    0.355384    11.00000   -1.20000
AFIX   0
C9    1    0.146039    0.416223    0.228558    11.00000    0.04633    0.03524 =
         0.04065   -0.00278   -0.01184   -0.00305
C10   1    0.242740    0.377586    0.116852    11.00000    0.04232    0.04948 =
         0.04893   -0.00238   -0.00450   -0.00667
AFIX  43
H10   2    0.375165    0.400960    0.097364    11.00000   -1.20000
AFIX   0
C11   1    0.145925    0.304615    0.033319    11.00000    0.05342    0.05317 =
         0.03928   -0.00987   -0.00143   -0.00279
AFIX  43
H11   2    0.212103    0.279167   -0.041695    11.00000   -1.20000
AFIX   0
C12   1   -0.049781    0.270557    0.063434    11.00000    0.05201    0.03808 =
         0.04020   -0.00466   -0.01493   -0.00322
C13   1   -0.148799    0.306233    0.174488    11.00000    0.04348    0.05739 =
         0.04717   -0.00946   -0.00641   -0.00937
AFIX  43
H13   2   -0.280681    0.281700    0.194166    11.00000   -1.20000
AFIX   0
C14   1   -0.049656    0.379047    0.256463    11.00000    0.04770    0.05610 =
         0.03988   -0.01174   -0.00197   -0.00659
AFIX  43
H14   2   -0.115929    0.403408    0.331705    11.00000   -1.20000
REM #####
REM #####
AFIX   0
HKLF 4




REM  exp_1_a.res in P-1
REM R1 =  0.0255 for    1947 Fo > 4sig(Fo)  and  0.0309 for all    2182 data
REM    174 parameters refined using     51 restraints

END

WGHT      0.0203      0.2825

REM Highest difference peak  0.277,  deepest hole -0.345,  1-sigma level  0.041
Q1    1  -0.1106  0.1668 -0.1219  11.00000  0.05    0.28
Q2    1  -0.1956  0.0999  0.0023  11.00000  0.05    0.23
Q3    1  -0.2799  0.2652 -0.0333  11.00000  0.05    0.22
Q4    1  -0.0675  0.2387  0.1339  11.00000  0.05    0.18
Q5    1  -0.1204  0.3390  0.0871  11.00000  0.05    0.17
Q6    1   0.1382  0.2159  0.7638  11.00000  0.05    0.16
Q7    1   0.2914  0.4502  0.3805  11.00000  0.05    0.15
Q8    1   0.3698  0.0835  0.7581  11.00000  0.05    0.15
Q9    1   0.1662  0.3896  0.0663  11.00000  0.05    0.14
Q10   1   0.0275  0.4514  0.2223  11.00000  0.05    0.14
Q11   1   0.4504  0.1831  0.5457  11.00000  0.05    0.13
Q12   1   0.6170  0.1295  0.5232  11.00000  0.05    0.13
Q13   1  -0.0732  0.2908  0.2252  11.00000  0.05    0.13
Q14   1   0.6357  0.1985  0.5668  11.00000  0.05    0.13
Q15   1  -0.1389  0.3984  0.1732  11.00000  0.05    0.13
Q16   1  -0.1408  0.4925  0.3229  11.00000  0.05    0.12
Q17   1   0.4223  0.3256  0.3993  11.00000  0.05    0.12
Q18   1   0.0168  0.3374  0.0468  11.00000  0.05    0.12
Q19   1   0.0642  0.2426  0.0704  11.00000  0.05    0.12
Q20   1   0.2432  0.2082  0.7077  11.00000  0.05    0.12
;
_shelx_res_checksum              81568
_shelx_hkl_file
;
  -9  -2  -4    3.32    6.72
  -9  -2  -3   -2.42    7.11
  -9  -2  -2    8.76    6.54
  -9  -2   0    8.59    7.09
  -9  -1  -2    4.19    6.99
  -9  -1  -1    2.91    7.56
  -9  -1   0   -2.69    8.08
  -9  -1   1    3.06    6.32
  -8  -6   0    3.99    4.71
  -8  -6   2    1.46    6.19
  -8  -6   3   11.89    6.21
  -8  -5  -3   15.16    6.66
  -8  -5  -2    0.31    6.36
  -8  -5  -1   -0.91    3.90
  -8  -5   1    3.62    4.75
  -8  -5   2   -0.43    5.04
  -8  -5   3   13.83    6.14
  -8  -4  -6   24.12    8.13
  -8  -4  -5   24.06    8.02
  -8  -4  -4   42.50    7.89
  -8  -4  -3    4.74    6.75
  -8  -4  -2    7.68    6.38
  -8  -4  -1    8.13    6.37
  -8  -4   0    3.95    6.19
  -8  -4   1    1.89    4.28
  -8  -4   1   -2.46    6.17
  -8  -4   2   13.11    4.62
  -8  -3  -6   10.99    7.49
  -8  -3  -5    6.13    6.57
  -8  -3  -4   -6.01    6.23
  -8  -3  -4   -0.36    6.83
  -8  -3  -3    1.12    5.36
  -8  -3  -2   19.34    7.39
  -8  -3  -2   23.65    6.58
  -8  -3  -1   13.83    6.27
  -8  -3  -1    8.12    6.71
  -8  -3   0    0.29    6.40
  -8  -3   0    8.23    6.79
  -8  -3   1    1.52    6.81
  -8  -3   1   10.63    6.65
  -8  -3   2    7.89    6.63
  -8  -2  -8    5.19    6.63
  -8  -2  -7   32.54    7.57
  -8  -2  -6   19.67    6.67
  -8  -2  -5   13.11    7.20
  -8  -2  -5    3.81    6.02
  -8  -2  -4    4.29    6.01
  -8  -2  -4   11.16    6.78
  -8  -2  -3   -2.12    5.40
  -8  -2  -3    3.25    6.62
  -8  -2  -2    0.73    6.65
  -8  -2  -2   -0.27    5.84
  -8  -2  -1   -0.55    6.22
  -8  -2  -1   -0.74    6.83
  -8  -2   0    7.77    5.75
  -8  -2   1    1.41    6.27
  -8  -2   1   10.66    7.14
  -8  -2   2    4.21    6.55
  -8  -1  -6    5.75    6.73
  -8  -1  -5    3.02    5.68
  -8  -1  -5    8.27    7.06
  -8  -1  -4   11.83    6.24
  -8  -1  -4   13.17    6.89
  -8  -1  -3   16.45    7.23
  -8  -1  -3   39.15    6.08
  -8  -1  -2    8.94    5.38
  -8  -1  -2   11.16    6.99
  -8  -1  -1   13.09    6.36
  -8  -1  -1   10.27    6.87
  -8  -1   0   10.37    6.74
  -8  -1   0   -1.57    6.26
  -8  -1   1    1.51    7.07
  -8  -1   1    4.03    5.64
  -8  -1   2    3.81    6.85
  -8  -1   3    5.88    7.45
  -8   0  -5    8.45    7.00
  -8   0  -5   -0.45    4.98
  -8   0  -4    2.09    7.21
  -8   0  -4    4.64    5.52
  -8   0  -3    5.96    6.82
  -8   0  -3    7.36    5.29
  -8   0  -2   -2.84    6.72
  -8   0  -2    7.47    5.54
  -8   0  -1    4.34    6.81
  -8   0  -1    7.81    5.06
  -8   0   0    1.46    6.75
  -8   0   0   10.25    5.14
  -8   0   1   -4.84    7.04
  -8   0   2   22.65    7.19
  -8   0   3   -2.71    7.82
  -8   1  -5   28.88    7.34
  -8   1  -4    9.14    6.58
  -8   1  -3    2.72    6.96
  -8   1  -2   14.53    6.85
  -8   1  -2    8.76    4.87
  -8   1  -1    0.85    4.62
  -8   1  -1    1.41    7.33
  -8   1   0   12.25    5.20
  -8   1   0    2.15    7.22
  -8   1   1   -2.93    7.81
  -8   1   1    2.10    5.18
  -8   1   2    1.11    6.74
  -8   1   3    2.29    7.54
  -8   2  -4    8.38    7.00
  -8   2  -3   -2.28    6.79
  -8   2  -2   13.66    7.33
  -8   2  -1   -6.79    7.03
  -8   2   0   11.84    6.80
  -8   2   1    5.00    7.34
  -8   2   2    7.96    8.34
  -8   2   3    6.34    7.64
  -8   3  -3    6.99    6.10
  -8   3  -1   18.92    7.33
  -8   3   0    0.67    7.01
  -8   3   1   10.22    7.25
  -8   3   2    2.43    6.86
  -8   3   3    2.16    7.39
  -7  -8  -5    3.55    6.23
  -7  -8  -2    9.34    6.28
  -7  -8  -1    6.37    6.21
  -7  -8   0    3.39    5.98
  -7  -7  -6   21.83    6.57
  -7  -7  -5    1.33    6.39
  -7  -7  -3    1.56    5.83
  -7  -7  -2   -0.31    5.96
  -7  -7  -2    1.21    5.28
  -7  -7  -2    2.32    5.87
  -7  -7  -1    7.44    6.43
  -7  -7  -1    1.71    5.90
  -7  -7   0   33.71    6.39
  -7  -7   0   29.02    6.67
  -7  -7   1    7.75    5.85
  -7  -7   2    9.89    5.75
  -7  -7   2   10.35    6.46
  -7  -7   3    9.83    6.26
  -7  -6  -7    1.97    5.43
  -7  -6  -6   24.78    5.46
  -7  -6  -6   19.56    6.59
  -7  -6  -5   74.36    6.75
  -7  -6  -5   69.10    7.93
  -7  -6  -5   88.29    7.79
  -7  -6  -4   39.58    6.83
  -7  -6  -3   28.15    6.56
  -7  -6  -3   18.04    6.13
  -7  -6  -2   21.31    6.04
  -7  -6  -2   24.02    5.88
  -7  -6  -2   19.32    5.04
  -7  -6  -1    7.07    6.15
  -7  -6  -1    3.19    4.65
  -7  -6  -1    8.39    6.35
  -7  -6   0    5.88    5.16
  -7  -6   1   -0.96    6.41
  -7  -6   1   -0.57    5.87
  -7  -6   1    4.55    5.14
  -7  -6   2    5.83    6.05
  -7  -6   3    7.62    6.63
  -7  -6   4    2.65    5.41
  -7  -6   5    4.81    6.01
  -7  -5  -7    3.18    4.78
  -7  -5  -7   11.89    6.90
  -7  -5  -6    2.65    4.80
  -7  -5  -6    7.74    6.73
  -7  -5  -5   33.73    5.25
  -7  -5  -5   36.39    6.62
  -7  -5  -4    7.49    5.74
  -7  -5  -4    4.67    4.59
  -7  -5  -4    3.60    5.97
  -7  -5  -3   18.84    5.83
  -7  -5  -3   34.45    4.19
  -7  -5  -3   29.62    6.27
  -7  -5  -2    3.38    4.08
  -7  -5  -2    3.48    5.68
  -7  -5  -2    5.28    5.85
  -7  -5  -1   84.66    5.67
  -7  -5  -1   75.28    7.35
  -7  -5   0   22.09    4.65
  -7  -5   0   32.65    6.54
  -7  -5   0   21.02    5.86
  -7  -5   1    7.70    4.49
  -7  -5   1    6.39    5.86
  -7  -5   1    4.40    5.74
  -7  -5   2   17.41    4.67
  -7  -5   2   24.08    6.46
  -7  -5   2   17.46    5.82
  -7  -5   3    6.21    4.71
  -7  -5   3   -0.99    6.16
  -7  -5   4   -1.37    6.60
  -7  -5   4    2.15    5.92
  -7  -5   5   -3.35    5.68
  -7  -5   6    3.57    6.04
  -7  -4  -8   28.07    7.04
  -7  -4  -7   43.12    4.85
  -7  -4  -7   30.71    7.14
  -7  -4  -6   95.31    6.02
  -7  -4  -6   87.16    8.13
  -7  -4  -5   23.61    6.19
  -7  -4  -5   31.69    4.44
  -7  -4  -4   14.82    4.02
  -7  -4  -4    8.44    5.45
  -7  -4  -3    4.61    5.63
  -7  -4  -3    8.08    3.55
  -7  -4  -2   10.10    5.39
  -7  -4  -2    9.50    3.60
  -7  -4  -1   21.08    5.69
  -7  -4  -1   12.83    3.65
  -7  -4   0    4.73    5.57
  -7  -4   0    6.66    3.66
  -7  -4   0    2.09    5.78
  -7  -4   1   13.19    5.80
  -7  -4   1   15.11    4.08
  -7  -4   1    9.54    5.44
  -7  -4   2    6.34    3.97
  -7  -4   2    5.83    5.75
  -7  -4   3   13.40    4.81
  -7  -4   3   21.70    5.89
  -7  -4   4    7.52    4.91
  -7  -4   4    6.89    6.40
  -7  -4   5   -1.07    6.73
  -7  -4   5   -0.23    5.17
  -7  -4   6    9.25    5.49
  -7  -4   7    8.07    6.91
  -7  -3  -9    3.57    6.29
  -7  -3  -8   18.79    5.95
  -7  -3  -7    4.02    3.66
  -7  -3  -7    7.61    5.77
  -7  -3  -6   41.66    4.31
  -7  -3  -6   29.48    6.61
  -7  -3  -5   65.77    4.62
  -7  -3  -5   58.83    7.09
  -7  -3  -5   66.22    6.70
  -7  -3  -4   10.74    5.24
  -7  -3  -4    1.09    3.32
  -7  -3  -4    3.70    5.62
  -7  -3  -3  142.78    8.70
  -7  -3  -3  134.04    6.44
  -7  -3  -3  144.25    6.98
  -7  -3  -3  149.64    9.11
  -7  -3  -2    1.23    5.42
  -7  -3  -2    4.62    5.65
  -7  -3  -2    6.93    2.89
  -7  -3  -1   77.74    7.38
  -7  -3  -1   83.62    4.99
  -7  -3  -1   77.98    7.34
  -7  -3   0    3.73    5.04
  -7  -3   1   14.25    5.58
  -7  -3   1   12.39    3.50
  -7  -3   2   14.62    3.69
  -7  -3   3    9.53    3.88
  -7  -3   4    3.41    4.52
  -7  -3   4    3.48    5.71
  -7  -3   5    8.95    6.18
  -7  -3   5   -0.62    4.46
  -7  -3   6    1.36    5.91
  -7  -3   6    2.98    6.16
  -7  -3   7   11.08    5.89
  -7  -3   8   10.46    6.14
  -7  -2 -10   27.84    6.92
  -7  -2  -9    8.51    6.47
  -7  -2  -8   89.20    7.63
  -7  -2  -6   13.81    5.64
  -7  -2  -5    5.24    2.42
  -7  -2  -5    7.80    6.03
  -7  -2  -5    7.71    5.31
  -7  -2  -4    5.15    5.12
  -7  -2  -4    2.20    2.07
  -7  -2  -4    0.98    2.22
  -7  -2  -4   -1.54    5.59
  -7  -2  -3   14.42    2.29
  -7  -2  -3   15.05    2.57
  -7  -2  -3   14.11    5.59
  -7  -2  -2   58.65    3.85
  -7  -2  -2   56.90    3.48
  -7  -2  -2   58.80    6.28
  -7  -2  -2   65.43    7.04
  -7  -2  -1   10.28    2.51
  -7  -2  -1   15.59    5.52
  -7  -2  -1   15.69    5.27
  -7  -2   0   17.61    5.66
  -7  -2   0   14.91    5.35
  -7  -2   0   19.87    3.03
  -7  -2   1    4.76    2.99
  -7  -2   1    5.85    5.21
  -7  -2   1    8.89    5.46
  -7  -2   2   19.88    3.71
  -7  -2   3    7.08    6.01
  -7  -2   3   13.97    3.77
  -7  -2   4    2.49    3.86
  -7  -2   5    5.18    4.08
  -7  -2   6    0.62    4.32
  -7  -2   7   14.22    5.47
  -7  -2   8    3.44    6.29
  -7  -1  -8   32.35    6.02
  -7  -1  -7   54.44    6.59
  -7  -1  -6   47.21    5.89
  -7  -1  -5   54.98    6.28
  -7  -1  -5   52.28    6.83
  -7  -1  -4   28.23    6.14
  -7  -1  -4   34.93    5.44
  -7  -1  -3   17.61    6.08
  -7  -1  -3   19.95    4.46
  -7  -1  -2    8.02    5.01
  -7  -1  -2    3.97    5.71
  -7  -1  -2    1.50    0.86
  -7  -1  -1   10.93    1.54
  -7  -1  -1   12.97    5.26
  -7  -1  -1   16.37    5.99
  -7  -1   0   40.26    6.25
  -7  -1   0   43.22    2.88
  -7  -1   0   51.22    5.48
  -7  -1   1   13.61    2.74
  -7  -1   1   14.56    5.80
  -7  -1   2   42.64    6.84
  -7  -1   2   57.99    4.02
  -7  -1   3    4.05    5.92
  -7  -1   3    4.77    3.43
  -7  -1   4    8.52    3.48
  -7  -1   4    4.83    6.08
  -7  -1   5    2.18    6.44
  -7  -1   5    2.95    3.70
  -7  -1   6   11.81    6.59
  -7  -1   6    3.85    3.97
  -7  -1   7    4.06    4.47
  -7  -1   8    6.02    5.53
  -7  -1   9    3.16    5.59
  -7   0  -8   -0.63    5.23
  -7   0  -7   17.07    4.81
  -7   0  -6    1.58    4.85
  -7   0  -5   17.27    5.06
  -7   0  -5   16.59    6.25
  -7   0  -4   13.02    4.89
  -7   0  -4    6.53    5.66
  -7   0  -3   33.44    6.29
  -7   0  -3   37.48    5.02
  -7   0  -2   32.73    6.12
  -7   0  -2   33.67    4.87
  -7   0  -1   -1.83    5.40
  -7   0  -1    0.61    4.59
  -7   0   0   10.02    4.55
  -7   0   0   17.43    6.06
  -7   0   1    5.65    5.94
  -7   0   1    4.83    1.62
  -7   0   2    2.40    2.37
  -7   0   3    0.60    2.69
  -7   0   3    5.36    6.09
  -7   0   4   -5.15    6.43
  -7   0   4    8.49    3.28
  -7   0   5    8.74    6.82
  -7   0   5   16.92    3.65
  -7   0   6   12.84    4.20
  -7   0   6   10.69    7.18
  -7   0   6    9.48    6.10
  -7   0   7    4.94    4.32
  -7   0   7    5.07    6.43
  -7   0   8    5.51    5.00
  -7   1  -6   23.19    4.50
  -7   1  -5    4.56    4.30
  -7   1  -5   12.55    5.99
  -7   1  -4   15.57    4.25
  -7   1  -4   14.97    5.66
  -7   1  -3   -0.29    5.58
  -7   1  -3   11.47    4.09
  -7   1  -2   10.27    5.52
  -7   1  -2    9.69    4.22
  -7   1  -1   46.10    5.04
  -7   1  -1   43.18    6.35
  -7   1   0   46.05    5.26
  -7   1   0   48.90    6.32
  -7   1   1   25.65    6.41
  -7   1   2   10.53    1.77
  -7   1   2    3.82    5.85
  -7   1   3    1.19    2.38
  -7   1   3   -5.63    6.46
  -7   1   4   -0.84    2.92
  -7   1   4   -1.36    6.39
  -7   1   5    2.40    3.23
  -7   1   5    7.59    6.70
  -7   1   6   10.21    7.88
  -7   1   6   -1.19    3.43
  -7   1   6    3.09    5.99
  -7   2  -4   23.50    3.91
  -7   2  -4   26.74    6.25
  -7   2  -3    5.27    5.68
  -7   2  -2    1.87    3.85
  -7   2  -1   -1.46    5.59
  -7   2  -1    2.37    4.10
  -7   2   0    0.59    5.62
  -7   2   0    2.21    4.13
  -7   2   1    2.41    5.73
  -7   2   2   -1.87    5.50
  -7   2   3    7.48    6.08
  -7   2   3    5.52    6.19
  -7   2   4   24.38    6.78
  -7   2   4   15.83    5.97
  -7   2   5    8.90    6.67
  -7   2   6   14.60    7.53
  -7   3  -4    9.79    6.20
  -7   3  -3   17.90    5.61
  -7   3  -2   46.73    6.29
  -7   3  -2   42.19    3.93
  -7   3   0   10.00    3.96
  -7   3   0   13.34    6.13
  -7   3   1    8.71    5.35
  -7   3   1    3.54    4.21
  -7   3   2   -4.25    6.37
  -7   3   2    2.72    6.11
  -7   3   3   -1.26    6.39
  -7   3   3   -0.34    6.36
  -7   3   4    2.46    6.38
  -7   3   4    2.28    6.33
  -7   3   5   -2.18    6.74
  -7   3   5   11.45    6.55
  -7   3   6    2.55    7.02
  -7   3   6   -0.22    5.64
  -7   3   7    5.11    5.71
  -7   4  -3    4.94    4.94
  -7   4  -2    0.97    5.14
  -7   4  -1    2.54    5.44
  -7   4   0    6.68    5.34
  -7   4   1   22.47    6.04
  -7   4   2    8.64    6.07
  -7   4   2    1.36    6.96
  -7   4   3   -4.23    6.60
  -7   4   4   -1.46    7.31
  -7   4   4    7.87    6.59
  -7   4   5    2.33    7.41
  -7   4   6    6.70    7.43
  -7   5   3    9.37    6.09
  -7   5   4    3.31    6.50
  -7   5   5    3.14    7.20
  -7   6   1    2.43    7.51
  -6  -9  -6    6.68    5.49
  -6  -9  -5    2.95    5.77
  -6  -9  -4    3.02    5.32
  -6  -9  -3    6.24    5.26
  -6  -9  -2   10.94    5.82
  -6  -9  -2    1.08    5.89
  -6  -9  -1    9.78    5.81
  -6  -9   0    4.47    5.92
  -6  -9   1   18.50    5.80
  -6  -9   2    1.87    5.62
  -6  -9   3    1.90    6.27
  -6  -8  -7   25.49    6.94
  -6  -8  -6    4.06    6.58
  -6  -8  -6    1.36    5.45
  -6  -8  -5   52.97    7.38
  -6  -8  -5   39.50    5.57
  -6  -8  -4   40.59    6.68
  -6  -8  -4   54.67    5.93
  -6  -8  -3   12.55    5.70
  -6  -8  -3   19.80    6.02
  -6  -8  -3   10.23    4.95
  -6  -8  -2   17.62    5.91
  -6  -8  -2   12.48    5.44
  -6  -8  -1    9.01    5.82
  -6  -8  -1    1.90    5.84
  -6  -8  -1   -0.53    5.98
  -6  -8   0    2.73    5.83
  -6  -8   0    0.81    5.34
  -6  -8   0    1.06    5.13
  -6  -8   1   20.20    5.40
  -6  -8   1   31.29    6.35
  -6  -8   1   23.90    6.41
  -6  -8   2    5.68    5.96
  -6  -8   2   -2.58    5.95
  -6  -8   2    9.06    6.20
  -6  -8   3   15.18    6.01
  -6  -8   4    1.69    6.01
  -6  -8   5    7.53    6.77
  -6  -7  -8   12.37    6.52
  -6  -7  -7    2.06    6.21
  -6  -7  -7   -0.16    3.85
  -6  -7  -7    4.92    6.22
  -6  -7  -6   27.08    4.43
  -6  -7  -6   43.49    6.58
  -6  -7  -6   42.73    6.49
  -6  -7  -5   11.82    4.30
  -6  -7  -5   18.24    5.58
  -6  -7  -4   49.09    4.99
  -6  -7  -4   51.92    6.61
  -6  -7  -3   33.86    4.81
  -6  -7  -3   49.36    6.48
  -6  -7  -2   18.69    5.76
  -6  -7  -1   42.02    5.90
  -6  -7  -1   51.73    5.96
  -6  -7  -1   40.20    6.30
  -6  -7   0   12.09    5.47
  -6  -7   0   16.99    5.58
  -6  -7   0   14.77    5.46
  -6  -7   1   30.82    5.99
  -6  -7   1   17.72    5.30
  -6  -7   1   26.69    5.92
  -6  -7   2   -1.63    5.32
  -6  -7   2   -1.79    5.58
  -6  -7   2   -1.84    5.25
  -6  -7   3    2.15    5.67
  -6  -7   3    0.56    5.96
  -6  -7   3    4.82    5.47
  -6  -7   4    9.94    6.24
  -6  -7   4    4.24    5.53
  -6  -7   5    6.73    5.79
  -6  -7   6    5.46    7.15
  -6  -6 -10   40.99    6.93
  -6  -6  -9   34.25    6.86
  -6  -6  -8   54.69    7.06
  -6  -6  -8   56.97    7.22
  -6  -6  -7   14.55    3.66
  -6  -6  -7   31.42    5.94
  -6  -6  -6   87.83    5.31
  -6  -6  -6   93.64    7.80
  -6  -6  -6   81.42    7.07
  -6  -6  -5   15.88    3.78
  -6  -6  -5   15.94    4.63
  -6  -6  -5   19.99    5.91
  -6  -6  -4    4.58    4.86
  -6  -6  -4    4.56    5.28
  -6  -6  -3    0.49    5.04
  -6  -6  -3   -0.53    4.99
  -6  -6  -2   11.75    4.95
  -6  -6  -2   14.28    5.25
  -6  -6  -1   28.16    4.95
  -6  -6   0   19.06    5.26
  -6  -6   0   19.24    5.25
  -6  -6   1   24.16    4.90
  -6  -6   1   41.45    5.77
  -6  -6   2    3.83    5.12
  -6  -6   2    3.52    4.79
  -6  -6   2    8.89    4.96
  -6  -6   3   10.81    5.23
  -6  -6   4    4.83    5.61
  -6  -6   4    4.59    5.28
  -6  -6   5   12.11    6.24
  -6  -6   5   14.30    6.20
  -6  -6   6    6.64    6.02
  -6  -5 -10    7.16    6.14
  -6  -5  -9    6.04    6.85
  -6  -5  -9    3.81    5.37
  -6  -5  -8   24.23    5.39
  -6  -5  -8   20.02    6.93
  -6  -5  -7   75.07    7.29
  -6  -5  -7   75.31    6.38
  -6  -5  -6  125.42    8.53
  -6  -5  -6  120.56    7.23
  -6  -5  -5   62.55    6.53
  -6  -5  -5   53.09    5.94
  -6  -5  -5   56.37    5.62
  -6  -5  -4  159.07    9.12
  -6  -5  -4  170.28    8.96
  -6  -5  -3   48.29    5.94
  -6  -5  -3   59.66    5.87
  -6  -5  -2   63.85    6.12
  -6  -5  -2   65.06    5.90
  -6  -5  -1    4.66    4.59
  -6  -5  -1    0.52    4.79
  -6  -5  -1    1.95    3.49
  -6  -5   0    5.80    4.99
  -6  -5   0   -3.26    4.49
  -6  -5   0    4.19    4.24
  -6  -5   1   10.45    4.99
  -6  -5   1   10.38    4.09
  -6  -5   1   11.32    4.75
  -6  -5   2   49.39    5.26
  -6  -5   2   50.28    6.06
  -6  -5   4   43.82    6.53
  -6  -5   4   50.94    5.82
  -6  -5   5    1.47    5.41
  -6  -5   5   18.70    6.05
  -6  -5   6    7.81    5.88
  -6  -5   6    5.83    5.49
  -6  -5   7    5.32    6.66
  -6  -5   7    1.13    5.90
  -6  -4 -10   45.84    7.45
  -6  -4 -10   53.62    6.14
  -6  -4  -9   24.53    6.59
  -6  -4  -9   27.29    4.93
  -6  -4  -8   37.45    5.00
  -6  -4  -8   45.84    6.36
  -6  -4  -7    3.88    4.04
  -6  -4  -6    9.56    4.05
  -6  -4  -6    4.30    5.22
  -6  -4  -5   25.11    4.18
  -6  -4  -5   28.27    5.70
  -6  -4  -4   15.30    5.03
  -6  -4  -4   18.54    4.17
  -6  -4  -3   80.16    6.28
  -6  -4  -2   47.08    4.25
  -6  -4  -2   41.18    5.46
  -6  -4  -2   47.23    5.42
  -6  -4  -1   47.34    4.30
  -6  -4  -1   43.62    5.35
  -6  -4  -1   48.33    5.54
  -6  -4   0  108.46    6.98
  -6  -4   0   99.89    7.04
  -6  -4   0  110.44    6.06
  -6  -4   1    5.19    4.51
  -6  -4   1    1.85    4.49
  -6  -4   1    3.25    3.30
  -6  -4   2    9.71    3.84
  -6  -4   2    7.34    4.91
  -6  -4   3    4.78    5.22
  -6  -4   3    6.16    3.66
  -6  -4   4    1.62    4.56
  -6  -4   4   -1.46    4.90
  -6  -4   5    6.23    5.08
  -6  -4   5    3.33    5.41
  -6  -4   6    9.73    5.77
  -6  -4   6    4.32    5.53
  -6  -4   7    7.54    5.67
  -6  -4   7    2.05    6.52
  -6  -4   8   18.78    6.89
  -6  -4   8   15.19    6.52
  -6  -3 -11   11.43    6.60
  -6  -3 -10   12.42    4.81
  -6  -3 -10   15.02    6.25
  -6  -3  -9  135.63    8.96
  -6  -3  -9  127.05    7.40
  -6  -3  -8   55.70    6.53
  -6  -3  -8   57.69    4.96
  -6  -3  -7  191.45    9.89
  -6  -3  -6   73.50    6.64
  -6  -3  -6   72.17    4.97
  -6  -3  -5  102.79    5.60
  -6  -3  -5  105.05    7.30
  -6  -3  -5   88.80    7.12
  -6  -3  -4  197.38    9.95
  -6  -3  -4  185.49    8.26
  -6  -3  -4  187.52    9.62
  -6  -3  -3   14.18    5.09
  -6  -3  -3   12.09    4.48
  -6  -3  -2    1.16    2.81
  -6  -3  -2    0.63    4.09
  -6  -3  -1   79.60    6.04
  -6  -3  -1   81.45    4.72
  -6  -3   0    4.19    3.05
  -6  -3   0   10.30    4.52
  -6  -3   2   90.10    7.28
  -6  -3   2  130.63    6.24
  -6  -3   3   13.34    3.79
  -6  -3   3   17.28    5.21
  -6  -3   4   56.10    6.07
  -6  -3   4   55.72    5.13
  -6  -3   5   -1.19    4.18
  -6  -3   5    0.31    5.31
  -6  -3   6    4.29    5.78
  -6  -3   6    6.34    4.96
  -6  -3   7   -2.14    5.34
  -6  -3   7    0.70    6.50
  -6  -3   8    2.33    5.65
  -6  -3   8    2.94    6.56
  -6  -3   9    1.41    5.95
  -6  -2 -11   23.57    6.74
  -6  -2 -10   -9.23    5.87
  -6  -2 -10    0.81    3.95
  -6  -2  -9   23.28    4.05
  -6  -2  -9   18.01    5.65
  -6  -2  -8   29.37    3.98
  -6  -2  -8   40.98    6.01
  -6  -2  -7   13.23    4.60
  -6  -2  -6  127.92    7.67
  -6  -2  -6  130.41    6.07
  -6  -2  -5   49.66    3.65
  -6  -2  -5   53.56    5.94
  -6  -2  -5   53.26    5.56
  -6  -2  -4   66.49    3.86
  -6  -2  -4   61.35    5.25
  -6  -2  -4   58.47    5.95
  -6  -2  -3   24.92    4.34
  -6  -2  -3   26.33    2.89
  -6  -2  -3   32.00    5.00
  -6  -2  -2   57.25    4.92
  -6  -2  -2   47.83    3.24
  -6  -2  -2   44.85    5.39
  -6  -2  -1   70.70    5.73
  -6  -2  -1   74.31    4.01
  -6  -2  -1   83.44    6.47
  -6  -2   0    2.11    2.27
  -6  -2   0   -1.03    4.37
  -6  -2   0    3.38    3.98
  -6  -2   1   14.17    2.94
  -6  -2   1   12.15    4.95
  -6  -2   2   -0.13    3.10
  -6  -2   3   24.58    3.78
  -6  -2   4    4.66    3.58
  -6  -2   5   37.49    4.95
  -6  -2   6   16.84    4.47
  -6  -2   7    7.68    5.02
  -6  -2   8   11.33    5.41
  -6  -2   9    0.52    5.98
  -6  -1 -11   38.90    7.58
  -6  -1 -10   59.43    6.15
  -6  -1  -9   93.46    5.27
  -6  -1  -9  100.65    7.66
  -6  -1  -8   30.82    5.59
  -6  -1  -8   30.17    3.34
  -6  -1  -7   61.94    3.82
  -6  -1  -7   67.16    5.98
  -6  -1  -6   14.89    2.20
  -6  -1  -6   14.31    4.36
  -6  -1  -5   54.56    2.85
  -6  -1  -5   58.75    5.84
  -6  -1  -5   56.48    5.55
  -6  -1  -4   82.64    5.41
  -6  -1  -4   74.31    6.15
  -6  -1  -4   72.00    3.26
  -6  -1  -3  275.22   11.18
  -6  -1  -3  249.15    9.17
  -6  -1  -3  256.96    9.15
  -6  -1  -3  240.51   11.66
  -6  -1  -2   12.89    4.61
  -6  -1  -2   11.62    3.85
  -6  -1  -1  303.45   12.75
  -6  -1  -1  309.80   13.48
  -6  -1  -1  301.04   10.95
  -6  -1   0   34.23    5.08
  -6  -1   0   34.22    2.67
  -6  -1   0   38.84    4.70
  -6  -1   1  201.79    8.18
  -6  -1   1  218.71   10.49
  -6  -1   2    2.46    4.70
  -6  -1   2    1.59    2.63
  -6  -1   3   46.23    3.89
  -6  -1   3   50.64    6.00
  -6  -1   4   -5.42    5.24
  -6  -1   4    0.57    3.33
  -6  -1   5    7.04    5.41
  -6  -1   5    5.16    3.69
  -6  -1   6    4.00    5.04
  -6  -1   6    1.81    3.86
  -6  -1   6   -1.35    5.95
  -6  -1   7    5.44    3.80
  -6  -1   7    6.37    5.31
  -6  -1   8   -1.33    4.41
  -6  -1   9    8.97    6.01
  -6   0 -10   11.77    5.28
  -6   0  -9   12.91    4.52
  -6   0  -8  113.55    6.92
  -6   0  -7   21.02    4.45
  -6   0  -7   30.81    2.09
  -6   0  -6  148.03    7.70
  -6   0  -5    8.83    4.09
  -6   0  -5   17.54    4.97
  -6   0  -4   27.68    4.19
  -6   0  -4   27.01    5.20
  -6   0  -3    5.19    3.85
  -6   0  -3    4.96    4.74
  -6   0  -2    5.72    4.78
  -6   0  -2    6.78    3.75
  -6   0  -1   22.15    4.17
  -6   0  -1   19.05    4.84
  -6   0   0   65.57    2.77
  -6   0   0   55.15    5.87
  -6   0   0   60.99    4.94
  -6   0   1   13.31    4.58
  -6   0   1   14.22    1.86
  -6   0   2   56.62    3.38
  -6   0   2   54.13    6.01
  -6   0   3   37.58    5.76
  -6   0   3   37.80    3.17
  -6   0   4   32.05    5.81
  -6   0   4   29.04    3.59
  -6   0   4   16.16    4.80
  -6   0   5   10.70    3.32
  -6   0   5    5.96    4.54
  -6   0   5    8.96    5.65
  -6   0   6   -1.01    5.78
  -6   0   6   -4.50    5.02
  -6   0   6    3.90    3.80
  -6   0   7    0.88    5.13
  -6   0   7    2.92    4.15
  -6   0   7    3.17    6.24
  -6   0   8    1.52    5.80
  -6   0   8    4.27    4.56
  -6   0   9   13.41    5.66
  -6   0   9    9.49    6.78
  -6   0  10    0.25    5.56
  -6   1  -9   -1.04    4.27
  -6   1  -8   -0.16    3.95
  -6   1  -7    9.28    4.09
  -6   1  -6    8.57    3.75
  -6   1  -5  128.17    6.58
  -6   1  -5  126.52    7.82
  -6   1  -4  218.33    9.36
  -6   1  -4  214.37   10.46
  -6   1  -3   66.30    4.93
  -6   1  -3   76.75    6.30
  -6   1  -2   79.29    5.10
  -6   1  -2   73.33    6.31
  -6   1  -1  135.98    8.23
  -6   1  -1  146.10    7.16
  -6   1   0    1.75    3.61
  -6   1   0   -0.25    4.92
  -6   1   1   52.77    5.65
  -6   1   1   55.30    2.44
  -6   1   2   26.04    2.30
  -6   1   2   26.24    5.27
  -6   1   2   21.23    4.72
  -6   1   3    7.90    5.30
  -6   1   3    7.31    2.45
  -6   1   4   27.54    3.21
  -6   1   4   26.84    5.81
  -6   1   5   -0.13    3.25
  -6   1   5   -7.00    5.87
  -6   1   5    1.71    5.19
  -6   1   6   20.29    5.49
  -6   1   6   24.74    3.89
  -6   1   7    5.42    4.18
  -6   1   7    7.50    5.80
  -6   1   7    0.35    6.62
  -6   1   8    0.96    4.47
  -6   1   8   12.08    7.12
  -6   1   8    1.31    6.10
  -6   1   9    7.25    5.38
  -6   1   9    1.02    6.28
  -6   1  10    5.66    5.65
  -6   2  -7   -1.63    3.30
  -6   2  -6    2.13    3.11
  -6   2  -5   16.94    3.34
  -6   2  -4   12.63    5.04
  -6   2  -4   11.52    3.22
  -6   2  -3   49.09    4.04
  -6   2  -3   50.54    5.54
  -6   2  -2   39.05    3.83
  -6   2  -2   39.62    5.35
  -6   2  -1   63.68    5.91
  -6   2   0   51.35    5.54
  -6   2   0   48.39    4.61
  -6   2   1   31.22    5.43
  -6   2   1   25.46    5.01
  -6   2   2   71.54    6.59
  -6   2   2   67.84    6.30
  -6   2   3    2.08    2.20
  -6   2   3   -3.89    4.81
  -6   2   3    0.28    5.80
  -6   2   4    1.45    5.01
  -6   2   4    1.57    2.83
  -6   2   4    2.08    5.55
  -6   2   5    6.18    3.21
  -6   2   5   13.83    6.03
  -6   2   6   -0.99    6.02
  -6   2   6    2.24    3.46
  -6   2   7    9.02    6.60
  -6   2   7    7.52    4.03
  -6   2   7   -1.99    5.57
  -6   2   8   16.09    4.77
  -6   2   8   11.84    6.24
  -6   2   8   21.40    6.59
  -6   2   8   19.58    7.15
  -6   2   9    3.84    4.96
  -6   2   9    3.92    6.99
  -6   2  10    5.12    5.86
  -6   3  -4   30.61    5.04
  -6   3  -3   33.82    5.04
  -6   3  -3   28.19    2.65
  -6   3  -2    7.24    2.55
  -6   3  -2    6.82    4.60
  -6   3  -1    3.19    2.93
  -6   3  -1    0.46    4.46
  -6   3   0    2.38    3.06
  -6   3   0    9.40    4.94
  -6   3   1    5.90    5.19
  -6   3   1    7.80    4.92
  -6   3   2    8.13    5.18
  -6   3   2   15.91    5.58
  -6   3   3    3.81    5.36
  -6   3   3    2.44    4.57
  -6   3   4   32.95    6.34
  -6   3   4   45.54    6.66
  -6   3   5   13.21    5.77
  -6   3   5   14.51    6.16
  -6   3   5   17.14    3.52
  -6   3   6   12.13    5.19
  -6   3   6    6.68    3.46
  -6   3   7    3.88    3.71
  -6   3   7    4.76    5.25
  -6   3   7    3.07    6.40
  -6   3   8   12.16    7.03
  -6   3   8    4.49    5.46
  -6   3   8    2.10    4.41
  -6   3   9   -2.99    6.47
  -6   3   9   10.75    4.84
  -6   4  -1   21.89    4.92
  -6   4  -1   17.03    1.81
  -6   4  -1   17.17    2.08
  -6   4   0   20.46    2.52
  -6   4   0   18.79    4.79
  -6   4   0   17.34    5.18
  -6   4   0   19.87    2.90
  -6   4   1    3.01    4.75
  -6   4   1    2.99    2.77
  -6   4   1    3.93    5.12
  -6   4   2    3.82    5.49
  -6   4   2    4.42    5.09
  -6   4   2    3.41    3.25
  -6   4   3   55.29    4.35
  -6   4   3   48.71    6.18
  -6   4   4   14.45    3.84
  -6   4   4    4.87    6.26
  -6   4   5    3.38    6.62
  -6   4   5    5.11    6.31
  -6   4   5    3.31    4.00
  -6   4   6    9.14    6.80
  -6   4   6   11.36    4.64
  -6   4   7   13.25    5.53
  -6   4   7   16.41    7.14
  -6   4   8    3.82    6.44
  -6   4   8   -7.37    6.64
  -6   4   9    0.52    6.55
  -6   5  -2    6.18    4.23
  -6   5  -1    8.93    4.40
  -6   5   0    7.25    5.52
  -6   5   0   17.72    4.96
  -6   5   1   -0.43    4.58
  -6   5   1    1.11    2.07
  -6   5   1    2.05    5.88
  -6   5   2    0.93    6.25
  -6   5   2    4.85    3.05
  -6   5   2    7.80    4.70
  -6   5   3   33.85    7.10
  -6   5   3   37.67    3.90
  -6   5   4    2.93    3.55
  -6   5   4    6.94    5.39
  -6   5   4   15.62    6.51
  -6   5   5   -1.15    5.89
  -6   5   5    3.53    6.78
  -6   5   5    1.13    3.99
  -6   5   6    4.93    6.28
  -6   5   6   -3.52    4.40
  -6   5   7    6.52    6.50
  -6   5   7   -0.21    5.17
  -6   5   8    4.13    7.72
  -6   6   1   17.64    5.93
  -6   6   2   24.41    5.02
  -6   6   2   24.46    6.97
  -6   6   3   13.87    4.99
  -6   6   4    6.01    7.36
  -6   6   4    0.98    5.32
  -6   6   5    8.65    5.99
  -6   7   0    5.04    6.60
  -6   7   1    0.31    6.31
  -6   7   2   15.29    6.65
  -6   7   3    1.05    6.91
  -5  -9  -8    3.50    5.25
  -5  -9  -7    4.63    5.12
  -5  -9  -6    0.67    5.25
  -5  -9  -6    2.69    6.32
  -5  -9  -5   58.13    6.44
  -5  -9  -5   67.25    7.13
  -5  -9  -4   26.10    5.98
  -5  -9  -4   24.29    5.62
  -5  -9  -3   46.19    5.92
  -5  -9  -3   49.44    6.22
  -5  -9  -2   19.52    5.68
  -5  -9  -2   12.29    5.64
  -5  -9  -1   24.99    5.00
  -5  -9  -1   38.63    6.20
  -5  -9  -1   30.02    6.07
  -5  -9   0    9.37    5.73
  -5  -9   0   19.60    5.76
  -5  -9   1    7.70    6.26
  -5  -9   1   -0.66    4.79
  -5  -9   1    0.25    5.07
  -5  -9   2   -0.76    5.59
  -5  -9   2    1.12    4.92
  -5  -9   3    3.58    6.20
  -5  -9   3    5.43    4.76
  -5  -8  -8   60.54    5.66
  -5  -8  -8   69.37    7.76
  -5  -8  -7   19.91    6.11
  -5  -8  -7   18.16    6.47
  -5  -8  -7    7.48    4.34
  -5  -8  -6   24.96    6.44
  -5  -8  -6   22.37    6.08
  -5  -8  -6   27.12    5.19
  -5  -8  -5    7.65    5.61
  -5  -8  -5    4.71    4.44
  -5  -8  -5   12.51    5.83
  -5  -8  -4    3.00    5.28
  -5  -8  -4    7.22    4.75
  -5  -8  -3    6.35    4.91
  -5  -8  -3   -0.48    4.94
  -5  -8  -2   15.55    5.11
  -5  -8  -2   15.39    4.96
  -5  -8  -2   18.86    5.00
  -5  -8  -1   12.18    4.61
  -5  -8  -1   18.39    4.78
  -5  -8  -1   13.69    5.50
  -5  -8   0   35.69    6.14
  -5  -8   0   40.43    5.73
  -5  -8   0   41.54    5.70
  -5  -8   1   -2.44    4.15
  -5  -8   1    3.45    5.77
  -5  -8   1    6.16    4.97
  -5  -8   2   31.98    6.13
  -5  -8   2   36.85    5.94
  -5  -8   3    7.81    4.59
  -5  -8   3   -0.85    5.47
  -5  -8   3    3.64    5.34
  -5  -8   4    0.25    5.46
  -5  -8   4    3.53    6.24
  -5  -8   5    1.80    6.11
  -5  -8   5    1.93    4.80
  -5  -7 -10    7.22    6.37
  -5  -7  -9   22.50    4.20
  -5  -7  -9   20.07    6.22
  -5  -7  -8   24.80    4.37
  -5  -7  -8   44.12    7.13
  -5  -7  -7   98.89    7.72
  -5  -7  -7   86.67    5.96
  -5  -7  -6  104.27    6.30
  -5  -7  -6   98.99    7.48
  -5  -7  -5  156.66    8.93
  -5  -7  -5  135.39    7.34
  -5  -7  -4   38.41    4.54
  -5  -7  -4   34.40    5.21
  -5  -7  -3  103.79    6.19
  -5  -7  -3  101.22    6.97
  -5  -7  -3  102.79    7.02
  -5  -7  -2   14.97    4.22
  -5  -7  -2   24.72    4.83
  -5  -7  -2   24.34    4.88
  -5  -7  -1   11.55    4.55
  -5  -7  -1    9.51    4.14
  -5  -7  -1   11.84    4.55
  -5  -7   0   40.15    5.20
  -5  -7   0   43.08    5.07
  -5  -7   0   33.25    5.36
  -5  -7   0   38.03    5.12
  -5  -7   1   13.58    4.64
  -5  -7   1   12.74    5.13
  -5  -7   1   20.99    4.83
  -5  -7   2    4.63    4.90
  -5  -7   2    9.49    4.89
  -5  -7   2   15.55    4.62
  -5  -7   3   61.40    6.04
  -5  -7   3   54.58    6.23
  -5  -7   3   59.19    6.67
  -5  -7   4   32.96    5.54
  -5  -7   4   26.47    5.35
  -5  -7   5   12.40    5.92
  -5  -7   5   15.02    5.46
  -5  -7   6    0.26    5.42
  -5  -7   6   10.09    6.33
  -5  -7   7    5.40    5.47
  -5  -7   8    2.53    6.20
  -5  -6 -11   27.09    6.65
  -5  -6 -10   43.90    7.09
  -5  -6 -10   58.77    7.29
  -5  -6  -9   54.15    6.89
  -5  -6  -9   61.48    4.65
  -5  -6  -9   66.67    7.21
  -5  -6  -8    1.21    3.19
  -5  -6  -8   -2.98    5.38
  -5  -6  -8    1.28    5.68
  -5  -6  -7    4.32    5.11
  -5  -6  -7    4.49    3.31
  -5  -6  -7   -0.76    4.89
  -5  -6  -6    8.76    3.42
  -5  -6  -6   12.39    5.01
  -5  -6  -6    8.90    5.08
  -5  -6  -5   89.46    5.37
  -5  -6  -5   87.08    6.62
  -5  -6  -4   79.79    6.28
  -5  -6  -4   76.32    5.16
  -5  -6  -3  109.18    6.84
  -5  -6  -3  109.65    6.02
  -5  -6  -2   75.85    5.74
  -5  -6  -2   66.30    5.11
  -5  -6  -1    3.67    3.67
  -5  -6  -1    6.51    4.07
  -5  -6  -1    5.64    3.99
  -5  -6   0   63.89    5.71
  -5  -6   0   62.64    5.51
  -5  -6   0   60.93    5.29
  -5  -6   1    9.26    4.04
  -5  -6   1    6.52    4.16
  -5  -6   1    3.52    4.10
  -5  -6   2   13.64    4.77
  -5  -6   2   16.53    4.70
  -5  -6   2   16.59    4.32
  -5  -6   3   35.02    5.30
  -5  -6   3   48.68    5.76
  -5  -6   4    0.96    4.25
  -5  -6   5   12.83    5.03
  -5  -6   6   -0.26    5.39
  -5  -6   6    4.90    5.61
  -5  -6   7   21.27    5.99
  -5  -6   7    9.97    5.74
  -5  -6   8    9.54    6.04
  -5  -6   9    6.64    5.94
  -5  -5 -12    6.08    6.81
  -5  -5 -11   74.26    7.27
  -5  -5 -10   41.13    7.26
  -5  -5 -10   46.22    6.35
  -5  -5  -9  163.08    9.75
  -5  -5  -9  188.23    9.67
  -5  -5  -9  166.31    7.36
  -5  -5  -8  127.90    7.69
  -5  -5  -8  139.00    8.40
  -5  -5  -8  128.09    6.18
  -5  -5  -7  168.91    8.86
  -5  -5  -7  176.19    9.35
  -5  -5  -7  170.38    7.39
  -5  -5  -6   98.79    6.55
  -5  -5  -6   92.92    5.06
  -5  -5  -6   89.24    6.85
  -5  -5  -5   84.46    4.88
  -5  -5  -5   96.02    6.29
  -5  -5  -5   85.52    6.12
  -5  -5  -4   11.57    3.10
  -5  -5  -4    8.77    3.97
  -5  -5  -4   12.35    4.22
  -5  -5  -3   63.49    4.32
  -5  -5  -3   67.19    5.27
  -5  -5  -3   53.70    5.27
  -5  -5  -2   94.88    5.15
  -5  -5  -2   90.21    6.15
  -5  -5  -2   82.41    5.94
  -5  -5  -1  172.68    8.72
  -5  -5   0  130.61    7.50
  -5  -5   1   82.17    6.29
  -5  -5   1   98.89    6.12
  -5  -5   2   90.66    6.54
  -5  -5   2   98.15    6.12
  -5  -5   3  108.80    6.82
  -5  -5   3  114.83    7.17
  -5  -5   4    4.50    4.07
  -5  -5   4   -1.93    4.39
  -5  -5   5   20.90    5.30
  -5  -5   5   22.20    5.07
  -5  -5   6    1.49    4.93
  -5  -5   6    2.19    5.00
  -5  -5   7    6.23    5.77
  -5  -5   8    0.62    6.16
  -5  -5   8   -1.74    5.74
  -5  -5   9   -1.64    6.06
  -5  -4 -12   26.67    6.52
  -5  -4 -11   26.81    6.80
  -5  -4 -10   -0.24    4.56
  -5  -4 -10    5.67    6.16
  -5  -4  -9    8.93    5.24
  -5  -4  -9    6.53    2.28
  -5  -4  -9    6.48    4.76
  -5  -4  -8   92.51    4.59
  -5  -4  -8  107.10    7.56
  -5  -4  -8  107.66    6.86
  -5  -4  -7   31.66    2.82
  -5  -4  -7   36.14    4.74
  -5  -4  -6  343.99   13.60
  -5  -4  -6  354.43   14.34
  -5  -4  -6  322.84   12.32
  -5  -4  -5  192.27    9.09
  -5  -4  -5  179.06    8.57
  -5  -4  -5  186.72    7.54
  -5  -4  -4  260.98   11.09
  -5  -4  -4  256.36    9.78
  -5  -4  -3    1.50    3.61
  -5  -4  -3    6.38    3.51
  -5  -4  -2    0.37    3.56
  -5  -4  -2   -1.27    3.52
  -5  -4  -1   36.43    4.50
  -5  -4  -1   32.00    4.20
  -5  -4   0    0.29    2.81
  -5  -4   0    2.96    3.45
  -5  -4   0    5.33    3.62
  -5  -4   1   50.86    4.46
  -5  -4   1   55.94    5.00
  -5  -4   2   28.63    3.85
  -5  -4   2   24.04    4.28
  -5  -4   3   74.48    5.37
  -5  -4   3   76.92    5.94
  -5  -4   4   12.95    4.69
  -5  -4   4   16.83    4.13
  -5  -4   5   72.56    6.43
  -5  -4   5   67.03    5.65
  -5  -4   6   17.74    5.31
  -5  -4   6   13.02    5.07
  -5  -4   7   15.33    5.14
  -5  -4   7   18.28    5.93
  -5  -4   8   -0.27    5.35
  -5  -4   9    6.73    6.42
  -5  -4   9   -1.16    6.12
  -5  -3 -12   23.35    6.89
  -5  -3 -11  113.35    8.89
  -5  -3 -11  107.86    7.48
  -5  -3 -10  123.62    7.33
  -5  -3 -10  113.32    8.55
  -5  -3  -9   89.39    6.09
  -5  -3  -9   81.84    6.96
  -5  -3  -8   83.14    5.51
  -5  -3  -8   63.94    6.16
  -5  -3  -7   30.60    5.01
  -5  -3  -7   23.82    3.85
  -5  -3  -6   -0.83    4.54
  -5  -3  -6    1.17    3.44
  -5  -3  -5    3.89    3.75
  -5  -3  -5    2.43    3.28
  -5  -3  -4   45.61    4.63
  -5  -3  -4   48.35    3.92
  -5  -3  -3  219.74    9.62
  -5  -3  -2  753.22   27.47
  -5  -3  -1  190.22    8.84
  -5  -3  -1  200.37    8.19
  -5  -3   0  236.45    9.34
  -5  -3   0  217.90    9.92
  -5  -3   1  153.24    6.63
  -5  -3   1  118.21    7.25
  -5  -3   2    8.71    3.69
  -5  -3   2   10.37    3.19
  -5  -3   3   44.17    4.80
  -5  -3   3   35.02    3.98
  -5  -3   4   27.10    4.62
  -5  -3   4   26.87    3.79
  -5  -3   5    7.95    3.83
  -5  -3   5    7.53    4.47
  -5  -3   6   41.82    5.98
  -5  -3   6   43.47    5.01
  -5  -3   7    3.64    5.46
  -5  -3   7    5.69    4.68
  -5  -3   8   13.14    5.62
  -5  -3   8   14.45    6.21
  -5  -3   9    2.43    5.94
  -5  -3   9    6.10    5.95
  -5  -3  10    7.21    6.76
  -5  -3  10    0.59    6.24
  -5  -2 -12    2.61    6.65
  -5  -2 -11   54.30    6.73
  -5  -2 -11   55.52    5.69
  -5  -2 -10   47.29    4.86
  -5  -2 -10   50.38    6.46
  -5  -2  -9  122.06    7.87
  -5  -2  -9  133.89    7.13
  -5  -2  -8  134.73    7.71
  -5  -2  -7  131.72    8.08
  -5  -2  -7  156.46    6.93
  -5  -2  -6  382.50   14.29
  -5  -2  -6  373.25   15.08
  -5  -2  -5   10.14    3.55
  -5  -2  -5    6.31    2.58
  -5  -2  -5   11.53    3.87
  -5  -2  -4    2.90    2.31
  -5  -2  -4    2.55    3.53
  -5  -2  -4    2.96    3.59
  -5  -2  -3   91.47    5.99
  -5  -2  -3   88.26    4.48
  -5  -2  -3   82.86    5.36
  -5  -2  -2    8.39    3.19
  -5  -2  -2    5.77    3.75
  -5  -2  -1  148.14    7.04
  -5  -2  -1  129.29    7.42
  -5  -2  -1  149.36    6.10
  -5  -2   0  192.60    7.81
  -5  -2   2  213.07    8.72
  -5  -2   3   62.55    4.19
  -5  -2   4   70.01    4.84
  -5  -2   5   10.87    3.54
  -5  -2   5    9.25    4.48
  -5  -2   6   -0.76    3.86
  -5  -2   6    4.89    4.67
  -5  -2   6   -1.26    3.97
  -5  -2   7    9.03    4.52
  -5  -2   7    0.21    4.13
  -5  -2   7   12.17    5.18
  -5  -2   8   -0.23    4.73
  -5  -2   8    5.50    5.57
  -5  -2   8    3.44    4.41
  -5  -2   9    7.14    4.93
  -5  -2   9    1.38    6.20
  -5  -2   9   -1.27    5.32
  -5  -2  10   24.04    6.34
  -5  -2  10   16.55    5.79
  -5  -2  10   10.99    6.55
  -5  -2  11    6.64    5.70
  -5  -1 -12   33.07    6.58
  -5  -1 -11   53.48    5.30
  -5  -1 -10    8.70    3.74
  -5  -1 -10   17.62    4.75
  -5  -1  -9    9.51    3.70
  -5  -1  -9    7.84    4.47
  -5  -1  -8    2.40    4.17
  -5  -1  -8    0.12    3.08
  -5  -1  -7  157.23    8.06
  -5  -1  -7  153.73    6.77
  -5  -1  -6   11.32    2.39
  -5  -1  -6   12.69    4.00
  -5  -1  -5  274.78   11.63
  -5  -1  -5  260.52    9.78
  -5  -1  -5  254.92   11.00
  -5  -1  -4  385.58   15.24
  -5  -1  -4  378.48   13.55
  -5  -1  -4  372.18   14.65
  -5  -1  -3  505.73   17.51
  -5  -1  -3  503.95   19.20
  -5  -1  -3  473.09   18.55
  -5  -1  -2  373.42   14.41
  -5  -1  -2  376.09   13.28
  -5  -1  -2  367.89   14.99
  -5  -1  -1   11.60    3.18
  -5  -1  -1    6.69    3.55
  -5  -1  -1   10.86    1.59
  -5  -1   0   82.94    5.53
  -5  -1   0   83.86    3.89
  -5  -1   1   14.25    3.72
  -5  -1   1   12.95    2.09
  -5  -1   2    5.30    2.23
  -5  -1   2    9.55    3.86
  -5  -1   3   39.64    3.33
  -5  -1   3   38.59    4.87
  -5  -1   4   54.24    4.14
  -5  -1   4   42.18    5.36
  -5  -1   4   40.75    4.58
  -5  -1   5    0.31    3.43
  -5  -1   5    4.93    3.80
  -5  -1   6  136.44    7.25
  -5  -1   6  135.19    7.73
  -5  -1   7   19.70    4.91
  -5  -1   7   13.22    4.10
  -5  -1   8   20.01    4.81
  -5  -1   8   16.52    5.08
  -5  -1   9    1.18    5.11
  -5  -1   9   -4.16    6.00
  -5  -1  10    8.76    5.77
  -5  -1  10   -1.89    5.29
  -5  -1  11    6.98    5.99
  -5  -1  12   10.13    6.55
  -5   0 -11   70.01    6.39
  -5   0 -11   84.45    5.57
  -5   0 -10   52.46    4.42
  -5   0 -10   52.94    5.75
  -5   0  -9   79.50    6.11
  -5   0  -9   81.63    4.91
  -5   0  -8   20.95    4.31
  -5   0  -8   18.77    2.83
  -5   0  -7  134.22    5.68
  -5   0  -7  125.83    6.80
  -5   0  -6   42.51    2.60
  -5   0  -6   43.38    4.13
  -5   0  -5   83.05    5.90
  -5   0  -5   85.99    3.55
  -5   0  -5   87.50    5.21
  -5   0  -4  109.61    5.75
  -5   0  -4  101.58    6.43
  -5   0  -3   87.63    5.07
  -5   0  -3   86.53    5.76
  -5   0  -2  293.31   12.49
  -5   0  -2  301.40   11.76
  -5   0  -1  354.00   13.56
  -5   0  -1  337.48   12.66
  -5   0  -1  321.41   11.32
  -5   0   0   85.35    5.46
  -5   0   0   83.17    3.42
  -5   0   1  198.81    7.39
  -5   0   1  181.24    9.18
  -5   0   2   75.86    5.68
  -5   0   2   77.94    3.92
  -5   0   3    4.24    2.26
  -5   0   3    4.34    3.89
  -5   0   4    0.24    2.71
  -5   0   4    0.77    4.08
  -5   0   4   -0.22    3.49
  -5   0   5  140.68    7.80
  -5   0   5  142.96    6.84
  -5   0   5  144.21    8.38
  -5   0   6   23.76    3.90
  -5   0   6   19.87    4.68
  -5   0   6   20.49    5.14
  -5   0   7   23.94    4.88
  -5   0   7   23.41    5.58
  -5   0   7   30.60    4.29
  -5   0   8   10.91    4.47
  -5   0   8   10.81    5.83
  -5   0   8   12.05    5.19
  -5   0   9   36.23    6.32
  -5   0   9   32.00    5.21
  -5   0  10   13.98    5.53
  -5   0  10    3.82    6.03
  -5   0  11    4.47    6.40
  -5   0  11    5.81    6.13
  -5   1 -10   15.79    3.39
  -5   1  -9   61.07    5.01
  -5   1  -9   49.97    3.87
  -5   1  -8   76.96    5.40
  -5   1  -8   78.43    4.15
  -5   1  -7  110.16    4.73
  -5   1  -6   70.81    3.03
  -5   1  -6   72.96    4.74
  -5   1  -5  382.04   14.45
  -5   1  -4   30.53    3.39
  -5   1  -4   27.86    4.25
  -5   1  -3   98.33    6.40
  -5   1  -3  103.87    5.19
  -5   1  -2    9.28    3.58
  -5   1  -2    8.21    2.71
  -5   1  -1   45.09    3.58
  -5   1  -1   47.11    4.69
  -5   1   0    6.15    3.49
  -5   1   1  341.18   13.55
  -5   1   1  329.72   11.66
  -5   1   1  317.34   13.54
  -5   1   2   19.68    1.97
  -5   1   2   15.53    3.97
  -5   1   2   13.31    3.72
  -5   1   3   67.08    3.71
  -5   1   3   68.33    5.67
  -5   1   4   -2.30    4.35
  -5   1   4   -0.74    2.46
  -5   1   5  143.12    8.00
  -5   1   5  133.18    6.56
  -5   1   5  145.74    8.36
  -5   1   6   51.74    5.54
  -5   1   6   48.13    4.21
  -5   1   6   54.98    6.38
  -5   1   7    2.73    4.73
  -5   1   7    4.28    3.84
  -5   1   7   -6.14    5.29
  -5   1   8   -7.27    4.09
  -5   1   8    4.00    5.26
  -5   1   8    9.81    5.88
  -5   1   9   -0.42    4.51
  -5   1   9   -4.52    5.99
  -5   1   9   -0.90    5.70
  -5   1  10    6.28    6.57
  -5   1  10   -1.44    6.38
  -5   1  10    5.09    5.24
  -5   1  11    1.31    6.09
  -5   1  11    3.57    6.16
  -5   2  -9    4.01    2.64
  -5   2  -8    4.64    3.47
  -5   2  -8    3.55    2.27
  -5   2  -7   19.22    3.25
  -5   2  -6  225.34    9.04
  -5   2  -5   10.24    2.57
  -5   2  -4  355.13   13.13
  -5   2  -3   96.18    5.78
  -5   2  -3   95.96    4.61
  -5   2  -2  250.68    9.74
  -5   2  -2  256.37   11.06
  -5   2  -1   13.89    2.69
  -5   2  -1   15.43    3.74
  -5   2   0   33.99    4.32
  -5   2   0   29.55    4.12
  -5   2   1   11.73    3.84
  -5   2   1   -0.61    3.87
  -5   2   2   32.76    4.54
  -5   2   2   27.78    4.50
  -5   2   2   29.60    2.16
  -5   2   3   52.63    5.43
  -5   2   3   58.78    3.41
  -5   2   3   59.18    5.72
  -5   2   4  227.13   10.53
  -5   2   4  222.56    8.54
  -5   2   5   97.20    5.34
  -5   2   5  100.07    7.15
  -5   2   6    5.51    4.60
  -5   2   6   13.79    5.54
  -5   2   6   13.08    3.44
  -5   2   7   31.63    4.07
  -5   2   7   22.30    6.12
  -5   2   7   31.48    5.55
  -5   2   8    9.49    5.38
  -5   2   8    6.67    5.72
  -5   2   8    6.48    4.12
  -5   2   8    9.44    6.27
  -5   2   9   10.15    5.98
  -5   2   9    5.73    5.84
  -5   2   9    8.67    4.89
  -5   2   9    2.08    6.11
  -5   2  10   -1.33    6.01
  -5   2  10    1.14    6.01
  -5   2  10    5.36    5.23
  -5   2  11   10.78    6.27
  -5   3  -5    2.79    1.57
  -5   3  -3   11.48    3.72
  -5   3  -2   68.85    3.46
  -5   3  -2   79.53    5.42
  -5   3  -1   26.37    2.61
  -5   3  -1   24.55    4.14
  -5   3   0  102.02    6.47
  -5   3   0  117.38    6.59
  -5   3   1  143.70    8.01
  -5   3   1  146.09    7.48
  -5   3   2   56.85    5.30
  -5   3   2   35.42    5.09
  -5   3   3   80.37    6.47
  -5   3   3   99.07    6.76
  -5   3   4    5.48    4.43
  -5   3   4    7.15    4.89
  -5   3   4    4.65    2.75
  -5   3   5   64.42    4.31
  -5   3   5   50.63    6.24
  -5   3   5   64.72    6.31
  -5   3   6   29.61    3.85
  -5   3   6   31.54    4.43
  -5   3   6   31.81    6.18
  -5   3   7    2.09    4.50
  -5   3   7    0.30    5.41
  -5   3   7    3.57    3.60
  -5   3   8    5.16    5.93
  -5   3   8    2.55    5.12
  -5   3   8    6.48    4.34
  -5   3   8    9.35    5.93
  -5   3   9    1.76    4.46
  -5   3   9    3.32    5.69
  -5   3   9   10.47    6.41
  -5   3  10   11.66    6.82
  -5   3  10    7.16    5.70
  -5   4  -3    1.81    3.36
  -5   4  -1   46.34    4.89
  -5   4  -1   58.51    4.71
  -5   4  -1   47.88    2.20
  -5   4   0    4.01    3.88
  -5   4   0    3.12    1.73
  -5   4   0    7.55    4.37
  -5   4   0    4.30    1.95
  -5   4   1   67.30    5.47
  -5   4   1   71.43    3.83
  -5   4   1   66.47    5.94
  -5   4   2  138.24    8.42
  -5   4   2  143.67    7.76
  -5   4   2  149.15    6.43
  -5   4   3  113.99    7.40
  -5   4   3  132.30    6.18
  -5   4   3  109.18    7.81
  -5   4   4   91.53    7.18
  -5   4   4   84.60    5.42
  -5   4   5   -0.80    4.14
  -5   4   5   -2.26    5.59
  -5   4   5    0.30    5.39
  -5   4   5    2.85    5.29
  -5   4   6   15.75    4.35
  -5   4   6   18.91    5.90
  -5   4   6   20.35    3.72
  -5   4   6   19.28    6.13
  -5   4   7    0.60    5.40
  -5   4   7   -1.12    3.81
  -5   4   7    2.43    4.38
  -5   4   8   -0.22    4.95
  -5   4   8    5.33    4.31
  -5   4   8   -0.95    6.20
  -5   4   8    4.04    6.27
  -5   4   9    6.05    6.26
  -5   4   9    0.99    6.19
  -5   4   9    8.47    5.27
  -5   4   9    0.34    6.48
  -5   4  10    4.68    6.75
  -5   4  10    1.30    4.98
  -5   5  -2   24.64    3.54
  -5   5  -1   45.90    5.38
  -5   5  -1   50.12    4.46
  -5   5   0    8.21    3.97
  -5   5   0    5.40    4.67
  -5   5   1    5.31    1.83
  -5   5   1    6.21    3.90
  -5   5   1    3.30    4.78
  -5   5   2    1.87    2.49
  -5   5   2    1.51    4.42
  -5   5   3   14.11    5.14
  -5   5   3   18.01    4.96
  -5   5   3   18.39    3.29
  -5   5   3   13.35    5.85
  -5   5   4    9.61    4.97
  -5   5   4   19.57    5.87
  -5   5   4   12.07    3.74
  -5   5   4   13.31    6.27
  -5   5   5    6.54    5.91
  -5   5   5    0.31    3.78
  -5   5   5   -3.54    5.39
  -5   5   5    6.95    6.02
  -5   5   6   25.57    5.75
  -5   5   6   31.88    4.73
  -5   5   7    8.87    6.47
  -5   5   7   -0.99    4.61
  -5   5   8   12.85    6.58
  -5   5   8   10.61    7.12
  -5   5   8    4.63    5.39
  -5   5   8   15.93    6.60
  -5   5   9    1.00    7.52
  -5   5   9    2.67    5.72
  -5   6  -1   28.04    5.03
  -5   6  -1   30.12    3.51
  -5   6   0   21.80    3.68
  -5   6   0   15.33    5.11
  -5   6   1   86.01    5.68
  -5   6   1   81.24    6.99
  -5   6   2   41.48    4.95
  -5   6   2   33.86    6.57
  -5   6   2   39.35    6.86
  -5   6   2   36.21    2.84
  -5   6   3   10.11    4.70
  -5   6   3    6.17    2.98
  -5   6   4   -3.19    6.61
  -5   6   4    5.38    3.34
  -5   6   4    4.67    6.23
  -5   6   5   -0.37    6.43
  -5   6   5   -5.56    6.14
  -5   6   5   -2.57    3.46
  -5   6   6    5.21    5.44
  -5   6   6    8.08    6.81
  -5   6   6    3.14    4.00
  -5   6   6   -0.34    6.72
  -5   6   7    4.14    4.57
  -5   6   7   -1.70    5.73
  -5   6   7    2.14    6.85
  -5   6   8    6.38    6.58
  -5   6   8    4.44    5.36
  -5   6   9   -1.30    7.85
  -5   7  -1   -0.24    4.67
  -5   7   0    3.60    5.08
  -5   7   1   -7.62    6.59
  -5   7   1    5.02    5.74
  -5   7   2    0.70    6.62
  -5   7   2    4.12    5.82
  -5   7   3    6.53    6.98
  -5   7   3   12.08    6.13
  -5   7   4    2.26    7.31
  -5   7   5    6.26    7.92
  -5   7   5   13.98    7.99
  -5   8   1    1.73    6.42
  -5   8   1   -2.82    7.42
  -5   8   3    9.32    6.39
  -5   8   3   -7.30    7.73
  -4 -10  -5   -3.03    5.55
  -4 -10  -5    1.56    6.50
  -4 -10  -4   10.19    6.39
  -4 -10  -4    7.08    5.75
  -4 -10  -3   13.34    5.68
  -4 -10  -3    6.71    5.84
  -4 -10  -2   28.72    6.32
  -4 -10  -1   20.45    6.16
  -4 -10   0   11.99    5.67
  -4 -10   1    5.24    4.91
  -4 -10   2    6.89    5.42
  -4 -10   3    4.25    5.63
  -4  -9  -9   38.59    6.27
  -4  -9  -8   27.37    5.81
  -4  -9  -7   64.87    7.55
  -4  -9  -7   73.56    6.54
  -4  -9  -7   64.55    7.28
  -4  -9  -6   74.96    7.45
  -4  -9  -6   69.27    6.77
  -4  -9  -6   60.85    6.15
  -4  -9  -5   42.56    5.50
  -4  -9  -5   45.61    6.30
  -4  -9  -4   39.59    5.65
  -4  -9  -4   30.35    5.91
  -4  -9  -3   18.22    5.18
  -4  -9  -3   11.11    5.00
  -4  -9  -2    4.61    4.90
  -4  -9  -2    6.01    5.00
  -4  -9  -1   -0.94    5.08
  -4  -9  -1    3.50    4.65
  -4  -9   0   12.78    5.21
  -4  -9   0    7.08    4.95
  -4  -9   0   11.74    4.46
  -4  -9   1   20.25    5.75
  -4  -9   1   10.77    4.98
  -4  -9   1   19.60    5.62
  -4  -9   1   15.14    4.15
  -4  -9   2   63.10    5.53
  -4  -9   2   58.22    6.90
  -4  -9   2   60.63    6.16
  -4  -9   2   59.35    6.64
  -4  -9   3    7.08    5.53
  -4  -9   3    0.45    5.19
  -4  -9   4   18.46    5.11
  -4  -9   5    7.46    5.10
  -4  -9   6    7.24    5.77
  -4  -8 -10   11.49    6.07
  -4  -8  -9   11.93    6.57
  -4  -8  -9   15.36    5.03
  -4  -8  -8   -6.73    5.97
  -4  -8  -8    0.82    5.80
  -4  -8  -8    1.80    4.81
  -4  -8  -7   32.92    6.04
  -4  -8  -7   34.56    6.43
  -4  -8  -7   42.29    5.19
  -4  -8  -6   19.66    5.56
  -4  -8  -6   19.73    5.12
  -4  -8  -6   31.96    6.06
  -4  -8  -5   77.96    7.17
  -4  -8  -5   78.23    6.16
  -4  -8  -5   79.01    6.50
  -4  -8  -4   83.22    6.68
  -4  -8  -4   72.88    6.27
  -4  -8  -3  111.92    6.83
  -4  -8  -3   93.29    6.78
  -4  -8  -2   97.73    6.66
  -4  -8  -2   85.16    5.83
  -4  -8  -2  101.72    6.65
  -4  -8  -1    4.05    4.27
  -4  -8  -1    0.41    4.45
  -4  -8  -1    4.43    3.97
  -4  -8   0    5.97    3.84
  -4  -8   0    2.34    4.14
  -4  -8   0   -0.81    4.37
  -4  -8   1    3.97    4.43
  -4  -8   1    7.81    4.66
  -4  -8   2    4.12    4.91
  -4  -8   2    1.28    3.94
  -4  -8   2    3.73    4.32
  -4  -8   2   -1.15    4.67
  -4  -8   3   15.44    5.27
  -4  -8   3   24.58    4.90
  -4  -8   3   22.45    4.35
  -4  -8   4   15.05    5.27
  -4  -8   4   10.03    4.26
  -4  -8   4   13.22    4.83
  -4  -8   5    6.53    4.39
  -4  -8   6    2.70    4.37
  -4  -8   7    8.53    5.42
  -4  -7 -10   77.12    5.84
  -4  -7 -10   71.96    8.21
  -4  -7  -9  112.74    8.66
  -4  -7  -9  103.77    6.52
  -4  -7  -8   77.78    5.83
  -4  -7  -8   83.02    7.53
  -4  -7  -7  108.35    7.91
  -4  -7  -7  105.79    7.54
  -4  -7  -7  112.86    6.46
  -4  -7  -6   38.51    5.05
  -4  -7  -6   36.73    4.83
  -4  -7  -6   33.19    5.46
  -4  -7  -5   13.04    3.89
  -4  -7  -5   14.57    4.89
  -4  -7  -5    8.34    4.30
  -4  -7  -4    4.23    3.62
  -4  -7  -4    1.05    3.83
  -4  -7  -3   20.01    4.12
  -4  -7  -3   32.98    4.35
  -4  -7  -2    4.07    3.55
  -4  -7  -2    4.03    3.73
  -4  -7  -2   -0.19    3.86
  -4  -7  -1  154.57    7.65
  -4  -7  -1  145.98    7.63
  -4  -7  -1  149.84    7.82
  -4  -7   0  189.02    8.94
  -4  -7   0  185.90    8.79
  -4  -7   0  182.63    8.64
  -4  -7   1  165.38    8.20
  -4  -7   1  160.10    8.50
  -4  -7   1  137.21    7.98
  -4  -7   1  159.08    7.99
  -4  -7   2   58.44    5.78
  -4  -7   2   56.28    5.47
  -4  -7   2   54.49    5.06
  -4  -7   2   61.57    5.54
  -4  -7   3    2.99    4.19
  -4  -7   3    2.38    4.38
  -4  -7   3    4.10    3.49
  -4  -7   4   27.60    5.27
  -4  -7   4   23.78    4.53
  -4  -7   5   -1.63    4.30
  -4  -7   6    0.64    4.50
  -4  -7   7    4.80    5.56
  -4  -7   7    9.95    5.16
  -4  -7   8    4.63    4.92
  -4  -7   9   -0.78    5.46
  -4  -6 -11    7.39    6.31
  -4  -6 -10    5.44    6.20
  -4  -6 -10   11.98    4.13
  -4  -6  -9   62.08    4.74
  -4  -6  -9   67.19    6.45
  -4  -6  -9   56.98    6.68
  -4  -6  -8  106.74    7.54
  -4  -6  -8  106.21    5.96
  -4  -6  -7  154.37    7.32
  -4  -6  -7  154.78    8.81
  -4  -6  -6  207.99    9.80
  -4  -6  -6  197.36    8.80
  -4  -6  -5  154.23    7.35
  -4  -6  -5  154.78    8.40
  -4  -6  -4  236.10    9.58
  -4  -6  -4  213.12   10.09
  -4  -6  -3   64.03    5.01
  -4  -6  -3   67.34    5.13
  -4  -6  -3   70.63    4.67
  -4  -6  -2   53.61    4.25
  -4  -6  -2   45.75    4.37
  -4  -6  -2   45.26    4.49
  -4  -6  -1   42.26    4.24
  -4  -6  -1   41.93    4.06
  -4  -6  -1   42.61    4.09
  -4  -6   0    5.64    3.25
  -4  -6   0    5.16    3.52
  -4  -6   0    4.04    3.56
  -4  -6   1   44.54    4.39
  -4  -6   1   35.03    4.17
  -4  -6   1   46.86    4.42
  -4  -6   2  181.66    8.51
  -4  -6   2  164.71    8.35
  -4  -6   2  185.17    8.79
  -4  -6   3   15.84    4.30
  -4  -6   3   12.18    4.33
  -4  -6   4   65.23    5.71
  -4  -6   4   61.10    5.10
  -4  -6   5   35.58    4.79
  -4  -6   6    7.62    4.41
  -4  -6   6   12.96    4.79
  -4  -6   7   -6.03    4.90
  -4  -6   7    1.10    5.41
  -4  -6   8    2.69    6.02
  -4  -6   8   -1.56    5.25
  -4  -6   9    9.72    5.76
  -4  -6  10    1.48    6.25
  -4  -5 -12   94.20    8.52
  -4  -5 -11   44.75    4.07
  -4  -5 -11   51.84    6.88
  -4  -5 -11   40.37    6.90
  -4  -5 -10  128.40    8.52
  -4  -5 -10  114.17    8.08
  -4  -5 -10  111.17    6.09
  -4  -5  -9   27.36    3.90
  -4  -5  -9   22.25    5.49
  -4  -5  -9   38.37    5.69
  -4  -5  -8   42.25    5.48
  -4  -5  -8   30.90    5.16
  -4  -5  -8   38.26    3.87
  -4  -5  -7    6.62    4.50
  -4  -5  -7   10.27    4.31
  -4  -5  -7    6.60    2.94
  -4  -5  -6   51.92    4.76
  -4  -5  -6   49.47    4.89
  -4  -5  -6   40.64    3.66
  -4  -5  -5  146.66    6.82
  -4  -5  -5  156.40    7.83
  -4  -5  -4   89.31    4.72
  -4  -5  -4   82.94    5.55
  -4  -5  -3  281.69   11.13
  -4  -5  -3  285.24   11.71
  -4  -5  -2  226.34    9.21
  -4  -5  -2  216.95    9.62
  -4  -5  -1  808.42   28.42
  -4  -5  -1  777.74   28.79
  -4  -5   0   88.14    5.32
  -4  -5   0   89.61    5.12
  -4  -5   0   80.26    5.18
  -4  -5   1  110.96    6.09
  -4  -5   1  102.65    5.86
  -4  -5   1  110.06    5.96
  -4  -5   2    7.74    3.43
  -4  -5   2   -0.71    3.37
  -4  -5   3   -0.37    3.52
  -4  -5   3    5.40    3.71
  -4  -5   4    3.37    3.88
  -4  -5   4   -3.18    3.82
  -4  -5   5   69.37    5.37
  -4  -5   6    8.38    4.58
  -4  -5   6    4.91    4.17
  -4  -5   7    9.29    5.10
  -4  -5   7    2.03    4.87
  -4  -5   8    7.72    5.28
  -4  -5   8    9.40    5.07
  -4  -5   9   17.21    6.02
  -4  -5   9   21.97    5.99
  -4  -4 -13    4.89    7.01
  -4  -4 -12   12.83    6.58
  -4  -4 -12   15.17    5.81
  -4  -4 -11   94.52    7.18
  -4  -4 -11   88.50    4.94
  -4  -4 -11   91.10    8.03
  -4  -4 -10  179.70    9.89
  -4  -4 -10  165.37    7.41
  -4  -4  -9  195.95    9.42
  -4  -4  -9  191.29    7.89
  -4  -4  -9  192.39    9.95
  -4  -4  -8  221.58   10.13
  -4  -4  -8  223.55   10.43
  -4  -4  -8  212.55    8.54
  -4  -4  -7  266.41   10.22
  -4  -4  -7  272.78   11.83
  -4  -4  -7  267.62   11.47
  -4  -4  -6   53.18    3.40
  -4  -4  -6   49.92    4.36
  -4  -4  -6   49.45    4.84
  -4  -4  -5  111.64    6.25
  -4  -4  -5  106.21    5.84
  -4  -4  -5  104.15    4.91
  -4  -4  -4   -0.38    2.03
  -4  -4  -4    2.70    2.98
  -4  -4  -4    1.65    3.22
  -4  -4  -3  405.04   16.39
  -4  -4  -3  434.41   15.70
  -4  -4  -3  444.73   16.43
  -4  -4  -2  146.66    7.11
  -4  -4  -2  165.74    6.54
  -4  -4  -1  143.36    6.27
  -4  -4  -1  135.76    6.86
  -4  -4   0  436.37   16.68
  -4  -4   1  220.86    9.92
  -4  -4   1  248.24    9.83
  -4  -4   2  208.69    9.52
  -4  -4   2  223.70    9.27
  -4  -4   3   39.70    4.18
  -4  -4   3   35.20    3.77
  -4  -4   4  175.22    8.28
  -4  -4   4  169.87    8.31
  -4  -4   5    9.24    3.78
  -4  -4   5   11.54    3.96
  -4  -4   6   -0.64    3.82
  -4  -4   6    6.92    4.37
  -4  -4   7   59.33    6.12
  -4  -4   7   58.29    5.95
  -4  -4   8   23.38    5.48
  -4  -4   8   23.51    5.71
  -4  -4   9   19.37    6.03
  -4  -4   9   19.47    5.93
  -4  -4  10    5.98    5.89
  -4  -4  11    8.77    6.67
  -4  -3 -13    5.89    5.76
  -4  -3 -12   55.64    7.36
  -4  -3 -12   60.53    6.92
  -4  -3 -11    2.58    2.24
  -4  -3 -11    3.25    5.39
  -4  -3 -11   -2.63    5.24
  -4  -3 -10    5.03    4.55
  -4  -3 -10    7.08    2.18
  -4  -3 -10   13.85    5.74
  -4  -3  -9   18.97    4.61
  -4  -3  -9   15.83    2.23
  -4  -3  -9   16.01    4.79
  -4  -3  -8    2.98    4.24
  -4  -3  -8    6.21    3.85
  -4  -3  -8    5.80    1.98
  -4  -3  -7  446.37   17.57
  -4  -3  -7  452.23   15.93
  -4  -3  -7  439.98   16.99
  -4  -3  -6  357.51   12.96
  -4  -3  -6  353.93   14.35
  -4  -3  -6  375.96   14.07
  -4  -3  -5  288.57   11.46
  -4  -3  -5  290.37   10.62
  -4  -3  -5  294.93   11.93
  -4  -3  -4  325.07   12.34
  -4  -3  -4  316.90   11.65
  -4  -3  -4  319.73   12.65
  -4  -3  -3  760.03   26.93
  -4  -3  -3  739.25   26.09
  -4  -3  -2  141.62    6.32
  -4  -3  -2  124.58    5.50
  -4  -3  -1  223.71    9.64
  -4  -3  -1  236.11    9.47
  -4  -3   0   99.51    4.90
  -4  -3   0   92.63    5.32
  -4  -3   0   96.00    5.14
  -4  -3   1    2.86    2.25
  -4  -3   1    4.88    2.67
  -4  -3   2   94.44    4.89
  -4  -3   2   88.82    5.30
  -4  -3   3   94.94    5.61
  -4  -3   4  175.89    7.98
  -4  -3   4  172.03    8.35
  -4  -3   5   48.77    4.53
  -4  -3   5   45.07    4.96
  -4  -3   6    4.88    3.96
  -4  -3   6    8.18    4.22
  -4  -3   7  112.56    7.21
  -4  -3   7   83.20    6.32
  -4  -3   8   29.47    5.62
  -4  -3   8   27.39    5.00
  -4  -3   9    2.73    3.77
  -4  -3   9   -0.60    5.61
  -4  -3   9   -1.55    5.10
  -4  -3  10   -0.28    5.54
  -4  -3  10    3.23    6.24
  -4  -3  10    3.78    4.03
  -4  -3  11   -0.58    4.11
  -4  -3  11    1.38    6.58
  -4  -2 -13    3.85    5.64
  -4  -2 -12  233.15   11.06
  -4  -2 -12  220.49   12.14
  -4  -2 -11   67.74    2.94
  -4  -2 -11   76.87    7.24
  -4  -2 -10  140.06    5.26
  -4  -2 -10  141.85    8.41
  -4  -2  -9  143.98    5.32
  -4  -2  -9  152.21    8.15
  -4  -2  -8   11.35    1.11
  -4  -2  -8   15.95    3.32
  -4  -2  -8    9.74    3.87
  -4  -2  -7    5.74    3.09
  -4  -2  -7   12.07    3.98
  -4  -2  -7    9.23    1.06
  -4  -2  -6   65.20    4.00
  -4  -2  -6   61.93    4.79
  -4  -2  -6   59.78    2.57
  -4  -2  -5   28.27    1.68
  -4  -2  -5   24.38    2.93
  -4  -2  -5   32.08    3.88
  -4  -2  -4 1065.92   38.38
  -4  -2  -4 1132.52   38.93
  -4  -2  -4 1139.35   39.26
  -4  -2  -3  260.13   11.46
  -4  -2  -3  306.88   11.29
  -4  -2  -2  698.99   25.10
  -4  -2  -1  634.59   22.86
  -4  -2   0  381.50   13.89
  -4  -2   1  125.40    5.54
  -4  -2   3   11.60    2.73
  -4  -2   3   10.51    3.33
  -4  -2   4   -0.14    2.78
  -4  -2   4    2.73    3.20
  -4  -2   5  248.06   11.05
  -4  -2   5  236.96   10.32
  -4  -2   5  261.44   10.54
  -4  -2   6  111.63    6.25
  -4  -2   6  105.23    6.85
  -4  -2   6  102.52    6.00
  -4  -2   7  217.21   10.04
  -4  -2   7  221.07   10.95
  -4  -2   7  242.79   10.42
  -4  -2   8    4.39    4.68
  -4  -2   8    2.85    4.58
  -4  -2   8    4.37    3.57
  -4  -2   9   35.91    4.92
  -4  -2   9   39.47    6.21
  -4  -2   9   36.00    5.69
  -4  -2  10    0.42    4.24
  -4  -2  10    1.06    5.31
  -4  -2  11   11.29    5.81
  -4  -2  11   13.35    6.47
  -4  -2  11    1.10    4.95
  -4  -1 -13   11.08    5.99
  -4  -1 -12    3.89    4.97
  -4  -1 -11   63.15    5.42
  -4  -1 -11   58.17    6.46
  -4  -1 -10    0.22    4.15
  -4  -1 -10    3.14    4.00
  -4  -1  -9  206.27   10.26
  -4  -1  -9  238.79    9.68
  -4  -1  -8  335.27   13.75
  -4  -1  -8  345.17   13.26
  -4  -1  -7  363.50   15.12
  -4  -1  -7  411.01   14.67
  -4  -1  -6  143.38    6.82
  -4  -1  -6  128.66    5.95
  -4  -1  -5  309.93   11.43
  -4  -1  -5  305.08   12.12
  -4  -1  -4   98.85    5.58
  -4  -1  -4  100.99    5.18
  -4  -1  -4   99.77    4.35
  -4  -1  -3   -1.44    2.38
  -4  -1  -3    0.16    2.58
  -4  -1  -3    2.12    1.41
  -4  -1  -2  106.02    5.35
  -4  -1  -2  118.10    5.90
  -4  -1  -1   67.97    4.41
  -4  -1  -1   65.37    3.90
  -4  -1  -1   68.31    3.04
  -4  -1   0  401.64   13.90
  -4  -1   0  360.72   14.83
  -4  -1   1   53.10    2.91
  -4  -1   1   47.91    3.84
  -4  -1   2  535.06   19.14
  -4  -1   3  226.41    8.85
  -4  -1   3  212.83    9.20
  -4  -1   4   -0.16    2.74
  -4  -1   4   -0.88    2.52
  -4  -1   5   26.21    3.63
  -4  -1   5   23.23    3.36
  -4  -1   6    9.49    3.26
  -4  -1   6   10.48    3.64
  -4  -1   7   91.62    5.94
  -4  -1   7   90.28    5.82
  -4  -1   7   83.45    6.52
  -4  -1   8   35.21    4.90
  -4  -1   8   40.17    4.64
  -4  -1   8   36.44    5.38
  -4  -1   9    7.40    5.06
  -4  -1   9    1.37    4.90
  -4  -1   9    4.47    3.95
  -4  -1  10    9.21    5.13
  -4  -1  10    4.97    5.76
  -4  -1  10    9.42    4.73
  -4  -1  11    6.75    6.11
  -4  -1  11    0.81    5.74
  -4  -1  11    0.25    5.07
  -4  -1  12    3.60    5.81
  -4   0 -13   48.92    5.66
  -4   0 -12   61.71    5.60
  -4   0 -11   14.74    4.17
  -4   0 -10   41.90    4.29
  -4   0 -10   38.75    4.85
  -4   0  -9   46.72    4.03
  -4   0  -9   33.37    4.68
  -4   0  -8   40.07    4.48
  -4   0  -8   48.65    3.73
  -4   0  -7  109.01    6.03
  -4   0  -7  104.38    5.06
  -4   0  -6  360.22   12.96
  -4   0  -6  342.48   13.63
  -4   0  -5  275.50   11.07
  -4   0  -5  287.16   10.33
  -4   0  -4 1000.24   34.32
  -4   0  -4  961.82   33.51
  -4   0  -4  999.92   34.81
  -4   0  -3  135.53    6.03
  -4   0  -3  140.42    6.64
  -4   0  -3  138.17    5.03
  -4   0  -2  751.51   25.73
  -4   0  -2  754.38   25.73
  -4   0  -2  755.45   26.67
  -4   0  -2  759.90   27.23
  -4   0  -1   17.67    2.40
  -4   0  -1   20.21    1.11
  -4   0  -1   22.20    3.04
  -4   0   0   58.84    4.12
  -4   0   0   66.16    2.75
  -4   0   1  203.40    7.53
  -4   0   1  197.61    8.68
  -4   0   2  140.61    6.99
  -4   0   2  144.29    5.81
  -4   0   3   93.69    4.44
  -4   0   3   92.97    5.66
  -4   0   3   83.58    5.08
  -4   0   4  423.75   17.18
  -4   0   4  456.92   17.67
  -4   0   4  466.76   16.63
  -4   0   5  485.67   17.30
  -4   0   5  447.09   18.27
  -4   0   5  449.16   17.87
  -4   0   6  130.69    7.20
  -4   0   6  118.82    7.65
  -4   0   6  140.70    6.74
  -4   0   7   31.98    4.14
  -4   0   7   28.92    4.66
  -4   0   8    4.02    3.78
  -4   0   8    8.25    4.40
  -4   0   9   10.92    4.65
  -4   0   9    7.65    4.59
  -4   0  10    5.15    5.04
  -4   0  10    5.95    5.43
  -4   0  10    0.77    5.03
  -4   0  11   -0.36    6.37
  -4   0  11    5.30    6.10
  -4   0  11   -2.05    5.55
  -4   0  11    4.04    5.41
  -4   0  12    9.88    6.02
  -4   0  13    4.72    6.10
  -4   1 -11   45.78    4.54
  -4   1  -9  209.78    8.95
  -4   1  -9  220.81    9.59
  -4   1  -8   36.95    4.14
  -4   1  -7   55.12    4.20
  -4   1  -6   32.99    2.35
  -4   1  -6   30.47    3.19
  -4   1  -5  120.17    5.71
  -4   1  -5  130.03    4.92
  -4   1  -4  101.07    5.44
  -4   1  -4   90.85    4.55
  -4   1  -3  415.00   15.15
  -4   1  -3  422.40   15.84
  -4   1  -2  197.55    8.50
  -4   1  -2  197.52    7.76
  -4   1  -1  188.64    7.50
  -4   1  -1  193.17    8.19
  -4   1   0  311.01   12.41
  -4   1   0  319.71   12.33
  -4   1   1  133.45    6.62
  -4   1   1  132.50    6.51
  -4   1   1  141.32    5.21
  -4   1   2  167.54    7.72
  -4   1   2  159.73    7.58
  -4   1   2  159.41    6.25
  -4   1   3   30.27    3.80
  -4   1   3   28.39    2.38
  -4   1   4    1.82    2.24
  -4   1   4   -3.16    3.51
  -4   1   5   17.13    3.01
  -4   1   5   17.51    3.89
  -4   1   5   16.48    4.12
  -4   1   6   16.74    4.07
  -4   1   6   23.40    3.40
  -4   1   7    2.41    4.43
  -4   1   7    2.39    3.54
  -4   1   7    5.64    4.35
  -4   1   8  122.52    7.94
  -4   1   8  104.20    7.20
  -4   1   8  108.68    6.65
  -4   1   9    5.02    5.32
  -4   1   9   -3.43    4.47
  -4   1   9   -0.97    5.26
  -4   1   9    8.98    4.89
  -4   1  10   19.93    6.14
  -4   1  10   23.19    6.05
  -4   1  10   20.36    5.58
  -4   1  10   11.75    5.47
  -4   1  11    4.71    6.44
  -4   1  11    6.95    5.51
  -4   1  11    4.12    6.15
  -4   1  11   -1.17    5.93
  -4   2 -11    1.27    3.97
  -4   2  -9   80.81    4.82
  -4   2  -8   62.88    3.99
  -4   2  -7  204.04    8.27
  -4   2  -7  199.27    7.94
  -4   2  -6   69.67    3.33
  -4   2  -6   66.18    3.71
  -4   2  -5  295.99   11.00
  -4   2  -4   83.53    3.87
  -4   2  -3   30.10    2.26
  -4   2  -3   28.07    3.08
  -4   2  -2    7.21    2.59
  -4   2  -2    5.27    1.66
  -4   2  -1  206.50    7.93
  -4   2  -1  206.20    8.62
  -4   2  -1  212.79    8.80
  -4   2   0  332.41   12.99
  -4   2   0  337.91   13.12
  -4   2   1  472.04   17.52
  -4   2   1  448.84   17.35
  -4   2   2   92.13    5.56
  -4   2   2  100.73    4.21
  -4   2   2   99.46    5.65
  -4   2   3  524.79   20.72
  -4   2   3  561.83   20.91
  -4   2   3  559.04   19.56
  -4   2   4  372.41   14.60
  -4   2   4  350.93   13.26
  -4   2   5   18.48    4.40
  -4   2   5   15.64    3.95
  -4   2   5   20.02    3.05
  -4   2   6   10.98    4.12
  -4   2   6   16.32    4.46
  -4   2   6   17.38    3.29
  -4   2   6   18.05    4.40
  -4   2   7    5.38    4.91
  -4   2   7    4.70    4.20
  -4   2   7    3.59    3.09
  -4   2   7    6.10    4.41
  -4   2   7   11.10    4.76
  -4   2   8    6.11    5.32
  -4   2   8   -2.64    3.77
  -4   2   8    0.22    4.79
  -4   2   8    5.68    4.97
  -4   2   9   24.19    5.80
  -4   2   9   14.24    4.16
  -4   2   9    7.73    5.18
  -4   2   9   20.02    5.55
  -4   2  10    6.81    4.91
  -4   2  10   14.23    6.55
  -4   2  10    1.06    5.67
  -4   2  10    8.78    5.77
  -4   2  11   15.91    5.62
  -4   2  11    7.95    6.05
  -4   2  11    3.74    5.77
  -4   2  11    4.73    6.43
  -4   3 -10    4.91    3.29
  -4   3  -3  315.44   12.17
  -4   3  -2    0.90    2.68
  -4   3  -1  164.42    7.53
  -4   3  -1  174.13    7.42
  -4   3  -1  165.85    6.32
  -4   3   0   22.89    3.02
  -4   3   0   28.07    3.45
  -4   3   1   17.45    3.27
  -4   3   1   10.70    3.23
  -4   3   2    2.18    3.32
  -4   3   2    1.21    3.00
  -4   3   2    2.17    3.23
  -4   3   3  153.48    6.18
  -4   3   3  137.82    7.38
  -4   3   3  131.01    7.55
  -4   3   4    0.45    3.72
  -4   3   4    2.28    3.88
  -4   3   4   -1.31    2.50
  -4   3   5   95.04    5.06
  -4   3   5  107.68    5.83
  -4   3   5  108.84    6.49
  -4   3   6   23.31    3.76
  -4   3   6   20.50    4.63
  -4   3   6   22.10    3.43
  -4   3   6   16.74    4.62
  -4   3   7   51.50    4.55
  -4   3   7   45.15    5.77
  -4   3   7   52.03    5.44
  -4   3   7   49.52    5.83
  -4   3   7   48.15    5.78
  -4   3   8   18.44    4.12
  -4   3   8   25.46    5.44
  -4   3   8   14.87    5.39
  -4   3   8   15.05    4.83
  -4   3   8   22.37    5.74
  -4   3   9   -1.26    5.63
  -4   3   9    4.43    4.31
  -4   3   9    2.85    5.12
  -4   3   9    6.73    5.88
  -4   3  10   14.34    5.09
  -4   3  10    7.43    6.39
  -4   3  10    7.03    6.44
  -4   3  10    3.37    6.34
  -4   3  10   13.35    6.30
  -4   3  11    3.99    6.66
  -4   3  11    9.19    5.17
  -4   3  11    5.75    6.37
  -4   3  11    2.38    6.63
  -4   3  11    5.90    6.86
  -4   4  -2  406.63   15.05
  -4   4  -1  195.58    8.80
  -4   4  -1  197.27    8.23
  -4   4   0  236.84    9.83
  -4   4   0  242.64    8.66
  -4   4   0  242.46   10.54
  -4   4   1   69.81    5.52
  -4   4   1   80.34    3.65
  -4   4   1   74.64    5.47
  -4   4   1   73.06    4.70
  -4   4   2  167.91    8.83
  -4   4   2  176.82    8.63
  -4   4   2  171.84    8.05
  -4   4   2  176.50    7.06
  -4   4   3   73.23    5.88
  -4   4   3   69.12    6.04
  -4   4   3   78.68    4.39
  -4   4   3   72.36    5.36
  -4   4   4    9.82    4.70
  -4   4   4    8.46    3.22
  -4   4   4    7.74    3.75
  -4   4   4    7.73    4.34
  -4   4   5    2.20    3.63
  -4   4   5    0.52    4.28
  -4   4   6   11.43    3.08
  -4   4   6    6.33    4.79
  -4   4   6    9.36    4.80
  -4   4   6    8.51    3.94
  -4   4   7   31.29    6.04
  -4   4   7   30.25    5.65
  -4   4   7   30.28    4.21
  -4   4   7   30.05    4.38
  -4   4   8   18.47    5.13
  -4   4   8   13.84    5.56
  -4   4   8   15.84    4.27
  -4   4   8   14.34    5.90
  -4   4   9   45.57    7.17
  -4   4   9   39.31    6.73
  -4   4   9   48.91    5.08
  -4   4   9   54.02    6.67
  -4   4   9   38.65    6.25
  -4   4  10    4.73    5.11
  -4   4  10    6.78    6.20
  -4   4  10    2.39    6.11
  -4   4  10    8.99    6.34
  -4   4  10    2.68    6.81
  -4   4  11   13.17    7.40
  -4   4  11   20.53    5.93
  -4   4  11   17.63    6.64
  -4   5  -2    0.32    3.30
  -4   5  -2    1.12    2.19
  -4   5  -1   -1.78    3.25
  -4   5  -1    1.58    2.36
  -4   5   0   79.44    4.55
  -4   5   0   82.49    5.86
  -4   5   1   20.54    3.37
  -4   5   1   19.99    1.79
  -4   5   1   30.02    4.79
  -4   5   1   22.96    4.72
  -4   5   2   59.51    3.36
  -4   5   2   54.45    5.46
  -4   5   2   58.63    4.69
  -4   5   2   53.42    6.09
  -4   5   3  152.97    8.76
  -4   5   3  156.18    9.06
  -4   5   3  165.47    8.03
  -4   5   3  161.95    6.90
  -4   5   4   -4.33    4.98
  -4   5   4    0.20    4.11
  -4   5   4    5.78    4.67
  -4   5   4    2.79    3.07
  -4   5   5  108.48    7.64
  -4   5   5   84.98    6.36
  -4   5   5  101.17    5.75
  -4   5   5   92.70    7.24
  -4   5   6    7.23    4.08
  -4   5   6    0.58    5.03
  -4   5   6    1.44    4.90
  -4   5   7    7.05    5.14
  -4   5   7    9.66    4.76
  -4   5   8   20.87    5.37
  -4   5   8   20.61    6.30
  -4   5   8   14.22    5.85
  -4   5   9    4.61    5.39
  -4   5   9    1.10    6.51
  -4   5   9    3.69    5.59
  -4   5  10   10.73    7.29
  -4   5  10    7.64    6.67
  -4   5  10   13.28    5.67
  -4   5  10    9.15    6.47
  -4   6  -2  138.95    7.20
  -4   6  -1    1.71    4.07
  -4   6  -1   -0.72    4.37
  -4   6   0   61.32    5.81
  -4   6   0   69.61    5.98
  -4   6   0   69.17    3.81
  -4   6   1    1.07    5.01
  -4   6   1    2.87    0.75
  -4   6   1    4.78    4.60
  -4   6   1    8.00    2.90
  -4   6   2    2.06    3.15
  -4   6   2    1.80    2.04
  -4   6   2   -2.26    5.25
  -4   6   2   -0.24    4.71
  -4   6   3   26.77    4.26
  -4   6   3   24.16    5.59
  -4   6   3   25.58    5.82
  -4   6   3   29.38    3.10
  -4   6   4   16.15    4.29
  -4   6   4   12.23    5.30
  -4   6   4   16.13    5.77
  -4   6   4   13.11    3.16
  -4   6   5   10.39    5.59
  -4   6   5   11.11    5.96
  -4   6   5   11.10    3.65
  -4   6   5   12.26    4.46
  -4   6   6   43.13    4.66
  -4   6   6   44.21    6.93
  -4   6   6   56.53    5.98
  -4   6   7   15.04    5.18
  -4   6   7   13.19    4.58
  -4   6   8   18.33    4.90
  -4   6   8   26.09    6.25
  -4   6   9    1.83    5.72
  -4   6   9    9.97    6.17
  -4   6  10    0.98    6.57
  -4   6  10   -0.51    5.66
  -4   7  -2   12.49    4.02
  -4   7  -1   23.78    4.60
  -4   7   0   24.74    4.84
  -4   7   0   27.11    5.78
  -4   7   1   42.76    6.64
  -4   7   1   38.29    5.57
  -4   7   2   32.13    6.27
  -4   7   2   41.48    5.94
  -4   7   2   37.32    2.39
  -4   7   2   39.30    3.77
  -4   7   3   -0.64    5.75
  -4   7   3    2.77    5.56
  -4   7   3    2.93    2.76
  -4   7   3    7.27    3.73
  -4   7   4   -2.65    6.37
  -4   7   4    1.02    3.20
  -4   7   4    7.63    5.79
  -4   7   4    0.87    4.15
  -4   7   5    3.73    3.69
  -4   7   5   -0.35    6.21
  -4   7   5    0.92    6.31
  -4   7   5    9.19    4.46
  -4   7   6   26.16    4.43
  -4   7   6   35.07    7.00
  -4   7   6   34.46    5.26
  -4   7   7    1.89    6.69
  -4   7   7   -1.25    4.26
  -4   7   8    6.25    5.31
  -4   7   9    9.22    5.68
  -4   7   9    7.92    6.50
  -4   8  -2   -1.24    4.08
  -4   8  -1    2.06    4.45
  -4   8  -1    5.91    5.76
  -4   8   0    2.98    5.69
  -4   8   0    3.97    4.93
  -4   8   1   36.31    6.13
  -4   8   1   26.30    7.06
  -4   8   2    2.63    6.25
  -4   8   2    7.88    5.36
  -4   8   3   11.61    6.99
  -4   8   3   16.24    6.17
  -4   8   4    1.77    6.85
  -4   8   4    5.23    5.85
  -4   8   5   15.42    6.95
  -4   8   5   13.25    7.14
  -4   9   0    2.55    7.10
  -4   9   1    6.02    6.43
  -4   9   1    2.35    5.75
  -4   9   2    7.01    7.79
  -4   9   2    5.64    5.99
  -4   9   3    6.91    7.34
  -4   9   4   13.43    7.28
  -3 -11  -4   17.86    6.09
  -3 -11  -3   -2.58    5.06
  -3 -11  -2    3.00    6.06
  -3 -11  -1    9.06    5.85
  -3 -11   1    5.18    5.45
  -3 -10  -6   32.07    6.52
  -3 -10  -6   31.49    6.02
  -3 -10  -5   28.48    5.82
  -3 -10  -5   35.51    6.04
  -3 -10  -4   37.97    6.44
  -3 -10  -4   35.86    5.71
  -3 -10  -3   40.86    5.92
  -3 -10  -3   34.39    5.97
  -3 -10  -2    4.13    4.73
  -3 -10  -2    3.54    5.08
  -3 -10  -1   15.49    5.12
  -3 -10  -1    7.46    5.17
  -3 -10   0    3.41    5.59
  -3 -10   0    4.29    4.94
  -3 -10   1   29.00    5.55
  -3 -10   2    7.01    5.10
  -3 -10   2    3.58    5.97
  -3 -10   3    9.92    4.62
  -3  -9  -9   59.31    6.60
  -3  -9  -8   23.94    5.47
  -3  -9  -8   32.73    6.23
  -3  -9  -8   25.04    6.52
  -3  -9  -7   19.91    5.98
  -3  -9  -7   15.08    5.72
  -3  -9  -7   22.21    5.57
  -3  -9  -6   13.31    5.69
  -3  -9  -6    9.26    5.17
  -3  -9  -6    7.83    5.42
  -3  -9  -5    7.67    5.36
  -3  -9  -5    3.16    4.69
  -3  -9  -5    1.80    4.98
  -3  -9  -4   10.80    4.73
  -3  -9  -4   10.25    4.86
  -3  -9  -3   74.32    6.16
  -3  -9  -3   69.62    6.57
  -3  -9  -2    8.19    4.65
  -3  -9  -2    6.51    4.63
  -3  -9  -1   43.22    5.41
  -3  -9  -1   31.87    4.61
  -3  -9   0   30.28    4.81
  -3  -9   0   32.08    5.04
  -3  -9   1  123.74    7.28
  -3  -9   1  125.48    6.45
  -3  -9   2    5.51    3.54
  -3  -9   3    4.47    4.06
  -3  -9   3    9.15    5.30
  -3  -9   3   -1.11    5.19
  -3  -9   4    3.17    5.68
  -3  -9   4    5.13    4.52
  -3  -9   4   -4.99    3.61
  -3  -9   5    3.00    5.58
  -3  -9   5    2.22    4.76
  -3  -9   6    6.50    5.26
  -3  -9   7    4.58    5.98
  -3  -8 -11    4.53    5.70
  -3  -8 -10   14.87    5.53
  -3  -8  -9   30.58    6.66
  -3  -8  -9   23.45    6.12
  -3  -8  -9   25.71    5.12
  -3  -8  -8  267.84   12.68
  -3  -8  -8  240.74   11.97
  -3  -8  -8  250.09   11.37
  -3  -8  -7   17.03    5.52
  -3  -8  -7   12.88    4.90
  -3  -8  -7   23.81    4.85
  -3  -8  -6  257.40   11.57
  -3  -8  -6  262.90   11.89
  -3  -8  -6  272.37   12.33
  -3  -8  -5   49.92    5.84
  -3  -8  -5   36.03    5.09
  -3  -8  -5   42.68    5.36
  -3  -8  -4   32.92    4.67
  -3  -8  -4   27.37    4.72
  -3  -8  -3   16.90    4.43
  -3  -8  -3   13.89    4.22
  -3  -8  -2   -1.97    3.99
  -3  -8  -2    0.37    4.35
  -3  -8  -1   43.25    4.60
  -3  -8  -1   41.97    4.73
  -3  -8   0  161.81    7.38
  -3  -8   0  155.43    8.15
  -3  -8   0  151.18    7.84
  -3  -8   1   21.47    4.58
  -3  -8   1   17.87    3.51
  -3  -8   1   24.24    4.49
  -3  -8   2   49.18    4.23
  -3  -8   2   45.37    4.47
  -3  -8   3   62.91    4.73
  -3  -8   3   73.10    5.62
  -3  -8   4   12.08    4.31
  -3  -8   4    9.13    3.65
  -3  -8   5   20.39    3.77
  -3  -8   6   -1.66    3.71
  -3  -8   6    5.81    5.42
  -3  -8   7   -3.05    5.79
  -3  -7 -11   35.90    7.92
  -3  -7 -11   45.40    5.71
  -3  -7 -10   22.99    5.24
  -3  -7 -10   13.37    6.23
  -3  -7 -10   20.52    6.03
  -3  -7  -9   -0.29    5.98
  -3  -7  -9    0.78    5.18
  -3  -7  -9    3.41    4.35
  -3  -7  -8   -3.70    5.20
  -3  -7  -8    6.66    3.81
  -3  -7  -8    1.44    4.83
  -3  -7  -7    2.22    4.47
  -3  -7  -7    7.03    3.79
  -3  -7  -7    6.77    4.49
  -3  -7  -6   22.07    4.12
  -3  -7  -6   13.90    4.31
  -3  -7  -5  224.59   10.35
  -3  -7  -5  215.19   10.03
  -3  -7  -5  211.24    9.62
  -3  -7  -4  270.41   11.26
  -3  -7  -4  240.58   10.78
  -3  -7  -3  107.99    6.29
  -3  -7  -3  110.83    6.34
  -3  -7  -2   98.43    5.95
  -3  -7  -2   95.97    5.95
  -3  -7  -1  221.66    9.81
  -3  -7  -1  235.25    9.96
  -3  -7  -1  234.65    9.71
  -3  -7   0   58.85    4.41
  -3  -7   0   60.83    4.70
  -3  -7   0   56.55    4.83
  -3  -7   1   19.47    3.88
  -3  -7   1   18.40    3.44
  -3  -7   1   18.74    3.66
  -3  -7   2   22.96    3.69
  -3  -7   2   21.27    3.45
  -3  -7   3   -0.29    3.17
  -3  -7   3    3.72    3.63
  -3  -7   4   58.78    4.60
  -3  -7   6   44.72    4.65
  -3  -7   7    4.96    3.91
  -3  -7   8    5.61    4.29
  -3  -7   8   -0.91    5.54
  -3  -7   9    1.80    4.93
  -3  -6 -12    8.00    6.62
  -3  -6 -12    3.31    5.10
  -3  -6 -11   81.85    8.00
  -3  -6 -11   95.94    6.08
  -3  -6 -10  174.36    8.45
  -3  -6 -10  164.44   10.20
  -3  -6  -9  187.20    8.94
  -3  -6  -9  191.65   10.43
  -3  -6  -8  175.04    8.26
  -3  -6  -8  180.61    9.61
  -3  -6  -7   86.70    5.34
  -3  -6  -7   88.43    6.24
  -3  -6  -7   96.94    6.53
  -3  -6  -6  105.31    6.46
  -3  -6  -6  110.09    5.92
  -3  -6  -6   98.73    6.65
  -3  -6  -5   91.88    5.90
  -3  -6  -5   88.43    5.38
  -3  -6  -5  105.12    6.28
  -3  -6  -4    7.75    3.16
  -3  -6  -4    6.11    3.32
  -3  -6  -3  181.48    8.20
  -3  -6  -3  191.31    8.42
  -3  -6  -2  372.44   14.45
  -3  -6  -2  372.15   14.40
  -3  -6  -2  374.81   14.36
  -3  -6  -1  312.85   12.15
  -3  -6  -1  308.08   12.24
  -3  -6  -1  306.07   12.24
  -3  -6   0  343.69   13.50
  -3  -6   0  359.61   13.72
  -3  -6   0  350.47   13.59
  -3  -6   1  101.16    5.32
  -3  -6   1   90.15    5.40
  -3  -6   1  106.56    5.69
  -3  -6   2  175.94    8.42
  -3  -6   2  168.36    8.11
  -3  -6   2  172.82    7.91
  -3  -6   2  183.87    7.72
  -3  -6   3   43.72    4.48
  -3  -6   3   36.21    3.69
  -3  -6   4    2.16    3.23
  -3  -6   4    8.18    4.03
  -3  -6   5    5.55    3.61
  -3  -6   6    4.84    3.70
  -3  -6   7   16.91    4.11
  -3  -6   9   39.17    5.78
  -3  -6  10   -0.26    4.70
  -3  -5 -12   -1.51    6.35
  -3  -5 -12    5.42    4.15
  -3  -5 -11   -3.35    5.39
  -3  -5 -11    7.96    4.02
  -3  -5 -11    0.29    6.41
  -3  -5 -10   31.70    6.08
  -3  -5 -10   32.95    4.24
  -3  -5 -10   41.98    5.96
  -3  -5  -9   64.39    4.82
  -3  -5  -9   70.52    6.48
  -3  -5  -9   58.65    6.05
  -3  -5  -8   70.16    4.78
  -3  -5  -8   75.83    6.31
  -3  -5  -7  320.05   12.36
  -3  -5  -7  309.28   13.30
  -3  -5  -6  392.45   14.86
  -3  -5  -6  401.55   15.71
  -3  -5  -5  598.34   21.74
  -3  -5  -5  607.40   22.39
  -3  -5  -4  152.47    6.75
  -3  -5  -3  146.18    7.03
  -3  -5  -3  154.81    6.75
  -3  -5  -3  155.50    7.05
  -3  -5  -2  148.83    7.00
  -3  -5  -2  162.54    6.93
  -3  -5  -2  159.52    7.05
  -3  -5  -1   20.00    2.88
  -3  -5  -1   19.15    2.97
  -3  -5  -1   20.66    2.71
  -3  -5   0   46.54    3.53
  -3  -5   0   44.90    3.60
  -3  -5   0   42.13    3.47
  -3  -5   1  152.76    6.71
  -3  -5   1  140.73    6.63
  -3  -5   1  144.84    6.72
  -3  -5   2  106.58    5.75
  -3  -5   2   99.71    5.50
  -3  -5   2  101.48    5.24
  -3  -5   3  109.75    6.08
  -3  -5   3  112.80    5.73
  -3  -5   4  199.05    8.90
  -3  -5   4  183.54    8.42
  -3  -5   5   13.09    3.50
  -3  -5   6   27.89    3.99
  -3  -5   6   23.50    4.49
  -3  -5   7    1.20    4.56
  -3  -5   7    4.63    4.03
  -3  -5   8    8.96    4.17
  -3  -5   9    2.51    5.07
  -3  -5  10    5.41    5.52
  -3  -5  11   -0.87    5.65
  -3  -4 -13   21.69    6.47
  -3  -4 -12   96.81    8.11
  -3  -4 -12   85.11    5.85
  -3  -4 -12   92.13    7.81
  -3  -4 -11  194.01   10.48
  -3  -4 -11  181.72   10.16
  -3  -4 -11  189.15    8.73
  -3  -4 -10   65.75    6.10
  -3  -4 -10   60.66    4.63
  -3  -4 -10   58.42    6.12
  -3  -4  -9  156.96    8.40
  -3  -4  -9  156.47    7.14
  -3  -4  -9  152.88    8.36
  -3  -4  -8    5.66    4.22
  -3  -4  -8    6.78    2.84
  -3  -4  -8    4.76    4.10
  -3  -4  -7   59.59    3.89
  -3  -4  -7   60.71    5.06
  -3  -4  -7   67.78    5.16
  -3  -4  -6  173.82    8.35
  -3  -4  -6  194.98    8.39
  -3  -4  -6  180.67    7.42
  -3  -4  -5  214.04    9.01
  -3  -4  -5  201.63    8.15
  -3  -4  -4  585.92   20.88
  -3  -4  -3  824.34   29.30
  -3  -4  -3  817.00   28.79
  -3  -4  -2  646.29   23.82
  -3  -4  -2  674.21   23.48
  -3  -4  -1  562.61   20.76
  -3  -4  -1  579.59   20.48
  -3  -4   0  256.92    9.84
  -3  -4   0  228.99    9.70
  -3  -4   0  255.15    9.64
  -3  -4   1   65.52    3.97
  -3  -4   1   65.75    3.87
  -3  -4   1   72.08    4.23
  -3  -4   2   45.34    3.49
  -3  -4   2   41.49    3.32
  -3  -4   3  149.63    7.11
  -3  -4   3  160.80    7.11
  -3  -4   4  191.10    8.46
  -3  -4   5   35.65    4.06
  -3  -4   5   32.67    4.11
  -3  -4   6  185.45    8.78
  -3  -4   6  179.62    8.68
  -3  -4   7  295.58   12.56
  -3  -4   7  281.09   12.33
  -3  -4   8   73.40    5.99
  -3  -4   8   68.98    5.92
  -3  -4   9    5.19    4.83
  -3  -4   9    1.32    5.06
  -3  -4  10    6.47    4.74
  -3  -3 -13   15.53    6.20
  -3  -3 -12   60.41    4.76
  -3  -3 -12   65.79    7.02
  -3  -3 -11   58.65    6.60
  -3  -3 -11   47.07    4.32
  -3  -3 -11   59.71    6.06
  -3  -3 -10  222.61    9.34
  -3  -3 -10  243.51   11.02
  -3  -3 -10  227.97   11.05
  -3  -3  -9  174.36    7.49
  -3  -3  -9  183.26    8.99
  -3  -3  -9  176.40    8.85
  -3  -3  -8  441.67   16.40
  -3  -3  -8  401.41   15.34
  -3  -3  -8  436.48   16.63
  -3  -3  -7  379.10   15.06
  -3  -3  -7  376.25   15.19
  -3  -3  -7  400.49   14.18
  -3  -3  -6  227.61    9.69
  -3  -3  -6  241.28    9.93
  -3  -3  -6  233.08    8.83
  -3  -3  -5  192.08    7.97
  -3  -3  -5  182.58    7.22
  -3  -3  -5  189.93    8.12
  -3  -3  -4    6.03    1.62
  -3  -3  -4    2.54    2.34
  -3  -3  -4    5.84    2.31
  -3  -3  -3  100.38    4.25
  -3  -3  -3   96.60    4.89
  -3  -3  -3   89.67    4.89
  -3  -3  -2  361.52   12.09
  -3  -3  -2  355.87   12.69
  -3  -3  -1 1094.72   38.67
  -3  -3  -1 1109.28   38.21
  -3  -3   0  141.57    5.87
  -3  -3   0  138.62    6.21
  -3  -3   1  715.32   24.99
  -3  -3   1  687.88   25.11
  -3  -3   2   58.77    3.50
  -3  -3   2   52.64    3.53
  -3  -3   3  481.83   18.26
  -3  -3   3  501.03   18.12
  -3  -3   4    9.46    2.94
  -3  -3   5   -1.30    2.92
  -3  -3   5    1.84    3.07
  -3  -3   6    0.20    3.25
  -3  -3   6    1.28    3.41
  -3  -3   7   10.70    3.96
  -3  -3   7   16.10    2.96
  -3  -3   8    2.46    4.22
  -3  -3   8    1.71    4.09
  -3  -3   8    2.33    3.06
  -3  -3   9   24.25    5.00
  -3  -3   9   14.98    4.85
  -3  -3   9   15.95    3.49
  -3  -3  10    8.89    5.12
  -3  -3  10   22.56    5.82
  -3  -3  10   12.50    3.62
  -3  -3  11   10.01    5.76
  -3  -3  11    8.27    3.74
  -3  -3  11    8.78    5.73
  -3  -3  12    7.76    6.44
  -3  -2 -14   16.26    6.62
  -3  -2 -12    9.46    5.72
  -3  -2 -11   26.77    5.50
  -3  -2 -11   40.05    5.29
  -3  -2 -10    3.27    3.60
  -3  -2 -10    1.12    4.49
  -3  -2 -10   -1.12    2.52
  -3  -2  -9   44.00    3.10
  -3  -2  -9   44.73    4.80
  -3  -2  -9   46.61    5.01
  -3  -2  -8  374.72   15.16
  -3  -2  -8  379.06   13.78
  -3  -2  -8  394.76   14.97
  -3  -2  -7  251.55    9.14
  -3  -2  -7  235.93   10.46
  -3  -2  -7  251.06   10.24
  -3  -2  -6  579.11   20.94
  -3  -2  -6  577.62   20.10
  -3  -2  -6  576.50   21.24
  -3  -2  -5  862.76   30.84
  -3  -2  -5  878.27   29.88
  -3  -2  -5  849.38   30.57
  -3  -2  -4  367.44   12.79
  -3  -2  -4  361.77   13.66
  -3  -2  -4  353.78   13.33
  -3  -2  -3  422.04   14.69
  -3  -2  -3  420.26   15.38
  -3  -2  -3  408.55   15.14
  -3  -2  -2  637.14   23.23
  -3  -2  -2  662.26   22.71
  -3  -2  -1    1.87    1.64
  -3  -2   1  220.88    8.02
  -3  -2   1  186.48    8.25
  -3  -2   2 1291.00   43.76
  -3  -2   2 1223.15   44.12
  -3  -2   3  546.10   20.15
  -3  -2   4  260.56   11.10
  -3  -2   4  290.06   10.82
  -3  -2   4  268.51   10.56
  -3  -2   5  315.40   12.75
  -3  -2   5  295.08   12.05
  -3  -2   6  732.45   25.54
  -3  -2   6  679.90   25.09
  -3  -2   6  683.47   25.84
  -3  -2   7    5.26    2.83
  -3  -2   7    3.00    3.44
  -3  -2   7    6.38    3.83
  -3  -2   8    3.77    4.25
  -3  -2   8    8.93    4.03
  -3  -2   8    8.01    3.46
  -3  -2   9   -5.32    4.51
  -3  -2   9    2.20    4.65
  -3  -2   9    1.01    3.36
  -3  -2  10   -0.30    5.05
  -3  -2  10   -0.25    4.58
  -3  -2  10    1.43    3.70
  -3  -2  11   12.33    5.53
  -3  -2  11   29.20    6.02
  -3  -2  11   17.12    6.46
  -3  -2  11    7.91    4.24
  -3  -2  12   16.38    6.62
  -3  -2  12   17.82    6.65
  -3  -2  12   12.59    4.49
  -3  -1 -14   37.91    6.78
  -3  -1 -13   59.37    6.47
  -3  -1 -12   77.74    4.09
  -3  -1 -12   76.92    6.66
  -3  -1 -11  101.34    7.04
  -3  -1 -10  331.04   13.48
  -3  -1 -10  327.09   13.87
  -3  -1  -9   52.61    4.92
  -3  -1  -9   61.27    4.73
  -3  -1  -8  139.65    6.67
  -3  -1  -8  135.82    5.24
  -3  -1  -8  129.47    6.88
  -3  -1  -7   -1.07    2.92
  -3  -1  -7   -1.26    2.66
  -3  -1  -7    0.85    0.90
  -3  -1  -6   29.40    1.34
  -3  -1  -6   24.84    2.71
  -3  -1  -6   28.47    3.20
  -3  -1  -5  511.00   17.72
  -3  -1  -5  533.59   18.55
  -3  -1  -5  547.79   18.95
  -3  -1  -4 1066.53   37.43
  -3  -1  -4 1079.07   37.87
  -3  -1  -4 1089.16   36.87
  -3  -1  -3 1079.37   36.91
  -3  -1  -3 1035.89   36.20
  -3  -1  -3 1054.40   36.60
  -3  -1  -2 1092.06   37.73
  -3  -1  -2 1079.81   38.02
  -3  -1  -1 1041.36   37.79
  -3  -1  -1 1113.72   37.54
  -3  -1   0    7.71    1.25
  -3  -1   1  647.63   22.63
  -3  -1   2   13.68    1.82
  -3  -1   2   13.18    2.04
  -3  -1   3   57.96    3.52
  -3  -1   3   58.35    3.30
  -3  -1   4  269.34   10.27
  -3  -1   4  255.79   10.34
  -3  -1   5   29.96    3.23
  -3  -1   5   33.00    3.17
  -3  -1   6  131.32    6.26
  -3  -1   6  128.50    6.35
  -3  -1   6  114.07    6.62
  -3  -1   7   68.70    4.89
  -3  -1   7   59.95    5.26
  -3  -1   7   63.86    4.59
  -3  -1   8    9.98    4.28
  -3  -1   8    5.63    3.22
  -3  -1   8   13.71    3.73
  -3  -1   9   95.61    6.35
  -3  -1   9   95.70    6.14
  -3  -1   9   84.82    6.72
  -3  -1  10    6.10    5.52
  -3  -1  10    4.76    4.74
  -3  -1  10   11.88    4.52
  -3  -1  10   11.74    4.97
  -3  -1  11    9.14    5.24
  -3  -1  11    0.82    5.45
  -3  -1  11    4.48    4.64
  -3  -1  11   -1.65    6.00
  -3  -1  12    5.72    5.99
  -3  -1  12    2.97    6.08
  -3  -1  12    9.12    5.47
  -3  -1  12    2.47    4.54
  -3  -1  13   -4.70    5.64
  -3   0 -13    2.83    5.70
  -3   0 -12   22.55    5.19
  -3   0 -11    3.89    4.27
  -3   0 -11    1.33    1.65
  -3   0 -10  297.63   12.42
  -3   0  -9  120.43    6.12
  -3   0  -9   97.84    6.32
  -3   0  -8  276.51   10.03
  -3   0  -8  257.61   10.31
  -3   0  -7  465.13   16.60
  -3   0  -7  435.32   16.83
  -3   0  -6  161.78    6.98
  -3   0  -6  161.60    6.65
  -3   0  -5   47.71    3.13
  -3   0  -5   49.31    2.78
  -3   0  -4    1.11    1.16
  -3   0  -4    1.47    1.66
  -3   0  -3  273.95   10.26
  -3   0  -3  273.33    9.72
  -3   0  -3  281.18   10.65
  -3   0  -2  440.06   16.63
  -3   0  -2  451.97   16.26
  -3   0  -2  460.82   15.70
  -3   0  -1  167.97    5.95
  -3   0  -1  169.88    6.54
  -3   0  -1  168.08    6.93
  -3   0   0 1332.62   44.92
  -3   0   0 1266.83   45.72
  -3   0   1 2286.49   76.54
  -3   0   1 2153.20   77.27
  -3   0   2  734.59   25.41
  -3   0   2  717.94   26.14
  -3   0   3  232.65    9.67
  -3   0   3  259.86    9.29
  -3   0   3  231.90    9.96
  -3   0   4  615.23   20.38
  -3   0   4  593.63   20.71
  -3   0   5   71.10    4.14
  -3   0   5   67.77    4.43
  -3   0   6   18.82    2.98
  -3   0   6   20.23    3.40
  -3   0   7  117.72    6.52
  -3   0   7  115.17    6.12
  -3   0   8    4.58    3.79
  -3   0   8   -0.59    3.51
  -3   0   9   87.62    6.37
  -3   0   9  113.18    6.54
  -3   0  10   11.91    5.43
  -3   0  10   14.32    4.73
  -3   0  10   21.37    4.84
  -3   0  11   64.27    6.24
  -3   0  11   59.85    5.87
  -3   0  11   65.61    7.41
  -3   0  12    3.79    5.79
  -3   0  12    5.48    6.47
  -3   0  12    7.11    5.33
  -3   0  13    0.80    5.82
  -3   1 -13   23.96    5.74
  -3   1 -11   60.28    5.29
  -3   1 -10   16.63    3.94
  -3   1  -9  103.67    5.73
  -3   1  -8   12.94    3.30
  -3   1  -8   10.38    3.07
  -3   1  -7  283.34   11.01
  -3   1  -7  278.92   10.74
  -3   1  -6  529.02   18.47
  -3   1  -6  502.10   18.66
  -3   1  -5 1401.00   47.96
  -3   1  -5 1391.63   48.23
  -3   1  -4  430.62   14.74
  -3   1  -4  404.68   15.07
  -3   1  -3 1019.33   34.88
  -3   1  -3 1044.42   35.84
  -3   1  -3 1022.46   35.36
  -3   1  -2  205.81    7.89
  -3   1  -2  226.61    8.44
  -3   1  -1    7.83    1.77
  -3   1  -1   10.97    1.44
  -3   1   0   38.55    2.70
  -3   1   0   44.70    2.83
  -3   1   1   24.94    2.44
  -3   1   1   25.39    2.41
  -3   1   1   24.81    1.44
  -3   1   2  474.83   18.58
  -3   1   2  522.29   17.82
  -3   1   3   76.55    4.54
  -3   1   3   79.15    3.68
  -3   1   4  514.88   20.15
  -3   1   4  543.29   19.62
  -3   1   4  576.00   20.45
  -3   1   4  560.60   20.30
  -3   1   5  208.99    9.32
  -3   1   5  201.30    9.42
  -3   1   5  218.68    9.31
  -3   1   5  217.48    8.59
  -3   1   6  118.39    5.61
  -3   1   6  100.31    6.14
  -3   1   6  120.43    6.57
  -3   1   6  109.74    6.23
  -3   1   7   83.68    6.14
  -3   1   7   77.50    5.56
  -3   1   7   85.79    5.66
  -3   1   7   82.39    5.06
  -3   1   8    7.07    3.64
  -3   1   8    5.84    3.67
  -3   1   8    6.84    3.95
  -3   1   8    5.03    4.36
  -3   1   9    5.47    4.99
  -3   1   9   13.76    4.10
  -3   1   9   11.21    4.45
  -3   1   9   15.67    4.55
  -3   1  10   32.92    5.40
  -3   1  10   36.47    5.20
  -3   1  10   45.88    5.82
  -3   1  11   -8.14    5.47
  -3   1  11   -0.27    4.96
  -3   1  11    1.20    5.26
  -3   1  12    9.29    5.93
  -3   2 -13    9.65    5.70
  -3   2 -12   35.74    4.95
  -3   2 -11   33.61    4.75
  -3   2 -10   66.22    4.99
  -3   2  -9   24.48    3.56
  -3   2  -8  206.30    8.71
  -3   2  -7   13.05    2.55
  -3   2  -6   27.35    2.45
  -3   2  -5    6.34    1.66
  -3   2  -5    3.13    1.50
  -3   2  -4  183.90    6.67
  -3   2  -4  176.63    6.77
  -3   2  -3  132.21    5.00
  -3   2  -3  130.20    5.63
  -3   2  -2 1407.46   47.75
  -3   2  -2 1377.31   48.39
  -3   2  -1  360.14   12.40
  -3   2  -1  345.78   13.06
  -3   2  -1  337.94   12.99
  -3   2   0 1802.15   62.11
  -3   2   0 1805.18   62.30
  -3   2   1   91.33    4.64
  -3   2   1   88.18    4.46
  -3   2   1   94.22    4.90
  -3   2   2  266.71   10.75
  -3   2   2  269.24    9.63
  -3   2   2  246.23   10.37
  -3   2   2  269.27   10.65
  -3   2   3    5.08    1.64
  -3   2   3    5.01    2.82
  -3   2   4   19.06    2.46
  -3   2   4   14.29    3.09
  -3   2   5   68.50    4.90
  -3   2   5   65.81    4.80
  -3   2   5   66.54    3.88
  -3   2   6   83.16    5.64
  -3   2   6   74.55    4.66
  -3   2   6   68.04    5.24
  -3   2   6   77.05    4.94
  -3   2   7  141.38    7.65
  -3   2   7  147.23    7.39
  -3   2   7  143.64    7.05
  -3   2   7  140.87    7.94
  -3   2   8   47.88    5.37
  -3   2   8   49.26    4.51
  -3   2   8   45.58    4.78
  -3   2   8   41.52    5.40
  -3   2   9  147.12    8.65
  -3   2   9  140.89    8.05
  -3   2   9  127.21    8.05
  -3   2   9  135.86    7.45
  -3   2  10   28.32    5.98
  -3   2  10   29.21    5.16
  -3   2  10   34.41    5.44
  -3   2  10   32.84    5.56
  -3   2  11   20.30    5.38
  -3   2  11   20.50    6.40
  -3   2  11   19.63    5.73
  -3   2  12   -2.35    6.36
  -3   2  12    5.96    6.18
  -3   2  12    3.89    5.63
  -3   2  12    5.17    6.58
  -3   3 -12   12.49    4.64
  -3   3 -11   22.24    4.45
  -3   3  -9   57.23    4.41
  -3   3  -8   98.82    5.32
  -3   3  -7  588.43   21.17
  -3   3  -2   77.14    3.81
  -3   3  -2   83.59    4.06
  -3   3  -1  117.55    5.63
  -3   3  -1  127.97    4.55
  -3   3  -1  129.00    5.43
  -3   3   0  125.08    5.91
  -3   3   0  123.36    5.72
  -3   3   0  111.34    5.13
  -3   3   1  304.01   12.02
  -3   3   1  330.20   12.44
  -3   3   1  323.39   12.61
  -3   3   2  437.36   17.28
  -3   3   2  500.50   16.51
  -3   3   2  409.94   16.94
  -3   3   2  468.42   17.54
  -3   3   3  197.31    7.97
  -3   3   3  191.29    8.52
  -3   3   3  209.87    7.88
  -3   3   3  189.34    8.99
  -3   3   4  449.39   15.84
  -3   3   4  410.42   16.29
  -3   3   4  416.40   15.58
  -3   3   5   38.08    4.19
  -3   3   5   29.29    3.50
  -3   3   5   27.40    2.97
  -3   3   6   12.06    3.88
  -3   3   6   17.37    3.54
  -3   3   6   17.29    3.03
  -3   3   6   16.26    3.96
  -3   3   7   -1.42    3.44
  -3   3   7    0.24    4.24
  -3   3   7   -0.49    4.05
  -3   3   7   -2.39    3.20
  -3   3   8   80.03    6.72
  -3   3   8   81.58    6.77
  -3   3   8   87.86    6.00
  -3   3   8   86.51    5.50
  -3   3   9    9.05    4.09
  -3   3   9    5.04    4.99
  -3   3   9    6.08    5.21
  -3   3   9    7.53    5.04
  -3   3  10   45.68    6.63
  -3   3  10   50.99    6.29
  -3   3  10   44.79    5.61
  -3   3  10   47.82    6.54
  -3   3  11    3.10    5.91
  -3   3  11    6.72    5.02
  -3   3  11    9.24    6.18
  -3   3  11    1.03    6.08
  -3   3  12   44.25    7.05
  -3   3  12   34.38    7.46
  -3   3  12   37.91    6.88
  -3   3  12   50.41    6.98
  -3   4 -11    4.82    4.23
  -3   4  -2  224.17    9.05
  -3   4  -2  230.37    8.55
  -3   4  -1   50.60    2.89
  -3   4  -1   51.43    4.06
  -3   4  -1   51.81    3.64
  -3   4   0   95.94    3.62
  -3   4   0   99.02    5.26
  -3   4   0   98.68    5.66
  -3   4   0   99.49    4.51
  -3   4   1   63.71    4.67
  -3   4   1   73.17    3.15
  -3   4   1   69.15    4.67
  -3   4   1   61.42    3.80
  -3   4   2   43.07    4.08
  -3   4   2   48.03    4.42
  -3   4   2   43.74    2.78
  -3   4   2   46.52    3.51
  -3   4   3  352.99   13.29
  -3   4   3  372.73   14.66
  -3   4   4   37.09    3.94
  -3   4   4   34.87    3.11
  -3   4   5  163.38    8.34
  -3   4   5  164.97    7.49
  -3   4   5  181.42    7.70
  -3   4   6  133.35    7.46
  -3   4   6  136.02    6.76
  -3   4   6  122.64    6.54
  -3   4   7   33.30    3.82
  -3   4   7   38.88    5.37
  -3   4   7   33.42    4.36
  -3   4   7   40.76    5.03
  -3   4   8   83.07    6.76
  -3   4   8   96.27    6.22
  -3   4   8   77.79    6.82
  -3   4   8   82.56    5.60
  -3   4   9   18.67    5.35
  -3   4   9   26.31    4.90
  -3   4   9   20.76    5.13
  -3   4   9   21.97    5.95
  -3   4  10    5.04    5.76
  -3   4  10    5.89    5.23
  -3   4  10    5.30    4.61
  -3   4  11   -4.74    6.11
  -3   4  11    1.08    6.27
  -3   4  11    3.07    6.66
  -3   4  11    0.47    5.14
  -3   4  12    4.24    6.40
  -3   5  -2   61.35    3.93
  -3   5  -2   57.27    4.50
  -3   5  -1  350.63   14.10
  -3   5  -1  356.34   13.65
  -3   5   0   53.92    4.79
  -3   5   0   65.17    4.68
  -3   5   0   59.84    3.16
  -3   5   1  200.91    9.36
  -3   5   1  196.75    9.06
  -3   5   1  195.44    7.97
  -3   5   1  200.44    7.34
  -3   5   2  112.28    5.47
  -3   5   2  104.96    6.64
  -3   5   2  116.79    4.95
  -3   5   3   41.87    4.68
  -3   5   3   40.52    3.81
  -3   5   3   36.17    3.15
  -3   5   4   26.41    3.19
  -3   5   4   24.81    4.68
  -3   5   4   31.22    4.04
  -3   5   5   54.37    5.44
  -3   5   5   53.58    4.84
  -3   5   5   44.62    4.09
  -3   5   6   21.98    3.75
  -3   5   6   26.67    4.76
  -3   5   7  138.48    8.33
  -3   5   7  126.24    8.34
  -3   5   7  130.45    7.13
  -3   5   8   27.03    5.77
  -3   5   8   17.69    5.11
  -3   5   8   27.09    4.40
  -3   5   9   12.29    4.98
  -3   5   9   22.09    6.29
  -3   5   9   11.30    5.12
  -3   5   9    8.65    5.77
  -3   5  10   34.85    6.63
  -3   5  10   29.83    7.07
  -3   5  10   34.91    6.17
  -3   5  10   39.12    5.60
  -3   5  11    1.22    5.76
  -3   5  11   11.25    6.81
  -3   5  11    6.77    6.32
  -3   5  11   12.25    6.77
  -3   6  -3   11.97    3.50
  -3   6  -2   35.11    4.49
  -3   6  -2   39.79    3.75
  -3   6  -1    6.21    3.61
  -3   6  -1    3.09    3.31
  -3   6   0  138.79    7.71
  -3   6   0  136.64    7.22
  -3   6   1  161.68    6.03
  -3   6   1  169.21    8.60
  -3   6   1  160.62    8.02
  -3   6   1  161.37    6.53
  -3   6   2  143.13    8.40
  -3   6   2  153.23    6.20
  -3   6   2  154.73    6.71
  -3   6   3   61.25    5.93
  -3   6   3   55.83    4.15
  -3   6   3   46.00    3.62
  -3   6   4   40.99    5.66
  -3   6   4   42.93    3.91
  -3   6   4   46.17    4.51
  -3   6   5   54.26    5.75
  -3   6   5   55.73    5.10
  -3   6   5   52.42    4.36
  -3   6   6    2.54    4.16
  -3   6   6   -0.30    4.91
  -3   6   6    2.20    3.48
  -3   6   7   18.33    4.08
  -3   6   7   33.99    5.67
  -3   6   8    4.97    5.79
  -3   6   8    2.89    5.10
  -3   6   8    4.20    4.68
  -3   6   9   14.30    6.49
  -3   6   9    8.88    5.44
  -3   6   9    5.57    5.31
  -3   6  10    9.67    6.00
  -3   6  10   12.57    6.43
  -3   6  11    5.41    6.52
  -3   7  -3   64.88    5.38
  -3   7  -2   64.19    5.62
  -3   7  -2   59.93    4.57
  -3   7  -1   43.38    5.18
  -3   7  -1   34.76    4.21
  -3   7   0    4.25    4.81
  -3   7   0    1.90    3.68
  -3   7   1   43.44    5.00
  -3   7   1   48.99    5.42
  -3   7   2    8.69    5.17
  -3   7   2    7.63    2.31
  -3   7   2    5.77    2.19
  -3   7   3    8.31    5.11
  -3   7   3    2.57    3.06
  -3   7   3    4.68    2.77
  -3   7   4   25.39    3.59
  -3   7   4   31.85    4.15
  -3   7   5  132.59    7.27
  -3   7   5  136.12    6.79
  -3   7   5  128.67    8.85
  -3   7   6   19.30    6.10
  -3   7   6   14.34    4.34
  -3   7   6   13.07    4.05
  -3   7   7   49.01    7.13
  -3   7   7   61.83    5.52
  -3   7   7   44.25    5.65
  -3   7   8    0.20    4.48
  -3   7   8   -3.09    5.09
  -3   7   9    9.94    6.43
  -3   7   9   10.75    5.67
  -3   7  10    2.47    6.53
  -3   7  10    4.69    5.93
  -3   8  -3   15.98    4.55
  -3   8  -2   20.96    4.96
  -3   8  -2   19.05    3.86
  -3   8  -1   24.14    5.19
  -3   8  -1   25.16    4.72
  -3   8   0  134.55    7.63
  -3   8   1   -3.00    5.28
  -3   8   1    3.60    5.09
  -3   8   2   50.16    6.34
  -3   8   3    5.71    6.02
  -3   8   3    1.74    2.64
  -3   8   3   -0.47    3.03
  -3   8   4    0.63    6.08
  -3   8   4    5.03    3.30
  -3   8   4    6.04    3.57
  -3   8   5    8.23    3.54
  -3   8   5    7.92    3.88
  -3   8   5   -0.66    5.93
  -3   8   6    1.04    6.28
  -3   8   6   -1.76    4.22
  -3   8   6    4.23    4.40
  -3   8   7   13.05    6.79
  -3   8   7   -0.22    4.54
  -3   8   7    6.55    4.59
  -3   8   8   22.68    5.44
  -3   8   8   12.54    5.83
  -3   8   9    3.86    5.89
  -3   9  -2    0.25    5.09
  -3   9  -1    2.67    5.24
  -3   9  -1    0.36    4.39
  -3   9   0    6.53    4.59
  -3   9   1    5.62    5.84
  -3   9   1    4.48    5.18
  -3   9   2   16.11    6.29
  -3   9   2   23.48    5.92
  -3   9   3   16.21    6.72
  -3   9   4   35.22    7.19
  -3   9   5   14.16    7.33
  -3  10   0    1.52    6.77
  -3  10   2    4.00    6.88
  -2 -11  -6   -1.24    6.13
  -2 -11  -5   -3.27    5.64
  -2 -11  -4   16.33    5.72
  -2 -11  -3    9.16    5.35
  -2 -11  -2   24.51    5.07
  -2 -11  -1    9.85    5.23
  -2 -11   0    7.48    4.84
  -2 -10  -7   37.28    6.49
  -2 -10  -6   43.85    6.50
  -2 -10  -6   43.93    6.48
  -2 -10  -6   36.39    5.80
  -2 -10  -6   42.73    6.08
  -2 -10  -5   23.01    5.72
  -2 -10  -5   25.57    5.68
  -2 -10  -5   18.63    5.72
  -2 -10  -5   27.88    5.82
  -2 -10  -4    5.25    5.19
  -2 -10  -4    3.77    4.89
  -2 -10  -3    8.39    5.07
  -2 -10  -3   14.74    4.98
  -2 -10  -2   -0.51    5.26
  -2 -10  -2    2.67    4.68
  -2 -10  -1   20.74    4.64
  -2 -10   0   72.67    5.53
  -2 -10   1   24.73    4.55
  -2 -10   1   12.47    5.33
  -2 -10   1   14.98    5.53
  -2 -10   2   22.88    4.57
  -2 -10   2   30.50    6.22
  -2 -10   2   26.67    5.86
  -2 -10   3   -2.58    4.52
  -2 -10   3    8.02    5.51
  -2 -10   3    7.81    5.79
  -2 -10   4    4.37    4.34
  -2  -9  -9   15.23    6.30
  -2  -9  -9   11.97    5.99
  -2  -9  -8    8.93    5.83
  -2  -9  -8    8.87    5.36
  -2  -9  -8    3.40    5.71
  -2  -9  -7   24.96    5.34
  -2  -9  -7   21.89    5.32
  -2  -9  -6   20.95    5.42
  -2  -9  -6   24.11    5.02
  -2  -9  -6   31.58    5.29
  -2  -9  -5   68.52    6.19
  -2  -9  -5   54.72    5.91
  -2  -9  -5   67.83    6.08
  -2  -9  -4   80.37    6.30
  -2  -9  -4   90.25    6.20
  -2  -9  -3   66.27    5.52
  -2  -9  -3   61.58    5.70
  -2  -9  -2   57.48    5.54
  -2  -9  -2   57.32    5.30
  -2  -9  -1    5.64    4.34
  -2  -9   0   10.88    4.01
  -2  -9   1    0.92    4.38
  -2  -9   1    2.10    3.66
  -2  -9   2   11.90    4.05
  -2  -9   2   10.66    5.17
  -2  -9   2    7.30    4.68
  -2  -9   3   16.60    2.77
  -2  -9   3   14.30    5.24
  -2  -9   3   19.61    4.18
  -2  -9   3    8.68    5.13
  -2  -9   4   11.09    4.09
  -2  -9   4    9.14    5.20
  -2  -9   4   11.98    5.42
  -2  -9   5   15.18    5.51
  -2  -9   5   13.97    4.73
  -2  -9   6    9.76    5.58
  -2  -9   6    6.95    4.39
  -2  -8 -11   20.55    6.32
  -2  -8 -10   38.89    7.17
  -2  -8 -10   45.87    6.39
  -2  -8 -10   41.59    6.95
  -2  -8 -10   53.42    7.24
  -2  -8  -9  128.69    8.89
  -2  -8  -9  127.17    8.72
  -2  -8  -9  129.14    8.31
  -2  -8  -9  111.81    7.96
  -2  -8  -8    5.16    4.95
  -2  -8  -8    5.99    4.83
  -2  -8  -8   13.24    5.21
  -2  -8  -8    5.25    5.99
  -2  -8  -7  144.33    8.35
  -2  -8  -7  147.69    8.20
  -2  -8  -6    8.95    4.35
  -2  -8  -6    2.69    4.50
  -2  -8  -5   32.26    4.67
  -2  -8  -5   29.54    4.68
  -2  -8  -5   31.01    4.66
  -2  -8  -4   65.35    5.57
  -2  -8  -4   56.46    5.50
  -2  -8  -4   69.84    5.30
  -2  -8  -3   54.67    5.15
  -2  -8  -3   52.37    5.21
  -2  -8  -3   68.07    4.85
  -2  -8  -2  137.90    6.82
  -2  -8  -2  113.83    6.93
  -2  -8  -1  260.60   11.58
  -2  -8  -1  276.98   11.21
  -2  -8   0   39.82    3.80
  -2  -8   1   82.00    4.46
  -2  -8   1   79.98    5.20
  -2  -8   2   58.94    3.82
  -2  -8   2   60.50    4.67
  -2  -8   2   55.41    5.05
  -2  -8   3    5.04    3.76
  -2  -8   3   -5.15    4.38
  -2  -8   3   -0.21    3.94
  -2  -8   3    1.41    2.51
  -2  -8   4   20.18    4.02
  -2  -8   4   12.45    4.69
  -2  -8   4   15.93    3.05
  -2  -8   4   16.75    4.93
  -2  -8   5   38.92    5.45
  -2  -8   5   28.57    4.35
  -2  -8   6    7.67    3.28
  -2  -8   7   21.45    6.26
  -2  -8   7    9.41    3.54
  -2  -7 -12    1.48    6.28
  -2  -7 -11   31.99    6.88
  -2  -7 -11   31.96    6.83
  -2  -7 -11   29.74    6.25
  -2  -7 -11   22.83    6.05
  -2  -7 -10   67.58    7.16
  -2  -7 -10   65.72    6.38
  -2  -7 -10   59.28    6.80
  -2  -7 -10   62.33    6.52
  -2  -7  -9   85.00    7.43
  -2  -7  -9   85.34    6.21
  -2  -7  -9   76.62    6.65
  -2  -7  -9   73.76    6.93
  -2  -7  -8   89.62    6.92
  -2  -7  -8   89.98    6.62
  -2  -7  -8   74.69    6.24
  -2  -7  -8   79.74    6.22
  -2  -7  -7  266.97   11.80
  -2  -7  -7  264.79   11.37
  -2  -7  -7  264.26   11.96
  -2  -7  -7  255.32   11.54
  -2  -7  -6  140.65    7.36
  -2  -7  -6  132.19    7.28
  -2  -7  -6  136.25    7.73
  -2  -7  -5  141.11    7.30
  -2  -7  -5  143.38    7.45
  -2  -7  -4   96.39    5.75
  -2  -7  -4   94.65    5.67
  -2  -7  -4   94.82    5.89
  -2  -7  -3   53.48    4.64
  -2  -7  -3   50.13    4.51
  -2  -7  -2    0.89    3.14
  -2  -7  -2   -0.84    3.18
  -2  -7  -1   95.25    5.20
  -2  -7  -1   88.35    5.59
  -2  -7   0   40.44    3.30
  -2  -7   0   40.04    3.62
  -2  -7   1  215.16    8.97
  -2  -7   1  237.51    9.53
  -2  -7   2   61.18    5.18
  -2  -7   2   67.09    3.84
  -2  -7   2   67.26    4.52
  -2  -7   2   61.52    4.88
  -2  -7   3  108.26    6.53
  -2  -7   3  116.30    6.50
  -2  -7   3  110.77    5.78
  -2  -7   3  109.93    5.27
  -2  -7   4    7.18    3.98
  -2  -7   4    5.71    3.54
  -2  -7   5   31.72    4.98
  -2  -7   5   34.21    3.64
  -2  -7   6    0.25    4.48
  -2  -7   7    4.22    5.17
  -2  -7   7    0.31    3.43
  -2  -7   8    7.21    3.99
  -2  -7   8    7.43    5.35
  -2  -7   9    7.72    6.42
  -2  -7   9    0.57    4.44
  -2  -6 -13    7.60    6.66
  -2  -6 -13    3.12    5.98
  -2  -6 -12   61.21    6.93
  -2  -6 -12   48.53    7.83
  -2  -6 -12   60.49    6.63
  -2  -6 -11   45.33    6.69
  -2  -6 -11   31.80    6.11
  -2  -6 -11   39.12    5.97
  -2  -6 -11   38.01    5.46
  -2  -6 -10   33.96    5.72
  -2  -6 -10   32.61    5.59
  -2  -6 -10   33.60    4.92
  -2  -6 -10   43.40    6.33
  -2  -6  -9   20.87    5.30
  -2  -6  -9   18.31    4.17
  -2  -6  -9   12.20    5.11
  -2  -6  -9   13.36    4.67
  -2  -6  -8   10.15    4.47
  -2  -6  -8    6.83    4.39
  -2  -6  -8    2.20    4.03
  -2  -6  -8    4.56    4.01
  -2  -6  -7    7.01    4.09
  -2  -6  -7   10.35    3.72
  -2  -6  -7    5.68    3.81
  -2  -6  -7    2.17    3.54
  -2  -6  -6  870.58   31.42
  -2  -6  -6  879.58   31.45
  -2  -6  -6  893.16   31.71
  -2  -6  -6  837.92   31.21
  -2  -6  -5    7.96    3.15
  -2  -6  -5   10.66    3.39
  -2  -6  -5    4.71    3.51
  -2  -6  -4  733.05   27.49
  -2  -6  -4  806.04   27.72
  -2  -6  -3  307.84   12.22
  -2  -6  -3  314.18   12.16
  -2  -6  -3  299.86   12.11
  -2  -6  -2  248.90   10.21
  -2  -6  -2  257.79   10.28
  -2  -6  -1  103.21    4.91
  -2  -6  -1   92.96    5.19
  -2  -6  -1   96.26    5.11
  -2  -6   0   50.88    3.43
  -2  -6   0   46.71    3.88
  -2  -6   0   57.08    3.82
  -2  -6   1   77.38    4.41
  -2  -6   1   78.27    4.10
  -2  -6   2   71.14    4.27
  -2  -6   2   63.22    3.82
  -2  -6   3   35.65    3.80
  -2  -6   3   35.11    3.04
  -2  -6   4  152.19    6.60
  -2  -6   4  158.29    7.46
  -2  -6   5  216.00   10.18
  -2  -6   5  230.06    9.36
  -2  -6   6   15.39    3.46
  -2  -6   6   15.57    4.29
  -2  -6   7  124.88    7.55
  -2  -6   7  118.80    6.61
  -2  -6   8   52.77    6.03
  -2  -6   8   56.43    5.32
  -2  -6   9   15.78    5.49
  -2  -6   9   14.53    4.14
  -2  -6  10    2.16    5.83
  -2  -6  10    0.90    4.49
  -2  -6  11    4.40    5.74
  -2  -5 -13   29.53    6.04
  -2  -5 -12   69.68    7.68
  -2  -5 -12   68.19    7.28
  -2  -5 -12   63.80    6.39
  -2  -5 -11  165.43    9.81
  -2  -5 -11  173.18    8.80
  -2  -5 -11  174.71    9.14
  -2  -5 -10  113.62    6.80
  -2  -5 -10  132.43    7.27
  -2  -5 -10  120.11    8.03
  -2  -5  -9  248.52   11.22
  -2  -5  -9  257.92   11.71
  -2  -5  -9  254.38   10.93
  -2  -5  -8  279.00   11.99
  -2  -5  -8  301.38   12.40
  -2  -5  -8  313.53   12.84
  -2  -5  -7  149.35    7.58
  -2  -5  -7  143.63    7.21
  -2  -5  -7  147.46    7.10
  -2  -5  -7  134.32    7.22
  -2  -5  -6   23.59    3.76
  -2  -5  -6   28.44    3.45
  -2  -5  -6   25.23    3.35
  -2  -5  -6   19.86    3.38
  -2  -5  -5   29.18    3.70
  -2  -5  -5   26.31    3.34
  -2  -5  -5   20.73    3.39
  -2  -5  -5   25.33    3.06
  -2  -5  -4    3.48    2.58
  -2  -5  -4    4.53    2.54
  -2  -5  -3  426.58   15.97
  -2  -5  -3  432.83   15.88
  -2  -5  -2  777.37   27.75
  -2  -5  -2  786.70   27.77
  -2  -5  -1  665.63   23.62
  -2  -5  -1  668.63   23.56
  -2  -5  -1  644.99   23.37
  -2  -5   0  480.16   17.24
  -2  -5   0  496.75   17.56
  -2  -5   0  456.20   17.34
  -2  -5   1  673.36   24.19
  -2  -5   1  685.49   24.06
  -2  -5   2    4.54    1.92
  -2  -5   3   52.92    3.31
  -2  -5   4    0.74    2.54
  -2  -5   5   32.66    3.62
  -2  -5   6  149.42    7.14
  -2  -5   7   10.59    3.71
  -2  -5   7   14.33    3.98
  -2  -5   8   32.87    4.96
  -2  -5   8   26.98    4.53
  -2  -5   9    6.67    5.02
  -2  -5   9    9.16    4.39
  -2  -5  10    6.96    5.49
  -2  -5  11   -9.89    5.15
  -2  -5  12   -6.63    5.59
  -2  -4 -13   21.78    7.07
  -2  -4 -13   20.57    5.13
  -2  -4 -12   20.01    4.40
  -2  -4 -12   14.85    5.83
  -2  -4 -12   13.99    6.06
  -2  -4 -11   29.38    5.56
  -2  -4 -11   14.71    4.46
  -2  -4 -11   18.28    5.85
  -2  -4 -10    6.46    5.01
  -2  -4 -10    6.14    4.54
  -2  -4 -10   -0.18    3.87
  -2  -4  -9  131.81    7.54
  -2  -4  -9  123.45    7.62
  -2  -4  -8  323.64   13.02
  -2  -4  -8  331.20   13.53
  -2  -4  -7  369.03   14.68
  -2  -4  -7  413.77   15.02
  -2  -4  -7  387.53   15.26
  -2  -4  -6  598.46   21.58
  -2  -4  -6  617.00   21.76
  -2  -4  -6  567.12   21.91
  -2  -4  -5  241.51    9.59
  -2  -4  -5  237.74    9.98
  -2  -4  -5  256.81    9.95
  -2  -4  -4 1430.04   50.03
  -2  -4  -4 1468.26   50.26
  -2  -4  -4 1445.36   50.42
  -2  -4  -3  425.03   15.95
  -2  -4  -3  440.97   15.76
  -2  -4  -2  297.29   10.89
  -2  -4  -2  284.21   10.92
  -2  -4  -2  284.22   10.96
  -2  -4  -1    6.63    1.76
  -2  -4  -1    6.44    1.81
  -2  -4  -1    4.80    1.70
  -2  -4   0   82.58    3.99
  -2  -4   0   78.89    3.81
  -2  -4   0   78.30    3.88
  -2  -4   1  228.35    9.39
  -2  -4   1  255.73    9.30
  -2  -4   2 1036.31   36.08
  -2  -4   3  495.40   17.99
  -2  -4   4  676.97   24.28
  -2  -4   5  102.56    5.33
  -2  -4   6  138.43    6.77
  -2  -4   7   50.46    4.42
  -2  -4   8    6.21    3.65
  -2  -4   9   11.75    4.74
  -2  -4   9   -0.23    4.72
  -2  -4  10   15.23    5.24
  -2  -4  10   11.40    4.69
  -2  -4  11    6.20    5.07
  -2  -4  11   15.75    5.65
  -2  -4  11   16.57    5.92
  -2  -4  12   -2.68    5.59
  -2  -4  12    9.00    5.84
  -2  -3 -13   93.18    8.26
  -2  -3 -12   98.66    7.96
  -2  -3 -11  164.00    9.32
  -2  -3 -11  172.77    9.46
  -2  -3 -11  178.44    8.29
  -2  -3 -10  146.27    8.09
  -2  -3 -10  153.92    7.21
  -2  -3  -9  176.21    8.96
  -2  -3  -9  186.74    9.02
  -2  -3  -9  192.60    8.36
  -2  -3  -8    2.38    3.22
  -2  -3  -8    6.79    2.93
  -2  -3  -8    5.51    3.36
  -2  -3  -7  104.14    5.61
  -2  -3  -7   98.56    5.06
  -2  -3  -7   90.99    5.51
  -2  -3  -6   47.31    3.76
  -2  -3  -6   52.60    3.28
  -2  -3  -6   56.67    3.58
  -2  -3  -6   56.52    4.06
  -2  -3  -5  530.91   19.61
  -2  -3  -5  568.51   19.84
  -2  -3  -5  554.28   20.01
  -2  -3  -4 1224.21   42.08
  -2  -3  -4 1200.39   41.77
  -2  -3  -4 1208.87   42.15
  -2  -3  -3 2934.93  100.05
  -2  -3  -2  990.07   35.93
  -2  -3  -2 1067.95   35.73
  -2  -3  -1 1181.67   39.75
  -2  -3  -1 1116.31   39.88
  -2  -3   0  540.16   18.50
  -2  -3   0  563.54   18.44
  -2  -3   1   60.21    3.15
  -2  -3   1   65.90    3.21
  -2  -3   2  107.74    4.81
  -2  -3   2  101.41    4.75
  -2  -3   3    1.24    1.86
  -2  -3   3    2.37    1.92
  -2  -3   4  178.07    7.73
  -2  -3   4  182.94    7.64
  -2  -3   5  205.79    8.71
  -2  -3   6  377.48   14.79
  -2  -3   6  378.78   13.81
  -2  -3   7   14.18    2.34
  -2  -3   7   14.92    3.54
  -2  -3   8  137.74    6.09
  -2  -3   8  139.66    7.64
  -2  -3   9    6.04    4.20
  -2  -3   9    7.56    2.76
  -2  -3  10    8.03    4.94
  -2  -3  10   10.86    3.10
  -2  -3  11    2.49    5.29
  -2  -3  11    1.13    5.33
  -2  -3  11    3.78    5.49
  -2  -3  11    1.01    3.31
  -2  -3  12    7.94    5.97
  -2  -3  12    2.21    5.96
  -2  -3  12    7.30    5.87
  -2  -2 -14    8.34    6.42
  -2  -2 -13    1.98    6.00
  -2  -2 -12   76.98    6.84
  -2  -2 -11  114.76    7.32
  -2  -2 -10  172.97    8.88
  -2  -2 -10  178.49    8.78
  -2  -2  -9  360.35   14.68
  -2  -2  -9  363.27   14.80
  -2  -2  -9  376.11   13.95
  -2  -2  -8   70.51    5.01
  -2  -2  -8   71.63    4.91
  -2  -2  -8   65.77    4.16
  -2  -2  -7  579.20   20.43
  -2  -2  -7  570.64   20.94
  -2  -2  -7  548.84   20.83
  -2  -2  -6  230.31    9.43
  -2  -2  -6  233.45    9.36
  -2  -2  -5   17.17    2.22
  -2  -2  -5   13.64    1.68
  -2  -2  -5   17.59    2.32
  -2  -2  -4  390.69   13.33
  -2  -2  -4  360.40   13.79
  -2  -2  -4  362.43   13.66
  -2  -2  -3  125.49    5.54
  -2  -2  -3  138.37    5.13
  -2  -2  -3  136.84    5.49
  -2  -2  -2   55.24    2.31
  -2  -2  -2   39.97    2.64
  -2  -2  -1 1587.49   59.11
  -2  -2  -1 1820.54   58.88
  -2  -2   0  875.86   31.75
  -2  -2   0  944.71   31.58
  -2  -2   1 2457.61   80.65
  -2  -2   1 2254.65   80.70
  -2  -2   2 1780.31   59.65
  -2  -2   2 1686.02   59.75
  -2  -2   3  230.07    8.81
  -2  -2   3  225.41    8.48
  -2  -2   3  222.49    8.93
  -2  -2   4  411.70   14.83
  -2  -2   4  388.82   14.92
  -2  -2   4  397.16   14.42
  -2  -2   5   14.10    2.64
  -2  -2   5   17.98    2.69
  -2  -2   5   15.52    2.10
  -2  -2   6   15.87    3.05
  -2  -2   6   20.59    3.12
  -2  -2   6   20.77    2.37
  -2  -2   7   41.45    4.07
  -2  -2   7   47.83    3.40
  -2  -2   7   44.49    4.21
  -2  -2   8   49.14    5.08
  -2  -2   8   52.67    3.84
  -2  -2   9  110.67    5.86
  -2  -2   9  116.72    7.37
  -2  -2  10   34.41    5.38
  -2  -2  10   33.92    5.55
  -2  -2  10   39.58    4.11
  -2  -2  11   27.25    5.99
  -2  -2  11   31.48    5.67
  -2  -2  11   21.34    3.90
  -2  -2  12   30.97    6.36
  -2  -2  12   23.10    6.98
  -2  -1 -14   37.69    6.96
  -2  -1 -13   32.14    6.34
  -2  -1 -12   70.70    6.57
  -2  -1 -11   33.91    5.56
  -2  -1 -10    1.78    3.81
  -2  -1  -9   33.67    4.36
  -2  -1  -9   35.15    4.06
  -2  -1  -8  523.33   19.24
  -2  -1  -8  509.14   19.28
  -2  -1  -7  492.12   17.83
  -2  -1  -7  469.31   17.88
  -2  -1  -6  671.94   24.45
  -2  -1  -6  691.24   24.34
  -2  -1  -5 1937.40   67.68
  -2  -1  -5 1994.64   67.57
  -2  -1  -4 1701.86   55.92
  -2  -1  -4 1563.64   56.31
  -2  -1  -4 1587.73   56.49
  -2  -1  -3 1698.35   58.15
  -2  -1  -3 1766.82   58.74
  -2  -1  -3 1700.76   58.50
  -2  -1  -2  151.29    5.81
  -2  -1  -2  154.11    5.66
  -2  -1  -2  148.09    5.38
  -2  -1  -1   38.97    2.03
  -2  -1   1 1330.72   45.58
  -2  -1   2   35.01    2.01
  -2  -1   2   33.25    2.06
  -2  -1   3 1245.12   42.11
  -2  -1   3 1190.69   42.03
  -2  -1   4  391.75   13.97
  -2  -1   4  394.02   13.82
  -2  -1   5  762.26   26.48
  -2  -1   5  743.48   26.23
  -2  -1   5  711.02   26.74
  -2  -1   6  154.01    6.89
  -2  -1   6  147.30    7.19
  -2  -1   6  148.32    6.54
  -2  -1   7   76.25    5.34
  -2  -1   7   80.63    4.72
  -2  -1   8   46.11    4.81
  -2  -1   8   45.50    3.71
  -2  -1   8   43.81    4.38
  -2  -1   9   31.42    4.52
  -2  -1   9   39.44    4.90
  -2  -1   9   38.30    4.46
  -2  -1   9   34.91    3.94
  -2  -1  10   12.34    5.20
  -2  -1  10   17.09    4.72
  -2  -1  10   12.68    3.85
  -2  -1  11   39.87    5.95
  -2  -1  11   34.77    6.17
  -2  -1  11   46.01    4.69
  -2  -1  12    0.82    5.47
  -2  -1  12    7.59    4.11
  -2  -1  12    6.04    5.73
  -2  -1  13   16.76    6.73
  -2  -1  13   20.50    4.74
  -2   0 -14   17.04    6.21
  -2   0 -13   37.56    5.83
  -2   0 -12  113.10    7.51
  -2   0 -11  121.59    7.30
  -2   0 -11  113.31    5.40
  -2   0 -10    8.24    4.17
  -2   0  -9   32.30    3.99
  -2   0  -8   58.73    4.26
  -2   0  -8   60.60    4.55
  -2   0  -7    7.92    2.61
  -2   0  -7    7.59    2.67
  -2   0  -6  794.01   27.94
  -2   0  -6  789.25   28.01
  -2   0  -5  202.84    7.69
  -2   0  -5  194.95    7.82
  -2   0  -4  673.33   23.20
  -2   0  -4  655.69   23.32
  -2   0  -3 1381.45   46.86
  -2   0  -3 1353.77   46.64
  -2   0  -2 1687.53   56.52
  -2   0  -2 1666.02   56.26
  -2   0  -2 1622.89   55.97
  -2   0  -1  972.89   32.82
  -2   0  -1  931.50   32.54
  -2   0   0 2252.50   76.94
  -2   0   1  272.41    9.49
  -2   0   1  258.00    9.93
  -2   0   2  132.24    5.12
  -2   0   3    2.81    1.34
  -2   0   3    3.78    1.54
  -2   0   4  530.29   18.46
  -2   0   4  511.13   18.58
  -2   0   4  499.00   18.55
  -2   0   5  693.00   24.12
  -2   0   5  656.57   24.15
  -2   0   6  172.86    7.66
  -2   0   6  187.81    7.73
  -2   0   7  152.68    7.06
  -2   0   7  156.81    7.23
  -2   0   8  341.06   13.14
  -2   0   8  330.95   12.81
  -2   0   9   30.64    4.22
  -2   0   9   18.22    4.21
  -2   0  10   48.71    5.74
  -2   0  10   42.96    5.24
  -2   0  11   49.66    5.77
  -2   0  11   41.14    5.82
  -2   0  11   39.80    5.96
  -2   0  12    0.79    5.20
  -2   0  12    3.06    5.74
  -2   0  12   -4.10    5.44
  -2   0  13   -0.37    6.25
  -2   0  13   10.24    6.31
  -2   0  13   -1.22    5.47
  -2   1 -12    6.43    4.62
  -2   1 -12    6.67    2.87
  -2   1 -11   18.33    2.73
  -2   1 -10  133.51    6.92
  -2   1 -10  129.18    5.65
  -2   1  -9  317.98   12.63
  -2   1  -9  316.40   11.56
  -2   1  -8  637.28   23.08
  -2   1  -8  634.64   22.13
  -2   1  -7  216.15    8.96
  -2   1  -7  225.66    8.09
  -2   1  -6  813.65   28.70
  -2   1  -6  842.01   28.02
  -2   1  -6  753.22   28.64
  -2   1  -5  249.86    9.09
  -2   1  -5  239.97    9.12
  -2   1  -5  240.19    8.46
  -2   1  -4  255.30    9.37
  -2   1  -4  248.08    9.43
  -2   1  -4  261.09    8.92
  -2   1  -3   81.16    3.40
  -2   1  -3   83.98    3.28
  -2   1  -2  558.07   19.21
  -2   1  -2  564.50   19.75
  -2   1  -2  567.33   19.41
  -2   1  -1  453.74   15.33
  -2   1  -1  420.15   15.64
  -2   1  -1  443.54   15.66
  -2   1   0 1241.16   41.52
  -2   1   0 1169.76   41.43
  -2   1   1 1426.56   51.21
  -2   1   1 1443.68   51.23
  -2   1   1 1533.85   50.72
  -2   1   2  234.17    8.46
  -2   1   2  232.24    9.00
  -2   1   3 1416.41   50.36
  -2   1   3 1470.68   49.83
  -2   1   4   43.91    3.19
  -2   1   4   43.92    3.19
  -2   1   4   48.53    2.79
  -2   1   5  511.20   19.23
  -2   1   5  528.01   19.55
  -2   1   5  532.03   18.95
  -2   1   6   12.13    2.64
  -2   1   6   11.65    2.64
  -2   1   6   11.46    3.17
  -2   1   7    2.34    2.58
  -2   1   7   -0.98    3.15
  -2   1   7    3.85    2.90
  -2   1   8  201.90    9.18
  -2   1   8  192.59    9.26
  -2   1   8  216.43    9.11
  -2   1   9  165.71    8.14
  -2   1   9  170.82    8.34
  -2   1  10   26.05    4.49
  -2   1  10   27.84    4.27
  -2   1  11   51.82    5.67
  -2   1  11   54.55    5.67
  -2   1  12   15.25    5.37
  -2   1  12   16.14    6.06
  -2   1  12   12.94    4.64
  -2   2 -13   56.67    6.53
  -2   2 -12    5.07    2.99
  -2   2 -12    0.65    4.83
  -2   2 -11    7.44    4.47
  -2   2 -11    3.03    2.71
  -2   2 -10   11.92    3.71
  -2   2 -10   15.23    2.58
  -2   2  -9   21.33    2.30
  -2   2  -9   16.76    3.46
  -2   2  -8  289.37   11.67
  -2   2  -8  297.84   10.77
  -2   2  -7  268.25   10.31
  -2   2  -7  258.25    9.49
  -2   2  -6  373.97   13.63
  -2   2  -6  365.93   13.00
  -2   2  -5  549.12   19.82
  -2   2  -5  565.01   19.40
  -2   2  -4 1119.47   37.79
  -2   2  -4 1079.82   38.00
  -2   2  -3  538.76   19.01
  -2   2  -3  551.61   18.84
  -2   2  -2   96.67    4.00
  -2   2  -2   98.02    3.52
  -2   2  -1  267.31    9.15
  -2   2  -1  240.83    8.67
  -2   2  -1  280.47    9.50
  -2   2  -1  254.94    9.28
  -2   2   0  193.24    7.58
  -2   2   0  191.26    7.21
  -2   2   0  191.61    7.46
  -2   2   1  165.77    6.49
  -2   2   1  152.88    6.52
  -2   2   1  153.36    6.19
  -2   2   2  374.78   14.19
  -2   2   2  397.09   13.79
  -2   2   3 1880.05   67.47
  -2   2   3 2005.96   67.01
  -2   2   4  879.41   30.91
  -2   2   4  934.31   30.56
  -2   2   4  877.59   30.38
  -2   2   5  182.43    7.49
  -2   2   5  173.78    7.83
  -2   2   5  165.18    7.66
  -2   2   5  171.55    7.18
  -2   2   6  324.46   12.36
  -2   2   6  344.40   12.61
  -2   2   6  317.86   12.94
  -2   2   6  294.85   12.73
  -2   2   7   79.03    5.00
  -2   2   7   66.19    4.90
  -2   2   7   70.62    5.14
  -2   2   7   71.53    4.59
  -2   2   8   73.00    5.59
  -2   2   8   74.46    5.12
  -2   2   8   67.87    5.20
  -2   2   8   64.11    4.79
  -2   2   9    1.48    3.84
  -2   2   9    3.27    3.90
  -2   2   9    2.87    4.07
  -2   2   9    1.55    4.30
  -2   2  10   55.15    5.40
  -2   2  10   62.29    5.76
  -2   2  10   69.34    5.89
  -2   2  10   56.19    6.24
  -2   2  11   35.65    5.32
  -2   2  11   22.27    5.78
  -2   2  11   32.72    5.97
  -2   2  11   38.91    5.34
  -2   2  12    3.12    5.15
  -2   2  12    4.20    5.58
  -2   2  12   12.09    5.23
  -2   3 -13    4.76    5.09
  -2   3 -12   13.50    5.59
  -2   3 -11   85.35    4.70
  -2   3 -10  144.12    7.41
  -2   3 -10  138.52    6.18
  -2   3  -9  112.05    6.20
  -2   3  -9  104.37    4.92
  -2   3  -8  114.09    6.01
  -2   3  -8  113.06    4.98
  -2   3  -7    3.32    2.77
  -2   3  -7    2.68    1.79
  -2   3  -6  144.00    6.11
  -2   3  -6  133.25    5.49
  -2   3  -5  188.96    7.50
  -2   3  -5  189.16    7.26
  -2   3  -2   58.67    2.84
  -2   3  -2   58.62    3.09
  -2   3  -1 1306.33   44.80
  -2   3  -1 1331.68   45.39
  -2   3  -1 1296.42   45.15
  -2   3   0  963.19   32.92
  -2   3   0  998.90   33.92
  -2   3   0  946.22   33.27
  -2   3   0  981.44   33.75
  -2   3   1  171.12    6.08
  -2   3   1  151.13    6.95
  -2   3   1  157.78    6.43
  -2   3   2   21.72    2.09
  -2   3   2   26.35    2.66
  -2   3   2   27.68    1.92
  -2   3   3  270.82   11.01
  -2   3   3  292.94   10.65
  -2   3   3  287.52   10.71
  -2   3   4   41.73    3.40
  -2   3   4   35.31    2.82
  -2   3   4   41.03    2.84
  -2   3   5    1.80    2.29
  -2   3   5    1.83    2.67
  -2   3   5    2.61    2.61
  -2   3   5    0.37    2.27
  -2   3   6  407.86   15.34
  -2   3   6  385.80   15.76
  -2   3   6  398.94   15.08
  -2   3   6  415.16   15.70
  -2   3   7  223.41    9.60
  -2   3   7  218.77    9.89
  -2   3   7  209.77    9.84
  -2   3   7  223.50    9.37
  -2   3   8  261.02   11.35
  -2   3   8  257.09   11.61
  -2   3   8  259.08   10.93
  -2   3   8  267.47   11.76
  -2   3   9   67.76    5.20
  -2   3   9   66.78    5.87
  -2   3   9   67.79    6.03
  -2   3   9   73.13    5.64
  -2   3  10   16.59    4.31
  -2   3  10   24.07    5.43
  -2   3  10   15.75    4.99
  -2   3  11   20.56    5.34
  -2   3  11   33.05    6.19
  -2   3  11   30.54    5.51
  -2   3  11   33.04    5.46
  -2   3  12    7.25    5.40
  -2   3  12    0.58    5.29
  -2   3  12    4.82    6.14
  -2   3  12   -1.68    5.87
  -2   3  13    3.96    6.85
  -2   3  14    3.79    7.57
  -2   4 -12   20.02    5.98
  -2   4 -11    8.15    4.67
  -2   4 -11    0.77    3.02
  -2   4 -10   30.68    3.42
  -2   4 -10   26.93    4.59
  -2   4  -9   75.44    4.40
  -2   4  -8  205.10    9.07
  -2   4  -7   27.88    2.90
  -2   4  -7   27.41    2.40
  -2   4  -6  392.24   13.90
  -2   4  -6  371.06   14.11
  -2   4  -5  121.19    5.31
  -2   4  -5  110.19    5.09
  -2   4  -4   39.51    2.97
  -2   4  -3    2.12    1.76
  -2   4  -2  388.18   13.96
  -2   4  -2  367.29   13.56
  -2   4  -1  218.28    8.05
  -2   4  -1  210.21    7.71
  -2   4   0  818.74   28.92
  -2   4   0  892.57   30.22
  -2   4   0  891.75   29.20
  -2   4   1  231.55    8.39
  -2   4   1  225.55    9.57
  -2   4   1  233.65    8.71
  -2   4   2 1567.45   56.30
  -2   4   2 1647.82   57.03
  -2   4   2 1676.54   56.02
  -2   4   3  272.08   10.34
  -2   4   3  280.14   10.78
  -2   4   3  277.93   11.34
  -2   4   4  139.13    6.00
  -2   4   4  138.91    6.48
  -2   4   5   51.78    3.69
  -2   4   5   41.13    3.94
  -2   4   6    0.42    2.85
  -2   4   6   -2.40    3.56
  -2   4   6    2.24    3.37
  -2   4   6    5.53    3.17
  -2   4   7   10.04    3.13
  -2   4   7    4.03    3.84
  -2   4   7    9.79    3.52
  -2   4   7    9.27    3.61
  -2   4   8    2.39    3.55
  -2   4   8    4.56    4.69
  -2   4   8   -1.41    4.14
  -2   4   8   -0.19    4.11
  -2   4   9   44.69    4.87
  -2   4   9   29.77    5.40
  -2   4   9   36.33    5.24
  -2   4   9   37.31    5.25
  -2   4  10   15.24    4.48
  -2   4  10   16.52    5.57
  -2   4  10   15.31    5.13
  -2   4  10   11.80    5.16
  -2   4  11   84.59    6.99
  -2   4  11   86.23    7.50
  -2   4  11   92.90    7.84
  -2   4  11   93.97    7.60
  -2   4  12   13.37    5.59
  -2   4  12    8.58    6.01
  -2   4  12   19.34    6.65
  -2   4  12    7.65    6.49
  -2   4  13   32.52    6.98
  -2   5 -10    8.01    3.60
  -2   5  -9   -0.62    3.05
  -2   5  -8   -1.00    2.64
  -2   5  -8    0.74    3.18
  -2   5  -7   15.71    2.82
  -2   5  -7    7.60    3.20
  -2   5  -6   34.33    3.34
  -2   5  -6   31.92    3.57
  -2   5  -5  357.28   13.53
  -2   5  -4   -0.74    2.71
  -2   5  -3  141.98    6.41
  -2   5  -3  141.52    5.67
  -2   5  -3  154.74    6.74
  -2   5  -2  304.56   11.93
  -2   5  -2  307.52   11.44
  -2   5  -1  258.25   10.41
  -2   5  -1  257.22   10.08
  -2   5   0    4.12    0.74
  -2   5   0    5.20    3.05
  -2   5   1    2.03    3.19
  -2   5   1    2.43    1.34
  -2   5   1    3.29    1.50
  -2   5   2    3.72    2.08
  -2   5   2    5.14    1.90
  -2   5   3   76.87    4.03
  -2   5   3   78.37    4.33
  -2   5   3   72.63    5.24
  -2   5   4  271.10   10.57
  -2   5   4  261.00   10.83
  -2   5   4  289.89   11.83
  -2   5   5  154.31    7.40
  -2   5   5  143.74    6.85
  -2   5   6  336.73   13.19
  -2   5   6  325.97   13.54
  -2   5   7   44.52    5.40
  -2   5   7   50.58    4.69
  -2   5   7   58.79    5.28
  -2   5   8   27.67    5.28
  -2   5   8   30.57    4.77
  -2   5   8   35.86    4.66
  -2   5   9    7.94    4.35
  -2   5   9    7.09    5.15
  -2   5   9    8.12    5.14
  -2   5   9   12.07    5.05
  -2   5  10   14.87    4.92
  -2   5  10    6.56    5.69
  -2   5  10    3.56    5.43
  -2   5  10   11.56    5.42
  -2   5  11    2.18    5.34
  -2   5  11   11.18    6.58
  -2   5  11    2.87    6.28
  -2   5  11    3.17    5.97
  -2   5  12   18.00    6.69
  -2   5  12   10.03    6.62
  -2   6  -9   22.70    3.94
  -2   6  -8   14.72    3.59
  -2   6  -8   26.12    3.99
  -2   6  -7   10.79    3.40
  -2   6  -7   14.27    3.62
  -2   6  -6    8.69    3.33
  -2   6  -5   23.94    3.69
  -2   6  -4   25.70    3.93
  -2   6  -4   32.47    3.14
  -2   6  -3  374.98   14.55
  -2   6  -3  399.94   15.09
  -2   6  -3  381.21   13.74
  -2   6  -2  266.23   10.57
  -2   6  -2  247.02    9.82
  -2   6  -1  170.07    7.76
  -2   6  -1  149.59    7.06
  -2   6   0  330.93   13.39
  -2   6   1  128.08    6.90
  -2   6   1  133.09    5.09
  -2   6   1  119.95    4.85
  -2   6   2  180.35    8.65
  -2   6   2  177.14    7.08
  -2   6   3   12.67    3.94
  -2   6   3   15.74    2.74
  -2   6   3   10.74    2.74
  -2   6   4    1.63    4.06
  -2   6   4   -0.86    3.00
  -2   6   4    4.79    2.95
  -2   6   5   76.98    4.96
  -2   6   5   76.03    6.09
  -2   6   5   76.29    5.28
  -2   6   6   21.39    4.04
  -2   6   6   13.32    3.88
  -2   6   7   69.48    5.76
  -2   6   7   72.82    5.36
  -2   6   8   67.14    6.93
  -2   6   8   77.93    5.99
  -2   6   8   64.01    6.03
  -2   6   9   35.82    5.37
  -2   6   9   34.49    6.51
  -2   6   9   37.87    5.42
  -2   6  10   33.61    6.90
  -2   6  10   38.24    6.50
  -2   6  10   39.70    5.98
  -2   6  11   34.49    7.02
  -2   6  11   22.23    6.54
  -2   6  11   36.26    6.57
  -2   7  -6   16.90    4.22
  -2   7  -5   -4.20    4.20
  -2   7  -4    1.83    4.11
  -2   7  -4    2.61    3.09
  -2   7  -3   91.52    5.55
  -2   7  -3   95.37    4.28
  -2   7  -2    0.35    3.59
  -2   7  -2    0.78    2.63
  -2   7  -1   21.09    4.47
  -2   7  -1   33.97    3.85
  -2   7   0   10.56    4.15
  -2   7   1   75.96    5.73
  -2   7   2   55.42    5.50
  -2   7   2   62.67    3.72
  -2   7   2   58.17    3.10
  -2   7   3  127.89    5.82
  -2   7   3  115.01    7.56
  -2   7   3  126.69    5.94
  -2   7   4   62.43    6.20
  -2   7   4   75.71    4.76
  -2   7   4   75.68    4.78
  -2   7   5   16.57    5.03
  -2   7   5   23.53    3.84
  -2   7   5   17.36    3.77
  -2   7   6   14.69    5.55
  -2   7   6   17.43    4.18
  -2   7   6   14.98    4.06
  -2   7   7    5.59    4.19
  -2   7   7    3.13    4.62
  -2   7   8    3.11    4.86
  -2   7   8    3.58    4.65
  -2   7   9   28.56    5.86
  -2   7   9   27.31    5.43
  -2   7  10   19.01    7.30
  -2   7  10    8.72    5.43
  -2   7  10   10.77    5.64
  -2   7  11    6.36    7.10
  -2   8  -2   12.64    4.23
  -2   8  -2   10.44    3.13
  -2   8  -1   66.70    5.87
  -2   8  -1   68.57    5.25
  -2   8   0   -2.28    5.02
  -2   8   1   -0.24    4.52
  -2   8   2   24.34    5.35
  -2   8   3   32.55    5.60
  -2   8   3   33.37    2.91
  -2   8   3   32.41    2.65
  -2   8   3   30.37    3.66
  -2   8   4   20.80    5.71
  -2   8   4   21.10    3.82
  -2   8   5   68.04    7.04
  -2   8   5   61.30    4.83
  -2   8   5   62.36    5.08
  -2   8   6   59.79    7.34
  -2   8   6   46.10    4.97
  -2   8   6   61.69    5.35
  -2   8   7   59.60    5.47
  -2   8   7   56.35    5.44
  -2   8   8    6.23    5.17
  -2   8   8    5.91    4.48
  -2   8   9   22.18    6.16
  -2   8   9   13.11    5.69
  -2   8  10    8.94    6.72
  -2   8  10    7.52    6.43
  -2   9  -3    3.77    4.29
  -2   9  -2   21.33    4.82
  -2   9  -1   22.01    5.29
  -2   9  -1   17.49    4.20
  -2   9   0   18.74    4.96
  -2   9   1   15.91    5.52
  -2   9   2    1.39    5.68
  -2   9   3   12.58    5.78
  -2   9   4   13.49    6.25
  -2   9   4   11.52    3.99
  -2   9   5   -0.32    5.99
  -2   9   5    0.78    4.23
  -2   9   6   -9.82    6.46
  -2   9   6   -6.00    4.28
  -2   9   7   21.42    5.21
  -2   9   8    9.23    6.22
  -2  10  -1    5.97    5.23
  -2  10   0   20.56    6.38
  -2  10   1   -0.87    6.21
  -2  10   2   32.29    6.74
  -2  10   3   -2.22    6.72
  -2  10   4   46.92    7.95
  -2  11   1   10.43    7.90
  -1 -11  -6   13.06    6.20
  -1 -11  -5   33.79    5.64
  -1 -11  -3   20.40    6.42
  -1 -11  -3   17.04    4.92
  -1 -10  -7    1.63    5.33
  -1 -10  -6    0.81    5.27
  -1 -10  -6    6.61    5.37
  -1 -10  -6    2.43    5.07
  -1 -10  -6    5.05    5.66
  -1 -10  -5    8.32    5.55
  -1 -10  -5   13.68    5.57
  -1 -10  -5   16.06    5.19
  -1 -10  -5   11.91    4.71
  -1 -10  -4   38.32    5.99
  -1 -10  -4   50.76    6.32
  -1 -10  -4   39.20    5.82
  -1 -10  -3   25.16    5.85
  -1 -10  -3   24.12    4.48
  -1 -10  -2   33.63    5.57
  -1 -10  -2   33.76    4.35
  -1 -10  -1   49.01    4.97
  -1 -10  -1   45.79    5.87
  -1 -10   0   15.52    5.10
  -1 -10   1   -4.67    4.44
  -1 -10   1    0.60    3.75
  -1 -10   1    4.48    4.89
  -1 -10   2   14.44    5.58
  -1 -10   2    9.49    3.67
  -1 -10   3   -0.78    5.77
  -1 -10   3    2.40    3.54
  -1 -10   3   -4.01    3.94
  -1 -10   4   -4.21    5.80
  -1 -10   4    4.39    4.12
  -1  -9  -9   62.31    7.45
  -1  -9  -9   43.92    6.37
  -1  -9  -8   58.66    6.78
  -1  -9  -8   63.01    7.27
  -1  -9  -7   55.44    6.39
  -1  -9  -7   64.10    6.27
  -1  -9  -7   55.78    5.78
  -1  -9  -6   56.56    6.06
  -1  -9  -6   59.64    6.17
  -1  -9  -6   49.40    6.23
  -1  -9  -6   67.56    6.13
  -1  -9  -5   17.49    4.93
  -1  -9  -5   25.24    5.25
  -1  -9  -5   25.94    4.52
  -1  -9  -5   19.00    5.41
  -1  -9  -4    5.77    4.22
  -1  -9  -4   12.96    4.98
  -1  -9  -4    0.70    4.60
  -1  -9  -4    4.44    4.31
  -1  -9  -3    6.63    4.01
  -1  -9  -3    4.42    4.17
  -1  -9  -2   19.79    4.78
  -1  -9  -2   24.67    3.81
  -1  -9  -1    9.39    4.40
  -1  -9  -1   16.97    3.80
  -1  -9  -1   20.18    4.41
  -1  -9   0   90.89    5.37
  -1  -9   0   80.84    6.31
  -1  -9   1   66.42    4.70
  -1  -9   1   57.69    5.86
  -1  -9   2   54.30    5.56
  -1  -9   2   58.34    4.51
  -1  -9   3   22.16    5.10
  -1  -9   3   21.56    4.93
  -1  -9   4   10.24    5.00
  -1  -9   4    3.77    4.92
  -1  -9   5   -0.14    3.55
  -1  -9   5   -0.49    4.91
  -1  -9   6    4.24    3.88
  -1  -8 -11    0.85    6.21
  -1  -8 -10   11.74    5.97
  -1  -8 -10    5.03    6.09
  -1  -8 -10   17.86    6.39
  -1  -8  -9    8.13    5.81
  -1  -8  -9    3.03    5.55
  -1  -8  -9   -0.82    5.66
  -1  -8  -9    4.92    5.52
  -1  -8  -8   14.29    5.47
  -1  -8  -8   17.27    5.24
  -1  -8  -8   14.05    4.91
  -1  -8  -8   14.53    5.20
  -1  -8  -7   42.91    5.52
  -1  -8  -7   44.09    5.52
  -1  -8  -7   47.40    5.36
  -1  -8  -6  101.00    6.86
  -1  -8  -6  113.34    6.88
  -1  -8  -6  101.30    6.81
  -1  -8  -5  100.29    6.13
  -1  -8  -5   89.00    6.27
  -1  -8  -5   97.52    6.36
  -1  -8  -5   94.88    6.41
  -1  -8  -4  126.80    7.25
  -1  -8  -4  132.57    6.87
  -1  -8  -4  131.08    7.18
  -1  -8  -4  107.75    6.88
  -1  -8  -3  107.55    6.67
  -1  -8  -3  115.67    6.25
  -1  -8  -3  115.97    6.62
  -1  -8  -2   66.57    5.25
  -1  -8  -2   70.98    4.57
  -1  -8  -1    7.25    3.37
  -1  -8  -1    4.59    3.58
  -1  -8   0    3.69    3.30
  -1  -8   0    5.36    3.19
  -1  -8   0    4.24    3.69
  -1  -8   1    4.89    3.62
  -1  -8   1   -0.98    2.95
  -1  -8   2   23.78    4.27
  -1  -8   2   24.36    3.43
  -1  -8   2   15.43    4.14
  -1  -8   3   19.96    4.46
  -1  -8   3   25.27    3.48
  -1  -8   3   18.07    4.22
  -1  -8   4   67.99    5.82
  -1  -8   4   77.74    4.84
  -1  -8   4   72.92    6.03
  -1  -8   5   54.04    5.52
  -1  -8   5   52.79    4.29
  -1  -8   5   53.53    5.57
  -1  -8   7    6.42    5.21
  -1  -8   8    6.62    5.55
  -1  -7 -12   22.00    6.41
  -1  -7 -11   96.63    7.58
  -1  -7 -11  104.44    8.44
  -1  -7 -11   99.84    7.79
  -1  -7 -10   51.83    6.58
  -1  -7 -10   61.19    6.53
  -1  -7  -9   89.30    7.01
  -1  -7  -9  108.06    7.41
  -1  -7  -9  108.71    7.05
  -1  -7  -8  119.94    7.59
  -1  -7  -8  110.64    7.32
  -1  -7  -8  133.19    7.48
  -1  -7  -7   24.99    4.45
  -1  -7  -7   15.75    4.59
  -1  -7  -7   20.31    4.53
  -1  -7  -6   12.60    3.97
  -1  -7  -6   21.07    4.32
  -1  -7  -6   19.56    4.40
  -1  -7  -5   33.70    4.34
  -1  -7  -5   33.13    4.30
  -1  -7  -5   30.05    3.99
  -1  -7  -4   58.17    4.64
  -1  -7  -4   60.71    4.75
  -1  -7  -4   54.37    4.34
  -1  -7  -4   60.05    4.96
  -1  -7  -3  219.97    9.03
  -1  -7  -3  204.06    9.32
  -1  -7  -3  206.20    9.22
  -1  -7  -2  263.63   10.36
  -1  -7  -2  241.47   10.53
  -1  -7  -1  354.30   14.32
  -1  -7  -1  377.79   13.94
  -1  -7   0  412.34   16.20
  -1  -7   0  439.73   15.85
  -1  -7   1   91.61    5.70
  -1  -7   1  106.66    5.15
  -1  -7   2   41.28    2.38
  -1  -7   2   33.16    4.20
  -1  -7   2   37.02    3.32
  -1  -7   2   36.10    3.96
  -1  -7   3    4.79    1.64
  -1  -7   3    5.85    3.54
  -1  -7   3    0.19    3.27
  -1  -7   3    6.88    2.83
  -1  -7   4   23.75    3.32
  -1  -7   4   24.21    2.28
  -1  -7   4   18.58    4.14
  -1  -7   4   26.38    4.17
  -1  -7   5    3.66    4.05
  -1  -7   5   -0.58    3.79
  -1  -7   5    7.07    2.25
  -1  -7   6   16.45    4.54
  -1  -7   6   23.11    2.79
  -1  -7   7   39.04    3.72
  -1  -7   7   37.28    5.24
  -1  -7   8   35.24    4.12
  -1  -7   8   30.29    5.73
  -1  -7   9    7.09    3.96
  -1  -7   9    9.26    5.95
  -1  -6 -13    1.39    5.93
  -1  -6 -12    9.02    6.91
  -1  -6 -12    9.53    5.74
  -1  -6 -11    3.07    5.64
  -1  -6 -11   -3.25    5.26
  -1  -6 -11    3.20    5.49
  -1  -6 -10   51.06    5.98
  -1  -6 -10   58.44    6.21
  -1  -6  -9  172.14    8.89
  -1  -6  -9  168.42    8.94
  -1  -6  -8  168.87    8.35
  -1  -6  -8  151.14    8.02
  -1  -6  -8  158.19    8.15
  -1  -6  -7  330.94   12.98
  -1  -6  -7  311.65   12.90
  -1  -6  -7  288.89   12.86
  -1  -6  -6   10.64    3.47
  -1  -6  -6   11.79    3.55
  -1  -6  -6   18.52    3.96
  -1  -6  -5  447.28   16.83
  -1  -6  -5  425.77   16.45
  -1  -6  -4   66.69    4.46
  -1  -6  -4   73.26    4.59
  -1  -6  -3   14.11    2.94
  -1  -6  -3   14.39    2.70
  -1  -6  -3   14.28    2.92
  -1  -6  -2  103.15    5.25
  -1  -6  -2   95.81    4.92
  -1  -6  -2   94.83    5.20
  -1  -6  -1   85.37    4.29
  -1  -6  -1   75.44    4.57
  -1  -6   0   50.33    3.20
  -1  -6   0   55.07    3.62
  -1  -6   1  474.11   16.72
  -1  -6   1  460.18   17.65
  -1  -6   1  481.39   17.15
  -1  -6   2   96.35    4.21
  -1  -6   2   97.65    5.38
  -1  -6   2  102.80    5.65
  -1  -6   2  107.46    4.81
  -1  -6   3  278.28   11.47
  -1  -6   3  291.55   10.48
  -1  -6   3  278.99   11.64
  -1  -6   4  312.39   13.16
  -1  -6   4  334.32   12.05
  -1  -6   4  328.60   13.01
  -1  -6   5    8.95    3.70
  -1  -6   5    8.67    2.38
  -1  -6   5   10.24    3.68
  -1  -6   6   46.02    5.03
  -1  -6   6   52.50    3.65
  -1  -6   7    8.20    4.45
  -1  -6   7    5.59    3.15
  -1  -6   8    1.53    3.46
  -1  -6   8    2.75    4.60
  -1  -6   9   12.13    5.60
  -1  -6  10    7.57    6.10
  -1  -6  10   11.70    4.28
  -1  -6  11   -6.23    3.63
  -1  -5 -14   50.40    6.77
  -1  -5 -13   52.98    7.04
  -1  -5 -12   81.14    7.69
  -1  -5 -12   86.79    7.19
  -1  -5 -11   48.47    6.55
  -1  -5 -11   41.40    5.62
  -1  -5 -11   43.07    5.98
  -1  -5 -10   62.94    6.15
  -1  -5 -10   66.13    5.73
  -1  -5 -10   63.14    6.04
  -1  -5  -9   37.93    4.97
  -1  -5  -9   29.35    4.61
  -1  -5  -9   32.62    4.80
  -1  -5  -8   -0.44    4.06
  -1  -5  -8   -1.75    3.59
  -1  -5  -8    1.27    3.62
  -1  -5  -7   68.34    4.86
  -1  -5  -7   74.07    4.91
  -1  -5  -6  223.29    9.24
  -1  -5  -6  220.46    9.26
  -1  -5  -6  202.75    9.18
  -1  -5  -5  994.32   35.44
  -1  -5  -5  989.15   35.53
  -1  -5  -5 1026.43   35.60
  -1  -5  -4  467.60   17.28
  -1  -5  -4  457.63   17.06
  -1  -5  -3  699.90   26.71
  -1  -5  -3  776.23   26.84
  -1  -5  -3  776.12   26.67
  -1  -5  -2  881.52   30.60
  -1  -5  -2  845.60   30.57
  -1  -5  -2  868.19   30.40
  -1  -5  -1  844.25   29.59
  -1  -5  -1  832.66   29.38
  -1  -5   0   49.55    2.55
  -1  -5   0   50.73    3.10
  -1  -5   0   44.73    2.95
  -1  -5   1   60.80    2.87
  -1  -5   1   55.79    3.19
  -1  -5   2   41.82    3.14
  -1  -5   2   39.17    3.35
  -1  -5   2   37.47    2.21
  -1  -5   3  306.61   12.13
  -1  -5   3  312.20   11.96
  -1  -5   3  308.56   11.27
  -1  -5   4   89.45    5.27
  -1  -5   4   91.17    5.07
  -1  -5   4  100.17    4.41
  -1  -5   5  218.02    9.60
  -1  -5   5  225.12    8.93
  -1  -5   6   93.95    5.85
  -1  -5   6  100.46    5.15
  -1  -5   7   92.84    6.32
  -1  -5   7   91.25    5.40
  -1  -5   8   15.52    4.69
  -1  -5   8   23.75    3.69
  -1  -5   9   10.51    3.79
  -1  -5   9   13.33    4.77
  -1  -5  10    2.57    4.35
  -1  -5  10  -11.83    4.13
  -1  -5  10   -3.57    5.56
  -1  -5  11   -3.25    5.72
  -1  -5  11   -6.12    4.41
  -1  -5  11    6.85    4.99
  -1  -5  12   12.16    5.47
  -1  -5  12   10.12    3.81
  -1  -4 -13   10.40    6.60
  -1  -4 -13   16.59    5.75
  -1  -4 -12   60.37    6.00
  -1  -4 -12   74.42    7.18
  -1  -4 -11   71.02    6.53
  -1  -4 -11   65.44    5.73
  -1  -4 -10  398.31   15.95
  -1  -4 -10  415.01   16.78
  -1  -4  -9  195.68    8.78
  -1  -4  -9  178.72    9.24
  -1  -4  -8   34.53    4.26
  -1  -4  -8   41.77    4.17
  -1  -4  -7   24.12    3.61
  -1  -4  -7   26.80    3.37
  -1  -4  -7   19.17    3.34
  -1  -4  -6    3.08    2.86
  -1  -4  -6    9.44    2.73
  -1  -4  -6    5.73    2.60
  -1  -4  -5  202.34    8.52
  -1  -4  -5  216.60    8.62
  -1  -4  -4 2771.14   92.18
  -1  -4  -4 2533.46   92.09
  -1  -4  -4 2765.88   92.15
  -1  -4  -3   10.70    2.12
  -1  -4  -3   32.76    2.33
  -1  -4  -2 1210.24   40.76
  -1  -4  -2 1198.46   40.63
  -1  -4  -2 1109.23   40.69
  -1  -4  -1  809.19   26.77
  -1  -4  -1  780.94   26.88
  -1  -4  -1  791.26   27.04
  -1  -4   0 1118.89   38.78
  -1  -4   0 1119.97   38.49
  -1  -4   0 1119.68   38.67
  -1  -4   1  412.54   14.74
  -1  -4   1  410.83   14.55
  -1  -4   2  341.03   12.83
  -1  -4   2  350.08   12.42
  -1  -4   3  578.29   22.19
  -1  -4   3  614.99   22.05
  -1  -4   3  644.06   21.74
  -1  -4   4   37.22    3.04
  -1  -4   4   36.20    3.16
  -1  -4   4   35.51    2.66
  -1  -4   5   17.86    2.95
  -1  -4   5   16.80    2.59
  -1  -4   6   50.74    3.64
  -1  -4   6   44.28    4.01
  -1  -4   7  333.96   13.79
  -1  -4   7  348.14   13.53
  -1  -4   8   12.71    3.94
  -1  -4   8   14.10    4.16
  -1  -4   9  111.58    7.09
  -1  -4   9  104.23    6.77
  -1  -4  10   17.26    5.21
  -1  -4  10   16.44    4.66
  -1  -4  10   18.22    4.52
  -1  -4  11    8.18    5.53
  -1  -4  11    7.99    4.81
  -1  -4  11    4.87    4.93
  -1  -4  12    7.02    6.55
  -1  -4  12   -0.28    5.97
  -1  -4  12   10.07    4.55
  -1  -4  13   26.57    5.79
  -1  -4  13   -0.61    6.66
  -1  -3 -13    4.64    6.66
  -1  -3 -13    2.48    4.48
  -1  -3 -12   22.07    6.10
  -1  -3 -12   25.27    4.61
  -1  -3 -11   11.67    3.54
  -1  -3 -11    6.72    4.84
  -1  -3 -11   11.00    4.03
  -1  -3 -10    4.64    3.64
  -1  -3 -10    1.42    4.09
  -1  -3 -10    4.73    3.06
  -1  -3  -9   82.84    5.06
  -1  -3  -9   83.83    5.94
  -1  -3  -9   79.30    5.75
  -1  -3  -9   88.77    4.73
  -1  -3  -8  239.94    9.50
  -1  -3  -8  245.99    9.88
  -1  -3  -8  231.66   10.31
  -1  -3  -7 1110.17   38.91
  -1  -3  -7 1148.70   39.20
  -1  -3  -7 1088.70   39.54
  -1  -3  -6 1377.61   46.43
  -1  -3  -6 1284.13   46.67
  -1  -3  -5  805.32   27.50
  -1  -3  -5  747.92   27.64
  -1  -3  -4  372.56   13.21
  -1  -3  -4  341.39   13.33
  -1  -3  -3 1239.85   43.23
  -1  -3  -3 1115.36   43.26
  -1  -3  -2  372.98   12.85
  -1  -3  -2  336.79   12.77
  -1  -3  -1  384.08   13.16
  -1  -3  -1  370.70   13.24
  -1  -3  -1  382.67   13.33
  -1  -3  -1  343.27   13.26
  -1  -3   0  615.20   21.32
  -1  -3   0  611.57   21.41
  -1  -3   1  545.69   19.03
  -1  -3   2  594.37   20.79
  -1  -3   3 1645.64   56.81
  -1  -3   3 1655.28   56.71
  -1  -3   4  140.95    6.01
  -1  -3   5  363.32   13.42
  -1  -3   5  339.54   13.38
  -1  -3   6   27.86    3.14
  -1  -3   6   26.69    1.83
  -1  -3   6   30.08    3.20
  -1  -3   7  200.76    8.75
  -1  -3   7  189.34    8.63
  -1  -3   7  194.26    7.33
  -1  -3   8   17.65    3.72
  -1  -3   8   14.73    3.59
  -1  -3   8   14.98    2.04
  -1  -3   9    3.72    4.17
  -1  -3   9   -1.32    3.90
  -1  -3   9    2.03    3.77
  -1  -3   9    4.04    2.12
  -1  -3  10   83.21    6.46
  -1  -3  10   77.21    6.05
  -1  -3  10   78.21    6.14
  -1  -3  10   72.87    4.06
  -1  -3  11   45.37    5.82
  -1  -3  11   47.93    3.52
  -1  -3  11   49.57    6.38
  -1  -3  11   44.15    5.52
  -1  -3  12   32.62    6.60
  -1  -3  12   33.79    5.80
  -1  -3  12   27.26    5.76
  -1  -3  13   19.76    5.69
  -1  -3  13    4.19    6.30
  -1  -2 -13  102.25    6.18
  -1  -2 -13  110.17    8.55
  -1  -2 -12   37.61    4.37
  -1  -2 -12   46.48    3.91
  -1  -2 -12   42.35    5.97
  -1  -2 -11  170.60    9.19
  -1  -2 -11  168.59    7.51
  -1  -2 -11  178.36    7.97
  -1  -2 -10   96.66    6.51
  -1  -2 -10   97.10    5.02
  -1  -2 -10   94.07    5.45
  -1  -2  -9  127.09    7.21
  -1  -2  -9  128.14    5.98
  -1  -2  -8    9.90    3.17
  -1  -2  -8    6.19    2.99
  -1  -2  -8    9.62    2.57
  -1  -2  -8    6.51    2.07
  -1  -2  -7   44.07    2.72
  -1  -2  -7   34.79    3.48
  -1  -2  -7   37.06    3.52
  -1  -2  -7   36.44    2.85
  -1  -2  -6  544.86   18.84
  -1  -2  -6  537.54   19.04
  -1  -2  -6  503.32   19.33
  -1  -2  -6  532.13   19.40
  -1  -2  -5 1309.74   43.89
  -1  -2  -5 1266.32   43.67
  -1  -2  -5 1225.18   44.09
  -1  -2  -4 1973.11   65.98
  -1  -2  -4 1871.22   66.11
  -1  -2  -3   31.50    1.95
  -1  -2  -3   33.49    2.01
  -1  -2  -2 9823.57  332.90
  -1  -2  -1  516.86   17.52
  -1  -2  -1  488.23   17.55
  -1  -2   0 1341.70   49.90
  -1  -2   0 1583.97   49.92
  -1  -2   1    3.59    0.85
  -1  -2   2   15.30    1.33
  -1  -2   3  342.09   12.61
  -1  -2   3  347.40   12.14
  -1  -2   4  990.94   36.17
  -1  -2   4 1057.91   35.59
  -1  -2   5  420.34   15.95
  -1  -2   5  433.06   15.19
  -1  -2   6 1113.07   40.18
  -1  -2   6 1155.41   39.41
  -1  -2   7  162.42    7.90
  -1  -2   7  183.15    7.09
  -1  -2   7  178.31    8.13
  -1  -2   8   77.79    5.25
  -1  -2   8   69.02    5.32
  -1  -2   8   86.66    4.27
  -1  -2   9   51.31    4.98
  -1  -2   9   56.50    3.84
  -1  -2   9   55.99    4.94
  -1  -2  10    1.25    4.45
  -1  -2  10   -4.53    4.04
  -1  -2  10    3.48    4.13
  -1  -2  10    1.35    2.75
  -1  -2  11   15.26    4.95
  -1  -2  11   10.32    5.15
  -1  -2  11   15.63    5.09
  -1  -2  11   12.11    3.30
  -1  -2  12    0.83    5.45
  -1  -2  12   -0.74    5.28
  -1  -2  12    5.94    3.76
  -1  -2  12   -4.89    5.74
  -1  -2  13    4.01    6.90
  -1  -2  13    0.27    5.87
  -1  -1 -13   15.22    3.60
  -1  -1 -13   17.88    6.45
  -1  -1 -12   15.90    3.18
  -1  -1 -12   20.78    5.29
  -1  -1 -12   20.65    3.55
  -1  -1 -11   35.59    3.30
  -1  -1 -11   40.98    3.85
  -1  -1 -11   36.69    5.37
  -1  -1 -10   49.56    5.06
  -1  -1 -10   52.17    3.47
  -1  -1 -10   53.01    3.72
  -1  -1  -9  612.60   22.30
  -1  -1  -9  602.62   21.35
  -1  -1  -9  583.76   21.17
  -1  -1  -8  647.17   22.75
  -1  -1  -8  633.51   22.91
  -1  -1  -8  667.85   23.74
  -1  -1  -7  731.70   26.51
  -1  -1  -7  738.33   26.49
  -1  -1  -7  721.47   25.74
  -1  -1  -7  761.83   25.90
  -1  -1  -6  189.07    6.82
  -1  -1  -6  164.18    6.55
  -1  -1  -6  170.63    7.28
  -1  -1  -6  172.08    7.28
  -1  -1  -5   39.65    2.72
  -1  -1  -5   44.22    2.25
  -1  -1  -5   37.71    2.00
  -1  -1  -5   40.65    2.73
  -1  -1  -4  187.37    7.26
  -1  -1  -4  188.46    7.04
  -1  -1  -4  184.36    7.28
  -1  -1  -4  192.06    6.82
  -1  -1  -3  390.97   13.41
  -1  -1  -3  369.62   13.54
  -1  -1  -3  377.78   13.51
  -1  -1  -2 1609.27   51.15
  -1  -1  -2 1572.63   51.01
  -1  -1  -2 1524.98   51.15
  -1  -1   2 2399.72   87.87
  -1  -1   2 2700.76   87.66
  -1  -1   3  268.22    9.39
  -1  -1   3  246.98    9.70
  -1  -1   4   17.69    1.95
  -1  -1   5  270.47   10.62
  -1  -1   6    8.50    2.33
  -1  -1   7   25.45    3.41
  -1  -1   8  369.95   14.85
  -1  -1   8  374.04   14.54
  -1  -1   9   61.93    4.98
  -1  -1   9   68.11    5.21
  -1  -1   9   55.12    5.27
  -1  -1  10  292.31   12.67
  -1  -1  10  293.15   13.05
  -1  -1  10  303.97   12.88
  -1  -1  11   29.85    5.64
  -1  -1  11   20.00    4.56
  -1  -1  11   25.93    4.98
  -1  -1  12   27.93    5.68
  -1  -1  12   11.85    5.37
  -1  -1  12   24.56    6.35
  -1  -1  13   -5.74    5.58
  -1  -1  13    2.75    5.45
  -1  -1  13    0.57    3.94
  -1  -1  13    0.34    6.16
  -1   0 -13   41.10    6.80
  -1   0 -12    0.55    2.53
  -1   0 -12   -2.92    4.77
  -1   0 -11    4.99    2.50
  -1   0 -11    6.62    4.84
  -1   0 -10  238.46    9.33
  -1   0 -10  243.73    9.23
  -1   0 -10  247.69   10.78
  -1   0  -9  146.92    7.14
  -1   0  -9  138.52    5.65
  -1   0  -9  129.05    5.61
  -1   0  -8  122.17    6.33
  -1   0  -8  129.05    5.18
  -1   0  -7 1182.62   41.55
  -1   0  -7 1187.07   40.76
  -1   0  -6  542.24   19.55
  -1   0  -6  517.29   19.50
  -1   0  -6  552.58   18.88
  -1   0  -5 1311.71   43.90
  -1   0  -5 1236.49   43.86
  -1   0  -5 1264.15   43.39
  -1   0  -4 1190.14   40.00
  -1   0  -4 1147.53   39.99
  -1   0  -4 1134.02   39.46
  -1   0  -4 1196.69   39.64
  -1   0  -3 1057.02   36.09
  -1   0  -3 1044.20   36.10
  -1   0  -2  236.26    8.48
  -1   0  -2  241.23    8.42
  -1   0  -1  941.40   32.93
  -1   0  -1  977.13   32.82
  -1   0   2  748.91   25.19
  -1   0   2  708.52   25.22
  -1   0   3 2579.32   87.28
  -1   0   3 2539.51   87.24
  -1   0   4 2363.79   82.33
  -1   0   4 2443.89   82.23
  -1   0   5  636.41   22.47
  -1   0   6  508.77   18.30
  -1   0   7    4.74    2.11
  -1   0   7    1.61    2.58
  -1   0   8    5.86    2.35
  -1   0   8    3.51    2.94
  -1   0   9   11.59    3.91
  -1   0   9    5.25    3.49
  -1   0   9   11.61    2.95
  -1   0  10    4.39    4.27
  -1   0  10    4.16    4.04
  -1   0  10    2.62    3.22
  -1   0  11   28.58    5.64
  -1   0  11   29.63    3.94
  -1   0  11   31.40    5.26
  -1   0  12   26.23    5.51
  -1   0  12   35.88    6.40
  -1   0  12   28.96    5.76
  -1   0  13   19.03    6.46
  -1   0  13   20.73    5.75
  -1   0  13   22.87    6.45
  -1   1 -12   25.55    3.48
  -1   1 -12   17.27    5.27
  -1   1 -12   14.04    2.48
  -1   1 -11   56.15    4.06
  -1   1 -11   50.45    3.31
  -1   1 -10  262.39   10.97
  -1   1 -10  240.08    9.75
  -1   1  -9  171.96    7.04
  -1   1  -9  163.62    7.93
  -1   1  -8   22.92    2.44
  -1   1  -8   23.71    3.55
  -1   1  -7    0.64    2.54
  -1   1  -7    3.33    1.65
  -1   1  -6  108.02    4.94
  -1   1  -6  103.16    4.30
  -1   1  -5  255.74    9.41
  -1   1  -5  243.12    8.89
  -1   1  -4  708.12   24.91
  -1   1  -4  717.62   24.55
  -1   1  -3 2315.44   76.94
  -1   1  -3 2253.00   76.67
  -1   1  -3 2218.58   76.87
  -1   1  -2   23.77    1.22
  -1   1  -2   21.33    1.04
  -1   1  -2   22.36    1.12
  -1   1  -2   25.42    1.06
  -1   1  -1  491.62   16.83
  -1   1  -1  485.02   16.83
  -1   1   0 1552.32   53.10
  -1   1   0 1601.82   53.06
  -1   1   0 1522.47   52.95
  -1   1   1 2461.46   83.80
  -1   1   2  103.43    4.38
  -1   1   2  111.55    4.18
  -1   1   3  287.10   10.92
  -1   1   3  305.13   10.77
  -1   1   4   26.60    2.17
  -1   1   4   21.76    2.02
  -1   1   4   24.94    2.19
  -1   1   5  291.75   10.65
  -1   1   5  268.60   10.67
  -1   1   6  405.44   15.37
  -1   1   6  420.27   15.32
  -1   1   7  558.54   19.33
  -1   1   7  492.86   19.26
  -1   1   8  279.69   11.19
  -1   1  10  105.03    6.51
  -1   1  10   97.55    6.02
  -1   1  11    8.74    4.59
  -1   1  11    8.52    4.58
  -1   1  11    5.06    4.18
  -1   1  12    6.70    5.42
  -1   1  12    1.96    4.06
  -1   1  12   -3.88    5.27
  -1   1  13   18.17    6.21
  -1   1  13    8.16    5.55
  -1   1  13   14.46    4.72
  -1   2 -13   -1.02    5.62
  -1   2 -13    0.70    3.58
  -1   2 -12   28.41    3.74
  -1   2 -12   34.70    5.75
  -1   2 -11   67.33    5.98
  -1   2 -10  176.12    8.79
  -1   2 -10  174.42    7.46
  -1   2  -9  157.79    6.64
  -1   2  -9  147.74    7.50
  -1   2  -8  332.16   12.26
  -1   2  -7  368.72   14.02
  -1   2  -7  370.28   13.39
  -1   2  -6  197.73    7.98
  -1   2  -6  193.94    7.42
  -1   2  -5  366.30   13.42
  -1   2  -5  365.43   13.02
  -1   2  -4  124.47    5.04
  -1   2  -4  119.89    4.69
  -1   2  -3   59.95    2.80
  -1   2  -3   62.95    2.62
  -1   2  -2 1703.11   58.94
  -1   2  -2 1686.08   59.02
  -1   2  -2 1815.54   59.06
  -1   2  -1 4671.59  165.20
  -1   2  -1 4947.98  165.56
  -1   2  -1 5230.25  165.62
  -1   2  -1 5017.44  165.43
  -1   2   0 4097.50  137.33
  -1   2   0 4015.50  136.93
  -1   2   1 1120.04   37.86
  -1   2   1 1100.48   38.01
  -1   2   1 1095.13   38.29
  -1   2   2 1856.37   67.38
  -1   2   2 1986.35   67.25
  -1   2   2 2059.14   67.32
  -1   2   3 1529.94   52.49
  -1   2   3 1528.11   52.49
  -1   2   4  290.14   10.75
  -1   2   4  296.60   10.83
  -1   2   4  277.71   10.96
  -1   2   5   20.11    2.38
  -1   2   5   16.48    2.15
  -1   2   5   17.82    2.39
  -1   2   6   38.48    3.42
  -1   2   6   51.89    3.59
  -1   2   6   49.94    3.30
  -1   2   7  209.92    9.09
  -1   2   7  224.77    9.25
  -1   2   7  211.80    8.98
  -1   2   8   59.46    4.52
  -1   2   8   62.20    4.46
  -1   2   8   61.42    4.70
  -1   2   9  127.43    6.96
  -1   2   9  124.96    6.73
  -1   2  10  177.78    8.43
  -1   2  10  165.23    8.53
  -1   2  11   53.65    5.42
  -1   2  12   34.97    5.07
  -1   2  13   43.28    5.76
  -1   2  13   40.44    6.45
  -1   3 -13    3.08    5.70
  -1   3 -12   29.80    4.09
  -1   3 -12   29.78    5.63
  -1   3 -11   16.46    4.96
  -1   3 -11   14.53    3.29
  -1   3 -10    6.76    2.92
  -1   3 -10    7.15    4.23
  -1   3  -9   22.33    3.88
  -1   3  -9   26.71    3.07
  -1   3  -8   39.50    4.15
  -1   3  -8   37.21    3.20
  -1   3  -7   81.10    4.78
  -1   3  -7   81.02    4.11
  -1   3  -6  418.17   15.27
  -1   3  -6  433.57   15.79
  -1   3  -5  422.63   14.90
  -1   3  -5  390.93   14.46
  -1   3  -4  588.85   20.71
  -1   3  -4  575.83   20.42
  -1   3  -3    6.49    0.95
  -1   3  -3    6.41    1.46
  -1   3  -3    6.61    1.35
  -1   3  -2   56.52    2.87
  -1   3  -2   60.00    2.96
  -1   3  -2   62.42    2.76
  -1   3  -2   58.65    2.43
  -1   3  -1  704.75   24.60
  -1   3  -1  698.28   24.47
  -1   3   0   18.82    1.73
  -1   3   0   18.98    1.03
  -1   3   0   16.85    1.83
  -1   3   0   16.91    0.93
  -1   3   1   83.69    3.37
  -1   3   1   83.79    3.98
  -1   3   1   83.81    3.43
  -1   3   2  629.27   21.75
  -1   3   2  614.85   22.23
  -1   3   3  407.39   14.65
  -1   3   4  302.32   11.42
  -1   3   4  309.18   11.49
  -1   3   5 1125.65   38.88
  -1   3   5 1052.89   39.15
  -1   3   5 1147.20   38.86
  -1   3   6  139.42    6.44
  -1   3   6  146.69    6.74
  -1   3   6  135.76    6.27
  -1   3   7  300.87   11.60
  -1   3   7  274.05   11.82
  -1   3   7  284.79   11.37
  -1   3   8   -2.37    3.51
  -1   3   8    0.16    3.08
  -1   3   8    2.61    3.33
  -1   3   9   26.86    4.28
  -1   3   9   24.91    3.96
  -1   3   9   26.71    4.33
  -1   3  10   23.13    4.22
  -1   3  10   24.00    4.62
  -1   3  10   22.42    4.52
  -1   3  11   58.52    5.53
  -1   3  11   56.00    5.95
  -1   3  11   60.39    5.89
  -1   3  12   12.00    5.11
  -1   3  12    9.38    4.75
  -1   3  12   10.98    5.70
  -1   3  13   20.51    5.87
  -1   3  13   24.65    6.58
  -1   3  14    3.14    6.80
  -1   4 -12   15.64    5.29
  -1   4 -12   14.46    3.67
  -1   4 -11   58.83    4.76
  -1   4 -11   49.52    5.77
  -1   4 -10   36.82    4.86
  -1   4 -10   39.24    3.90
  -1   4  -9   65.17    5.24
  -1   4  -9   66.28    4.31
  -1   4  -8   33.10    3.36
  -1   4  -8   34.14    3.94
  -1   4  -7   55.01    4.35
  -1   4  -7   48.98    3.57
  -1   4  -6  103.44    4.91
  -1   4  -5   52.54    3.12
  -1   4  -4  208.45    7.22
  -1   4  -4  196.83    7.42
  -1   4  -3 1007.65   35.90
  -1   4  -3 1064.78   36.18
  -1   4  -3 1067.83   36.29
  -1   4  -2 3224.68  108.90
  -1   4  -2 3200.97  108.64
  -1   4  -2 3088.99  108.32
  -1   4  -2 3326.90  108.81
  -1   4  -1  910.99   31.70
  -1   4  -1  896.10   31.51
  -1   4   0  288.20   11.03
  -1   4   0  284.60   10.10
  -1   4   0  286.80   10.79
  -1   4   1  617.31   20.84
  -1   4   1  588.03   20.85
  -1   4   1  602.49   21.67
  -1   4   1  582.30   21.53
  -1   4   2  160.49    6.89
  -1   4   2  159.13    6.26
  -1   4   3   33.94    3.07
  -1   4   3   32.41    3.05
  -1   4   4   26.07    3.13
  -1   4   4   29.15    2.69
  -1   4   5  375.18   14.98
  -1   4   5  404.02   14.70
  -1   4   6  309.97   12.48
  -1   4   6  314.09   12.89
  -1   4   6  335.57   12.57
  -1   4   7  207.80    9.31
  -1   4   7  209.70    9.55
  -1   4   7  218.92    9.19
  -1   4   8  414.93   15.88
  -1   4   8  391.09   16.07
  -1   4   8  394.13   15.57
  -1   4   9  146.37    7.81
  -1   4   9  140.53    8.26
  -1   4   9  147.92    7.57
  -1   4  10   66.37    6.55
  -1   4  10   69.63    5.98
  -1   4  10   79.85    5.71
  -1   4  11    5.69    4.79
  -1   4  11    6.92    5.23
  -1   4  11    5.44    5.10
  -1   4  12   61.71    6.36
  -1   4  12   51.54    6.35
  -1   4  12   47.62    6.52
  -1   4  13    4.29    6.39
  -1   5 -11   17.48    4.07
  -1   5 -10   15.26    3.72
  -1   5  -9   30.77    3.73
  -1   5  -8   37.24    3.85
  -1   5  -7   76.96    4.73
  -1   5  -6  187.41    8.09
  -1   5  -6  192.97    7.82
  -1   5  -5    7.68    2.54
  -1   5  -5    3.74    2.62
  -1   5  -4   13.29    1.74
  -1   5  -4   16.60    2.50
  -1   5  -3   36.59    2.62
  -1   5  -3   41.22    3.09
  -1   5  -3   32.89    1.62
  -1   5  -2   41.35    3.10
  -1   5  -2   41.69    2.92
  -1   5  -1  152.24    6.97
  -1   5  -1  160.79    6.73
  -1   5   0  121.75    5.72
  -1   5   0  127.25    6.07
  -1   5   1  533.01   19.14
  -1   5   1  568.87   20.19
  -1   5   1  565.61   19.98
  -1   5   1  538.69   18.96
  -1   5   2  451.55   16.30
  -1   5   2  451.77   17.02
  -1   5   2  459.75   16.23
  -1   5   3  257.27   10.24
  -1   5   3  243.65    9.69
  -1   5   3  258.65   10.43
  -1   5   4  150.34    7.34
  -1   5   4  154.41    7.47
  -1   5   4  165.17    6.84
  -1   5   5  115.57    6.35
  -1   5   5  121.60    5.87
  -1   5   6   51.52    4.57
  -1   5   6   55.62    4.27
  -1   5   7    1.34    3.59
  -1   5   7    2.98    3.47
  -1   5   8   63.42    5.63
  -1   5   8   59.93    5.24
  -1   5   9   21.22    4.92
  -1   5   9   18.88    4.79
  -1   5  10  111.21    8.04
  -1   5  10  127.26    7.92
  -1   5  11   34.94    5.73
  -1   5  11   28.99    6.11
  -1   5  11   35.78    6.04
  -1   5  12    9.19    5.81
  -1   5  12    8.75    6.86
  -1   5  12   17.49    6.56
  -1   5  13   20.28    6.65
  -1   6 -10    3.40    3.90
  -1   6  -9   12.51    3.30
  -1   6  -9    8.04    3.91
  -1   6  -8   20.34    3.39
  -1   6  -8   17.95    3.83
  -1   6  -7   51.62    4.04
  -1   6  -7   58.32    4.65
  -1   6  -6  139.80    6.95
  -1   6  -6  133.44    6.44
  -1   6  -5   20.23    1.88
  -1   6  -5   27.06    3.44
  -1   6  -5   27.48    3.84
  -1   6  -4  684.31   24.15
  -1   6  -4  692.13   24.45
  -1   6  -4  644.30   23.60
  -1   6  -3  457.25   15.92
  -1   6  -3  457.06   16.02
  -1   6  -3  439.94   15.42
  -1   6  -2   95.46    5.20
  -1   6  -2   87.43    4.77
  -1   6  -1   35.27    3.48
  -1   6  -1   34.12    3.82
  -1   6   0    6.27    2.72
  -1   6   0    2.39    2.88
  -1   6   1    1.65    3.18
  -1   6   1    0.56    0.87
  -1   6   1    2.11    1.99
  -1   6   1    0.53    0.86
  -1   6   1    6.95    3.05
  -1   6   2  281.48   10.53
  -1   6   2  294.67   11.85
  -1   6   2  288.72   10.66
  -1   6   2  297.41   10.98
  -1   6   3   92.36    5.70
  -1   6   3   94.59    4.80
  -1   6   4  376.60   14.66
  -1   6   4  355.18   13.83
  -1   6   5  218.02    9.18
  -1   6   5  206.41    9.77
  -1   6   6  243.04   10.41
  -1   6   7  330.53   12.74
  -1   6   7  273.00   12.94
  -1   6   8   52.44    5.86
  -1   6   8   64.55    5.76
  -1   6   9    1.71    5.32
  -1   6   9    2.61    4.83
  -1   6  10    7.98    5.95
  -1   6  10    7.40    5.16
  -1   6  11    3.61    6.36
  -1   6  11   11.01    5.88
  -1   6  12   -4.19    7.48
  -1   7  -9    4.63    4.45
  -1   7  -8    9.36    4.52
  -1   7  -7    7.34    3.53
  -1   7  -7    8.49    4.37
  -1   7  -6   -4.96    3.98
  -1   7  -6    4.58    3.59
  -1   7  -5   18.91    2.39
  -1   7  -5   20.54    4.04
  -1   7  -5   25.26    3.84
  -1   7  -4   -0.93    2.96
  -1   7  -4    4.07    3.58
  -1   7  -3  124.87    6.71
  -1   7  -3  128.30    6.22
  -1   7  -2    3.96    3.18
  -1   7  -2    8.93    3.67
  -1   7  -1  207.58    9.36
  -1   7  -1  197.55    8.92
  -1   7   0  112.50    6.75
  -1   7   0  106.73    6.19
  -1   7   1  125.67    7.13
  -1   7   1  122.02    6.77
  -1   7   2   -0.58    3.65
  -1   7   2    3.45    1.65
  -1   7   2    3.86    2.48
  -1   7   2    4.39    1.61
  -1   7   3   15.40    3.94
  -1   7   3   10.51    2.36
  -1   7   3   12.62    3.13
  -1   7   3   13.46    2.39
  -1   7   4    9.67    3.29
  -1   7   4   15.14    4.36
  -1   7   5  117.92    6.09
  -1   7   5  107.07    6.99
  -1   7   6  107.59    6.32
  -1   7   6   99.84    7.03
  -1   7   7   10.70    4.17
  -1   7   8   74.12    7.03
  -1   7   8   77.60    6.41
  -1   7   9   31.72    6.14
  -1   7   9   39.69    5.77
  -1   7  10   29.94    6.49
  -1   7  10   20.35    5.78
  -1   7  11    7.32    6.75
  -1   8  -8   22.61    5.20
  -1   8  -7   10.67    4.38
  -1   8  -7    1.67    4.60
  -1   8  -6   34.95    4.89
  -1   8  -6   32.71    5.21
  -1   8  -5   54.81    5.52
  -1   8  -4   60.02    5.40
  -1   8  -3    8.06    3.67
  -1   8  -3   14.83    4.52
  -1   8  -2    3.59    3.74
  -1   8  -2    1.06    4.34
  -1   8  -1   13.60    4.20
  -1   8  -1    7.56    4.70
  -1   8   0   62.46    6.11
  -1   8   0   64.51    5.29
  -1   8   1   72.37    6.30
  -1   8   1   77.48    5.70
  -1   8   2  181.88    8.52
  -1   8   2  148.59    5.71
  -1   8   3   40.31    5.09
  -1   8   3   39.12    3.90
  -1   8   3   33.84    2.88
  -1   8   4  131.12    6.26
  -1   8   4  138.93    6.93
  -1   8   4  131.60    8.05
  -1   8   4  129.59    6.31
  -1   8   5   53.88    4.44
  -1   8   5   58.39    4.63
  -1   8   5   53.40    4.72
  -1   8   5   57.42    6.14
  -1   8   6   93.69    7.56
  -1   8   6  112.63    6.56
  -1   8   6   96.92    6.06
  -1   8   7   -2.38    5.30
  -1   8   7    3.09    4.26
  -1   8   8    6.35    5.11
  -1   8   9    4.04    6.27
  -1   8   9    3.52    4.89
  -1   8   9   11.79    5.67
  -1   8  10   14.66    6.27
  -1   8  10   16.64    6.26
  -1   8  11   15.76    6.62
  -1   9  -6    1.52    4.84
  -1   9  -5    9.84    5.17
  -1   9  -3   22.22    4.62
  -1   9  -3   11.48    5.54
  -1   9  -2    2.56    4.08
  -1   9  -2    5.45    5.53
  -1   9  -2   11.86    3.16
  -1   9  -1   30.27    6.12
  -1   9  -1   39.28    5.30
  -1   9   0    2.43    4.75
  -1   9   0    2.39    5.41
  -1   9   1    3.97    4.62
  -1   9   2    1.23    4.85
  -1   9   3   48.78    6.28
  -1   9   3   46.26    2.81
  -1   9   4   84.77    4.99
  -1   9   4   90.80    7.44
  -1   9   4   98.78    5.77
  -1   9   5   37.03    6.49
  -1   9   5   40.76    4.20
  -1   9   5   32.69    4.03
  -1   9   5   42.91    4.79
  -1   9   6    7.35    5.71
  -1   9   6    9.86    4.05
  -1   9   6    2.99    4.47
  -1   9   6    7.26    3.82
  -1   9   7    8.44    4.45
  -1   9   7    9.45    5.02
  -1   9   7    8.72    6.46
  -1   9   7   11.50    4.36
  -1   9   8   16.55    5.71
  -1   9   8   15.91    5.16
  -1   9   8   31.46    5.22
  -1   9   9   -2.39    4.86
  -1   9   9    5.70    5.40
  -1   9   9    3.95    5.61
  -1  10  -5   -9.60    6.77
  -1  10  -4   -7.19    6.49
  -1  10  -3   -4.63    6.04
  -1  10  -2    7.28    4.89
  -1  10  -2    1.41    5.98
  -1  10  -1   36.71    5.52
  -1  10  -1   21.10    6.47
  -1  10   0   23.04    5.58
  -1  10   1   34.16    5.92
  -1  10   2   16.90    6.07
  -1  10   3    5.72    5.84
  -1  10   4   14.43    6.20
  -1  10   5    1.26    6.23
  -1  11   0    4.67    6.14
  -1  11   1    6.31    7.42
  -1  11   2   33.59    6.87
   0 -11  -3    4.49    5.86
   0 -11  -2   -0.25    5.21
   0 -11  -1   31.46    6.18
   0 -11   0    1.81    5.27
   0 -10  -8   11.61    6.09
   0 -10  -7   10.55    5.62
   0 -10  -6   55.90    6.63
   0 -10  -6   55.86    5.59
   0 -10  -6   41.25    6.26
   0 -10  -5   14.40    5.26
   0 -10  -5   13.98    4.76
   0 -10  -5   13.58    5.66
   0 -10  -4   16.52    5.20
   0 -10  -4   17.07    5.62
   0 -10  -4   19.23    4.32
   0 -10  -3    3.76    5.28
   0 -10  -3    7.58    3.96
   0 -10  -3    7.02    5.36
   0 -10  -3    8.84    5.14
   0 -10  -2   18.16    5.11
   0 -10  -2   20.73    5.23
   0 -10  -2   15.46    3.78
   0 -10  -1    3.40    5.02
   0 -10  -1    1.56    3.51
   0 -10  -1    3.93    4.57
   0 -10   0   13.31    5.33
   0 -10   0   25.82    4.70
   0 -10   0   21.87    3.61
   0 -10   1    7.11    4.99
   0 -10   2   29.41    5.56
   0 -10   3    7.66    5.22
   0 -10   4    2.76    5.38
   0 -10   4    1.02    1.74
   0 -10   5   10.85    2.31
   0 -10   5    2.03    5.85
   0  -9  -9    5.41    5.61
   0  -9  -8   10.14    5.58
   0  -9  -8   15.69    5.21
   0  -9  -8   22.09    5.96
   0  -9  -7    4.96    5.32
   0  -9  -7    6.30    4.97
   0  -9  -7    5.86    5.44
   0  -9  -7    5.44    5.24
   0  -9  -6    4.39    5.07
   0  -9  -6    3.73    5.12
   0  -9  -6   -2.70    4.62
   0  -9  -6    0.51    4.95
   0  -9  -5   16.02    5.10
   0  -9  -5   18.21    4.17
   0  -9  -5   15.42    5.20
   0  -9  -5    7.60    5.13
   0  -9  -4   31.73    5.07
   0  -9  -4   34.41    4.21
   0  -9  -4   35.10    5.49
   0  -9  -3  139.92    7.97
   0  -9  -3  150.59    7.05
   0  -9  -3  120.00    7.64
   0  -9  -3  141.91    7.81
   0  -9  -2   34.39    3.90
   0  -9  -2   48.28    5.07
   0  -9  -2   40.45    5.00
   0  -9  -1   82.80    5.78
   0  -9  -1   93.50    5.06
   0  -9   0   38.27    5.00
   0  -9   0   34.77    3.75
   0  -9   0   32.12    4.79
   0  -9   1   91.78    6.04
   0  -9   1   98.22    5.18
   0  -9   1   96.69    6.60
   0  -9   2    1.96    4.37
   0  -9   2   -0.10    2.92
   0  -9   3   -3.74    4.45
   0  -9   3   -0.22    2.35
   0  -9   3    5.96    3.09
   0  -9   4   24.13    3.19
   0  -9   4   11.01    5.13
   0  -9   4   11.99    3.17
   0  -9   5   38.61    3.54
   0  -9   5   11.88    5.19
   0  -9   6  -12.33    5.61
   0  -9   6   12.27    5.14
   0  -9   7   -0.27    4.86
   0  -8 -10   25.42    6.10
   0  -8 -10   19.50    6.71
   0  -8 -10   30.71    6.60
   0  -8  -9   53.78    6.48
   0  -8  -9   62.57    6.61
   0  -8  -9   68.90    7.14
   0  -8  -9   52.73    6.62
   0  -8  -8   50.85    6.35
   0  -8  -8   59.06    6.50
   0  -8  -8   52.24    5.84
   0  -8  -8   58.88    6.44
   0  -8  -7   94.65    7.12
   0  -8  -7   90.47    7.22
   0  -8  -7  100.59    6.74
   0  -8  -6   18.03    4.85
   0  -8  -6   23.36    4.92
   0  -8  -6   19.63    4.38
   0  -8  -6   12.31    4.38
   0  -8  -5   11.34    4.25
   0  -8  -5    4.40    4.30
   0  -8  -5    3.63    3.68
   0  -8  -5   -4.10    4.24
   0  -8  -4   15.93    4.45
   0  -8  -4   18.20    3.74
   0  -8  -4    8.36    3.96
   0  -8  -3    3.64    3.05
   0  -8  -3    3.68    3.85
   0  -8  -2   77.30    5.31
   0  -8  -2   72.76    4.54
   0  -8  -2   63.60    5.19
   0  -8  -1  103.73    6.15
   0  -8  -1  101.56    5.89
   0  -8  -1  107.04    5.34
   0  -8   0   60.25    5.08
   0  -8   0   60.92    4.82
   0  -8   0   65.07    3.94
   0  -8   1   87.69    4.63
   0  -8   1   83.02    5.68
   0  -8   1   87.56    5.41
   0  -8   2   85.78    5.84
   0  -8   2   96.32    5.16
   0  -8   2   98.63    4.38
   0  -8   3    6.76    3.95
   0  -8   3    7.20    2.60
   0  -8   3    0.20    3.17
   0  -8   4   72.46    5.20
   0  -8   4   66.24    4.13
   0  -8   4   60.15    5.40
   0  -8   5   51.46    4.38
   0  -8   5    5.07    4.28
   0  -8   6    3.30    4.55
   0  -8   6   -5.49    4.95
   0  -8   6    0.96    2.97
   0  -8   7   19.19    5.62
   0  -8   7    8.59    3.31
   0  -8   8   19.07    5.77
   0  -8   9   45.77    6.66
   0  -7 -11   14.66    6.01
   0  -7 -11    9.11    5.90
   0  -7 -10   18.40    5.88
   0  -7 -10   14.30    5.58
   0  -7  -9    6.39    5.03
   0  -7  -9   10.43    4.81
   0  -7  -9    7.83    5.11
   0  -7  -8   -6.94    4.90
   0  -7  -8   -1.85    4.47
   0  -7  -8    2.08    4.54
   0  -7  -7   10.54    4.30
   0  -7  -7   18.56    4.37
   0  -7  -7    8.49    4.35
   0  -7  -6  101.91    6.72
   0  -7  -6  104.51    6.21
   0  -7  -6  109.06    6.60
   0  -7  -5  352.19   13.44
   0  -7  -5  354.07   14.03
   0  -7  -5  306.40   13.66
   0  -7  -5  339.28   13.77
   0  -7  -4  385.82   14.41
   0  -7  -4  360.60   14.69
   0  -7  -4  373.92   14.82
   0  -7  -3  146.15    7.09
   0  -7  -3  136.48    6.47
   0  -7  -2   82.71    4.53
   0  -7  -2   78.93    5.00
   0  -7  -1  185.43    8.35
   0  -7  -1  183.24    8.21
   0  -7  -1  187.20    7.61
   0  -7   0   -1.31    2.94
   0  -7   0    0.09    2.23
   0  -7   0   -1.99    2.71
   0  -7   1   10.85    3.30
   0  -7   1    6.58    2.13
   0  -7   1    4.33    2.75
   0  -7   2  138.14    6.85
   0  -7   2  143.25    6.31
   0  -7   2  140.99    5.76
   0  -7   3   35.06    3.84
   0  -7   3   37.67    4.08
   0  -7   3   36.24    3.01
   0  -7   4  111.03    6.51
   0  -7   4  104.01    6.32
   0  -7   4  116.95    5.19
   0  -7   5   92.65    5.81
   0  -7   5   77.53    5.75
   0  -7   5   82.91    4.53
   0  -7   6   35.05    4.87
   0  -7   6   36.95    4.44
   0  -7   7   15.29    2.40
   0  -7   7   12.68    4.95
   0  -7   8    2.25    4.75
   0  -7   9   11.60    5.37
   0  -7   9   -2.81    2.60
   0  -7  10   14.44    6.05
   0  -6 -12   51.58    7.09
   0  -6 -11   45.71    6.73
   0  -6 -11   53.15    6.54
   0  -6 -10   83.83    6.76
   0  -6 -10   92.09    7.05
   0  -6  -9   76.15    6.27
   0  -6  -9   75.18    6.07
   0  -6  -9   68.59    6.22
   0  -6  -8   64.33    5.81
   0  -6  -8   66.56    5.41
   0  -6  -8   60.25    5.31
   0  -6  -7   12.13    3.92
   0  -6  -7    8.42    3.55
   0  -6  -7   12.72    3.85
   0  -6  -6  123.57    6.59
   0  -6  -6  132.11    6.97
   0  -6  -5   22.53    3.47
   0  -6  -5   22.01    3.84
   0  -6  -5   21.45    3.16
   0  -6  -4  162.36    8.05
   0  -6  -4  172.69    7.93
   0  -6  -4  170.83    7.87
   0  -6  -4  187.39    7.66
   0  -6  -3  413.63   16.36
   0  -6  -3  451.32   16.03
   0  -6  -2  472.12   17.59
   0  -6  -2  475.86   17.18
   0  -6  -1  251.76   10.78
   0  -6  -1  276.90   10.77
   0  -6  -1  281.10   10.27
   0  -6   0  530.29   17.81
   0  -6   0  467.68   18.36
   0  -6   0  479.37   18.19
   0  -6   1   67.33    3.37
   0  -6   1   67.26    3.90
   0  -6   1   62.43    4.09
   0  -6   2   67.09    3.85
   0  -6   2   72.08    4.44
   0  -6   2   70.78    3.50
   0  -6   3    6.30    2.82
   0  -6   3    4.83    3.04
   0  -6   3    3.23    1.89
   0  -6   4   16.36    3.39
   0  -6   4   17.39    3.31
   0  -6   5   85.30    5.55
   0  -6   5   90.49    5.36
   0  -6   5   94.68    3.99
   0  -6   6   67.74    3.66
   0  -6   7   79.28    4.37
   0  -6   7   70.05    5.69
   0  -6   8   67.50    5.59
   0  -6   8   31.59    3.59
   0  -6   9   32.25    5.30
   0  -6   9   32.03    3.76
   0  -6  10    0.85    3.57
   0  -6  10    7.72    3.02
   0  -6  10    3.82    5.07
   0  -6  11   18.04    2.96
   0  -6  11    0.59    5.87
   0  -5 -14    9.51    6.90
   0  -5 -13   15.99    6.05
   0  -5 -13   13.16    5.47
   0  -5 -12    4.12    5.48
   0  -5 -12    6.82    4.64
   0  -5 -11   40.32    4.70
   0  -5 -11   33.78    5.67
   0  -5 -10   36.38    4.67
   0  -5 -10   34.72    5.35
   0  -5  -9   84.91    5.75
   0  -5  -9   81.40    6.04
   0  -5  -9   90.55    6.00
   0  -5  -8   22.72    4.29
   0  -5  -8   29.73    4.10
   0  -5  -8   23.65    4.19
   0  -5  -8   21.94    4.20
   0  -5  -7  499.99   18.99
   0  -5  -7  519.91   18.95
   0  -5  -7  521.42   19.17
   0  -5  -7  473.42   19.19
   0  -5  -6  694.22   24.82
   0  -5  -6  675.17   24.64
   0  -5  -6  678.85   24.65
   0  -5  -6  665.14   24.86
   0  -5  -5  283.36   11.15
   0  -5  -5  279.25   11.36
   0  -5  -4  141.36    6.38
   0  -5  -4  148.24    6.64
   0  -5  -3   14.85    2.72
   0  -5  -3   10.57    2.21
   0  -5  -3   15.94    2.59
   0  -5  -2   34.69    2.48
   0  -5  -2   34.40    2.87
   0  -5  -1  279.09   10.83
   0  -5  -1  287.75   10.50
   0  -5   0  351.19   13.04
   0  -5   0  333.82   13.14
   0  -5   0  363.43   12.67
   0  -5   1  277.95   11.15
   0  -5   1  296.42   10.57
   0  -5   1  294.63   10.92
   0  -5   2  405.94   15.15
   0  -5   2  387.53   14.97
   0  -5   2  402.28   14.58
   0  -5   2  415.24   14.41
   0  -5   3  216.24    8.78
   0  -5   3  219.40    8.69
   0  -5   3  211.12    7.61
   0  -5   4  308.84   12.65
   0  -5   4  317.68   12.46
   0  -5   4  333.85   11.64
   0  -5   5   60.26    4.13
   0  -5   6    0.71    2.21
   0  -5   6    2.45    3.53
   0  -5   7    2.48    2.57
   0  -5   7    0.39    3.79
   0  -5   8    4.75    4.18
   0  -5   8    1.19    3.12
   0  -5   8    1.26    3.22
   0  -5   9   14.90    5.12
   0  -5   9    7.27    3.68
   0  -5   9    7.68    3.46
   0  -5  10   48.83    6.15
   0  -5  10   38.37    4.80
   0  -5  10   40.30    4.47
   0  -5  11   13.95    5.32
   0  -5  11   12.08    4.65
   0  -5  11   26.81    4.47
   0  -5  12   18.94    5.36
   0  -5  12   43.07    4.28
   0  -4 -14   22.43    6.53
   0  -4 -13   36.54    6.84
   0  -4 -13   48.47    6.20
   0  -4 -13   44.37    5.26
   0  -4 -12   38.86    5.31
   0  -4 -12   34.82    5.27
   0  -4 -11   26.61    4.71
   0  -4 -11   31.71    4.79
   0  -4 -10   14.65    3.96
   0  -4 -10   10.36    4.16
   0  -4  -9   -2.51    3.52
   0  -4  -9    1.12    3.50
   0  -4  -8  251.65   10.50
   0  -4  -8  244.54   10.72
   0  -4  -8  264.86   10.76
   0  -4  -7  476.99   17.39
   0  -4  -7  453.45   17.30
   0  -4  -7  447.32   17.15
   0  -4  -6  245.99   10.05
   0  -4  -6  266.29   10.19
   0  -4  -6  236.16    9.88
   0  -4  -5  814.70   28.42
   0  -4  -5  870.95   28.63
   0  -4  -5  810.72   28.43
   0  -4  -4  606.82   21.31
   0  -4  -4  613.46   21.25
   0  -4  -4  555.48   21.33
   0  -4  -3 1273.18   43.59
   0  -4  -3 1245.05   43.81
   0  -4  -2  690.01   23.86
   0  -4  -2  660.60   23.55
   0  -4  -1  176.95    7.14
   0  -4  -1  184.87    6.89
   0  -4   0  131.90    4.93
   0  -4   0  125.93    5.21
   0  -4   0  117.77    5.33
   0  -4   1   81.65    4.09
   0  -4   1   86.41    3.76
   0  -4   1   93.25    3.64
   0  -4   2  165.86    6.63
   0  -4   2  165.71    6.08
   0  -4   2  166.72    6.55
   0  -4   2  152.33    5.66
   0  -4   3 1537.27   54.60
   0  -4   3 1581.45   54.47
   0  -4   3 1596.15   53.92
   0  -4   4  261.91   10.57
   0  -4   4  268.67   10.39
   0  -4   4  277.23    9.96
   0  -4   5  369.08   14.10
   0  -4   5  370.35   13.56
   0  -4   6  600.32   22.70
   0  -4   6  633.71   22.30
   0  -4   7  127.77    6.63
   0  -4   7  119.17    6.00
   0  -4   8   95.81    6.14
   0  -4   8   97.13    5.49
   0  -4   8   93.00    5.59
   0  -4   9    4.64    4.20
   0  -4   9    6.07    3.62
   0  -4   9    1.13    3.73
   0  -4  10   -4.37    4.66
   0  -4  10   -4.04    4.60
   0  -4  10    5.13    3.94
   0  -4  11    8.31    4.32
   0  -4  11   13.63    4.18
   0  -4  11   15.24    5.50
   0  -4  12   -0.86    6.00
   0  -4  12    3.15    4.89
   0  -4  13   51.32    5.26
   0  -3 -13    3.46    5.89
   0  -3 -13    0.91    4.18
   0  -3 -13    2.85    4.45
   0  -3 -12   87.18    7.43
   0  -3 -12   93.98    6.42
   0  -3 -12   92.48    6.10
   0  -3 -11   79.25    5.45
   0  -3 -11   90.19    6.73
   0  -3 -11   72.93    5.48
   0  -3 -10   70.58    5.16
   0  -3 -10   61.60    5.82
   0  -3 -10   77.55    5.25
   0  -3  -9   83.45    5.35
   0  -3  -9   92.68    5.42
   0  -3  -8  423.46   15.73
   0  -3  -8  401.21   15.58
   0  -3  -7  414.80   14.66
   0  -3  -7  403.63   14.51
   0  -3  -6    7.17    2.34
   0  -3  -6    7.38    2.35
   0  -3  -6   10.43    2.34
   0  -3  -5    9.31    1.94
   0  -3  -5    8.61    2.07
   0  -3  -4    3.17    1.68
   0  -3  -4    4.67    1.64
   0  -3  -4    3.54    1.87
   0  -3  -3 1195.26   41.07
   0  -3  -3 1179.22   40.98
   0  -3  -2  927.47   32.04
   0  -3  -1 1353.91   45.42
   0  -3  -1 1289.95   45.60
   0  -3   0  113.41    4.26
   0  -3   0  110.67    4.47
   0  -3   1  642.65   21.96
   0  -3   1  655.90   21.75
   0  -3   1  661.72   21.63
   0  -3   1  597.60   21.38
   0  -3   2  358.04   12.86
   0  -3   2  343.26   12.39
   0  -3   2  359.91   12.31
   0  -3   2  352.94   12.72
   0  -3   3  349.54   12.75
   0  -3   3  336.04   12.55
   0  -3   3  351.86   12.34
   0  -3   4   54.01    3.25
   0  -3   4   53.52    2.98
   0  -3   4   53.75    2.87
   0  -3   5  163.20    6.86
   0  -3   5  152.65    6.54
   0  -3   6   38.35    3.30
   0  -3   6   40.36    3.32
   0  -3   7   81.34    5.06
   0  -3   7   82.01    4.64
   0  -3   7   76.48    4.70
   0  -3   7   77.05    3.05
   0  -3   8  133.87    6.93
   0  -3   8  125.80    6.34
   0  -3   8  125.47    6.67
   0  -3   9  130.13    7.47
   0  -3   9  128.49    6.73
   0  -3   9  127.01    7.12
   0  -3  10   61.72    5.96
   0  -3  10   65.00    5.45
   0  -3  10   67.51    3.26
   0  -3  10   65.49    5.57
   0  -3  11   38.01    5.67
   0  -3  11   35.49    5.72
   0  -3  11   31.51    4.96
   0  -3  11   35.05    2.66
   0  -3  12   17.06    5.91
   0  -3  12   15.18    5.84
   0  -3  12   16.80    4.63
   0  -3  13   25.33    5.04
   0  -3  13   -3.95    6.44
   0  -2 -13    8.17    5.92
   0  -2 -13    3.48    4.06
   0  -2 -13   -1.58    3.99
   0  -2 -12    4.97    3.67
   0  -2 -12    2.35    3.72
   0  -2 -11    0.32    3.76
   0  -2 -11    1.25    4.26
   0  -2 -11    5.94    3.56
   0  -2 -10  170.35    8.30
   0  -2 -10  148.17    7.31
   0  -2 -10  147.82    7.43
   0  -2  -9  226.14   10.44
   0  -2  -9  243.58    9.79
   0  -2  -9  230.85    9.75
   0  -2  -8  855.60   29.71
   0  -2  -8  872.93   29.74
   0  -2  -7  420.10   15.66
   0  -2  -7  426.79   15.64
   0  -2  -6  722.15   25.89
   0  -2  -6  741.90   25.93
   0  -2  -5 1102.53   38.21
   0  -2  -5 1097.42   38.21
   0  -2  -4  234.58    8.91
   0  -2  -4  238.46    8.92
   0  -2  -3 1852.87   59.22
   0  -2  -3 1776.06   59.20
   0  -2  -2 2587.87   90.22
   0  -2  -2 2703.70   90.16
   0  -2  -1 1049.56   35.90
   0  -2   0 2025.78   70.31
   0  -2   0 2094.99   70.19
   0  -2   1 6457.35  220.45
   0  -2   1 6565.67  220.32
   0  -2   1 6433.15  220.61
   0  -2   2 5200.13  173.24
   0  -2   2 5157.57  173.13
   0  -2   2 4999.27  172.99
   0  -2   3  984.62   34.30
   0  -2   3  994.14   34.11
   0  -2   4  541.31   19.39
   0  -2   4  543.87   18.63
   0  -2   5 1926.36   66.37
   0  -2   6   35.10    3.11
   0  -2   6   35.27    2.84
   0  -2   7    2.77    2.61
   0  -2   7    2.66    2.54
   0  -2   8   -0.88    2.82
   0  -2   8    0.18    3.09
   0  -2   9  216.61    9.83
   0  -2   9  212.29    9.37
   0  -2  10    1.53    3.99
   0  -2  10    2.94    3.67
   0  -2  11   83.50    6.61
   0  -2  11   84.36    6.80
   0  -2  11   91.19    6.34
   0  -2  12   27.79    5.64
   0  -2  12   19.96    5.02
   0  -2  12   36.75    6.23
   0  -2  13   33.84    6.32
   0  -2  13   23.55    6.01
   0  -1 -13   17.67    6.00
   0  -1 -13   18.53    4.29
   0  -1 -13   18.92    3.89
   0  -1 -12  144.67    8.80
   0  -1 -12  138.16    7.37
   0  -1 -12  145.46    7.00
   0  -1 -11    5.99    3.14
   0  -1 -11    2.65    4.31
   0  -1 -10  112.92    7.04
   0  -1 -10  124.34    5.99
   0  -1  -9   22.13    3.83
   0  -1  -9   17.43    2.95
   0  -1  -8   39.24    3.86
   0  -1  -8   40.77    3.09
   0  -1  -7  303.02   12.03
   0  -1  -7  307.73   11.44
   0  -1  -6   84.56    4.50
   0  -1  -6   93.39    4.14
   0  -1  -5  632.73   22.19
   0  -1  -4 1610.83   55.15
   0  -1  -3 2329.92   79.35
   0  -1   1  258.37    8.95
   0  -1   3   78.53    3.40
   0  -1   4  494.96   18.18
   0  -1   4  517.19   17.61
   0  -1   5 1126.98   38.35
   0  -1   5 1087.14   38.17
   0  -1   5 1095.99   37.62
   0  -1   6  166.27    7.22
   0  -1   6  169.50    7.09
   0  -1   6  175.80    6.40
   0  -1   7  548.56   19.99
   0  -1   7  522.97   19.79
   0  -1   7  550.66   19.03
   0  -1   8  126.22    6.28
   0  -1   8  130.68    5.25
   0  -1   8  128.56    6.47
   0  -1   9  156.87    7.93
   0  -1   9  172.29    6.73
   0  -1   9  181.22    8.25
   0  -1  10    3.10    3.97
   0  -1  10   -1.71    3.85
   0  -1  11    3.43    4.04
   0  -1  11    5.90    4.61
   0  -1  12    9.03    5.00
   0  -1  12   15.72    4.92
   0  -1  13    5.51    5.52
   0  -1  13   14.52    5.66
   0  -1  13   14.81    5.59
   0   0 -13   20.80    5.68
   0   0 -13   13.37    4.05
   0   0 -12    5.60    5.16
   0   0 -12    7.37    3.11
   0   0 -11  217.85    9.99
   0   0 -11  191.91    8.16
   0   0 -10  164.05    8.24
   0   0 -10  164.60    6.90
   0   0  -9  264.37   10.79
   0   0  -9  241.81    9.54
   0   0  -8  553.51   20.70
   0   0  -8  557.39   19.77
   0   0  -7   69.95    4.42
   0   0  -7   77.72    3.57
   0   0  -6  491.50   18.16
   0   0  -6  501.34   17.54
   0   0  -5   45.44    2.87
   0   0  -5   50.00    2.36
   0   0  -4  630.39   22.89
   0   0  -4  665.62   22.56
   0   0  -3  511.25   20.22
   0   0  -3  628.54   20.04
   0   0   2 1785.42   60.74
   0   0   2 1786.61   60.67
   0   0   3  623.46   20.99
   0   0   3  592.65   20.87
   0   0   4  633.80   21.76
   0   0   4  613.45   21.89
   0   0   4  623.01   21.62
   0   0   5   42.97    2.50
   0   0   5   43.75    2.69
   0   0   5   45.42    2.28
   0   0   5   42.16    2.64
   0   0   6  498.11   17.57
   0   0   6  489.10   17.79
   0   0   6  484.58   17.36
   0   0   6  486.46   17.81
   0   0   7   74.27    4.06
   0   0   7   77.48    3.73
   0   0   7   77.22    4.33
   0   0   7   71.44    4.27
   0   0   8  528.90   20.21
   0   0   8  569.11   19.66
   0   0   8  537.50   19.92
   0   0   8  547.44   20.28
   0   0   9  238.06   10.61
   0   0   9  258.44    9.94
   0   0   9  263.32   10.82
   0   0  10  150.81    7.96
   0   0  10  163.74    6.98
   0   0  10  161.70    8.04
   0   0  11  199.70    9.82
   0   0  11  212.32    8.84
   0   0  11  211.83   10.07
   0   0  12    1.23    4.90
   0   0  12    3.11    3.30
   0   0  12    3.76    5.19
   0   0  13   26.83    5.83
   0   0  13   15.26    5.81
   0   1 -14   12.36    4.95
   0   1 -13    9.59    5.59
   0   1 -13   16.62    4.37
   0   1 -12   24.31    5.57
   0   1 -12   15.58    2.22
   0   1 -12   14.62    3.98
   0   1 -11    3.34    1.99
   0   1 -10    5.30    3.73
   0   1 -10    0.85    1.91
   0   1  -9  165.07    7.91
   0   1  -9  164.02    6.37
   0   1  -8  124.65    6.52
   0   1  -8  133.42    5.21
   0   1  -7  551.08   19.57
   0   1  -7  523.98   18.50
   0   1  -6  175.33    7.21
   0   1  -6  170.29    6.29
   0   1  -5 1071.94   37.13
   0   1  -5 1063.57   36.42
   0   1  -4  542.63   18.85
   0   1  -4  527.45   18.24
   0   1  -2  158.50    5.87
   0   1  -2  159.77    5.74
   0   1  -1  270.07    9.40
   0   1   3 2018.14   73.04
   0   1   3 2260.45   73.03
   0   1   4 1546.54   53.57
   0   1   4 1569.70   53.47
   0   1   5  608.16   21.48
   0   1   5  602.28   21.34
   0   1   6   89.84    4.16
   0   1   6   78.80    4.23
   0   1   7  290.92   10.97
   0   1   7  304.34   11.23
   0   1   8   36.85    3.30
   0   1   8   28.69    3.50
   0   1   8   34.96    3.35
   0   1   8   41.22    3.59
   0   1   9   17.63    3.12
   0   1   9   19.87    3.34
   0   1   9   22.72    3.52
   0   1  10  119.43    6.75
   0   1  10  127.58    6.52
   0   1  10  121.49    6.73
   0   1  11    3.07    4.27
   0   1  11    3.70    3.39
   0   1  11   -1.31    4.41
   0   1  12  132.85    8.32
   0   1  12  150.04    7.43
   0   1  12  152.57    8.50
   0   1  13   24.20    5.59
   0   1  13   18.40    5.71
   0   2 -13   28.90    6.27
   0   2 -13   29.38    4.55
   0   2 -12   28.36    4.18
   0   2 -12   30.13    5.80
   0   2 -11   95.32    6.62
   0   2 -11   85.89    5.49
   0   2 -10   -1.63    4.15
   0   2 -10    1.47    3.09
   0   2  -9  219.22    8.92
   0   2  -9  215.63    8.09
   0   2  -8   -0.33    2.23
   0   2  -8   -0.65    3.14
   0   2  -8    1.68    0.65
   0   2  -7    3.76    2.12
   0   2  -7    2.60    0.54
   0   2  -7    1.71    2.64
   0   2  -6   32.32    2.47
   0   2  -6   29.35    2.90
   0   2  -5 1935.10   66.05
   0   2  -5 1907.33   65.69
   0   2  -4  542.84   19.51
   0   2  -4  551.88   19.25
   0   2  -3 1035.14   35.12
   0   2  -3  998.81   34.89
   0   2  -2 5326.22  173.15
   0   2  -2 5011.74  172.84
   0   2  -1 6762.32  223.14
   0   2  -1 6469.04  222.96
   0   2   0 1658.24   63.17
   0   2   0 2024.61   63.11
   0   2   1 1085.58   36.42
   0   2   1 1129.67   36.53
   0   2   2 2191.72   84.19
   0   2   2 2739.42   84.17
   0   2   3 1750.82   59.96
   0   2   4  229.59    8.68
   0   2   4  226.37    8.67
   0   2   5 1061.40   37.43
   0   2   5 1079.34   37.34
   0   2   6  700.46   25.44
   0   2   6  722.56   25.38
   0   2   7  402.79   15.36
   0   2   7  408.52   15.19
   0   2   8  793.89   29.13
   0   2   8  821.36   28.98
   0   2   9  231.68    9.81
   0   2   9  226.86   10.03
   0   2  10  137.47    7.54
   0   2  10  141.47    7.26
   0   2  10  150.27    7.51
   0   2  11   -1.95    3.59
   0   2  11    4.53    4.16
   0   2  11    2.26    4.56
   0   2  12    4.29    4.66
   0   2  12    0.41    4.29
   0   2  12   -0.50    5.03
   0   2  13    7.61    5.45
   0   2  13    3.43    4.49
   0   2  13   -0.27    5.46
   0   3 -13   -0.17    4.41
   0   3 -12   18.83    5.76
   0   3 -12   14.01    4.42
   0   3 -11   35.70    4.35
   0   3 -11   46.63    5.68
   0   3 -10   80.10    5.04
   0   3 -10   71.97    5.83
   0   3  -9  129.09    7.11
   0   3  -9  131.90    6.24
   0   3  -8  141.05    7.01
   0   3  -8  137.63    6.29
   0   3  -7   82.82    4.93
   0   3  -7   81.76    4.39
   0   3  -6   35.37    3.33
   0   3  -6   43.68    2.94
   0   3  -5  159.38    6.91
   0   3  -5  163.31    6.60
   0   3  -4   55.40    3.15
   0   3  -4   59.12    2.87
   0   3  -3  350.53   12.27
   0   3  -3  333.00   11.76
   0   3  -2  346.51   12.44
   0   3  -2  377.11   12.79
   0   3  -2  353.05   12.20
   0   3  -1  678.66   22.68
   0   3  -1  662.63   23.06
   0   3  -1  629.98   22.82
   0   3   0  118.86    4.39
   0   3   0  108.60    4.68
   0   3   0  114.73    4.51
   0   3   0  109.60    4.07
   0   3   1 1263.71   44.39
   0   3   1 1348.90   44.73
   0   3   1 1281.00   44.53
   0   3   1 1347.42   44.77
   0   3   2  976.89   32.90
   0   3   2 1036.02   33.13
   0   3   3 1216.97   41.44
   0   3   3 1224.51   41.26
   0   3   3 1133.34   41.45
   0   3   4    2.26    1.72
   0   3   4    0.87    1.71
   0   3   5    8.74    2.26
   0   3   5    9.35    2.27
   0   3   5    6.98    2.05
   0   3   6   10.82    2.61
   0   3   6    7.62    2.39
   0   3   6   12.85    2.49
   0   3   7  396.54   15.01
   0   3   7  394.42   15.05
   0   3   7  382.27   15.04
   0   3   8  369.37   15.12
   0   3   8  401.57   15.21
   0   3   8  394.24   15.10
   0   3   9   91.84    5.88
   0   3   9   96.87    6.00
   0   3  10   69.99    5.74
   0   3  10   74.11    5.79
   0   3  11   80.54    6.64
   0   3  11   83.23    6.29
   0   3  12   88.32    7.10
   0   3  12  102.58    7.09
   0   3  13    5.80    5.31
   0   3  13   -1.27    5.03
   0   3  13   -0.84    5.47
   0   4 -12    3.94    4.15
   0   4 -12    5.68    5.62
   0   4 -11    7.89    4.05
   0   4 -10    4.18    3.32
   0   4 -10    3.06    4.61
   0   4  -9   -0.98    3.42
   0   4  -9    1.80    4.07
   0   4  -8   87.95    5.98
   0   4  -8  106.18    5.49
   0   4  -7  128.28    6.11
   0   4  -6  619.29   22.84
   0   4  -6  628.11   22.36
   0   4  -5  370.70   13.76
   0   4  -4  264.39    9.53
   0   4  -4  282.37   10.31
   0   4  -3 1561.82   54.06
   0   4  -3 1572.11   53.60
   0   4  -2  162.29    6.58
   0   4  -2  184.77    6.32
   0   4  -2  167.25    7.01
   0   4  -1   85.76    3.55
   0   4  -1   79.72    4.17
   0   4  -1   89.67    3.82
   0   4   0  142.45    5.50
   0   4   0  133.86    5.09
   0   4   0  137.37    5.25
   0   4   0  117.74    4.60
   0   4   0  115.32    5.47
   0   4   1  168.01    6.35
   0   4   1  182.76    6.84
   0   4   1  174.55    6.58
   0   4   1  187.70    6.96
   0   4   2  644.90   23.06
   0   4   2  659.00   23.41
   0   4   2  671.89   23.33
   0   4   3 1326.34   45.23
   0   4   3 1279.96   44.93
   0   4   4  617.40   22.42
   0   4   4  623.89   22.18
   0   4   5  832.78   27.14
   0   4   5  775.18   27.30
   0   4   6  241.33   10.26
   0   4   6  255.02   10.09
   0   4   7  479.91   17.44
   0   4   7  451.76   17.61
   0   4   7  450.76   17.39
   0   4   8  241.66   10.95
   0   4   8  254.56   10.93
   0   4   8  258.16   10.68
   0   4   9    3.38    3.71
   0   4   9    0.87    3.70
   0   4   9    1.56    3.66
   0   4  10   14.01    4.45
   0   4  10   12.41    4.77
   0   4  10   17.13    4.70
   0   4  11   30.95    5.41
   0   4  11   25.56    5.48
   0   4  11   32.85    5.65
   0   4  12   28.99    5.81
   0   4  12   24.17    5.79
   0   4  13   39.40    6.97
   0   4  14   26.36    6.87
   0   5 -12   17.68    4.90
   0   5 -11   13.23    4.06
   0   5 -10   43.73    4.69
   0   5  -9   14.28    3.75
   0   5  -8    1.15    2.93
   0   5  -7    3.39    3.20
   0   5  -6   -0.51    2.75
   0   5  -5   64.49    3.90
   0   5  -5   55.11    2.56
   0   5  -4  325.16   12.60
   0   5  -4  331.89   11.85
   0   5  -3  221.63    9.30
   0   5  -3  238.62    8.74
   0   5  -2  412.58   14.44
   0   5  -2  407.33   14.93
   0   5  -2  387.19   14.03
   0   5  -1  301.15   11.50
   0   5  -1  292.58   10.66
   0   5  -1  299.53   11.29
   0   5  -1  281.52   11.00
   0   5   0  341.93   12.91
   0   5   0  374.25   13.16
   0   5   0  363.93   12.71
   0   5   0  333.69   12.09
   0   5   1  273.99   10.23
   0   5   1  302.11   11.20
   0   5   1  297.44   10.86
   0   5   1  276.38   10.56
   0   5   1  294.93   10.99
   0   5   2   32.55    2.35
   0   5   2   37.91    2.85
   0   5   2   40.01    2.77
   0   5   3   13.77    2.31
   0   5   3   10.92    2.55
   0   5   3   11.32    2.68
   0   5   4  145.59    6.76
   0   5   4  140.76    6.38
   0   5   5  286.37   11.53
   0   5   5  281.81   11.27
   0   5   6  697.52   25.15
   0   5   6  720.60   24.89
   0   5   7  518.87   19.51
   0   5   7  513.24   19.81
   0   5   8   25.92    4.32
   0   5   8   25.16    4.26
   0   5   9   69.75    6.00
   0   5   9   86.21    6.16
   0   5   9   75.61    5.96
   0   5  10   30.03    5.25
   0   5  10   22.88    5.02
   0   5  10   32.95    5.16
   0   5  11   27.89    5.36
   0   5  11   27.39    5.53
   0   5  12    6.20    6.47
   0   5  12   11.01    6.07
   0   5  14   16.36    7.43
   0   6 -11   -2.19    4.14
   0   6 -10   -1.22    4.19
   0   6  -9   34.51    4.77
   0   6  -8   76.48    5.40
   0   6  -7   80.52    5.30
   0   6  -6   67.68    4.73
   0   6  -5   88.74    5.39
   0   6  -5   84.02    3.81
   0   6  -4   15.64    3.41
   0   6  -4   15.96    2.13
   0   6  -3    3.63    3.02
   0   6  -3    4.50    2.25
   0   6  -2   60.91    3.88
   0   6  -2   81.19    4.88
   0   6  -2   67.99    3.35
   0   6  -2   90.57    4.60
   0   6  -1   70.58    4.30
   0   6  -1   63.83    3.34
   0   6   0  489.50   16.61
   0   6   0  489.03   17.15
   0   6   0  438.42   15.77
   0   6   1  269.81   10.92
   0   6   1  291.18   10.49
   0   6   1  277.75   10.80
   0   6   1  252.20    9.66
   0   6   2  455.03   16.74
   0   6   2  428.85   17.73
   0   6   2  499.02   17.41
   0   6   2  469.43   17.12
   0   6   2  501.46   17.73
   0   6   3  421.10   15.79
   0   6   3  450.85   16.41
   0   6   3  431.05   16.10
   0   6   3  443.46   16.60
   0   6   4  172.05    7.39
   0   6   4  159.00    8.32
   0   6   4  182.40    8.08
   0   6   4  178.82    7.63
   0   6   4  179.83    8.15
   0   6   5   29.93    3.57
   0   6   5   26.19    3.65
   0   6   6  119.69    6.92
   0   6   6  131.04    6.56
   0   6   7    8.33    3.96
   0   6   7   13.57    4.10
   0   6   7   11.38    3.84
   0   6   8   64.56    5.78
   0   6   8   70.37    5.63
   0   6   9   79.10    6.56
   0   6   9   82.76    6.35
   0   6  10   88.52    7.50
   0   6  10   97.53    7.12
   0   6  10   86.37    7.35
   0   6  11   57.05    6.89
   0   6  11   48.38    6.71
   0   6  11   55.94    6.76
   0   6  12   53.45    7.52
   0   6  12   63.02    7.53
   0   7 -10    8.84    5.04
   0   7  -9   15.50    4.71
   0   7  -8    6.16    4.33
   0   7  -7   17.87    4.36
   0   7  -6   35.35    4.66
   0   7  -5   80.36    5.60
   0   7  -5   80.21    4.14
   0   7  -4  101.04    5.13
   0   7  -4  115.99    6.56
   0   7  -3   52.66    4.46
   0   7  -3   44.34    4.83
   0   7  -2  148.32    7.34
   0   7  -2  161.91    7.81
   0   7  -2  150.13    6.98
   0   7  -1    9.13    2.44
   0   7  -1    4.88    3.39
   0   7  -1    3.90    2.93
   0   7   0    0.89    3.12
   0   7   0   -1.86    2.53
   0   7   0   -2.71    3.24
   0   7   1  195.34    8.52
   0   7   1  196.36    8.86
   0   7   1  191.64    8.08
   0   7   1  181.46    6.99
   0   7   2   76.25    5.57
   0   7   2   76.48    4.81
   0   7   2   76.74    5.16
   0   7   2   79.66    4.68
   0   7   2   78.29    3.90
   0   7   3  137.68    6.24
   0   7   3  131.40    7.35
   0   7   3  144.96    7.11
   0   7   3  151.50    6.83
   0   7   4  375.33   14.37
   0   7   4  378.93   15.01
   0   7   4  394.24   14.76
   0   7   4  376.15   15.41
   0   7   5  314.83   13.05
   0   7   5  347.25   13.86
   0   7   5  340.03   13.28
   0   7   5  340.47   14.05
   0   7   6   96.72    5.81
   0   7   6   99.83    6.67
   0   7   6  113.12    6.11
   0   7   7   14.72    4.52
   0   7   7   24.23    4.38
   0   7   8    2.67    4.67
   0   7   8    2.07    4.56
   0   7   8   -1.26    4.53
   0   7   9    7.97    4.92
   0   7   9    7.11    5.41
   0   7   9   21.52    5.31
   0   7  10   12.80    5.93
   0   7  10    2.97    5.25
   0   7  11   10.45    6.47
   0   7  11   16.66    6.27
   0   8  -9   22.92    5.58
   0   8  -8    0.65    5.79
   0   8  -8   10.21    4.30
   0   8  -7   18.37    4.28
   0   8  -7    9.63    4.68
   0   8  -6   -4.94    4.98
   0   8  -6    8.70    4.19
   0   8  -5    1.53    5.03
   0   8  -5    5.87    2.84
   0   8  -5    9.31    4.26
   0   8  -4   60.35    6.28
   0   8  -4   64.53    4.44
   0   8  -4   68.94    5.23
   0   8  -3    4.49    3.29
   0   8  -3   12.19    3.93
   0   8  -3    1.07    4.25
   0   8  -2  106.16    6.44
   0   8  -2   99.15    5.80
   0   8  -1   97.69    6.36
   0   8   0   71.96    5.78
   0   8   1  111.36    6.76
   0   8   1  113.25    5.92
   0   8   1  107.26    6.46
   0   8   1   98.72    3.98
   0   8   2   80.30    6.08
   0   8   2   83.71    5.40
   0   8   2   74.78    3.84
   0   8   3    2.92    3.68
   0   8   3   -2.52    5.09
   0   8   3    5.07    2.62
   0   8   3    6.94    3.39
   0   8   4    8.66    3.71
   0   8   4   17.50    4.18
   0   8   4   14.27    3.37
   0   8   4   10.56    4.62
   0   8   5    5.82    4.23
   0   8   5    5.69    3.52
   0   8   5    4.52    4.18
   0   8   5   13.40    4.71
   0   8   6   19.65    4.94
   0   8   6   16.48    4.20
   0   8   6   15.64    5.11
   0   8   6   23.77    4.02
   0   8   7   84.36    6.34
   0   8   7  102.69    6.98
   0   8   7  104.26    7.31
   0   8   8   55.09    5.47
   0   8   8   58.81    6.66
   0   8   8   64.53    6.18
   0   8   9   56.50    6.48
   0   8   9   55.40    6.18
   0   8  10   32.49    6.65
   0   8  10   30.97    6.10
   0   8  10   32.12    6.89
   0   8  10   31.29    6.98
   0   9  -8   -0.51    5.95
   0   9  -7   17.40    4.98
   0   9  -7    5.75    5.99
   0   9  -6    6.11    5.60
   0   9  -6   14.66    4.77
   0   9  -5    9.44    5.37
   0   9  -5   17.97    4.86
   0   9  -4   17.21    3.85
   0   9  -4   12.76    5.06
   0   9  -3    2.28    3.84
   0   9  -3    3.25    4.55
   0   9  -2    6.54    3.95
   0   9  -1  105.49    6.66
   0   9  -1  104.38    7.43
   0   9   0   32.96    5.77
   0   9   0   41.61    4.70
   0   9   1   80.19    7.24
   0   9   1   81.36    5.48
   0   9   2   46.29    5.98
   0   9   2   40.49    2.50
   0   9   2   52.67    5.28
   0   9   3  144.71    9.11
   0   9   3  152.90    7.80
   0   9   3  165.49    8.66
   0   9   4   35.08    3.85
   0   9   4   33.65    4.69
   0   9   4   26.76    4.94
   0   9   5    8.07    5.32
   0   9   5   -0.94    4.96
   0   9   5   13.22    4.67
   0   9   5    7.13    3.67
   0   9   6    9.10    5.41
   0   9   6    1.57    3.80
   0   9   6    4.05    5.12
   0   9   6    4.83    4.30
   0   9   7    7.52    5.64
   0   9   7    3.45    4.87
   0   9   7    2.56    4.42
   0   9   8   21.35    5.26
   0   9   8   10.98    5.65
   0   9   9   14.52    5.94
   0   9   9   11.28    5.76
   0   9  10   48.43    7.39
   0  10  -6   12.69    5.64
   0  10  -5    4.60    5.90
   0  10  -4    6.19    5.41
   0  10  -3    6.59    5.27
   0  10  -2   26.60    4.84
   0  10  -2   17.69    5.63
   0  10  -1    0.85    4.91
   0  10  -1   -0.54    5.72
   0  10   0   33.92    5.05
   0  10   0   14.11    5.75
   0  10   1    0.24    5.19
   0  10   1   -7.69    6.29
   0  10   2    8.88    6.12
   0  10   3   11.43    6.05
   0  10   3   -1.91    6.32
   0  10   4   21.83    6.43
   0  10   5   17.39    6.18
   0  10   5   12.00    4.58
   0  10   5    9.91    5.47
   0  10   6   51.23    7.26
   0  10   6   44.67    6.52
   0  10   6   51.37    5.90
   0  10   7    6.34    5.95
   0  10   8   13.37    6.57
   0  11   0    3.26    5.73
   0  11   1   35.04    6.56
   0  11   2    9.98    5.78
   0  11   3    3.20    6.55
   1 -11  -3   29.49    6.01
   1 -11  -2   37.16    6.58
   1 -11  -2   37.13    6.10
   1 -11  -1    3.32    5.92
   1 -11   0    8.47    5.85
   1 -11   1   -0.24    0.49
   1 -11   2   -0.24    0.61
   1 -10  -6   13.44    5.98
   1 -10  -5   10.15    5.66
   1 -10  -5    6.32    5.41
   1 -10  -4   18.62    5.60
   1 -10  -4   20.45    5.69
   1 -10  -4   19.20    4.03
   1 -10  -4   21.08    5.80
   1 -10  -3   18.15    5.54
   1 -10  -3    4.15    4.95
   1 -10  -3    7.82    3.58
   1 -10  -3    6.00    5.26
   1 -10  -2    6.98    5.11
   1 -10  -2   15.45    5.54
   1 -10  -2    5.71    5.28
   1 -10  -1   43.12    5.73
   1 -10  -1   44.50    5.72
   1 -10   0   18.80    5.12
   1 -10   0   15.92    4.79
   1 -10   1   27.41    5.68
   1 -10   1   27.33    4.58
   1 -10   2    0.47    5.02
   1 -10   2    3.47    3.95
   1 -10   3   -0.91    1.02
   1 -10   3    4.01    4.94
   1 -10   4    4.06    5.28
   1 -10   4   -1.18    0.73
   1 -10   5    4.32    5.81
   1 -10   6   11.44    5.64
   1  -9  -8   21.32    6.26
   1  -9  -7    7.99    5.60
   1  -9  -7    9.99    5.69
   1  -9  -7    3.48    5.24
   1  -9  -6   11.30    5.53
   1  -9  -6   15.48    5.33
   1  -9  -5   34.38    5.19
   1  -9  -5   37.70    4.35
   1  -9  -5   33.25    5.46
   1  -9  -4   87.00    6.81
   1  -9  -4   89.16    6.87
   1  -9  -4   96.27    6.69
   1  -9  -3   47.24    5.21
   1  -9  -3   39.83    5.13
   1  -9  -3   45.34    4.08
   1  -9  -3   53.25    5.67
   1  -9  -2    4.53    4.38
   1  -9  -2    2.41    4.60
   1  -9  -2    2.28    2.89
   1  -9  -2    1.02    4.33
   1  -9  -1   -2.99    4.47
   1  -9  -1    3.94    2.54
   1  -9  -1    3.10    4.19
   1  -9   0    9.98    4.59
   1  -9   0    6.39    2.31
   1  -9   0    4.76    4.32
   1  -9   1   41.91    5.13
   1  -9   1   40.47    2.64
   1  -9   1   32.40    4.57
   1  -9   2    7.95    4.54
   1  -9   2    8.00    3.53
   1  -9   3   13.65    4.34
   1  -9   3   18.33    3.64
   1  -9   4    3.63    1.40
   1  -9   4   21.28    4.79
   1  -9   5   19.86    2.23
   1  -9   5   11.42    5.19
   1  -9   6    8.10    5.07
   1  -9   7   -0.75    3.66
   1  -9   8   18.59    4.11
   1  -8  -9    5.60    5.54
   1  -8  -9   13.44    5.78
   1  -8  -8   -1.84    5.05
   1  -8  -8   -3.62    5.16
   1  -8  -7    1.45    5.06
   1  -8  -7   -4.77    5.09
   1  -8  -6   99.56    7.07
   1  -8  -6  115.31    6.65
   1  -8  -6  107.17    7.26
   1  -8  -5   48.12    5.07
   1  -8  -5   59.43    4.65
   1  -8  -5   53.66    5.64
   1  -8  -4  127.86    7.62
   1  -8  -4  143.83    6.83
   1  -8  -4  137.69    7.58
   1  -8  -4  145.83    7.71
   1  -8  -3   36.83    4.68
   1  -8  -3   41.08    4.73
   1  -8  -3   38.88    3.60
   1  -8  -3   44.52    4.91
   1  -8  -2  157.54    8.05
   1  -8  -2  152.29    8.10
   1  -8  -2  166.22    6.96
   1  -8  -1   64.11    5.35
   1  -8  -1   70.63    5.28
   1  -8  -1   74.47    4.01
   1  -8   0   60.71    3.41
   1  -8   0   54.58    5.02
   1  -8   0   67.82    4.86
   1  -8   1   12.84    3.93
   1  -8   1   13.61    1.87
   1  -8   1   10.99    3.58
   1  -8   2    5.74    4.02
   1  -8   2    8.33    3.27
   1  -8   3    7.74    1.80
   1  -8   3   10.96    4.15
   1  -8   3   11.20    3.12
   1  -8   4   53.05    3.70
   1  -8   4   53.79    5.16
   1  -8   5   58.92    5.39
   1  -8   5   56.51    2.94
   1  -8   6   21.03    4.17
   1  -8   7   16.87    4.66
   1  -8   8   52.86    5.41
   1  -8   9   63.94    5.88
   1  -7 -11    9.11    6.01
   1  -7 -10   26.53    5.97
   1  -7 -10   33.86    6.07
   1  -7 -10   21.75    6.08
   1  -7  -9   33.55    6.34
   1  -7  -9   33.72    5.71
   1  -7  -9   40.51    5.98
   1  -7  -8   59.55    6.10
   1  -7  -8   75.07    6.05
   1  -7  -8   67.80    6.27
   1  -7  -7   10.10    4.87
   1  -7  -6  126.36    6.66
   1  -7  -6  119.27    7.25
   1  -7  -5  119.78    6.05
   1  -7  -5  114.33    6.79
   1  -7  -5  109.44    6.57
   1  -7  -4   13.82    3.84
   1  -7  -4   12.31    3.10
   1  -7  -4    5.28    3.45
   1  -7  -3   13.40    3.67
   1  -7  -3    8.88    3.51
   1  -7  -3   11.40    2.90
   1  -7  -3   17.39    3.82
   1  -7  -2    4.53    3.37
   1  -7  -2    3.71    2.42
   1  -7  -2    1.32    3.21
   1  -7  -1  118.56    6.45
   1  -7  -1  119.78    6.23
   1  -7  -1  129.23    5.38
   1  -7   0  106.44    5.69
   1  -7   0  107.13    4.54
   1  -7   0   95.39    5.69
   1  -7   1  181.84    8.63
   1  -7   1  192.84    8.13
   1  -7   1  192.72    7.15
   1  -7   2   10.23    3.35
   1  -7   2   10.63    1.50
   1  -7   2    9.72    2.79
   1  -7   3  122.05    4.57
   1  -7   3  123.02    5.54
   1  -7   3  123.70    6.40
   1  -7   4   35.08    3.51
   1  -7   4   -0.49    3.53
   1  -7   5   21.27    3.98
   1  -7   5   21.03    2.04
   1  -7   5   18.02    2.01
   1  -7   6    5.31    4.06
   1  -7   6    2.40    3.84
   1  -7   6    2.04    2.23
   1  -7   6    2.58    2.17
   1  -7   7    5.23    1.18
   1  -7   7    6.41    4.43
   1  -7   7   11.78    2.56
   1  -7   8   16.77    4.89
   1  -7   8   31.73    3.10
   1  -7   9   37.06    5.38
   1  -7  10   -4.55    5.68
   1  -6 -12    3.90    5.27
   1  -6 -12    2.21    6.60
   1  -6 -11    4.27    5.57
   1  -6 -11    8.16    4.95
   1  -6 -11    6.82    5.99
   1  -6 -10   12.00    5.59
   1  -6 -10    8.24    4.77
   1  -6 -10   12.87    5.52
   1  -6  -9    4.31    4.76
   1  -6  -9    1.48    4.53
   1  -6  -9   -1.64    4.60
   1  -6  -8   63.21    5.77
   1  -6  -8   73.68    5.57
   1  -6  -8   56.75    5.76
   1  -6  -7  313.04   12.71
   1  -6  -7  329.82   13.08
   1  -6  -6  238.97   10.17
   1  -6  -6  245.42   10.53
   1  -6  -6  242.35   10.75
   1  -6  -5  212.40    8.90
   1  -6  -5  211.91    9.30
   1  -6  -5  204.05    9.31
   1  -6  -4  359.98   14.18
   1  -6  -4  356.00   14.03
   1  -6  -4  366.20   13.67
   1  -6  -3   89.32    4.42
   1  -6  -3   84.53    4.95
   1  -6  -3   73.89    5.03
   1  -6  -3   86.73    5.07
   1  -6  -2  286.53   11.66
   1  -6  -2  277.07   11.46
   1  -6  -2  294.81   10.77
   1  -6  -1    0.83    1.75
   1  -6  -1    1.47    2.54
   1  -6  -1    1.37    2.59
   1  -6   0   10.83    2.85
   1  -6   0    4.98    1.44
   1  -6   0    8.06    2.44
   1  -6   1   30.31    1.79
   1  -6   1   27.13    3.17
   1  -6   1   29.54    3.02
   1  -6   2   83.91    4.94
   1  -6   2   88.83    4.32
   1  -6   2   87.67    3.41
   1  -6   3  443.19   16.68
   1  -6   3  449.89   16.08
   1  -6   3  445.83   15.52
   1  -6   3  436.09   16.62
   1  -6   4  644.15   24.24
   1  -6   4  644.14   24.14
   1  -6   4  682.25   23.14
   1  -6   4  669.14   23.37
   1  -6   5   24.75    1.18
   1  -6   5   32.76    3.57
   1  -6   5   22.22    3.34
   1  -6   5   25.74    2.13
   1  -6   6  123.18    6.75
   1  -6   6  129.95    5.13
   1  -6   6  133.82    6.62
   1  -6   6  129.53    5.57
   1  -6   6  127.98    5.07
   1  -6   7   45.63    3.24
   1  -6   7   46.88    4.73
   1  -6   7   54.48    3.49
   1  -6   7   47.45    3.04
   1  -6   8   17.80    2.90
   1  -6   8   18.27    3.09
   1  -6   8   27.26    3.10
   1  -6   8   22.82    4.43
   1  -6   9   14.08    3.39
   1  -6   9   11.69    4.56
   1  -6  10   42.86    3.32
   1  -6  10    4.54    5.54
   1  -6  11   18.51    5.74
   1  -5 -13   20.22    6.61
   1  -5 -13   29.29    6.19
   1  -5 -12   15.18    6.12
   1  -5 -12   11.70    5.30
   1  -5 -12    8.43    5.97
   1  -5 -11   28.08    5.84
   1  -5 -11   25.81    5.32
   1  -5 -11   28.76    5.66
   1  -5 -10  110.34    7.62
   1  -5 -10  125.94    7.55
   1  -5 -10  131.72    7.90
   1  -5  -9   24.03    4.85
   1  -5  -9   17.90    4.53
   1  -5  -9   19.98    4.73
   1  -5  -8   53.56    5.12
   1  -5  -8   54.98    4.98
   1  -5  -8   49.89    4.98
   1  -5  -7    1.36    3.64
   1  -5  -7   -1.48    3.43
   1  -5  -7    1.06    3.24
   1  -5  -6   50.58    4.39
   1  -5  -6   46.29    4.22
   1  -5  -6   58.36    4.54
   1  -5  -5  117.88    6.03
   1  -5  -5  115.59    5.67
   1  -5  -5  116.50    5.95
   1  -5  -4  156.57    6.56
   1  -5  -4  144.83    6.81
   1  -5  -3  232.42    9.74
   1  -5  -3  254.61    9.40
   1  -5  -3  239.05    9.65
   1  -5  -2  421.68   16.24
   1  -5  -2  434.51   16.23
   1  -5  -2  460.29   15.69
   1  -5  -2  419.87   16.40
   1  -5  -1  532.72   20.26
   1  -5  -1  551.16   20.12
   1  -5  -1  571.27   19.51
   1  -5   0  128.26    5.95
   1  -5   0  131.07    5.78
   1  -5   0  134.13    5.03
   1  -5   1  137.47    6.43
   1  -5   1  154.98    6.32
   1  -5   1  155.94    5.59
   1  -5   2   39.73    1.83
   1  -5   2   36.18    3.04
   1  -5   2   37.12    3.04
   1  -5   2   41.45    2.58
   1  -5   3   42.28    3.23
   1  -5   3   40.15    3.19
   1  -5   3   37.80    2.46
   1  -5   3   42.32    1.99
   1  -5   4   11.70    0.98
   1  -5   4   17.59    2.72
   1  -5   4   15.28    1.52
   1  -5   4   13.71    0.96
   1  -5   4   20.63    2.76
   1  -5   5    6.65    1.42
   1  -5   5    2.48    2.84
   1  -5   5    6.11    2.69
   1  -5   5    2.79    1.45
   1  -5   5    2.03    1.57
   1  -5   6  179.10    8.32
   1  -5   6  178.26    7.15
   1  -5   6  181.96    7.18
   1  -5   7   87.69    5.87
   1  -5   7   85.23    4.49
   1  -5   7   88.72    4.76
   1  -5   8   30.68    4.17
   1  -5   8   29.14    3.56
   1  -5   8   34.65    3.47
   1  -5   9   27.80    4.14
   1  -5   9   34.94    5.00
   1  -5   9   40.13    3.67
   1  -5  10   13.58    4.14
   1  -5  10   13.62    4.98
   1  -5  11   14.11    5.33
   1  -5  11   30.25    4.22
   1  -5  12   -6.16    5.65
   1  -4 -14   12.57    6.31
   1  -4 -13    3.00    5.32
   1  -4 -13    6.64    5.76
   1  -4 -12   51.81    5.89
   1  -4 -12   44.60    6.26
   1  -4 -12   58.72    6.36
   1  -4 -11    5.57    4.95
   1  -4 -11    6.35    4.56
   1  -4 -11   14.10    4.91
   1  -4 -10   76.39    6.04
   1  -4 -10   69.89    5.95
   1  -4 -10   76.30    6.19
   1  -4  -9  137.52    7.87
   1  -4  -9  143.27    7.61
   1  -4  -9  146.30    7.54
   1  -4  -8  403.95   15.58
   1  -4  -8  403.52   15.57
   1  -4  -8  378.90   15.76
   1  -4  -7  219.90    9.33
   1  -4  -7  207.92    9.15
   1  -4  -7  201.89    9.24
   1  -4  -6  318.82   12.33
   1  -4  -6  311.70   12.30
   1  -4  -6  297.71   12.25
   1  -4  -5  396.06   14.83
   1  -4  -5  395.85   14.81
   1  -4  -5  376.51   14.72
   1  -4  -4   24.97    2.66
   1  -4  -4   29.89    2.56
   1  -4  -4   28.84    2.87
   1  -4  -3   31.08    2.68
   1  -4  -3   31.93    2.20
   1  -4  -2  164.07    6.53
   1  -4  -2  158.86    6.47
   1  -4  -2  145.23    5.93
   1  -4  -2  151.00    6.28
   1  -4  -1  617.90   20.79
   1  -4  -1  615.85   21.26
   1  -4  -1  549.08   21.35
   1  -4  -1  583.94   21.37
   1  -4  -1  601.64   21.31
   1  -4   0  299.93   10.60
   1  -4   0  276.09   10.88
   1  -4   0  286.70   10.12
   1  -4   0  287.29   10.72
   1  -4   1  863.86   30.71
   1  -4   1  911.11   30.58
   1  -4   1  873.50   30.01
   1  -4   2 3201.35  108.47
   1  -4   2 3170.31  108.45
   1  -4   2 3156.32  107.75
   1  -4   2 3222.65  108.17
   1  -4   3 1042.67   36.23
   1  -4   3  995.56   35.43
   1  -4   3 1057.64   36.17
   1  -4   3 1076.99   35.70
   1  -4   3 1061.92   35.46
   1  -4   4  200.74    7.91
   1  -4   4  194.51    7.67
   1  -4   4  187.74    6.86
   1  -4   4  196.68    7.14
   1  -4   5   51.52    3.70
   1  -4   5   52.57    3.27
   1  -4   5   52.78    2.92
   1  -4   5   57.94    2.99
   1  -4   6   97.80    5.37
   1  -4   6   96.42    4.50
   1  -4   7   47.06    4.16
   1  -4   7   43.54    3.27
   1  -4   8   34.26    3.91
   1  -4   8   33.63    4.37
   1  -4   8   27.99    3.37
   1  -4   9   65.69    5.42
   1  -4   9   62.48    4.55
   1  -4   9   68.95    5.07
   1  -4  10   36.89    5.21
   1  -4  10   51.07    5.06
   1  -4  10   51.25    4.38
   1  -4  11   60.35    6.41
   1  -4  11   66.01    5.00
   1  -4  11   55.08    5.61
   1  -4  12   22.50    5.92
   1  -4  12   18.08    5.16
   1  -4  12   12.05    4.47
   1  -4  13   17.34    6.30
   1  -3 -13   26.04    5.47
   1  -3 -13   20.93    5.88
   1  -3 -12    9.96    4.73
   1  -3 -12   11.52    4.93
   1  -3 -11   38.55    5.45
   1  -3 -11   51.45    5.49
   1  -3 -11   52.79    5.37
   1  -3 -10   25.44    4.53
   1  -3 -10   19.85    4.40
   1  -3 -10   25.31    4.59
   1  -3  -9   20.59    4.01
   1  -3  -9   29.59    3.92
   1  -3  -9   17.27    4.16
   1  -3  -8    0.39    3.28
   1  -3  -8   -1.51    3.28
   1  -3  -8    4.66    3.45
   1  -3  -7  297.71   11.49
   1  -3  -7  293.99   11.50
   1  -3  -6  126.13    6.37
   1  -3  -6  130.26    6.36
   1  -3  -5 1132.72   39.54
   1  -3  -5 1190.35   39.55
   1  -3  -5 1062.62   39.41
   1  -3  -4  299.51   11.49
   1  -3  -4  307.28   11.57
   1  -3  -4  295.02   11.35
   1  -3  -3  417.52   15.15
   1  -3  -3  413.08   14.83
   1  -3  -3  408.27   14.94
   1  -3  -2  658.52   22.39
   1  -3  -2  616.34   22.15
   1  -3  -2  627.86   21.98
   1  -3  -1   71.42    3.74
   1  -3  -1   85.62    3.70
   1  -3  -1   84.29    3.26
   1  -3   0   20.41    1.80
   1  -3   0   20.12    1.77
   1  -3   0   20.82    1.06
   1  -3   0   22.40    1.56
   1  -3   0   21.49    1.65
   1  -3   1  688.35   24.78
   1  -3   1  716.61   24.53
   1  -3   1  721.69   24.68
   1  -3   2   51.61    2.08
   1  -3   2   56.15    2.70
   1  -3   2   58.11    2.26
   1  -3   2   54.89    2.73
   1  -3   2   56.39    2.44
   1  -3   3    8.20    1.42
   1  -3   3    6.03    1.54
   1  -3   3    8.07    0.92
   1  -3   3    6.79    0.77
   1  -3   4  570.67   20.05
   1  -3   4  562.03   19.79
   1  -3   4  556.70   19.57
   1  -3   5  381.14   14.38
   1  -3   5  390.83   13.90
   1  -3   6  419.01   15.54
   1  -3   6  412.07   15.02
   1  -3   7   79.99    4.94
   1  -3   7   75.89    4.24
   1  -3   8   28.33    3.76
   1  -3   8   30.91    3.37
   1  -3   9   17.93    3.98
   1  -3   9   29.03    3.65
   1  -3  10    4.52    4.61
   1  -3  10    6.84    3.57
   1  -3  10    2.57    1.26
   1  -3  11   17.47    5.10
   1  -3  11   10.64    4.15
   1  -3  12   33.32    5.67
   1  -3  12   38.28    5.36
   1  -3  12   29.36    4.90
   1  -3  13   14.06    6.21
   1  -3  13    9.14    6.98
   1  -3  13    3.25    5.43
   1  -3  14   13.74    6.82
   1  -3  14    3.05    5.94
   1  -2 -13   44.02    5.94
   1  -2 -13   36.27    5.39
   1  -2 -12   30.29    4.87
   1  -2 -12   36.87    4.91
   1  -2 -11   59.23    5.17
   1  -2 -10  190.87    8.75
   1  -2  -9  125.78    6.36
   1  -2  -8   61.64    4.43
   1  -2  -7  178.35    8.71
   1  -2  -7  227.07    8.67
   1  -2  -6   45.47    3.40
   1  -2  -6   50.11    3.57
   1  -2  -6   50.38    3.37
   1  -2  -5   20.19    2.33
   1  -2  -5   22.92    2.70
   1  -2  -5   19.37    2.28
   1  -2  -4  312.97   11.33
   1  -2  -4  288.79   11.18
   1  -2  -3 1406.56   48.40
   1  -2  -2 1928.29   65.88
   1  -2  -1 1111.57   38.07
   1  -2  -1 1101.73   37.89
   1  -2   0 4320.25  143.80
   1  -2   0 4294.90  143.78
   1  -2   0 4167.09  143.45
   1  -2   1 5249.25  170.41
   1  -2   1 5049.35  170.35
   1  -2   1 4910.00  170.39
   1  -2   1 4970.95  170.08
   1  -2   2 1737.96   59.32
   1  -2   2 1702.50   59.12
   1  -2   2 1752.26   59.00
   1  -2   2 1739.11   59.14
   1  -2   2 1754.54   59.25
   1  -2   3   58.88    2.87
   1  -2   3   59.27    2.67
   1  -2   3   63.48    2.57
   1  -2   3   64.20    2.36
   1  -2   4  126.30    5.12
   1  -2   4  117.59    4.73
   1  -2   5  369.01   13.66
   1  -2   5  373.32   12.91
   1  -2   5  361.96   13.31
   1  -2   6  191.09    7.85
   1  -2   6  188.60    6.95
   1  -2   6  188.10    7.53
   1  -2   7  356.57   13.72
   1  -2   7  356.38   12.75
   1  -2   7  358.61   13.38
   1  -2   8  336.83   13.10
   1  -2   8  319.08   12.62
   1  -2   9  156.38    7.38
   1  -2   9  153.07    7.63
   1  -2  10  159.98    8.02
   1  -2  10  180.27    8.65
   1  -2  11   78.75    5.98
   1  -2  11   62.31    5.36
   1  -2  12   42.37    5.72
   1  -2  12   23.64    4.88
   1  -2  13   -3.47    5.55
   1  -2  13   -1.58    5.47
   1  -2  14    5.26    6.49
   1  -2  14   -0.98    5.18
   1  -1 -13   13.72    5.76
   1  -1 -13   13.72    4.26
   1  -1 -12    7.94    5.59
   1  -1 -12    3.12    4.02
   1  -1 -11    8.74    3.62
   1  -1 -10  107.41    5.84
   1  -1  -9  149.44    7.01
   1  -1  -8  288.05   11.37
   1  -1  -7  606.34   21.68
   1  -1  -7  583.63   21.35
   1  -1  -6  444.55   15.64
   1  -1  -6  398.13   15.35
   1  -1  -5  292.62   11.17
   1  -1  -5  294.06   11.03
   1  -1  -4   20.27    2.03
   1  -1  -4   26.12    2.02
   1  -1  -4   30.98    2.21
   1  -1  -3  291.96   10.95
   1  -1  -3  298.02   11.06
   1  -1  -3  317.21   11.05
   1  -1  -2  106.41    4.17
   1  -1  -1 2526.42   89.01
   1  -1  -1 2682.50   88.88
   1  -1   0 1421.46   52.08
   1  -1   0 1534.90   51.95
   1  -1   0 1564.53   51.82
   1  -1   1  483.53   16.45
   1  -1   1  473.38   16.56
   1  -1   1  481.31   16.52
   1  -1   1  471.52   16.59
   1  -1   1  487.35   16.56
   1  -1   1  483.22   16.54
   1  -1   2   24.39    1.04
   1  -1   2   23.24    1.20
   1  -1   2   22.42    1.27
   1  -1   2   21.68    1.08
   1  -1   3 2177.53   73.57
   1  -1   3 2130.77   73.18
   1  -1   3 2208.18   73.44
   1  -1   4  716.20   24.27
   1  -1   4  684.86   23.66
   1  -1   4  704.51   24.12
   1  -1   5  256.14    9.30
   1  -1   5  248.88    9.07
   1  -1   5  236.74    8.47
   1  -1   6  110.32    4.43
   1  -1   6  101.84    4.83
   1  -1   6  100.84    3.89
   1  -1   6  105.03    4.92
   1  -1   7    1.81    0.92
   1  -1   7    1.06    2.24
   1  -1   7    2.81    1.81
   1  -1   7    4.82    2.31
   1  -1   8   22.38    3.29
   1  -1   8   16.79    2.44
   1  -1   8   23.27    1.56
   1  -1   8   21.20    3.03
   1  -1   9  160.93    6.92
   1  -1   9  155.52    7.42
   1  -1   9  155.66    7.52
   1  -1  10  243.53    9.70
   1  -1  10  249.75   10.53
   1  -1  10  216.26   10.01
   1  -1  11   50.19    5.48
   1  -1  11   50.52    5.12
   1  -1  12   17.91    5.48
   1  -1  12   16.88    4.69
   1  -1  13   28.62    6.00
   1  -1  13   16.61    5.13
   1  -1  14   22.46    5.64
   1   0 -12   39.93    5.62
   1   0 -12   29.89    4.17
   1   0 -11   25.37    4.78
   1   0 -11   31.58    3.65
   1   0 -10   -2.62    4.19
   1   0 -10    4.71    2.87
   1   0  -9   11.69    2.84
   1   0  -8    6.82    2.53
   1   0  -7    7.56    2.56
   1   0  -7    3.70    2.19
   1   0  -6  544.94   19.14
   1   0  -6  514.15   18.84
   1   0  -5  674.66   23.39
   1   0  -5  648.39   23.23
   1   0  -4 2521.39   87.10
   1   0  -4 2577.46   87.05
   1   0  -3 2577.46   87.86
   1   0  -2  636.06   23.65
   1   0  -2  744.65   23.76
   1   0  -1 5987.97  202.88
   1   0   1  892.95   30.47
   1   0   2  243.74    8.14
   1   0   2  228.35    8.07
   1   0   3 1097.51   36.42
   1   0   3 1048.10   36.59
   1   0   3 1039.22   36.57
   1   0   4 1202.27   40.49
   1   0   4 1158.92   40.76
   1   0   4 1180.80   40.78
   1   0   5 1258.36   43.47
   1   0   5 1248.30   43.84
   1   0   5 1313.65   43.91
   1   0   6  513.44   18.90
   1   0   6  529.98   18.47
   1   0   6  533.62   18.97
   1   0   7 1176.46   40.77
   1   0   7 1177.34   40.36
   1   0   7 1133.03   40.86
   1   0   7 1191.38   40.96
   1   0   8  129.82    5.75
   1   0   8  110.19    5.83
   1   0   8  125.46    5.18
   1   0   8  114.68    5.97
   1   0   9  138.97    6.93
   1   0   9  143.20    6.01
   1   0   9  137.03    6.55
   1   0   9  141.41    6.98
   1   0  10  245.16   10.84
   1   0  10  248.38   10.56
   1   0  10  258.01    9.87
   1   0  10  261.56   11.13
   1   0  11    6.37    4.22
   1   0  11    7.31    2.69
   1   0  11    3.01    4.11
   1   0  12    7.32    5.04
   1   0  12    1.48    2.71
   1   0  12   -1.33    4.46
   1   0  13   31.09    6.26
   1   0  13   37.19    6.05
   1   0  14   10.87    6.18
   1   1 -14   -0.22    5.86
   1   1 -13   -1.82    4.67
   1   1 -12   18.98    5.53
   1   1 -12   19.53    3.30
   1   1 -11   36.30    5.17
   1   1 -11   22.67    3.29
   1   1 -10  311.87   12.56
   1   1 -10  281.42   11.11
   1   1  -9   59.95    3.66
   1   1  -8  382.29   15.21
   1   1  -8  397.66   14.39
   1   1  -7   25.66    2.71
   1   1  -7   21.89    2.35
   1   1  -6    9.59    1.70
   1   1  -6    9.49    1.97
   1   1  -5  273.07    9.93
   1   1  -5  261.36    9.82
   1   1  -4   14.72    1.43
   1   1  -3  270.91    9.73
   1   1  -2 2712.71   93.94
   1   1  -2 2784.45   93.70
   1   1   1 1659.49   56.42
   1   1   2 1464.79   50.01
   1   1   3  365.86   12.93
   1   1   3  378.64   13.08
   1   1   3  368.23   13.13
   1   1   4  162.31    6.60
   1   1   4  175.28    6.47
   1   1   4  173.72    6.57
   1   1   5   39.88    2.25
   1   1   5   34.85    2.56
   1   1   5   37.07    2.42
   1   1   6  158.40    6.83
   1   1   6  169.45    6.56
   1   1   6  165.78    6.89
   1   1   7  777.47   26.64
   1   1   7  730.60   26.59
   1   1   7  734.85   26.24
   1   1   7  743.85   26.62
   1   1   8  678.71   23.78
   1   1   8  631.80   23.77
   1   1   8  665.53   23.43
   1   1   8  642.95   23.78
   1   1   9  589.84   21.27
   1   1   9  546.78   21.23
   1   1   9  581.04   20.78
   1   1   9  574.75   21.31
   1   1  10   49.12    4.80
   1   1  10   55.20    4.72
   1   1  10   57.92    4.13
   1   1  10   58.70    5.08
   1   1  11   44.47    4.01
   1   1  11   39.28    4.85
   1   1  11   31.76    4.70
   1   1  11   34.06    4.92
   1   1  12   17.01    3.81
   1   1  12   13.17    4.72
   1   1  12   11.27    4.66
   1   1  13   13.71    5.15
   1   1  13   17.44    3.92
   1   1  13   14.85    5.46
   1   2 -14    6.58    5.40
   1   2 -13    4.56    5.09
   1   2 -13   11.24    5.96
   1   2 -12   -0.92    4.09
   1   2 -12    2.38    5.06
   1   2 -11   13.52    4.71
   1   2 -11   11.51    4.00
   1   2 -11   12.00    2.34
   1   2 -10    1.25    2.03
   1   2 -10    0.48    3.19
   1   2 -10   -1.75    4.29
   1   2  -9   57.75    4.47
   1   2  -9   57.93    3.34
   1   2  -8   80.29    5.13
   1   2  -8   82.27    4.70
   1   2  -8   78.28    3.84
   1   2  -7  177.34    8.09
   1   2  -7  185.72    7.33
   1   2  -7  187.32    7.74
   1   2  -7  179.34    7.06
   1   2  -6 1150.93   39.84
   1   2  -6 1147.71   39.50
   1   2  -6 1122.07   39.04
   1   2  -6 1124.65   39.18
   1   2  -5  424.99   15.09
   1   2  -5  429.56   14.79
   1   2  -5  431.92   14.73
   1   2  -4 1020.80   35.26
   1   2  -4 1012.99   34.98
   1   2  -3  354.77   12.89
   1   2  -3  361.95   13.04
   1   2  -2   12.00    1.31
   1   2  -2   15.73    1.43
   1   2  -2   12.56    0.97
   1   2  -1    2.19    0.76
   1   2   0 1621.17   55.34
   1   2   0 1620.29   55.33
   1   2   1  508.40   16.92
   1   2   1  461.12   16.85
   1   2   1  480.98   16.89
   1   2   2 9999.00  338.92
   1   2   3   33.49    1.98
   1   2   3   33.53    1.83
   1   2   4 1819.88   63.28
   1   2   4 1830.74   63.33
   1   2   4 1899.33   63.43
   1   2   5 1211.78   42.21
   1   2   5 1228.67   42.32
   1   2   6  530.31   19.01
   1   2   6  522.24   19.04
   1   2   7   36.70    3.09
   1   2   7   39.78    3.43
   1   2   7   36.02    3.33
   1   2   8    7.28    2.76
   1   2   8    7.85    2.92
   1   2   8   11.17    2.93
   1   2   8    7.61    2.92
   1   2   9  139.55    7.06
   1   2   9  141.86    6.78
   1   2   9  131.14    6.89
   1   2   9  144.86    7.10
   1   2  10   99.15    6.35
   1   2  10   90.28    6.04
   1   2  10   98.13    5.62
   1   2  10  100.27    6.00
   1   2  11  179.66    8.73
   1   2  11  162.69    8.18
   1   2  11  164.74    8.68
   1   2  11  192.29    8.89
   1   2  12   47.82    4.94
   1   2  12   55.42    5.98
   1   2  12   42.00    5.63
   1   2  12   51.15    6.14
   1   2  13  103.05    7.69
   1   2  13  100.67    7.75
   1   2  13  112.80    7.03
   1   2  13  118.77    8.01
   1   3 -13    6.61    5.25
   1   3 -12   33.00    4.91
   1   3 -12   22.31    5.78
   1   3 -11   36.86    4.43
   1   3 -11   30.76    5.49
   1   3 -10   63.01    2.76
   1   3 -10   74.74    5.21
   1   3 -10   78.75    5.94
   1   3  -9    2.99    3.44
   1   3  -9    1.02    3.89
   1   3  -9    1.85    1.28
   1   3  -8   18.81    3.88
   1   3  -8   15.51    3.24
   1   3  -8   13.37    1.67
   1   3  -7  192.59    8.32
   1   3  -7  198.74    7.90
   1   3  -7  171.12    6.86
   1   3  -6   28.63    2.79
   1   3  -6   28.58    2.00
   1   3  -6   31.66    3.25
   1   3  -6   25.86    1.94
   1   3  -5  377.64   14.02
   1   3  -5  374.16   13.69
   1   3  -5  368.93   13.14
   1   3  -5  362.71   13.08
   1   3  -4  146.96    6.34
   1   3  -4  139.67    5.97
   1   3  -3 1633.68   56.60
   1   3  -3 1662.69   56.64
   1   3  -3 1644.24   56.13
   1   3  -2  583.55   20.36
   1   3  -2  554.12   20.04
   1   3  -2  602.04   20.34
   1   3  -1  546.44   19.24
   1   3  -1  553.80   19.27
   1   3   0  630.94   21.87
   1   3   0  622.78   21.78
   1   3   1  395.92   13.95
   1   3   1  387.20   14.02
   1   3   1  392.66   14.00
   1   3   2  358.38   13.14
   1   3   2  372.37   13.21
   1   3   3 1381.57   47.60
   1   3   3 1351.82   47.59
   1   3   3 1404.34   47.57
   1   3   4  358.77   13.28
   1   3   4  368.42   13.33
   1   3   4  353.50   13.27
   1   3   5  609.24   24.20
   1   3   5  755.26   24.29
   1   3   6 1279.08   44.77
   1   3   6 1288.13   44.79
   1   3   7 1113.88   38.94
   1   3   7 1108.27   38.74
   1   3   7 1080.61   38.72
   1   3   8  227.98    9.99
   1   3   8  231.68    9.78
   1   3   8  233.02    9.72
   1   3   9   92.73    5.91
   1   3   9   84.70    5.65
   1   3   9   87.02    5.47
   1   3  10    5.25    3.85
   1   3  10    4.46    3.75
   1   3  10   -0.21    3.99
   1   3  10    2.03    3.71
   1   3  11    8.70    4.18
   1   3  11    7.94    4.07
   1   3  11    6.48    4.71
   1   3  11    4.51    4.41
   1   3  12   23.52    4.81
   1   3  12   24.10    5.37
   1   3  12   16.12    5.01
   1   3  13    8.16    4.94
   1   3  13    6.74    5.65
   1   3  13   -4.90    5.46
   1   3  13    6.27    5.66
   1   4 -13    1.01    5.41
   1   4 -12    1.34    4.92
   1   4 -12    8.29    5.88
   1   4 -11    8.30    4.42
   1   4 -11   14.05    5.28
   1   4 -10   16.87    4.08
   1   4 -10   17.21    4.74
   1   4  -9  104.09    6.91
   1   4  -9  118.97    6.29
   1   4  -8   18.03    3.49
   1   4  -8   17.52    4.13
   1   4  -8   12.86    1.05
   1   4  -7  301.31   10.77
   1   4  -7  301.44   10.93
   1   4  -6   40.49    2.00
   1   4  -6   44.91    3.55
   1   4  -6   42.92    2.16
   1   4  -6   41.73    4.00
   1   4  -6   41.06    2.38
   1   4  -5   19.48    2.82
   1   4  -5   13.87    1.20
   1   4  -5   14.87    1.51
   1   4  -4   34.20    2.05
   1   4  -4   32.66    2.87
   1   4  -3  643.73   21.95
   1   4  -3  613.86   21.42
   1   4  -3  637.84   21.77
   1   4  -3  590.02   21.21
   1   4  -2  381.25   13.44
   1   4  -2  371.53   13.18
   1   4  -2  344.48   13.00
   1   4  -1  402.35   14.06
   1   4  -1  424.79   14.13
   1   4   0 1139.78   38.68
   1   4   0 1099.55   38.48
   1   4   1  819.77   28.01
   1   4   1  802.71   28.04
   1   4   1  781.87   27.85
   1   4   2 1191.96   41.31
   1   4   2 1288.46   41.46
   1   4   2 1211.23   41.49
   1   4   3    8.99    1.79
   1   4   3    9.15    1.92
   1   4   3    7.71    1.83
   1   4   4 2749.72   95.36
   1   4   4 2771.34   95.49
   1   4   4 2830.84   95.39
   1   4   5  201.68    8.55
   1   4   5  210.68    8.44
   1   4   5  197.67    8.40
   1   4   6    5.10    2.66
   1   4   6    4.42    2.52
   1   4   7   23.76    3.71
   1   4   7   33.11    3.79
   1   4   7   24.76    3.28
   1   4   8   36.56    4.13
   1   4   8   37.87    4.33
   1   4   8   33.39    4.23
   1   4   9  190.76    9.23
   1   4   9  193.83    8.96
   1   4  10  382.22   16.25
   1   4  10  399.92   15.99
   1   4  10  411.69   16.04
   1   4  11   74.53    5.73
   1   4  11   75.04    6.15
   1   4  11   67.47    6.13
   1   4  12   86.00    6.80
   1   4  12   74.57    6.61
   1   4  12   64.31    6.95
   1   4  13   15.78    5.47
   1   4  13   19.03    5.83
   1   4  13   24.06    6.24
   1   4  13   20.57    5.97
   1   4  14    4.76    6.07
   1   5 -12   11.35    5.26
   1   5 -11    2.50    4.78
   1   5 -10    0.91    4.13
   1   5  -9   16.45    4.34
   1   5  -8   19.57    3.80
   1   5  -7   84.56    4.95
   1   5  -7   74.73    3.25
   1   5  -6  101.41    5.48
   1   5  -6   94.75    3.93
   1   5  -6   94.20    4.14
   1   5  -5  219.66    8.95
   1   5  -5  207.24    7.86
   1   5  -4   90.32    4.05
   1   5  -4   94.66    4.88
   1   5  -4   87.65    3.54
   1   5  -3  331.62   12.13
   1   5  -3  309.30   11.49
   1   5  -3  309.31   11.16
   1   5  -2   45.89    3.20
   1   5  -2   38.14    2.72
   1   5  -2   41.23    2.64
   1   5  -1   59.99    3.48
   1   5  -1   58.18    3.73
   1   5  -1   64.96    3.14
   1   5   0   46.08    3.08
   1   5   0   51.76    2.78
   1   5   1  866.31   30.20
   1   5   1  851.60   29.89
   1   5   2  850.82   30.51
   1   5   2  881.03   30.68
   1   5   2  890.22   30.80
   1   5   3  756.95   27.45
   1   5   3  780.83   27.77
   1   5   3  789.89   27.59
   1   5   3  784.15   27.72
   1   5   4  446.84   16.74
   1   5   4  461.78   17.08
   1   5   4  453.80   16.77
   1   5   5 1010.62   35.86
   1   5   5 1027.02   36.22
   1   5   5 1008.20   35.84
   1   5   6  213.68    9.50
   1   5   6  219.94    9.20
   1   5   6  207.86    9.25
   1   5   7   78.54    5.05
   1   5   8   -2.80    3.68
   1   5   8   -2.02    3.99
   1   5   9   33.06    4.86
   1   5   9   35.56    4.53
   1   5  10   73.14    6.29
   1   5  10   54.99    5.87
   1   5  10   73.46    5.98
   1   5  11   51.17    5.92
   1   5  11   43.60    6.07
   1   5  11   57.39    6.00
   1   5  12   77.31    7.26
   1   5  12   83.55    7.47
   1   5  13   45.01    6.42
   1   5  13   49.27    7.44
   1   5  14   44.20    7.39
   1   6  -9    8.52    4.22
   1   6  -8    4.24    4.20
   1   6  -7    5.29    1.29
   1   6  -7    3.72    3.94
   1   6  -6   58.44    4.65
   1   6  -6   48.80    2.76
   1   6  -5    6.67    3.28
   1   6  -5   10.43    1.99
   1   6  -4  316.41   11.04
   1   6  -4  345.15   12.58
   1   6  -4  342.70   11.74
   1   6  -3  297.17   11.55
   1   6  -3  280.14   10.81
   1   6  -2  105.55    5.70
   1   6  -2  109.09    5.10
   1   6  -2  108.22    4.73
   1   6  -1  503.31   18.30
   1   6  -1  474.45   17.70
   1   6  -1  485.70   17.27
   1   6   0   53.05    3.51
   1   6   0   36.74    4.06
   1   6   1   82.58    4.46
   1   6   1   77.41    3.97
   1   6   2   98.65    5.10
   1   6   2   92.17    4.95
   1   6   2   94.42    4.64
   1   6   3   21.64    3.26
   1   6   3   16.15    2.94
   1   6   3   14.83    2.74
   1   6   3   22.70    3.23
   1   6   4   70.53    4.38
   1   6   4   62.19    4.68
   1   6   4   74.02    4.68
   1   6   4   73.81    4.86
   1   6   4   76.47    4.68
   1   6   5  436.84   16.37
   1   6   5  445.74   16.79
   1   6   5  432.27   16.46
   1   6   5  415.75   16.90
   1   6   6   15.05    3.69
   1   6   6   18.66    3.69
   1   6   6   12.62    3.64
   1   6   7  284.00   12.57
   1   6   7  307.92   12.91
   1   6   7  319.02   12.69
   1   6   7  306.95   12.82
   1   6   8  155.64    8.13
   1   6   8  161.06    8.54
   1   6   9  177.25    9.02
   1   6  10   46.76    6.20
   1   6  10   55.05    6.10
   1   6  10   59.94    5.99
   1   6  11    7.90    5.70
   1   6  11   -3.17    5.28
   1   6  11    0.52    5.42
   1   6  12    9.62    5.70
   1   6  12    4.03    5.75
   1   6  12    7.02    6.19
   1   6  13    5.13    6.70
   1   7 -11    4.79    5.33
   1   7 -10    1.89    5.06
   1   7  -8   31.15    4.88
   1   7  -7   34.81    4.76
   1   7  -7   28.56    1.95
   1   7  -6   22.59    4.51
   1   7  -5    9.79    3.84
   1   7  -5    0.64    2.53
   1   7  -4   25.99    4.19
   1   7  -4   18.86    1.35
   1   7  -4   21.27    2.77
   1   7  -3    5.99    3.63
   1   7  -3    5.01    1.70
   1   7  -3    5.76    2.70
   1   7  -2   46.00    2.93
   1   7  -2   42.27    4.56
   1   7  -2   39.62    2.57
   1   7  -2   41.69    3.57
   1   7  -1   96.69    6.14
   1   7  -1   92.33    4.84
   1   7  -1  101.17    5.18
   1   7  -1  100.58    4.39
   1   7   0  484.39   17.14
   1   7   0  444.21   16.33
   1   7   0  447.84   17.35
   1   7   0  421.94   16.54
   1   7   0  433.50   15.90
   1   7   1  358.90   14.44
   1   7   1  385.70   14.01
   1   7   1  363.37   14.17
   1   7   1  356.40   13.44
   1   7   2  256.33   10.13
   1   7   2  241.20   10.20
   1   7   2  231.08    9.52
   1   7   3  208.68    8.89
   1   7   3  234.11    9.56
   1   7   3  215.08    9.64
   1   7   3  212.02    9.32
   1   7   4   60.71    5.27
   1   7   4   66.71    4.81
   1   7   4   55.32    4.58
   1   7   4   59.16    4.41
   1   7   4   59.99    4.94
   1   7   5   28.77    4.82
   1   7   5   25.49    3.54
   1   7   5   28.87    4.40
   1   7   5   29.82    4.20
   1   7   5   43.20    4.66
   1   7   6   19.37    4.47
   1   7   6   21.02    4.25
   1   7   6   15.47    3.96
   1   7   7   18.16    4.58
   1   7   7   26.69    4.55
   1   7   7   19.93    4.61
   1   7   8  120.00    7.56
   1   7   8  110.48    7.26
   1   7   8  123.61    7.27
   1   7   8  122.95    7.75
   1   7   9  112.18    7.42
   1   7   9  102.80    7.46
   1   7   9  106.82    7.56
   1   7   9  103.13    7.78
   1   7  10   67.29    6.85
   1   7  10   69.12    7.24
   1   7  10   74.58    6.90
   1   7  11  100.85    8.35
   1   7  11   89.15    8.03
   1   7  11  106.00    8.41
   1   7  11   90.31    8.16
   1   8  -9    5.91    5.65
   1   8  -8    7.96    5.06
   1   8  -7   11.76    5.01
   1   8  -6   48.19    5.71
   1   8  -6   31.63    3.15
   1   8  -5   46.84    5.45
   1   8  -4   80.08    6.11
   1   8  -4   63.44    4.70
   1   8  -3   20.82    4.97
   1   8  -3   24.24    2.33
   1   8  -3   21.49    3.68
   1   8  -2   24.33    2.91
   1   8  -2   24.41    4.89
   1   8  -2   21.45    3.77
   1   8  -1    1.39    1.51
   1   8  -1    1.02    2.67
   1   8  -1   -2.87    4.31
   1   8  -1    4.09    4.02
   1   8  -1   -0.16    3.57
   1   8   0    3.66    2.84
   1   8   0    5.53    1.92
   1   8   0    9.71    3.98
   1   8   0    5.15    3.64
   1   8   1    7.18    2.56
   1   8   1   11.02    4.01
   1   8   1    8.66    3.43
   1   8   1    7.97    3.83
   1   8   2   84.73    5.34
   1   8   2   82.14    5.86
   1   8   2   77.66    4.50
   1   8   3  118.18    6.43
   1   8   3  122.42    6.90
   1   8   3  106.16    5.76
   1   8   4  124.94    6.58
   1   8   4  129.54    7.90
   1   8   4  135.41    7.31
   1   8   4  122.45    7.40
   1   8   4  128.20    7.12
   1   8   5   89.69    5.80
   1   8   5   84.56    7.22
   1   8   5  105.69    6.40
   1   8   5  104.71    6.96
   1   8   5  102.44    6.71
   1   8   6  114.24    7.28
   1   8   6  109.69    6.55
   1   8   6  111.49    6.86
   1   8   6   94.44    7.04
   1   8   7   43.73    5.65
   1   8   7   48.53    5.50
   1   8   7   56.83    5.96
   1   8   8    9.52    5.44
   1   8   8    8.81    5.29
   1   8   8   19.63    5.04
   1   8   9    1.74    5.08
   1   8   9   -0.28    5.29
   1   8   9    2.18    5.77
   1   8   9    4.77    5.17
   1   8  10   18.64    6.34
   1   8  10    5.18    6.01
   1   8  10    8.45    5.84
   1   8  10   13.53    6.29
   1   8  11    9.53    6.62
   1   9  -7    4.99    6.33
   1   9  -6   -1.73    5.48
   1   9  -5   -0.50    5.59
   1   9  -4   -1.02    5.58
   1   9  -4    3.60    3.62
   1   9  -3   32.49    5.50
   1   9  -3   23.37    5.75
   1   9  -3   28.33    4.13
   1   9  -2   56.82    4.01
   1   9  -2   65.61    5.85
   1   9   0   91.75    6.71
   1   9   0  101.35    5.48
   1   9   0   94.60    6.35
   1   9   0   85.09    3.79
   1   9   1   24.22    4.89
   1   9   1   14.76    3.78
   1   9   1   17.62    2.50
   1   9   1   16.98    4.58
   1   9   2   25.78    3.23
   1   9   2   25.49    5.26
   1   9   2   22.74    3.84
   1   9   3    8.35    4.01
   1   9   3    6.83    3.46
   1   9   3    1.14    4.68
   1   9   4    2.99    3.39
   1   9   4   -0.85    5.15
   1   9   4    1.89    4.33
   1   9   4    3.13    4.85
   1   9   5   11.30    5.71
   1   9   5   27.57    4.37
   1   9   5   19.12    5.14
   1   9   5   27.42    5.14
   1   9   5   18.33    5.24
   1   9   6   54.95    5.26
   1   9   6   65.67    6.40
   1   9   6   69.42    6.10
   1   9   6   62.71    6.63
   1   9   7   59.82    6.68
   1   9   7   67.59    6.56
   1   9   7   55.55    5.60
   1   9   8   56.76    6.20
   1   9   8   49.69    6.65
   1   9   8   56.86    6.56
   1   9   9   60.59    7.21
   1   9   9   51.02    6.87
   1   9  10   43.08    7.25
   1  10  -6   18.14    5.48
   1  10  -5   17.03    5.56
   1  10  -4    6.27    5.03
   1  10  -4   -6.15    6.22
   1  10  -2    4.22    4.28
   1  10  -1    7.61    5.32
   1  10  -1   -5.27    4.65
   1  10   0   17.14    5.58
   1  10   0   21.28    5.23
   1  10   1   47.23    4.92
   1  10   1   42.44    6.56
   1  10   2   27.33    6.36
   1  10   2   31.14    5.65
   1  10   3   22.17    4.75
   1  10   3   21.21    5.85
   1  10   4   41.45    5.77
   1  10   4   31.06    6.35
   1  10   5   15.63    5.61
   1  10   5   10.05    3.94
   1  10   5    5.11    5.63
   1  10   6    1.58    6.04
   1  10   6    2.97    5.43
   1  10   6   -2.71    6.63
   1  10   7   -0.56    6.49
   1  10   7   -2.89    5.92
   1  10   8    4.36    6.42
   1  11   0    8.24    6.02
   1  11   1    1.79    6.11
   1  11   2    2.69    4.75
   1  11   2   -0.81    6.06
   1  11   3   15.07    5.25
   1  11   3    7.34    5.93
   1  11   4    2.67    6.22
   1  11   5   29.49    6.08
   1  11   7   20.45    7.11
   2 -11  -3   13.64    5.57
   2 -11  -2    7.80    5.65
   2 -11  -1    1.53    5.84
   2 -11  -1    6.63    5.63
   2 -10  -6   10.32    5.80
   2 -10  -5   23.68    6.01
   2 -10  -4   48.35    5.60
   2 -10  -4   44.34    6.53
   2 -10  -3   12.26    5.04
   2 -10  -3    4.28    5.53
   2 -10  -3    3.86    4.91
   2 -10  -2   41.33    5.58
   2 -10  -2   32.19    5.91
   2 -10  -2   29.55    5.33
   2 -10  -1    6.14    5.04
   2 -10  -1    7.13    5.21
   2 -10  -1    9.48    5.20
   2 -10   0   12.63    5.40
   2 -10   0   14.91    5.32
   2 -10   1    1.62    4.81
   2 -10   1    1.72    4.31
   2 -10   2   -0.61    0.50
   2 -10   2   -0.23    4.87
   2 -10   3   -0.21    0.42
   2 -10   3    0.90    4.80
   2 -10   4    6.77    4.92
   2 -10   5   16.24    5.59
   2  -9  -8   15.89    5.90
   2  -9  -7   15.26    5.76
   2  -9  -6    2.58    5.06
   2  -9  -6    3.36    5.61
   2  -9  -6    1.05    4.97
   2  -9  -5    1.31    5.05
   2  -9  -5    0.26    5.44
   2  -9  -5    1.00    5.23
   2  -9  -4   13.83    4.88
   2  -9  -4   12.38    5.10
   2  -9  -4    7.56    4.76
   2  -9  -3   14.00    4.52
   2  -9  -3   20.51    5.60
   2  -9  -3   11.87    4.96
   2  -9  -2    9.15    3.89
   2  -9  -2   13.92    5.23
   2  -9  -2    3.80    4.09
   2  -9  -1   25.70    4.43
   2  -9  -1   22.95    5.07
   2  -9  -1   26.70    4.63
   2  -9   0   16.80    4.44
   2  -9   0   20.55    4.98
   2  -9   1   22.56    5.05
   2  -9   1   13.89    3.98
   2  -9   2   20.06    4.71
   2  -9   2   18.71    4.03
   2  -9   3    2.65    4.46
   2  -9   3    1.84    3.49
   2  -9   4    0.77    0.66
   2  -9   4    1.41    4.27
   2  -9   5   12.54    4.98
   2  -9   6   -5.32    3.01
   2  -9   6   -0.61    4.35
   2  -8  -9   15.01    6.19
   2  -8  -8   11.21    5.25
   2  -8  -8    8.45    5.57
   2  -8  -7   52.84    5.98
   2  -8  -7   40.61    5.90
   2  -8  -6   47.51    5.23
   2  -8  -6   48.05    6.02
   2  -8  -6   47.13    5.62
   2  -8  -5   64.91    5.76
   2  -8  -5   62.74    5.95
   2  -8  -5   55.79    5.78
   2  -8  -4   30.19    4.21
   2  -8  -4   23.26    5.00
   2  -8  -4   29.17    4.70
   2  -8  -3   36.53    4.65
   2  -8  -3   27.37    5.03
   2  -8  -3   34.46    4.86
   2  -8  -2   17.32    4.13
   2  -8  -2   20.32    4.71
   2  -8  -2   19.40    4.15
   2  -8  -1    7.81    3.75
   2  -8  -1    0.98    3.77
   2  -8  -1   -0.55    3.73
   2  -8   0    3.52    3.82
   2  -8   0    7.04    4.00
   2  -8   1   68.92    4.91
   2  -8   1   69.32    5.68
   2  -8   2   10.30    3.88
   2  -8   2    8.00    3.24
   2  -8   3   69.90    5.11
   2  -8   3   73.38    4.24
   2  -8   4   99.89    5.74
   2  -8   4   94.59    4.76
   2  -8   5    6.26    4.13
   2  -8   5   46.96    4.63
   2  -8   6    5.66    3.51
   2  -8   6    8.94    4.00
   2  -8   7   24.25    4.33
   2  -8   8   49.63    4.95
   2  -7 -10    6.98    6.20
   2  -7 -10    8.35    5.72
   2  -7 -10    8.99    5.74
   2  -7  -9   25.05    5.65
   2  -7  -9   28.23    6.08
   2  -7  -9   33.74    5.66
   2  -7  -8    3.15    4.84
   2  -7  -8    8.21    4.74
   2  -7  -8   -3.76    5.01
   2  -7  -7    4.86    4.77
   2  -7  -7    1.57    4.31
   2  -7  -6   18.32    4.83
   2  -7  -6   16.79    4.57
   2  -7  -6   18.51    4.30
   2  -7  -5   17.64    4.05
   2  -7  -5   24.24    4.44
   2  -7  -4   78.65    5.44
   2  -7  -4   69.96    5.81
   2  -7  -4   67.84    5.51
   2  -7  -4   84.32    5.41
   2  -7  -3  114.56    7.03
   2  -7  -3  117.80    6.56
   2  -7  -3  119.04    6.21
   2  -7  -2   61.45    5.10
   2  -7  -2   62.87    4.96
   2  -7  -2   61.37    4.52
   2  -7  -1   79.87    5.36
   2  -7  -1   72.33    4.97
   2  -7   0   14.75    3.62
   2  -7   0   12.77    3.38
   2  -7   1   23.04    3.34
   2  -7   1   18.48    3.16
   2  -7   2   -0.42    1.40
   2  -7   2    4.23    3.42
   2  -7   2    4.24    3.04
   2  -7   3   96.46    5.61
   2  -7   3  107.03    4.85
   2  -7   4    1.22    3.57
   2  -7   4    7.37    2.73
   2  -7   5    0.66    3.61
   2  -7   5    1.39    3.41
   2  -7   5    3.12    1.92
   2  -7   6   21.54    3.86
   2  -7   6   11.66    3.77
   2  -7   7   51.44    4.79
   2  -7   8   29.93    4.50
   2  -7   9    5.20    4.55
   2  -7  10    5.07    5.66
   2  -6 -11   21.77    6.10
   2  -6 -11   34.90    6.47
   2  -6 -11   27.33    6.44
   2  -6 -10   33.24    5.97
   2  -6 -10   37.47    5.78
   2  -6 -10   35.87    6.34
   2  -6  -9   42.43    5.95
   2  -6  -9   42.43    5.72
   2  -6  -9   40.07    5.91
   2  -6  -8   78.10    6.23
   2  -6  -8   64.05    5.73
   2  -6  -8   66.81    6.05
   2  -6  -7   75.90    5.70
   2  -6  -7   62.28    5.53
   2  -6  -7   74.06    5.64
   2  -6  -6   18.24    3.99
   2  -6  -6   11.21    3.97
   2  -6  -5   71.40    5.24
   2  -6  -5   75.61    5.01
   2  -6  -4    8.97    3.23
   2  -6  -4    4.82    3.21
   2  -6  -3   16.76    3.22
   2  -6  -3   16.62    3.31
   2  -6  -3   12.53    3.29
   2  -6  -2  164.74    7.78
   2  -6  -2  161.68    7.93
   2  -6  -2  170.55    7.77
   2  -6  -2  183.23    7.50
   2  -6  -1  117.84    6.41
   2  -6  -1  116.37    6.05
   2  -6  -1  130.83    5.89
   2  -6   0  318.36   12.83
   2  -6   0  334.96   12.70
   2  -6   1  162.97    7.36
   2  -6   1  160.33    7.09
   2  -6   2  242.45   10.27
   2  -6   2  260.65    9.97
   2  -6   3  378.88   14.24
   2  -6   3  368.52   14.30
   2  -6   3  385.21   13.96
   2  -6   4   39.70    3.70
   2  -6   4   42.26    3.00
   2  -6   5   28.91    3.69
   2  -6   5   32.94    3.58
   2  -6   5   26.81    1.98
   2  -6   6   17.19    3.63
   2  -6   6   11.62    3.25
   2  -6   6   12.28    1.08
   2  -6   6   12.00    0.97
   2  -6   7   18.94    2.14
   2  -6   7   18.73    4.06
   2  -6   7   16.17    1.75
   2  -6   8   17.24    2.69
   2  -6   8   20.64    2.99
   2  -6   8   20.01    2.51
   2  -6   9   22.43    5.17
   2  -6  10   26.47    5.60
   2  -6  11   23.54    5.88
   2  -5 -12   16.91    6.00
   2  -5 -12   19.35    6.46
   2  -5 -11    0.29    5.42
   2  -5 -11    5.24    5.44
   2  -5 -11    0.77    5.28
   2  -5 -10   13.34    5.21
   2  -5 -10    8.01    5.29
   2  -5 -10   15.07    5.18
   2  -5  -9    8.18    4.67
   2  -5  -9    9.27    4.69
   2  -5  -9    7.16    4.44
   2  -5  -8   30.59    4.50
   2  -5  -8   37.13    5.08
   2  -5  -8   38.03    4.82
   2  -5  -7   47.28    4.94
   2  -5  -7   53.29    4.91
   2  -5  -7   59.56    5.08
   2  -5  -6  314.05   12.21
   2  -5  -6  303.23   12.04
   2  -5  -5  144.27    7.26
   2  -5  -5  145.51    7.04
   2  -5  -4  261.65   10.81
   2  -5  -4  251.97   10.63
   2  -5  -4  257.87   10.41
   2  -5  -3   73.91    4.79
   2  -5  -3   87.09    5.02
   2  -5  -3   86.14    4.85
   2  -5  -3   82.51    4.59
   2  -5  -2    1.51    2.39
   2  -5  -2    1.43    2.28
   2  -5  -2    0.57    2.46
   2  -5  -1    3.92    2.01
   2  -5  -1    3.77    2.32
   2  -5  -1    3.62    2.35
   2  -5  -1   -0.42    2.63
   2  -5  -1    7.63    2.52
   2  -5   0    6.85    2.19
   2  -5   0    4.62    2.57
   2  -5   0    7.20    2.19
   2  -5   1  284.38   10.32
   2  -5   1  262.81   10.61
   2  -5   1  265.49   10.41
   2  -5   2  320.60   12.28
   2  -5   2  347.92   11.94
   2  -5   2  333.95   12.13
   2  -5   3  154.22    6.67
   2  -5   3  162.39    6.05
   2  -5   3  144.84    6.65
   2  -5   3  159.46    6.37
   2  -5   4    2.61    0.57
   2  -5   4    7.43    2.41
   2  -5   4    6.13    1.66
   2  -5   4    3.71    2.41
   2  -5   5  358.88   13.38
   2  -5   5  339.29   13.03
   2  -5   5  348.78   12.20
   2  -5   5  333.66   12.04
   2  -5   5  355.45   12.36
   2  -5   5  368.44   12.34
   2  -5   6   47.04    2.83
   2  -5   6   35.81    3.44
   2  -5   6   38.58    2.25
   2  -5   6   39.71    3.94
   2  -5   7   16.05    2.74
   2  -5   7   16.22    2.62
   2  -5   7   19.23    3.79
   2  -5   7   18.16    2.11
   2  -5   8   -0.96    2.74
   2  -5   8    4.58    3.07
   2  -5   8   -0.93    2.46
   2  -5   8   -2.70    3.76
   2  -5   9    0.60    3.94
   2  -5   9    1.94    2.95
   2  -5   9   -0.43    3.38
   2  -5   9    4.56    3.24
   2  -5  10    6.99    3.89
   2  -5  10    8.75    4.53
   2  -5  10   11.04    3.78
   2  -5  10    7.71    3.12
   2  -5  11   26.03    5.92
   2  -5  12   21.32    5.65
   2  -4 -13   15.25    5.96
   2  -4 -13   12.67    6.08
   2  -4 -12    8.45    5.91
   2  -4 -12    8.26    6.04
   2  -4 -12   10.83    5.88
   2  -4 -11   95.30    7.27
   2  -4 -11   85.41    6.87
   2  -4 -10   17.13    5.31
   2  -4 -10   14.36    4.74
   2  -4 -10   20.36    4.89
   2  -4  -9   37.32    5.12
   2  -4  -9   42.45    5.14
   2  -4  -9   42.00    4.95
   2  -4  -8    4.00    3.84
   2  -4  -8   -1.64    4.08
   2  -4  -8    1.39    3.69
   2  -4  -7   10.98    3.61
   2  -4  -7    7.47    3.72
   2  -4  -7   10.24    3.61
   2  -4  -6    4.40    2.78
   2  -4  -6    2.34    3.21
   2  -4  -6    2.09    3.20
   2  -4  -5   46.36    3.65
   2  -4  -5   53.51    4.24
   2  -4  -5   43.34    3.98
   2  -4  -4  134.84    6.35
   2  -4  -4  124.77    5.92
   2  -4  -3  269.57   10.36
   2  -4  -3  259.18   10.43
   2  -4  -3  251.34   10.05
   2  -4  -2 1648.61   57.00
   2  -4  -2 1628.72   56.87
   2  -4  -2 1650.13   56.97
   2  -4  -2 1645.26   56.55
   2  -4  -1  242.39    9.47
   2  -4  -1  236.23    9.30
   2  -4  -1  237.85    9.44
   2  -4  -1  236.92    8.96
   2  -4   0  900.54   32.16
   2  -4   0  907.67   32.24
   2  -4   0  940.37   32.06
   2  -4   0  918.52   32.20
   2  -4   1  211.83    8.56
   2  -4   1  221.21    8.31
   2  -4   1  226.91    8.46
   2  -4   1  209.26    8.54
   2  -4   2  371.64   13.96
   2  -4   2  374.33   14.10
   2  -4   2  406.80   13.90
   2  -4   2  410.48   14.09
   2  -4   2  384.64   13.39
   2  -4   3    1.53    1.83
   2  -4   3    3.58    1.57
   2  -4   4   42.97    2.92
   2  -4   4   37.56    1.87
   2  -4   4   36.51    1.55
   2  -4   4   38.34    2.59
   2  -4   4   43.29    2.14
   2  -4   4   42.07    2.13
   2  -4   5  110.14    5.08
   2  -4   5  124.14    4.57
   2  -4   5  110.69    4.68
   2  -4   5   92.25    3.68
   2  -4   5  100.30    3.78
   2  -4   5  115.28    4.04
   2  -4   6  400.50   14.96
   2  -4   6  399.58   14.48
   2  -4   6  390.49   14.09
   2  -4   7   29.81    3.70
   2  -4   7   34.53    3.35
   2  -4   7   32.01    2.63
   2  -4   8  223.00    9.57
   2  -4   8  226.77    9.15
   2  -4   8  202.92    8.54
   2  -4   9   75.54    5.68
   2  -4   9   89.71    5.37
   2  -4   9   84.98    4.85
   2  -4  10   30.04    4.64
   2  -4  10   28.16    3.72
   2  -4  10   33.06    4.25
   2  -4  11    5.63    4.62
   2  -4  11   -1.48    3.55
   2  -4  11   -1.94    3.97
   2  -4  12   22.16    5.36
   2  -4  12   21.17    4.07
   2  -4  13   14.60    6.14
   2  -3 -14    5.13    6.20
   2  -3 -13   -4.92    6.22
   2  -3 -13    7.29    6.04
   2  -3 -12   -3.20    5.36
   2  -3 -12   -0.30    5.53
   2  -3 -12    5.29    5.40
   2  -3 -11   27.66    5.75
   2  -3 -11   23.97    5.12
   2  -3 -10   16.31    4.65
   2  -3 -10   12.39    4.40
   2  -3  -9   63.77    5.55
   2  -3  -9   69.42    5.51
   2  -3  -8  278.85   11.20
   2  -3  -8  263.64   11.37
   2  -3  -7  206.87    9.67
   2  -3  -7  241.83   10.07
   2  -3  -7  227.07    9.77
   2  -3  -6  395.75   15.28
   2  -3  -6  379.78   15.48
   2  -3  -6  426.89   15.53
   2  -3  -5    2.76    2.37
   2  -3  -5    0.45    2.58
   2  -3  -4   37.10    2.80
   2  -3  -3  269.43   10.10
   2  -3  -3  247.68    9.72
   2  -3  -2   23.09    2.29
   2  -3  -2   21.88    1.88
   2  -3  -2   21.42    2.18
   2  -3  -1  173.96    6.90
   2  -3  -1  162.82    6.77
   2  -3  -1  161.37    6.26
   2  -3   0  967.31   34.77
   2  -3   0  987.44   34.74
   2  -3   0 1020.72   34.33
   2  -3   1 1315.60   46.07
   2  -3   1 1278.01   46.02
   2  -3   1 1358.39   46.09
   2  -3   1 1365.36   45.63
   2  -3   2   61.73    2.81
   2  -3   2   60.66    2.99
   2  -3   2   59.64    3.02
   2  -3   2   68.20    2.68
   2  -3   3  576.02   20.32
   2  -3   3  576.89   20.30
   2  -3   3  590.79   20.23
   2  -3   4  133.24    5.54
   2  -3   4  142.39    5.42
   2  -3   4  132.74    5.29
   2  -3   4  129.23    4.92
   2  -3   4  136.31    5.06
   2  -3   5  179.82    7.16
   2  -3   5  189.60    7.04
   2  -3   5  188.22    6.60
   2  -3   5  162.07    6.19
   2  -3   5  184.76    6.44
   2  -3   6  128.66    6.08
   2  -3   6  127.38    5.90
   2  -3   6  131.31    5.44
   2  -3   6  138.18    5.02
   2  -3   7    3.06    1.12
   2  -3   7   -0.55    2.90
   2  -3   7    3.88    2.19
   2  -3   7    2.07    1.01
   2  -3   7    5.13    2.66
   2  -3   8  117.33    6.18
   2  -3   8  112.25    5.94
   2  -3   8  117.05    5.48
   2  -3   8  117.83    4.39
   2  -3   8  103.54    4.39
   2  -3   9  103.56    5.56
   2  -3   9  110.06    4.27
   2  -3   9   97.04    6.01
   2  -3  10  139.66    6.84
   2  -3  10  135.71    5.31
   2  -3  10  144.16    7.61
   2  -3  11   85.23    6.41
   2  -3  11   89.63    5.65
   2  -3  11   86.78    3.69
   2  -3  12   11.03    4.64
   2  -3  12   15.20    5.07
   2  -3  12   12.58    4.17
   2  -3  13    5.94    5.14
   2  -3  13   10.93    6.12
   2  -3  13    4.48    4.42
   2  -2 -14    4.69    6.67
   2  -2 -13   11.59    4.73
   2  -2 -12   12.17    5.70
   2  -2 -12    5.87    4.04
   2  -2 -11   22.03    5.14
   2  -2 -11   34.89    4.78
   2  -2 -10   54.35    5.55
   2  -2 -10   62.67    5.78
   2  -2  -9    0.86    3.71
   2  -2  -9    2.90    4.11
   2  -2  -9    0.36    3.66
   2  -2  -8   64.21    4.89
   2  -2  -8   77.16    5.40
   2  -2  -8   61.92    4.98
   2  -2  -7   68.59    4.70
   2  -2  -7   68.30    4.78
   2  -2  -7   71.36    4.75
   2  -2  -6  303.61   12.61
   2  -2  -6  338.75   12.90
   2  -2  -6  339.58   12.82
   2  -2  -5  158.71    7.34
   2  -2  -5  175.17    7.59
   2  -2  -4  834.40   30.35
   2  -2  -4  903.76   30.66
   2  -2  -3 1904.44   65.29
   2  -2  -2  405.59   14.17
   2  -2  -2  378.65   13.83
   2  -2  -1  168.39    6.49
   2  -2  -1  163.12    6.26
   2  -2  -1  154.79    5.91
   2  -2   0  201.44    7.55
   2  -2   0  197.84    7.22
   2  -2   0  191.68    6.92
   2  -2   1  266.65    9.28
   2  -2   1  263.21    9.81
   2  -2   1  266.10    9.75
   2  -2   2  102.58    3.80
   2  -2   2  104.91    4.03
   2  -2   2   95.66    3.90
   2  -2   2   99.94    4.14
   2  -2   2  101.64    4.04
   2  -2   2   96.48    3.99
   2  -2   3  565.53   19.38
   2  -2   3  548.83   19.21
   2  -2   3  536.62   19.07
   2  -2   3  546.33   18.98
   2  -2   3  555.18   19.24
   2  -2   3  572.80   19.25
   2  -2   4 1082.80   37.53
   2  -2   4 1095.80   37.65
   2  -2   4 1071.13   37.20
   2  -2   4 1083.31   37.30
   2  -2   4 1086.62   37.26
   2  -2   4 1117.78   37.38
   2  -2   5  565.02   19.62
   2  -2   5  565.29   19.68
   2  -2   5  533.18   18.96
   2  -2   5  565.27   19.35
   2  -2   5  554.44   19.00
   2  -2   6  373.22   12.86
   2  -2   6  392.74   13.03
   2  -2   6  363.67   12.54
   2  -2   7  265.01   10.17
   2  -2   7  264.91   10.52
   2  -2   8  319.68   11.50
   2  -2   8  306.41   11.91
   2  -2   8  295.99   12.19
   2  -2   9   22.57    3.78
   2  -2   9   18.42    2.66
   2  -2   9   22.63    3.22
   2  -2  10   18.56    3.97
   2  -2  10   17.82    2.78
   2  -2  10   12.84    3.86
   2  -2  11   10.04    4.43
   2  -2  11    5.08    4.03
   2  -2  12    2.51    4.74
   2  -2  12    0.19    4.01
   2  -2  13   54.30    6.15
   2  -2  13   55.19    6.05
   2  -2  14   16.19    6.03
   2  -1 -13   24.71    6.05
   2  -1 -13   21.18    5.02
   2  -1 -12   23.33    5.45
   2  -1 -12   14.59    4.30
   2  -1 -11   49.63    5.69
   2  -1 -11   49.71    4.99
   2  -1 -10   37.14    4.90
   2  -1 -10   32.74    4.22
   2  -1  -9  162.81    8.55
   2  -1  -9  183.52    8.69
   2  -1  -9  182.48    8.23
   2  -1  -8  181.95    8.70
   2  -1  -8  200.76    8.93
   2  -1  -8  195.73    8.62
   2  -1  -7    0.87    2.63
   2  -1  -7    0.16    2.63
   2  -1  -7    0.64    3.11
   2  -1  -6   12.38    2.72
   2  -1  -6   12.78    2.64
   2  -1  -6   12.34    2.62
   2  -1  -5  516.79   19.33
   2  -1  -5  534.50   19.47
   2  -1  -5  550.66   19.42
   2  -1  -4   43.65    2.81
   2  -1  -4   48.19    3.08
   2  -1  -3 1406.20   49.78
   2  -1  -3 1506.96   50.11
   2  -1  -2  235.16    8.91
   2  -1  -2  264.17    9.35
   2  -1  -1 1489.32   50.95
   2  -1  -1 1505.77   51.35
   2  -1   0 1229.48   42.62
   2  -1   0 1210.43   42.47
   2  -1   0 1273.87   42.57
   2  -1   1  461.39   15.94
   2  -1   1  441.35   15.84
   2  -1   1  447.56   15.82
   2  -1   2  554.48   19.06
   2  -1   2  570.06   18.97
   2  -1   2  566.99   19.33
   2  -1   2  535.91   19.38
   2  -1   2  539.06   18.92
   2  -1   3   85.44    3.65
   2  -1   3   82.83    3.25
   2  -1   3   78.06    2.97
   2  -1   3   81.60    3.20
   2  -1   4  292.29   10.19
   2  -1   4  264.96    9.81
   2  -1   4  265.02    9.84
   2  -1   5  252.16    9.53
   2  -1   5  255.32    8.89
   2  -1   5  235.97    9.22
   2  -1   5  242.19    9.29
   2  -1   6  864.89   29.96
   2  -1   6  851.08   29.09
   2  -1   6  818.92   29.58
   2  -1   6  849.24   29.71
   2  -1   7  225.28    8.94
   2  -1   7  226.01    8.19
   2  -1   7  228.25    9.07
   2  -1   8  634.27   22.95
   2  -1   8  632.98   22.06
   2  -1   8  650.80   23.15
   2  -1   9  340.14   12.52
   2  -1   9  307.36   12.72
   2  -1   9  324.06   12.86
   2  -1  10  144.15    6.60
   2  -1  10  137.66    7.06
   2  -1  10  134.36    7.14
   2  -1  11   12.95    4.22
   2  -1  11    9.05    3.25
   2  -1  11   16.98    3.93
   2  -1  12    2.02    4.28
   2  -1  12    4.16    4.39
   2  -1  13    4.69    4.96
   2  -1  13    1.75    5.23
   2  -1  14   12.61    5.97
   2  -1  14   21.00    5.84
   2   0 -12    4.89    4.04
   2   0 -11   43.83    4.67
   2   0 -10   40.45    4.91
   2   0  -9   22.61    4.05
   2   0  -9   20.88    3.89
   2   0  -9   23.20    3.73
   2   0  -8  310.04   13.18
   2   0  -8  332.02   13.13
   2   0  -8  340.56   12.95
   2   0  -7  155.75    7.30
   2   0  -7  158.79    7.21
   2   0  -7  157.15    7.04
   2   0  -6  163.67    7.59
   2   0  -6  187.95    7.67
   2   0  -6  181.71    7.55
   2   0  -5  650.85   23.27
   2   0  -5  648.85   23.26
   2   0  -4  480.41   17.97
   2   0  -4  523.69   18.11
   2   0  -3    4.38    1.32
   2   0  -2  142.22    5.75
   2   0  -1  251.75    8.96
   2   0   1  859.21   30.10
   2   0   1  883.75   30.16
   2   0   2 1603.42   55.60
   2   0   2 1667.80   55.86
   2   0   3 1448.85   47.41
   2   0   3 1369.45   47.10
   2   0   3 1342.23   46.94
   2   0   4  708.85   23.98
   2   0   4  673.11   23.56
   2   0   4  666.59   23.69
   2   0   4  674.71   23.58
   2   0   5  200.71    8.04
   2   0   5  202.55    7.47
   2   0   5  199.69    7.79
   2   0   5  198.09    7.71
   2   0   6  839.56   28.89
   2   0   6  824.25   29.28
   2   0   6  833.07   29.28
   2   0   7    7.99    2.34
   2   0   7   12.60    2.38
   2   0   7   13.32    1.68
   2   0   8   54.80    4.06
   2   0   8   50.34    3.04
   2   0   8   52.88    3.93
   2   0   9   32.12    3.58
   2   0   9   31.09    3.82
   2   0   9   28.50    3.51
   2   0  10    8.06    2.39
   2   0  10    5.71    3.80
   2   0  10    5.75    3.39
   2   0  10    2.87    3.28
   2   0  11  119.62    6.49
   2   0  11  104.84    6.65
   2   0  11  119.27    5.49
   2   0  11  128.83    7.13
   2   0  12  109.01    6.71
   2   0  12  109.67    7.04
   2   0  12  129.00    5.69
   2   0  12  133.96    7.50
   2   0  13   56.21    6.24
   2   0  13   53.50    5.27
   2   0  13   43.03    5.83
   2   0  14   16.40    6.16
   2   0  14   13.29    6.10
   2   1 -12    5.80    3.71
   2   1 -11   38.51    4.30
   2   1 -10   12.07    3.54
   2   1  -9   36.27    4.19
   2   1  -9   39.28    3.95
   2   1  -8   42.26    3.68
   2   1  -8   44.29    3.98
   2   1  -7   89.78    5.00
   2   1  -7   85.07    4.65
   2   1  -6  142.57    6.31
   2   1  -5  700.22   25.65
   2   1  -5  736.68   25.50
   2   1  -4  387.45   14.77
   2   1  -4  405.42   15.09
   2   1  -4  415.11   14.68
   2   1  -3 1178.96   42.32
   2   1  -3 1242.12   42.67
   2   1  -3 1260.11   42.38
   2   1  -2   33.13    1.99
   2   1  -2   32.81    2.41
   2   1  -2   34.86    2.06
   2   1  -1 1303.73   44.80
   2   1   0  685.22   23.66
   2   1   1   33.38    1.55
   2   1   2  143.84    5.14
   2   1   2  137.85    5.48
   2   1   3 1679.36   57.69
   2   1   3 1687.25   57.65
   2   1   4 1580.91   54.34
   2   1   4 1621.07   54.75
   2   1   4 1577.45   54.83
   2   1   4 1616.39   54.71
   2   1   5 2013.45   69.06
   2   1   5 2002.00   68.64
   2   1   5 2018.82   68.88
   2   1   5 1992.27   68.72
   2   1   6  687.35   24.87
   2   1   6  704.28   24.42
   2   1   6  687.63   24.67
   2   1   6  691.42   24.55
   2   1   7  456.44   16.84
   2   1   7  475.69   17.32
   2   1   7  475.33   17.21
   2   1   8  507.24   18.53
   2   1   8  496.39   18.04
   2   1   8  490.84   18.38
   2   1   9   30.63    3.96
   2   1   9   35.86    3.93
   2   1   9   40.20    3.36
   2   1  10    0.71    3.32
   2   1  10    3.97    3.55
   2   1  10   -0.25    3.18
   2   1  11   36.11    3.80
   2   1  11   38.71    4.76
   2   1  11   35.50    4.68
   2   1  11   39.73    5.07
   2   1  12   62.11    4.60
   2   1  12   69.90    6.08
   2   1  12   56.05    5.68
   2   1  12   56.55    5.96
   2   1  13   43.98    5.99
   2   1  13   34.63    5.39
   2   1  13   24.59    5.88
   2   1  14   44.72    6.67
   2   1  14   35.12    6.88
   2   2 -13   11.75    5.46
   2   2 -12   10.60    4.79
   2   2 -12   21.44    5.76
   2   2 -11   24.98    4.69
   2   2 -11   25.02    3.58
   2   2 -10   31.78    4.70
   2   2 -10   38.33    3.85
   2   2  -9  107.84    6.04
   2   2  -9  102.32    5.49
   2   2  -8   54.64    4.08
   2   2  -8   49.86    3.86
   2   2  -7   35.49    3.33
   2   2  -7   54.30    3.64
   2   2  -6   18.52    2.43
   2   2  -5   14.90    2.12
   2   2  -4  369.75   14.18
   2   2  -4  367.22   14.04
   2   2  -4  419.23   14.54
   2   2  -4  382.18   14.00
   2   2  -3  213.63    8.91
   2   2  -3  237.16    9.17
   2   2  -3  241.02    8.74
   2   2  -2 1731.19   59.72
   2   2  -2 1735.58   59.41
   2   2  -1 2194.80   78.85
   2   2  -1 2398.79   79.14
   2   2  -1 2366.93   78.89
   2   2   0  932.44   32.16
   2   2   0  931.41   32.39
   2   2   1 1780.15   61.50
   2   2   1 1833.42   61.80
   2   2   2   51.11    2.89
   2   2   2   52.21    2.44
   2   2   3  128.09    5.29
   2   2   4  375.48   13.27
   2   2   4  383.15   13.58
   2   2   4  356.10   13.61
   2   2   5   12.32    1.58
   2   2   5   19.04    2.30
   2   2   5   15.17    1.99
   2   2   6  220.25    8.87
   2   2   6  231.63    9.12
   2   2   6  228.25    8.99
   2   2   7  557.86   20.47
   2   2   7  566.05   20.22
   2   2   7  556.53   20.37
   2   2   8   65.40    4.47
   2   2   8   75.27    4.28
   2   2   8   78.75    4.74
   2   2   9  350.25   14.16
   2   2   9  367.16   13.85
   2   2   9  351.67   14.01
   2   2  10  193.31    8.97
   2   2  10  177.87    8.91
   2   2  10  181.78    8.70
   2   2  11  120.72    7.12
   2   2  11  126.98    7.49
   2   2  11  119.80    6.50
   2   2  11  112.58    6.94
   2   2  12   73.65    6.52
   2   2  12   77.57    5.58
   2   2  12   74.25    6.50
   2   2  12   82.42    6.30
   2   2  13   -1.64    4.06
   2   2  13    1.97    5.31
   2   2  13    0.74    4.98
   2   2  13    6.73    5.87
   2   2  14    2.63    5.66
   2   3 -13   -1.14    5.28
   2   3 -12    1.49    4.59
   2   3 -12   -0.57    5.37
   2   3 -11    1.79    4.70
   2   3 -11    2.37    4.87
   2   3 -11    0.77    2.81
   2   3 -10   13.71    4.15
   2   3 -10   17.63    4.70
   2   3 -10   12.18    3.05
   2   3  -9    4.92    2.74
   2   3  -9    6.35    4.03
   2   3  -9   10.57    3.41
   2   3  -8  151.17    7.26
   2   3  -8  144.25    6.54
   2   3  -8  145.71    6.43
   2   3  -7   14.22    2.68
   2   3  -7   14.13    3.21
   2   3  -7   20.11    2.62
   2   3  -6  374.15   14.33
   2   3  -6  378.72   13.93
   2   3  -5  213.88    8.73
   2   3  -5  213.87    8.43
   2   3  -4  193.33    8.01
   2   3  -4  205.54    8.42
   2   3  -3   -1.50    2.03
   2   3  -3   -0.37    1.50
   2   3  -2  105.13    4.81
   2   3  -2  106.11    4.43
   2   3  -1   64.31    3.32
   2   3   0  540.73   19.49
   2   3   0  565.17   19.67
   2   3   1 1092.65   38.16
   2   3   1 1081.16   38.27
   2   3   1 1142.89   38.35
   2   3   2 1004.89   35.35
   2   3   2 1034.53   35.51
   2   3   3 3022.58  103.41
   2   3   4 1241.50   42.11
   2   3   4 1205.24   41.72
   2   3   4 1176.81   41.87
   2   3   5  553.95   19.57
   2   3   5  521.74   19.04
   2   3   5  529.78   19.26
   2   3   6   60.64    4.09
   2   3   6   47.73    3.26
   2   3   6   51.62    3.48
   2   3   7  101.64    5.50
   2   3   7   87.60    5.13
   2   3   7   87.83    4.87
   2   3   8    7.15    3.07
   2   3   8    7.62    3.16
   2   3   8    6.72    3.03
   2   3   9  190.22    8.63
   2   3   9  173.05    8.36
   2   3   9  182.29    8.51
   2   3  10  138.21    7.87
   2   3  10  140.79    7.51
   2   3  10  140.03    7.40
   2   3  10  145.87    7.67
   2   3  11  167.72    9.27
   2   3  11  183.09    9.28
   2   3  11  182.83    8.95
   2   3  11  183.44    9.11
   2   3  12   97.52    7.33
   2   3  12   98.00    7.53
   2   3  12   97.30    6.60
   2   3  12  107.56    7.47
   2   3  13   98.06    8.01
   2   3  13   99.44    6.82
   2   3  13   93.23    7.94
   2   3  13  110.34    7.81
   2   3  14   48.17    6.55
   2   4 -12    7.59    5.31
   2   4 -11   12.67    4.53
   2   4 -11    9.84    5.15
   2   4 -10   14.19    4.60
   2   4 -10   16.20    5.21
   2   4 -10    7.93    2.36
   2   4  -9    4.15    2.48
   2   4  -9    6.28    4.18
   2   4  -9    6.31    4.67
   2   4  -8    1.74    2.43
   2   4  -8    1.25    2.38
   2   4  -8   -1.67    3.64
   2   4  -7   39.14    4.00
   2   4  -7   34.29    4.37
   2   4  -7   35.75    2.94
   2   4  -6  128.83    6.31
   2   4  -6  132.25    5.89
   2   4  -5  103.13    5.36
   2   4  -4  702.67   24.29
   2   4  -4  646.01   23.46
   2   4  -4  672.44   23.97
   2   4  -3  475.08   17.82
   2   4  -3  493.53   17.96
   2   4  -3  493.24   17.38
   2   4  -2 1052.99   36.20
   2   4  -2 1028.27   36.49
   2   4  -1  240.93    9.41
   2   4  -1  255.97    9.65
   2   4   0   69.17    3.71
   2   4   0   76.36    3.78
   2   4   0   81.23    3.88
   2   4   1    8.74    1.86
   2   4   1    6.44    1.94
   2   4   1    5.64    1.76
   2   4   2  293.55   11.06
   2   4   2  270.60   10.86
   2   4   2  295.33   10.94
   2   4   2  292.38   11.01
   2   4   3  472.21   17.01
   2   4   3  454.96   16.94
   2   4   4 1410.11   49.32
   2   4   4 1403.44   49.10
   2   4   4 1437.16   49.26
   2   4   5  238.81    9.58
   2   4   5  237.45    9.24
   2   4   5  217.50    9.31
   2   4   5  228.56    9.36
   2   4   6  606.50   21.61
   2   4   6  571.19   21.23
   2   4   6  579.37   21.36
   2   4   7  404.20   15.32
   2   4   7  381.73   14.99
   2   4   8  316.07   12.87
   2   4   8  303.19   12.48
   2   4   9  145.44    7.69
   2   4   9  139.88    7.61
   2   4   9  131.93    7.38
   2   4  10    2.83    4.47
   2   4  10    6.21    4.22
   2   4  10    5.25    4.45
   2   4  10    0.61    4.21
   2   4  11   13.39    5.13
   2   4  11   14.52    5.02
   2   4  11   18.30    4.97
   2   4  11    3.77    4.07
   2   4  12   20.99    5.12
   2   4  12   16.11    5.96
   2   4  12   17.11    5.46
   2   4  12   17.39    5.67
   2   4  13   24.11    5.78
   2   4  13   13.61    5.91
   2   5 -12   -0.23    5.27
   2   5 -11    5.78    5.00
   2   5 -10    9.46    4.77
   2   5  -9    2.54    2.05
   2   5  -9    1.52    4.14
   2   5  -8   25.60    2.97
   2   5  -8   33.32    2.37
   2   5  -8   24.67    4.22
   2   5  -8   25.41    2.46
   2   5  -7   15.04    2.75
   2   5  -7   17.77    3.82
   2   5  -7   16.72    2.04
   2   5  -7   12.87    2.32
   2   5  -6  152.37    7.28
   2   5  -6  137.47    5.91
   2   5  -5   29.84    3.66
   2   5  -5   21.49    2.45
   2   5  -4    4.51    2.94
   2   5  -4    4.40    2.65
   2   5  -4    3.12    2.08
   2   5  -4    3.91    1.93
   2   5  -3   47.66    3.72
   2   5  -3   50.35    3.14
   2   5  -3   49.89    3.76
   2   5  -3   48.50    2.93
   2   5  -2    8.07    2.36
   2   5  -2    7.43    2.10
   2   5  -1  665.78   24.07
   2   5  -1  690.48   24.18
   2   5   0  474.11   17.38
   2   5   0  479.72   17.35
   2   5   1  658.95   23.74
   2   5   1  654.48   23.52
   2   5   1  659.59   23.49
   2   5   2  797.22   28.01
   2   5   2  765.76   28.18
   2   5   2  796.48   27.97
   2   5   3  442.93   15.73
   2   5   3  421.15   15.63
   2   5   3  391.89   15.58
   2   5   4    0.83    2.39
   2   5   4    1.97    2.50
   2   5   4    1.42    2.66
   2   5   5   28.22    3.30
   2   5   5   28.40    3.43
   2   5   5   25.67    3.49
   2   5   5   25.89    3.28
   2   5   6   23.50    3.62
   2   5   6   26.81    3.54
   2   5   6   19.04    3.55
   2   5   6   18.32    3.17
   2   5   7  133.48    7.14
   2   5   7  140.55    7.04
   2   5   7  132.83    6.91
   2   5   8  296.46   12.96
   2   5   8  316.01   12.83
   2   5   8  315.96   12.91
   2   5   9  245.46   11.47
   2   5   9  265.31   11.71
   2   5   9  259.32   11.45
   2   5  10  131.11    8.03
   2   5  10  132.13    7.99
   2   5  10  128.00    7.62
   2   5  11  177.89    9.76
   2   5  11  165.64    9.60
   2   5  11  171.07    9.20
   2   5  12   76.82    7.16
   2   5  12   63.52    7.03
   2   5  12   63.43    6.94
   2   5  13   34.54    5.96
   2   5  13   32.26    7.12
   2   5  14    3.24    6.91
   2   6 -11    1.34    4.92
   2   6 -10    2.12    5.06
   2   6  -9   15.16    4.68
   2   6  -8   43.94    3.34
   2   6  -8   55.19    5.42
   2   6  -7  116.29    6.49
   2   6  -7   99.97    4.05
   2   6  -7  111.08    4.80
   2   6  -7  110.79    5.32
   2   6  -6   11.90    2.45
   2   6  -6   15.24    3.85
   2   6  -5  216.86    9.52
   2   6  -5  209.71    8.43
   2   6  -4  151.39    7.23
   2   6  -4  143.48    6.40
   2   6  -4  158.46    7.14
   2   6  -4  147.39    6.13
   2   6  -3   38.95    3.63
   2   6  -3   48.67    4.06
   2   6  -3   36.35    3.17
   2   6  -3   36.04    2.75
   2   6  -2   63.86    4.47
   2   6  -2   64.66    3.84
   2   6  -2   51.79    4.01
   2   6  -1   70.35    4.34
   2   6  -1   79.41    4.39
   2   6   0   62.54    4.07
   2   6   1  101.11    5.71
   2   6   1   93.72    5.14
   2   6   1   97.10    5.01
   2   6   2  241.48   10.63
   2   6   2  267.08   10.52
   2   6   2  260.46   10.23
   2   6   3  315.69   12.31
   2   6   3  305.73   12.26
   2   6   3  305.90   12.24
   2   6   3  306.43   12.09
   2   6   4  792.91   27.60
   2   6   4  769.18   27.66
   2   6   4  786.19   27.57
   2   6   4  703.94   27.51
   2   6   5    6.85    3.41
   2   6   5    6.63    3.34
   2   6   5    3.85    3.45
   2   6   6  843.09   30.15
   2   6   6  866.58   30.43
   2   6   6  851.77   30.20
   2   6   6  769.23   30.06
   2   6   7    0.64    4.14
   2   6   7    5.86    4.03
   2   6   7    2.78    3.77
   2   6   7    2.03    3.38
   2   6   8    5.20    4.46
   2   6   8    6.11    4.32
   2   6   8    9.24    4.11
   2   6   9   14.54    4.62
   2   6   9   18.58    4.88
   2   6   9   17.99    4.95
   2   6  10   37.49    5.74
   2   6  10   37.37    5.62
   2   6  10   34.43    5.71
   2   6  10   31.97    5.73
   2   6  11   50.68    6.48
   2   6  11   35.82    6.47
   2   6  11   44.91    6.32
   2   6  11   39.76    6.77
   2   6  12   57.69    7.03
   2   6  12   50.55    7.37
   2   6  12   55.63    7.39
   2   6  13   14.77    6.29
   2   7 -10   -0.92    5.62
   2   7  -9    1.98    4.83
   2   7  -8    4.01    4.76
   2   7  -7    1.86    3.06
   2   7  -7   -5.69    4.66
   2   7  -6    9.20    4.28
   2   7  -6    1.71    2.72
   2   7  -5   39.92    4.62
   2   7  -5   30.14    3.38
   2   7  -4    7.14    3.73
   2   7  -4   10.09    3.05
   2   7  -4    5.78    2.24
   2   7  -3  117.45    6.37
   2   7  -3  107.07    5.55
   2   7  -3  114.76    5.73
   2   7  -3  100.20    5.02
   2   7  -2   71.89    4.44
   2   7  -2   75.81    5.20
   2   7  -2   71.53    4.61
   2   7  -1  225.34    9.22
   2   7  -1  212.07    9.04
   2   7   0   37.22    3.85
   2   7   0   44.68    3.62
   2   7   1   85.82    5.93
   2   7   1  103.89    5.56
   2   7   1   97.20    5.31
   2   7   2    1.80    2.94
   2   7   2   -2.80    3.31
   2   7   3   57.64    4.81
   2   7   3   54.44    4.65
   2   7   3   52.49    4.32
   2   7   4  104.67    5.89
   2   7   4  101.03    6.18
   2   7   4  103.87    6.05
   2   7   4   98.98    6.03
   2   7   5  157.09    7.66
   2   7   5  151.61    7.95
   2   7   5  151.14    7.65
   2   7   5  129.89    7.58
   2   7   6  125.20    7.10
   2   7   6  126.14    7.65
   2   7   6  141.65    7.36
   2   7   7  264.49   11.42
   2   7   7  242.16   11.79
   2   7   7  264.34   11.71
   2   7   7  273.86   11.58
   2   7   7  238.06   11.49
   2   7   8   74.43    6.51
   2   7   8   87.07    6.40
   2   7   8   80.57    6.37
   2   7   8   84.31    6.71
   2   7   9   90.10    6.91
   2   7   9   95.11    7.19
   2   7   9   84.41    7.00
   2   7  10   57.41    6.62
   2   7  10   63.73    6.54
   2   7  10   65.92    7.17
   2   7  11   36.93    6.89
   2   7  11   24.30    6.21
   2   7  11   30.10    6.19
   2   8  -8    7.33    5.69
   2   8  -7   13.72    5.83
   2   8  -6   10.14    5.14
   2   8  -6   12.33    3.05
   2   8  -5   36.80    5.45
   2   8  -5   36.36    3.75
   2   8  -4   14.24    4.61
   2   8  -4   10.39    2.40
   2   8  -4   13.54    3.37
   2   8  -3    0.61    2.85
   2   8  -3    3.90    4.52
   2   8  -3   -0.42    3.18
   2   8  -3    0.71    2.54
   2   8  -2   45.45    4.04
   2   8  -2   59.99    5.60
   2   8  -2   51.26    4.19
   2   8  -1   67.25    5.90
   2   8  -1   78.28    5.17
   2   8  -1   73.91    4.68
   2   8   0   44.68    3.95
   2   8   0   43.91    4.32
   2   8   1  268.71   11.57
   2   8   1  277.33   11.11
   2   8   2  123.22    6.94
   2   8   2  127.31    6.48
   2   8   3   66.79    5.51
   2   8   3   59.89    4.81
   2   8   3   64.25    5.32
   2   8   4   50.84    4.65
   2   8   4   56.65    5.26
   2   8   4   60.32    5.67
   2   8   4   52.95    5.25
   2   8   5   38.33    4.68
   2   8   5   28.35    4.98
   2   8   5   32.23    5.40
   2   8   5   36.80    5.08
   2   8   6    0.79    4.96
   2   8   6    3.03    4.46
   2   8   6    0.21    4.28
   2   8   6    5.96    4.51
   2   8   6    7.86    4.84
   2   8   7  150.07    8.26
   2   8   7  150.35    8.61
   2   8   7  162.12    8.67
   2   8   8    9.71    5.43
   2   8   8   10.84    5.77
   2   8   8    6.97    5.21
   2   8   9  144.00    9.12
   2   8   9  140.85    9.28
   2   8   9  154.00    9.26
   2   8   9  148.23    9.20
   2   8  10   47.44    7.17
   2   8  10   37.85    6.79
   2   8  10   36.85    7.08
   2   8  10   51.85    7.27
   2   8  11   22.13    7.24
   2   9  -5    5.00    5.62
   2   9  -4   15.25    5.74
   2   9  -3    8.22    2.80
   2   9  -3   19.45    3.92
   2   9  -3   13.88    3.04
   2   9  -2    6.51    2.87
   2   9  -2    9.08    3.04
   2   9  -2    6.78    5.19
   2   9  -2   10.42    4.03
   2   9  -1    1.73    3.28
   2   9  -1    3.04    3.02
   2   9  -1   -4.35    4.83
   2   9  -1    2.45    4.06
   2   9   0   14.75    3.48
   2   9   0   14.66    3.36
   2   9   0   14.17    4.77
   2   9   0   11.10    3.85
   2   9   1    6.50    4.38
   2   9   1    3.46    3.63
   2   9   1    9.20    4.29
   2   9   1   -0.27    3.34
   2   9   2   66.10    4.88
   2   9   2   58.87    5.36
   2   9   2   70.34    5.93
   2   9   3   57.92    5.40
   2   9   3   64.91    5.17
   2   9   3   56.06    5.98
   2   9   3   65.19    5.90
   2   9   4   82.99    6.94
   2   9   4   88.01    6.25
   2   9   4   79.06    5.59
   2   9   4   78.27    6.61
   2   9   5   64.55    5.50
   2   9   5   66.77    6.80
   2   9   5   64.62    6.31
   2   9   5   62.09    5.97
   2   9   5   74.08    6.67
   2   9   6   35.44    5.02
   2   9   6   17.97    6.18
   2   9   6   31.65    5.98
   2   9   6   36.46    5.53
   2   9   6   25.36    5.78
   2   9   7   10.61    6.05
   2   9   7   21.45    6.05
   2   9   7   26.92    5.26
   2   9   7   24.23    5.94
   2   9   8    2.00    6.25
   2   9   8    3.85    5.85
   2   9   8    4.53    5.89
   2   9   9   21.51    6.87
   2   9   9   23.66    6.02
   2   9  10    2.65    6.27
   2  10  -3    0.29    6.35
   2  10  -2   45.51    6.47
   2  10  -2   34.74    5.22
   2  10  -1   25.38    5.53
   2  10  -1   20.95    3.61
   2  10  -1   26.14    4.95
   2  10   0   87.93    6.95
   2  10   0   83.79    6.51
   2  10   1   23.84    5.54
   2  10   1   20.91    4.54
   2  10   1   19.66    5.03
   2  10   2   -1.29    3.68
   2  10   2    0.60    4.33
   2  10   2   -1.18    5.12
   2  10   3   16.00    4.20
   2  10   3   16.06    5.16
   2  10   3   10.65    5.39
   2  10   4   -2.11    5.94
   2  10   4    2.78    5.13
   2  10   4    3.17    3.73
   2  10   4    2.61    5.46
   2  10   5   18.37    5.61
   2  10   5   20.90    5.17
   2  10   5   15.32    6.38
   2  10   5   36.12    6.57
   2  10   6   30.73    6.77
   2  10   6   43.57    6.45
   2  10   6   38.45    6.57
   2  10   6   44.52    5.73
   2  10   7   40.65    5.90
   2  10   7   52.49    6.86
   2  10   7   47.96    6.53
   2  10   8   48.09    6.27
   2  11   2   31.93    5.37
   2  11   3   11.47    5.43
   2  11   3    7.68    6.47
   2  11   4   10.67    5.27
   2  11   5    4.95    5.82
   3 -10  -4   -5.14    4.85
   3 -10  -3    5.83    4.86
   3 -10  -2    5.22    5.72
   3 -10  -1    7.76    5.78
   3 -10  -1    2.01    5.26
   3 -10   0   10.83    5.13
   3 -10   0   10.42    5.50
   3 -10   1    7.90    4.90
   3 -10   2   15.90    5.34
   3 -10   3    9.32    4.95
   3  -9  -7    7.32    5.38
   3  -9  -6    5.88    5.70
   3  -9  -5    5.68    4.81
   3  -9  -5    3.34    5.75
   3  -9  -5    2.85    5.30
   3  -9  -4   18.31    4.73
   3  -9  -4   28.35    5.90
   3  -9  -4   18.49    5.44
   3  -9  -3   15.77    4.46
   3  -9  -3   12.90    5.49
   3  -9  -3   13.50    5.17
   3  -9  -2   16.57    4.31
   3  -9  -2   16.37    5.33
   3  -9  -2   20.28    5.23
   3  -9  -1    4.06    3.96
   3  -9  -1    6.56    4.97
   3  -9  -1   -5.01    4.43
   3  -9   0    2.83    3.73
   3  -9   0   -1.66    4.52
   3  -9   0    9.14    4.26
   3  -9   1    5.01    3.99
   3  -9   1   -1.22    4.55
   3  -9   1   -0.18    3.84
   3  -9   2   -0.81    0.73
   3  -9   2    1.99    4.58
   3  -9   2    3.92    3.90
   3  -9   3   -0.49    0.53
   3  -9   3    7.54    4.29
   3  -9   4   42.29    4.84
   3  -8  -8   20.47    6.16
   3  -8  -7    2.32    5.11
   3  -8  -7   -2.68    5.16
   3  -8  -6    5.93    4.24
   3  -8  -6    3.00    4.95
   3  -8  -6    5.06    5.16
   3  -8  -5   -2.72    4.62
   3  -8  -5    6.74    4.89
   3  -8  -5    4.27    4.94
   3  -8  -5   -0.96    4.97
   3  -8  -4    1.08    3.88
   3  -8  -4    5.52    5.22
   3  -8  -4    7.69    4.68
   3  -8  -3   -1.83    3.79
   3  -8  -3    3.77    4.84
   3  -8  -3    2.14    4.39
   3  -8  -2   33.34    4.27
   3  -8  -2   35.79    4.96
   3  -8  -2   39.97    4.68
   3  -8  -1    7.15    3.51
   3  -8  -1    3.24    4.31
   3  -8  -1   -2.68    3.98
   3  -8   0  120.28    7.29
   3  -8   0  129.50    7.26
   3  -8   0  140.59    6.66
   3  -8   1   15.15    4.15
   3  -8   1   21.08    4.00
   3  -8   2   26.61    4.27
   3  -8   2   23.15    3.73
   3  -8   3    9.91    1.32
   3  -8   3   15.29    4.19
   3  -8   3   15.00    3.33
   3  -8   4   15.39    3.97
   3  -8   4   18.61    3.32
   3  -8   5    0.96    3.25
   3  -8   5   10.11    4.17
   3  -8   6   24.57    3.89
   3  -8   6    9.61    4.00
   3  -7 -10    0.86    5.65
   3  -7  -9   20.62    5.62
   3  -7  -8    3.88    5.44
   3  -7  -8    6.11    5.20
   3  -7  -7   53.37    5.72
   3  -7  -6   16.26    4.08
   3  -7  -6   10.60    4.71
   3  -7  -5  132.97    7.59
   3  -7  -5  116.75    7.31
   3  -7  -5  128.03    7.13
   3  -7  -4   31.71    4.14
   3  -7  -4   36.05    4.82
   3  -7  -4   28.94    4.79
   3  -7  -3    2.53    3.31
   3  -7  -3    7.88    4.14
   3  -7  -3    3.96    4.18
   3  -7  -3    6.42    4.23
   3  -7  -2    7.55    3.31
   3  -7  -2    2.12    3.48
   3  -7  -2    4.61    3.81
   3  -7  -2   10.19    3.78
   3  -7  -2    9.90    3.90
   3  -7  -1   48.20    4.53
   3  -7  -1   49.35    4.74
   3  -7  -1   52.21    4.53
   3  -7  -1   53.37    4.09
   3  -7   0    1.18    2.89
   3  -7   0    3.16    3.27
   3  -7   0    4.68    3.69
   3  -7   0    6.64    3.67
   3  -7   1   37.23    4.36
   3  -7   1   33.87    3.97
   3  -7   2   54.07    4.32
   3  -7   2   68.67    4.25
   3  -7   3   81.01    3.81
   3  -7   3   64.17    4.87
   3  -7   3   76.25    4.70
   3  -7   4   15.11    3.26
   3  -7   4   25.82    3.58
   3  -7   4   18.19    3.10
   3  -7   5    6.44    3.38
   3  -7   5    3.71    3.34
   3  -7   5    3.49    2.34
   3  -7   6   33.85    3.79
   3  -7   6   18.80    3.64
   3  -7   7   24.73    4.19
   3  -7   8    9.63    4.11
   3  -6 -10   -5.22    5.86
   3  -6 -10    8.43    5.64
   3  -6 -10    1.89    5.73
   3  -6  -9    8.61    5.38
   3  -6  -9    6.33    5.50
   3  -6  -9   11.30    5.63
   3  -6  -8    0.92    4.42
   3  -6  -8    4.72    4.90
   3  -6  -8    2.71    4.74
   3  -6  -7   27.80    4.86
   3  -6  -7   34.80    5.26
   3  -6  -6   -0.75    3.49
   3  -6  -6    1.83    4.34
   3  -6  -5   59.20    4.68
   3  -6  -5   44.95    4.94
   3  -6  -5   53.53    5.22
   3  -6  -5   59.52    5.29
   3  -6  -4   40.45    4.09
   3  -6  -4   43.49    4.73
   3  -6  -4   44.51    4.76
   3  -6  -4   39.72    4.62
   3  -6  -3   46.73    4.03
   3  -6  -3   47.45    4.61
   3  -6  -3   45.97    4.50
   3  -6  -3   43.65    4.48
   3  -6  -2  147.53    7.53
   3  -6  -2  149.51    7.36
   3  -6  -2  156.50    7.56
   3  -6  -2  147.43    6.80
   3  -6  -1  167.96    7.77
   3  -6  -1  168.59    7.63
   3  -6  -1  153.41    7.73
   3  -6  -1  166.04    7.82
   3  -6  -1  156.10    6.94
   3  -6   0  146.31    6.59
   3  -6   0  132.03    6.85
   3  -6   0  134.77    6.75
   3  -6   0  140.51    6.15
   3  -6   1    1.43    3.12
   3  -6   1    4.58    2.69
   3  -6   1    4.06    2.89
   3  -6   2   40.98    3.63
   3  -6   2   39.95    3.10
   3  -6   2   41.91    3.68
   3  -6   3   17.88    3.22
   3  -6   3   18.95    2.63
   3  -6   3   17.10    2.95
   3  -6   4    7.30    2.94
   3  -6   4   10.43    1.92
   3  -6   4    9.47    2.58
   3  -6   5   74.29    4.45
   3  -6   5   70.41    4.37
   3  -6   5   63.68    3.55
   3  -6   6   59.50    4.04
   3  -6   6   51.96    2.29
   3  -6   6   61.32    4.26
   3  -6   6   49.46    2.15
   3  -6   7   20.17    1.99
   3  -6   7   23.28    2.05
   3  -6   8   25.28    4.29
   3  -6   9   12.07    4.40
   3  -5 -11    2.61    6.05
   3  -5 -11   -5.01    5.97
   3  -5 -11   -0.80    5.73
   3  -5 -10   28.67    5.96
   3  -5 -10   36.87    6.06
   3  -5 -10   36.11    6.28
   3  -5  -9   11.86    5.13
   3  -5  -9    6.13    5.20
   3  -5  -9   14.73    5.09
   3  -5  -8   22.69    4.76
   3  -5  -8   25.71    5.01
   3  -5  -8   28.92    5.08
   3  -5  -7  143.29    7.62
   3  -5  -7  152.51    8.04
   3  -5  -7  126.22    7.89
   3  -5  -7  138.52    7.78
   3  -5  -6   20.81    3.69
   3  -5  -6   26.54    4.31
   3  -5  -5   46.76    4.11
   3  -5  -5   53.50    4.77
   3  -5  -4   23.96    3.09
   3  -5  -4   23.77    3.92
   3  -5  -4   23.35    3.77
   3  -5  -4   26.10    3.77
   3  -5  -3   36.21    3.32
   3  -5  -3   43.23    4.02
   3  -5  -3   37.86    3.89
   3  -5  -3   42.77    4.13
   3  -5  -2  109.30    5.97
   3  -5  -2  106.99    5.80
   3  -5  -2  104.13    5.82
   3  -5  -2  115.78    5.22
   3  -5  -1  187.53    8.27
   3  -5  -1  188.66    8.16
   3  -5  -1  191.57    8.40
   3  -5  -1  190.28    7.57
   3  -5   0   57.75    4.23
   3  -5   0   73.61    4.45
   3  -5   0   63.28    4.10
   3  -5   0   64.71    4.20
   3  -5   0   60.06    3.31
   3  -5   1  378.09   14.36
   3  -5   1  364.75   14.13
   3  -5   1  390.02   14.40
   3  -5   1  391.54   14.44
   3  -5   2   59.68    3.22
   3  -5   2   61.67    3.87
   3  -5   2   54.27    3.59
   3  -5   2   60.60    3.85
   3  -5   2   58.87    2.48
   3  -5   3   88.19    4.67
   3  -5   3   95.40    4.39
   3  -5   3   91.62    3.58
   3  -5   4   40.37    3.20
   3  -5   4   45.08    2.72
   3  -5   4   39.86    3.32
   3  -5   4   41.32    2.99
   3  -5   4   41.33    2.09
   3  -5   5    2.05    1.48
   3  -5   5   -0.88    2.52
   3  -5   5   -0.77    2.40
   3  -5   5    1.05    1.36
   3  -5   5    3.16    1.79
   3  -5   6    7.36    2.89
   3  -5   6    6.22    2.45
   3  -5   6    6.85    0.85
   3  -5   6    6.94    2.07
   3  -5   6    7.56    1.05
   3  -5   7   32.71    1.57
   3  -5   7   36.79    3.34
   3  -5   8   55.51    4.40
   3  -5   8   56.62    4.19
   3  -5   8   48.37    2.75
   3  -5   9   67.77    4.75
   3  -5   9   55.27    5.04
   3  -5   9   54.98    3.48
   3  -5  10   21.65    4.62
   3  -4 -12    6.25    6.53
   3  -4 -12    1.32    5.67
   3  -4 -11   -2.44    6.20
   3  -4 -11    0.84    5.70
   3  -4 -11    1.79    6.04
   3  -4 -10    2.58    5.23
   3  -4 -10   -9.99    5.34
   3  -4 -10   -0.24    5.23
   3  -4  -9   16.38    4.88
   3  -4  -9   26.97    5.52
   3  -4  -9   29.63    5.12
   3  -4  -8   80.57    6.04
   3  -4  -8   97.54    6.80
   3  -4  -7   34.71    4.12
   3  -4  -7   38.61    4.71
   3  -4  -6  119.30    6.62
   3  -4  -6  131.49    7.07
   3  -4  -5  159.39    7.37
   3  -4  -5  162.62    7.73
   3  -4  -4   39.81    3.33
   3  -4  -4   38.20    3.75
   3  -4  -3  363.48   14.09
   3  -4  -3  355.52   13.93
   3  -4  -3  366.21   14.10
   3  -4  -3  354.29   13.34
   3  -4  -2   45.92    3.64
   3  -4  -2   42.53    3.82
   3  -4  -2   45.48    3.59
   3  -4  -2   50.58    2.98
   3  -4  -1   71.44    4.23
   3  -4  -1   64.33    4.04
   3  -4  -1   71.01    4.29
   3  -4  -1   61.60    3.22
   3  -4   0  100.38    5.23
   3  -4   0  103.90    5.21
   3  -4   0  110.46    4.48
   3  -4   0  100.34    4.27
   3  -4   1   56.98    3.56
   3  -4   1   53.85    3.54
   3  -4   1   55.62    3.52
   3  -4   1   52.77    2.76
   3  -4   2  240.22    8.98
   3  -4   2  244.12    9.50
   3  -4   2  235.66    9.44
   3  -4   2  255.88    9.61
   3  -4   2  252.37    9.01
   3  -4   3  321.45   12.00
   3  -4   3  315.98   12.19
   3  -4   3  352.47   12.43
   3  -4   3  345.70   11.98
   3  -4   4  180.15    7.20
   3  -4   4  175.77    7.22
   3  -4   4  196.65    7.28
   3  -4   4  187.07    7.10
   3  -4   5  219.73    8.77
   3  -4   5  225.49    8.36
   3  -4   5  222.38    8.47
   3  -4   5  225.37    8.63
   3  -4   6   18.94    2.67
   3  -4   6   21.90    2.88
   3  -4   6   18.40    1.41
   3  -4   6   15.68    1.35
   3  -4   7   97.14    5.15
   3  -4   7   97.79    5.05
   3  -4   7   89.07    4.04
   3  -4   8   28.37    3.71
   3  -4   8   24.70    2.71
   3  -4   8   28.38    3.69
   3  -4   9   -2.11    3.44
   3  -4   9    4.47    2.78
   3  -4   9   -0.79    3.45
   3  -4  10    7.69    4.44
   3  -4  10    7.53    3.79
   3  -4  10   13.07    3.32
   3  -4  11   10.59    4.50
   3  -4  11    3.97    4.55
   3  -4  12   -3.43    5.72
   3  -3 -13    5.99    6.00
   3  -3 -12   42.67    6.85
   3  -3 -12   51.81    6.67
   3  -3 -11    3.04    5.35
   3  -3 -11    1.21    5.40
   3  -3 -10   48.15    5.71
   3  -3 -10   58.29    6.45
   3  -3 -10   51.25    5.85
   3  -3  -9    3.84    4.39
   3  -3  -9    7.05    4.72
   3  -3  -9    5.02    4.40
   3  -3  -8   80.53    5.93
   3  -3  -8   84.99    6.24
   3  -3  -8   95.54    6.23
   3  -3  -7    1.62    3.53
   3  -3  -7   -0.81    3.70
   3  -3  -6   22.42    3.71
   3  -3  -6   16.92    3.48
   3  -3  -5   31.73    3.54
   3  -3  -5   28.63    3.24
   3  -3  -4  393.17   14.12
   3  -3  -4  354.11   14.47
   3  -3  -3  192.42    7.64
   3  -3  -2  448.60   16.30
   3  -3  -2  445.56   16.64
   3  -3  -2  444.89   15.91
   3  -3  -1  323.63   12.60
   3  -3  -1  330.51   12.20
   3  -3  -1  331.15   11.76
   3  -3   0  125.58    5.59
   3  -3   0  122.13    5.11
   3  -3   0  117.83    4.55
   3  -3   1  139.18    5.97
   3  -3   1  141.77    6.07
   3  -3   1  136.13    5.00
   3  -3   2   82.44    3.34
   3  -3   2   95.27    4.17
   3  -3   2   85.29    3.95
   3  -3   2   91.01    4.28
   3  -3   2   86.86    3.87
   3  -3   3    4.89    1.90
   3  -3   3    4.95    1.57
   3  -3   3    3.40    1.10
   3  -3   3    4.85    1.57
   3  -3   3    3.82    1.29
   3  -3   4  135.01    5.31
   3  -3   4  127.63    5.16
   3  -3   4  135.45    5.53
   3  -3   4  136.11    5.56
   3  -3   4  136.83    5.65
   3  -3   5  253.48    9.81
   3  -3   5  255.67    9.45
   3  -3   5  265.91    9.40
   3  -3   5  268.41    9.67
   3  -3   5  271.73    9.83
   3  -3   5  264.37   10.14
   3  -3   6  158.32    6.84
   3  -3   6  155.82    6.02
   3  -3   6  148.14    5.78
   3  -3   6  163.28    6.22
   3  -3   6  149.77    6.61
   3  -3   7  607.75   22.03
   3  -3   7  595.04   21.37
   3  -3   7  620.21   21.31
   3  -3   7  595.11   21.82
   3  -3   8   99.86    5.86
   3  -3   8   91.57    4.99
   3  -3   8  105.63    4.51
   3  -3   8  102.68    5.48
   3  -3   9   61.18    3.41
   3  -3   9   53.31    4.78
   3  -3   9   57.50    4.11
   3  -3   9   60.81    3.27
   3  -3   9   62.54    4.63
   3  -3  10   49.71    4.78
   3  -3  10   43.41    2.97
   3  -3  10   51.10    5.06
   3  -3  10   48.88    4.18
   3  -3  10   54.50    3.01
   3  -3  11   19.39    4.57
   3  -3  11   24.73    4.83
   3  -3  11   19.40    4.14
   3  -3  12    7.16    5.08
   3  -3  12   10.13    4.60
   3  -3  12    6.35    3.94
   3  -3  13   15.31    5.98
   3  -2 -13   21.68    6.15
   3  -2 -12    2.34    5.51
   3  -2 -12    1.43    5.47
   3  -2 -11   21.79    5.67
   3  -2 -11   21.43    5.48
   3  -2 -10   26.43    5.14
   3  -2 -10   29.92    5.56
   3  -2 -10   24.99    5.05
   3  -2  -9  126.39    7.47
   3  -2  -9  132.61    7.81
   3  -2  -9  139.19    7.75
   3  -2  -8   40.21    4.79
   3  -2  -8   44.61    4.76
   3  -2  -8   54.00    5.02
   3  -2  -7  133.46    6.95
   3  -2  -7  142.58    7.23
   3  -2  -7  143.21    7.18
   3  -2  -6   73.33    4.68
   3  -2  -6   79.50    5.04
   3  -2  -6   74.19    4.94
   3  -2  -5   65.71    4.06
   3  -2  -5   68.28    4.51
   3  -2  -4   20.31    3.10
   3  -2  -4   20.30    2.58
   3  -2  -3    6.08    2.13
   3  -2  -3    6.43    1.70
   3  -2  -2  263.01    9.72
   3  -2  -2  269.53   10.37
   3  -2  -1   90.84    3.62
   3  -2  -1   87.81    4.52
   3  -2  -1   93.54    4.37
   3  -2   0 1850.67   63.40
   3  -2   0 1937.06   64.40
   3  -2   0 1875.55   64.08
   3  -2   1  369.09   13.64
   3  -2   1  367.55   13.56
   3  -2   1  370.29   13.36
   3  -2   2 1495.22   51.86
   3  -2   2 1510.00   51.82
   3  -2   2 1504.79   51.70
   3  -2   3  138.29    5.17
   3  -2   3  129.34    4.85
   3  -2   3  125.60    5.49
   3  -2   3  140.25    5.54
   3  -2   3  141.66    5.56
   3  -2   3  125.44    4.75
   3  -2   4  161.18    6.10
   3  -2   4  179.69    6.42
   3  -2   4  181.85    6.84
   3  -2   4  182.68    6.90
   3  -2   4  184.99    7.06
   3  -2   4  172.97    6.41
   3  -2   5    5.16    1.53
   3  -2   5    4.53    1.68
   3  -2   5    6.58    2.31
   3  -2   5    3.80    1.57
   3  -2   5    6.47    1.78
   3  -2   6   24.19    2.33
   3  -2   6   24.53    1.98
   3  -2   6   24.32    2.25
   3  -2   6   21.91    1.83
   3  -2   6   29.33    3.13
   3  -2   6   27.83    2.44
   3  -2   7   11.08    2.52
   3  -2   7   11.75    1.47
   3  -2   7   10.03    2.32
   3  -2   7   14.21    1.39
   3  -2   7   12.85    3.00
   3  -2   7   13.66    2.35
   3  -2   8  217.90    8.74
   3  -2   8  202.45    7.90
   3  -2   8  171.24    6.66
   3  -2   8  192.00    6.71
   3  -2   8  193.81    8.05
   3  -2   9   22.80    3.46
   3  -2   9   28.56    3.49
   3  -2   9   31.75    4.23
   3  -2  10   65.63    5.52
   3  -2  10   59.69    4.82
   3  -2  10   65.40    4.31
   3  -2  11   30.30    4.74
   3  -2  11   32.07    4.47
   3  -2  11   28.04    3.62
   3  -2  11   29.78    4.31
   3  -2  12   35.61    5.00
   3  -2  12   37.78    6.03
   3  -2  12   37.91    5.05
   3  -2  13   13.56    5.82
   3  -2  13   19.07    6.27
   3  -2  13   10.51    4.80
   3  -1 -13   17.36    5.57
   3  -1 -12   14.41    6.02
   3  -1 -12   10.71    5.27
   3  -1 -11   -5.26    4.98
   3  -1 -11    3.78    5.32
   3  -1 -10   35.70    5.24
   3  -1 -10   44.71    5.59
   3  -1 -10   36.98    5.14
   3  -1  -9   15.81    4.23
   3  -1  -9   14.27    4.46
   3  -1  -9   13.78    4.38
   3  -1  -8   12.15    3.49
   3  -1  -8    7.57    3.73
   3  -1  -8    9.42    4.01
   3  -1  -7   78.10    5.04
   3  -1  -7   75.85    5.06
   3  -1  -7   78.77    5.14
   3  -1  -6  112.08    5.75
   3  -1  -6  111.07    5.87
   3  -1  -5  196.09    8.41
   3  -1  -5  215.05    8.80
   3  -1  -4  548.65   20.78
   3  -1  -4  583.16   21.27
   3  -1  -4  618.99   21.24
   3  -1  -3   84.07    3.92
   3  -1  -3   84.20    4.46
   3  -1  -3   80.86    4.46
   3  -1  -2  507.98   18.01
   3  -1  -2  519.57   18.66
   3  -1  -1   25.99    1.49
   3  -1  -1   23.83    2.20
   3  -1   0   36.10    1.51
   3  -1   0   43.68    2.80
   3  -1   0   43.37    2.62
   3  -1   0   41.15    2.61
   3  -1   1   10.04    1.63
   3  -1   1    6.59    1.71
   3  -1   1   11.08    1.62
   3  -1   2  223.40    8.66
   3  -1   2  227.95    8.61
   3  -1   2  219.69    8.54
   3  -1   3 1064.42   36.92
   3  -1   3 1061.71   36.98
   3  -1   4  439.62   15.79
   3  -1   4  424.65   14.84
   3  -1   4  446.46   15.28
   3  -1   4  451.62   15.65
   3  -1   4  415.16   15.02
   3  -1   5 1509.67   51.19
   3  -1   5 1470.02   50.67
   3  -1   5 1459.57   50.54
   3  -1   6  557.81   19.87
   3  -1   6  536.37   19.12
   3  -1   6  536.69   19.34
   3  -1   6  541.53   19.26
   3  -1   7  282.77   11.22
   3  -1   7  278.03   10.22
   3  -1   7  275.08   10.68
   3  -1   7  278.07   10.68
   3  -1   8    8.47    2.95
   3  -1   8    9.86    2.65
   3  -1   8    5.36    3.38
   3  -1   8    8.00    1.80
   3  -1   9  104.56    6.18
   3  -1   9  108.02    5.67
   3  -1   9   98.15    4.35
   3  -1   9  103.62    5.65
   3  -1  10   15.13    1.76
   3  -1  10   18.56    3.95
   3  -1  10   13.59    4.05
   3  -1  10   15.24    3.66
   3  -1  11   61.19    5.27
   3  -1  11   70.04    6.08
   3  -1  11   61.74    4.89
   3  -1  11   68.83    5.19
   3  -1  12   72.54    5.85
   3  -1  12   62.76    6.42
   3  -1  12   70.08    5.23
   3  -1  12   62.53    5.45
   3  -1  13   34.74    6.00
   3  -1  13   23.78    6.04
   3  -1  13   33.31    5.60
   3  -1  14   33.17    5.86
   3  -1  14   23.14    6.35
   3   0 -12    8.25    4.44
   3   0 -11   59.48    6.25
   3   0 -11   45.16    5.41
   3   0 -10   17.27    4.74
   3   0 -10   19.50    4.50
   3   0 -10   19.32    4.51
   3   0  -9   94.94    6.33
   3   0  -9   93.21    6.25
   3   0  -9   99.31    6.17
   3   0  -8    5.81    3.64
   3   0  -8    2.42    3.71
   3   0  -7  118.11    6.31
   3   0  -7  115.86    6.15
   3   0  -6   18.77    3.30
   3   0  -5   64.83    4.29
   3   0  -4  585.30   21.70
   3   0  -4  636.66   22.06
   3   0  -3  272.45   10.61
   3   0  -2  716.43   24.49
   3   0  -2  692.16   24.94
   3   0  -2  682.08   24.96
   3   0  -2  701.65   24.87
   3   0  -1 2245.70   75.89
   3   0  -1 2189.61   76.44
   3   0   0 1298.86   44.98
   3   0   1  166.85    6.85
   3   0   1  180.58    6.95
   3   0   2  456.93   15.78
   3   0   2  464.13   16.49
   3   0   2  452.43   16.50
   3   0   3  268.94   10.05
   3   0   3  283.57   10.48
   3   0   4    1.51    1.95
   3   0   4    2.20    1.56
   3   0   5   53.50    3.45
   3   0   5   49.21    2.95
   3   0   5   48.36    3.10
   3   0   5   54.20    2.79
   3   0   6  164.58    6.74
   3   0   6  165.41    7.24
   3   0   6  155.96    6.50
   3   0   6  159.49    6.56
   3   0   7  444.96   17.29
   3   0   7  468.68   16.87
   3   0   7  462.19   16.50
   3   0   7  453.92   16.74
   3   0   8  256.82   11.06
   3   0   8  265.80   10.11
   3   0   8  258.07   10.58
   3   0   8  273.84   10.56
   3   0   9  107.37    6.38
   3   0   9  107.57    5.79
   3   0   9   99.22    4.93
   3   0   9  101.08    5.40
   3   0  10  280.64   12.09
   3   0  10  273.71   11.59
   3   0  10  280.62   11.53
   3   0  11    6.06    4.04
   3   0  11    2.51    3.77
   3   0  11    3.67    3.95
   3   0  11    2.11    4.51
   3   0  11    2.63    2.68
   3   0  12   18.83    2.92
   3   0  12   27.62    4.88
   3   0  12   18.00    4.55
   3   0  12   18.20    5.09
   3   0  12   13.09    5.21
   3   0  13   -2.94    4.80
   3   0  13    0.20    4.08
   3   0  13    4.65    5.53
   3   0  13    0.56    5.48
   3   0  14    0.74    5.36
   3   0  14    1.44    5.28
   3   1 -12    7.23    5.61
   3   1 -12    2.08    4.31
   3   1 -11   -0.79    5.10
   3   1 -11   -0.45    4.89
   3   1 -11   -1.67    4.09
   3   1 -10   10.06    4.06
   3   1 -10   -0.24    4.51
   3   1 -10    8.70    4.24
   3   1  -9   82.84    5.96
   3   1  -9   83.40    5.74
   3   1  -9   86.22    5.51
   3   1  -8   12.06    3.43
   3   1  -8   12.04    3.59
   3   1  -8   13.49    3.94
   3   1  -7   60.26    4.49
   3   1  -7   58.46    4.59
   3   1  -7   69.17    4.79
   3   1  -6  112.85    6.03
   3   1  -6  127.53    6.07
   3   1  -5   22.63    3.54
   3   1  -5   27.48    2.94
   3   1  -4  249.60   10.16
   3   1  -4  259.34   10.65
   3   1  -4  274.57   10.33
   3   1  -3   51.63    3.13
   3   1  -2   12.41    1.75
   3   1  -2   11.91    1.95
   3   1  -1  635.70   22.59
   3   1   0    5.66    1.21
   3   1   1 1090.70   37.45
   3   1   2 1052.57   36.04
   3   1   3 1034.98   35.08
   3   1   3 1023.52   35.61
   3   1   3 1000.67   35.92
   3   1   4 1157.06   39.32
   3   1   4 1096.28   38.95
   3   1   5  567.32   20.19
   3   1   5  548.88   19.06
   3   1   5  545.86   19.79
   3   1   5  551.96   19.74
   3   1   6   31.20    2.62
   3   1   6   29.08    3.21
   3   1   6   31.02    2.91
   3   1   6   31.35    2.68
   3   1   7    0.11    2.13
   3   1   7   -1.03    2.58
   3   1   7    1.32    2.70
   3   1   7   -0.95    2.21
   3   1   8  152.10    7.11
   3   1   8  141.99    6.29
   3   1   8  132.03    6.61
   3   1   8  136.04    6.42
   3   1   9   58.54    4.43
   3   1   9   49.42    4.82
   3   1   9   52.49    3.80
   3   1   9   53.12    4.33
   3   1  10  324.25   14.11
   3   1  10  314.77   13.44
   3   1  10  342.12   12.95
   3   1  10  355.09   13.50
   3   1  11   95.92    7.09
   3   1  11   95.61    6.46
   3   1  11  102.55    6.62
   3   1  11  105.20    5.59
   3   1  11  109.66    6.20
   3   1  12   76.18    7.02
   3   1  12   83.01    6.65
   3   1  12   88.22    5.25
   3   1  12   83.04    6.34
   3   1  12  101.80    6.46
   3   1  13   71.94    6.34
   3   1  13   71.95    6.32
   3   1  13   69.06    6.83
   3   1  13   86.87    7.60
   3   1  14   39.04    6.58
   3   2 -12    2.40    5.48
   3   2 -12    7.59    5.70
   3   2 -11   11.90    5.39
   3   2 -11    4.84    4.96
   3   2 -11   11.19    4.41
   3   2 -10    0.17    3.58
   3   2 -10   -5.01    4.45
   3   2 -10   -1.98    4.38
   3   2 -10    1.34    3.98
   3   2  -9   -1.62    3.54
   3   2  -9    4.06    3.81
   3   2  -9    3.37    3.47
   3   2  -8    5.96    3.42
   3   2  -8    6.95    3.69
   3   2  -8    2.65    3.50
   3   2  -7    2.09    2.82
   3   2  -7    4.43    3.37
   3   2  -6  702.71   25.86
   3   2  -6  717.66   25.64
   3   2  -5  309.14   12.50
   3   2  -5  330.33   13.00
   3   2  -5  321.58   12.37
   3   2  -4  263.64   11.00
   3   2  -4  294.95   11.50
   3   2  -4  289.28   10.98
   3   2  -3  521.24   19.77
   3   2  -3  511.02   19.66
   3   2  -3  605.47   20.33
   3   2  -3  573.90   19.78
   3   2  -2 1217.10   43.51
   3   2  -2 1311.10   43.97
   3   2  -2 1257.45   43.59
   3   2  -1  205.38    8.12
   3   2  -1  210.93    8.53
   3   2  -1  218.29    8.29
   3   2   0   16.23    2.25
   3   2   0   18.20    1.73
   3   2   0   19.66    1.98
   3   2   1    3.02    1.17
   3   2   2  635.76   22.15
   3   2   3  415.54   14.65
   3   2   3  408.07   15.01
   3   2   4  368.32   13.53
   3   2   4  359.53   13.52
   3   2   5  857.41   30.17
   3   2   5  851.56   30.18
   3   2   6  557.56   19.84
   3   2   6  562.38   20.40
   3   2   6  580.24   20.54
   3   2   7  233.69   10.07
   3   2   7  238.97    9.57
   3   2   7  238.54    9.75
   3   2   8  360.14   14.52
   3   2   8  364.50   13.91
   3   2   8  369.25   14.26
   3   2   9   47.69    4.18
   3   2   9   44.83    4.58
   3   2   9   47.04    4.55
   3   2   9   47.93    4.06
   3   2  10    0.53    3.40
   3   2  10    4.92    3.68
   3   2  10   -0.23    3.97
   3   2  10    4.75    3.49
   3   2  11   37.48    4.56
   3   2  11   33.36    5.12
   3   2  11   27.93    5.47
   3   2  12   11.98    4.88
   3   2  12   12.71    4.68
   3   2  12   12.22    4.93
   3   2  12   -1.92    5.07
   3   2  13  101.48    7.28
   3   2  13   81.07    7.25
   3   2  13   82.21    7.40
   3   2  13   76.09    7.52
   3   2  14   18.28    6.59
   3   3 -12   10.53    5.47
   3   3 -11    8.52    4.90
   3   3 -11   13.05    4.42
   3   3 -11    6.80    4.10
   3   3 -10   15.16    4.11
   3   3 -10   17.38    4.82
   3   3 -10    9.52    4.65
   3   3 -10   19.46    4.15
   3   3  -9   11.44    3.95
   3   3  -9   16.97    4.54
   3   3  -9   13.73    4.38
   3   3  -9   11.25    3.65
   3   3  -8    2.28    3.31
   3   3  -8   -0.36    3.78
   3   3  -8    1.09    3.72
   3   3  -8    1.39    3.44
   3   3  -7   12.31    3.34
   3   3  -7   13.25    3.44
   3   3  -7   15.52    3.84
   3   3  -6    1.93    3.05
   3   3  -6   -2.78    3.00
   3   3  -6    0.73    3.07
   3   3  -5    5.28    3.12
   3   3  -5   -0.26    2.75
   3   3  -5    2.65    2.77
   3   3  -4    7.30    2.93
   3   3  -4    4.98    2.24
   3   3  -3  496.88   18.84
   3   3  -3  510.34   18.28
   3   3  -2   54.83    3.32
   3   3  -2   56.14    3.65
   3   3  -2   58.86    3.35
   3   3  -1  690.89   24.94
   3   3  -1  740.84   25.37
   3   3  -1  696.76   24.98
   3   3   0  143.35    5.98
   3   3   0  145.00    6.35
   3   3   1 1039.66   37.01
   3   3   1 1107.38   37.42
   3   3   2  340.49   12.92
   3   3   2  376.22   13.44
   3   3   3   96.90    4.54
   3   3   3   90.53    4.80
   3   3   4    8.67    2.63
   3   3   4    2.82    2.03
   3   3   4    4.18    2.17
   3   3   5  186.92    7.88
   3   3   5  202.66    8.05
   3   3   6  235.87    9.12
   3   3   6  241.55    9.62
   3   3   6  226.69    9.58
   3   3   7  366.95   13.92
   3   3   7  389.61   14.44
   3   3   7  374.11   14.49
   3   3   8  436.15   16.69
   3   3   8  434.21   16.51
   3   3   9  179.08    8.58
   3   3   9  177.46    8.28
   3   3  10  234.66   10.55
   3   3  10  223.42   10.11
   3   3  11   53.06    5.84
   3   3  11   62.13    5.77
   3   3  11   57.79    5.37
   3   3  12   61.66    6.43
   3   3  12   74.95    6.50
   3   3  12   67.93    5.66
   3   3  13   27.67    6.18
   3   3  13   27.49    6.37
   3   4 -11    1.61    4.88
   3   4 -10    0.43    3.60
   3   4 -10    0.86    4.74
   3   4 -10    2.26    3.75
   3   4  -9    3.99    3.34
   3   4  -9    1.01    4.28
   3   4  -9   10.16    3.69
   3   4  -8   76.05    5.52
   3   4  -8   75.12    5.11
   3   4  -8   71.93    4.99
   3   4  -7  307.47   12.39
   3   4  -7  292.42   11.94
   3   4  -6  168.04    7.92
   3   4  -6  167.88    7.62
   3   4  -5   34.59    4.30
   3   4  -5   30.38    3.52
   3   4  -4  194.07    8.72
   3   4  -4  187.59    7.90
   3   4  -3  153.99    7.34
   3   4  -3  155.52    6.67
   3   4  -2   39.18    3.26
   3   4  -2   51.63    3.90
   3   4  -2   48.00    3.16
   3   4  -1   67.60    3.78
   3   4  -1   61.20    3.96
   3   4   0  239.71    9.78
   3   4   0  270.49   10.24
   3   4   1  556.70   20.42
   3   4   1  584.46   20.64
   3   4   1  571.06   20.72
   3   4   2  648.34   23.76
   3   4   2  690.41   24.09
   3   4   3  790.69   28.78
   3   4   3  840.87   29.11
   3   4   4  562.98   20.01
   3   4   4  518.02   19.72
   3   4   5  204.70    9.16
   3   4   5  213.26    8.59
   3   4   5  217.80    8.96
   3   4   6  187.75    8.30
   3   4   6  175.23    7.55
   3   4   6  171.26    7.89
   3   4   7   54.72    4.64
   3   4   7   48.46    4.34
   3   4   7   52.28    4.13
   3   4   7   45.11    3.80
   3   4   8    6.52    3.87
   3   4   8    4.72    3.43
   3   4   8    4.04    3.34
   3   4   9  159.15    8.52
   3   4   9  164.00    8.16
   3   4   9  155.59    8.17
   3   4  10   57.37    5.95
   3   4  10   59.06    5.41
   3   4  10   60.72    5.19
   3   4  11  206.62   10.47
   3   4  11  195.63    9.94
   3   4  11  187.17    9.59
   3   4  12  100.19    8.08
   3   4  12   96.69    6.70
   3   4  12   92.25    7.25
   3   4  13   28.92    7.16
   3   4  13   39.52    6.15
   3   5 -11    4.47    5.21
   3   5 -10    1.56    4.78
   3   5  -9    4.21    3.53
   3   5  -9    2.74    4.66
   3   5  -9    8.13    3.26
   3   5  -8    8.42    3.59
   3   5  -8   14.71    4.72
   3   5  -8    5.73    3.38
   3   5  -7    1.44    3.31
   3   5  -7    3.18    3.83
   3   5  -6   25.60    4.07
   3   5  -5   12.12    3.98
   3   5  -5   16.29    3.49
   3   5  -4  206.78    9.22
   3   5  -4  194.60    8.17
   3   5  -3  113.35    5.47
   3   5  -3  116.32    6.33
   3   5  -3  105.38    5.20
   3   5  -2  104.34    5.23
   3   5  -2  108.77    5.69
   3   5  -2   99.48    4.97
   3   5  -1  144.32    6.50
   3   5  -1  134.81    6.30
   3   5  -1  136.59    6.59
   3   5   0   48.20    3.50
   3   5   0   40.52    3.54
   3   5   0   50.86    3.86
   3   5   1   18.69    2.93
   3   5   1   20.49    2.87
   3   5   1   23.35    2.95
   3   5   2  166.20    7.44
   3   5   2  161.89    7.37
   3   5   2  176.62    7.64
   3   5   3  146.95    6.98
   3   5   3  153.47    7.06
   3   5   4  150.65    6.99
   3   5   4  146.97    7.25
   3   5   5  624.03   22.23
   3   5   5  599.92   21.76
   3   5   5  559.74   21.87
   3   5   5  600.84   21.98
   3   5   6  405.15   15.90
   3   5   6  406.13   15.50
   3   5   6  399.48   15.71
   3   5   7  305.02   13.08
   3   5   7  322.42   12.66
   3   5   7  306.47   12.83
   3   5   8   85.03    6.07
   3   5   8   76.90    5.71
   3   5   9   64.39    5.95
   3   5   9   67.67    5.84
   3   5  10   21.05    4.97
   3   5  10   28.97    5.43
   3   5  11    1.39    5.29
   3   5  11   -0.74    4.82
   3   5  11    5.10    5.61
   3   5  11   -3.89    5.42
   3   5  12   -4.82    5.82
   3   5  12   -3.19    5.75
   3   5  12    3.68    5.87
   3   5  12   -2.06    6.05
   3   5  13   24.28    6.76
   3   6 -10    0.95    5.28
   3   6  -9   42.92    5.93
   3   6  -8   55.76    4.75
   3   6  -8   55.34    4.00
   3   6  -8   62.74    6.03
   3   6  -8   60.68    4.16
   3   6  -7   11.85    3.73
   3   6  -7   16.45    4.70
   3   6  -7   11.29    3.22
   3   6  -6    6.92    3.90
   3   6  -6    7.48    3.02
   3   6  -5    2.01    4.00
   3   6  -5    6.87    3.65
   3   6  -5    8.27    2.96
   3   6  -5    6.67    2.94
   3   6  -4    6.14    3.58
   3   6  -4   11.53    3.65
   3   6  -4    7.59    3.04
   3   6  -4    6.77    2.75
   3   6  -3   33.80    4.46
   3   6  -3   41.80    3.57
   3   6  -3   37.28    3.47
   3   6  -2  196.55    8.85
   3   6  -1   97.44    5.59
   3   6  -1  110.12    5.39
   3   6  -1   94.53    5.62
   3   6   0  346.10   13.87
   3   6   0  351.90   13.72
   3   6   0  369.32   13.98
   3   6   1  299.64   12.25
   3   6   1  301.01   12.09
   3   6   1  310.22   12.13
   3   6   2  364.79   14.97
   3   6   2  380.39   14.75
   3   6   2  397.16   14.85
   3   6   3  193.23    8.55
   3   6   3  183.63    8.58
   3   6   4    6.21    3.63
   3   6   4    3.09    3.35
   3   6   5   89.09    5.97
   3   6   5   96.20    5.77
   3   6   5  107.53    6.03
   3   6   6   95.07    6.51
   3   6   6  109.13    6.16
   3   6   6  106.08    6.38
   3   6   6  111.70    6.27
   3   6   7   75.93    6.16
   3   6   7   86.03    6.02
   3   6   7   99.35    6.28
   3   6   7   91.72    6.11
   3   6   8  186.11    9.63
   3   6   8  186.69    9.46
   3   6   8  198.72    9.40
   3   6   8  186.05    9.27
   3   6   9  190.21   10.00
   3   6   9  197.84    9.95
   3   6  10  175.84    9.79
   3   6  10  169.28    9.39
   3   6  11   97.26    7.95
   3   6  11   98.50    7.94
   3   6  11   85.03    7.51
   3   6  13    7.31    6.84
   3   7  -8    5.98    5.42
   3   7  -7   -0.61    3.66
   3   7  -7    8.83    4.95
   3   7  -6   36.72    5.09
   3   7  -6   37.04    3.78
   3   7  -5   11.44    4.30
   3   7  -5    9.43    3.24
   3   7  -5    8.20    3.01
   3   7  -4   63.45    5.30
   3   7  -4   65.55    5.51
   3   7  -4   61.29    4.57
   3   7  -4   61.80    4.19
   3   7  -3    3.88    3.79
   3   7  -3    6.55    3.36
   3   7  -3   -0.37    2.84
   3   7  -2   25.55    4.10
   3   7  -2   22.83    3.72
   3   7  -1   16.83    3.93
   3   7  -1   19.72    4.01
   3   7  -1   18.17    3.43
   3   7   0   58.59    4.52
   3   7   0   59.02    4.99
   3   7   0   56.23    4.57
   3   7   1  237.44   10.49
   3   7   1  228.99   10.07
   3   7   1  230.63   10.03
   3   7   2   89.31    6.17
   3   7   2   94.89    5.80
   3   7   2   96.37    5.73
   3   7   3  104.26    6.06
   3   7   3  104.61    6.26
   3   7   4  254.19   11.13
   3   7   4  261.74   11.06
   3   7   5  216.03   10.02
   3   7   5  220.46   10.13
   3   7   6   20.93    4.42
   3   7   6   21.62    4.95
   3   7   6   25.15    4.40
   3   7   7    6.43    4.12
   3   7   7    3.53    4.47
   3   7   7    6.03    4.60
   3   7   7    4.50    4.30
   3   7   8   -3.44    5.29
   3   7   8   -1.17    4.86
   3   7   8    3.98    4.75
   3   7   8    0.24    4.43
   3   7   9    2.67    5.23
   3   7   9   -5.73    5.33
   3   7   9    1.30    5.26
   3   7  10   26.00    6.18
   3   7  10   29.13    5.90
   3   7  10   24.03    6.20
   3   7  11   42.83    7.19
   3   7  11   42.46    7.37
   3   8  -7   -0.48    5.21
   3   8  -6    6.72    4.79
   3   8  -6   -0.64    3.05
   3   8  -5   20.20    5.07
   3   8  -5   22.12    3.40
   3   8  -4   12.65    4.12
   3   8  -4   17.85    4.81
   3   8  -4    3.20    3.47
   3   8  -4   11.79    3.30
   3   8  -3   66.35    5.35
   3   8  -3   71.29    5.85
   3   8  -3   56.06    4.83
   3   8  -3   54.77    4.49
   3   8  -2   49.61    4.91
   3   8  -2   54.79    5.00
   3   8  -1   16.59    4.11
   3   8  -1   24.78    4.05
   3   8   0  172.90    8.13
   3   8   0  170.50    8.02
   3   8   1   37.61    5.26
   3   8   1   46.90    4.95
   3   8   2    0.73    3.91
   3   8   2    6.63    4.16
   3   8   3   18.22    4.49
   3   8   3   15.21    4.02
   3   8   3   10.35    4.11
   3   8   4   22.13    4.50
   3   8   4   33.13    4.84
   3   8   4   27.35    4.72
   3   8   5   50.15    5.42
   3   8   5   47.88    5.36
   3   8   5   45.77    5.39
   3   8   5   42.58    5.36
   3   8   6  279.10   12.52
   3   8   6  266.10   12.10
   3   8   7   10.05    5.32
   3   8   7   21.03    5.48
   3   8   7   21.42    5.18
   3   8   8  270.69   12.49
   3   8   8  237.06   12.17
   3   8   8  257.26   12.06
   3   8   8  244.98   11.98
   3   8   9   31.70    6.32
   3   8   9   28.50    6.31
   3   8   9   26.35    6.40
   3   8   9   27.68    5.97
   3   8  10   17.11    7.21
   3   9  -5   -0.26    5.37
   3   9  -5   -4.05    3.84
   3   9  -4   -0.77    5.18
   3   9  -4    0.64    3.73
   3   9  -3    8.48    5.17
   3   9  -3    6.89    4.04
   3   9  -3   11.46    4.13
   3   9  -3    4.55    3.53
   3   9  -2    5.71    3.93
   3   9  -2    6.55    4.15
   3   9  -1  119.51    6.94
   3   9  -1  126.28    7.00
   3   9   0   36.11    5.78
   3   9   0   37.22    4.59
   3   9   0   35.11    5.19
   3   9   1   26.30    5.35
   3   9   1   44.51    5.30
   3   9   1   33.44    4.87
   3   9   2   12.04    4.13
   3   9   2   15.44    4.96
   3   9   3   68.48    6.36
   3   9   3   71.94    5.97
   3   9   4    4.77    4.48
   3   9   4    3.97    4.83
   3   9   5   -2.65    5.29
   3   9   5    5.96    4.88
   3   9   5    3.69    4.98
   3   9   6    4.22    5.55
   3   9   6   14.67    5.19
   3   9   6    5.64    4.30
   3   9   7   12.20    5.54
   3   9   7   16.99    6.62
   3   9   7   17.14    5.73
   3   9   7   11.82    5.59
   3   9   8    3.77    6.77
   3   9   8   18.52    6.17
   3   9   8   32.68    6.87
   3   9   8   17.18    6.61
   3   9   8   12.69    5.93
   3   9   9   69.08    7.35
   3  10  -2    4.20    6.52
   3  10  -2    5.97    4.42
   3  10  -1   32.35    5.06
   3  10   0    5.10    4.75
   3  10   1   20.81    4.18
   3  10   1    7.56    4.86
   3  10   2    8.14    4.43
   3  10   2   17.68    5.09
   3  10   3   38.28    5.13
   3  10   3   45.40    6.17
   3  10   3   46.40    6.38
   3  10   4   41.65    6.35
   3  10   4   42.30    5.12
   3  10   5   26.71    6.43
   3  10   5   40.76    6.82
   3  10   5   36.64    5.38
   3  10   5   30.24    6.13
   3  10   6   31.28    6.88
   3  10   6   26.28    5.57
   3  10   7   12.89    5.61
   3  10   8   18.37    7.05
   3  11  -1   10.42    5.99
   3  11   0   -0.95    6.18
   3  11   1   -1.00    5.38
   3  11   2    2.87    6.17
   3  11   3   10.43    6.09
   3  11   4   22.14    5.69
   4  -9  -3    0.75    5.40
   4  -9  -3    5.43    5.47
   4  -9  -2    6.39    5.08
   4  -9  -2    4.21    5.05
   4  -9  -1    4.67    4.79
   4  -9  -1    3.77    4.95
   4  -9   0    6.59    4.52
   4  -9   0    9.55    4.84
   4  -9   1    2.00    4.51
   4  -9   1   11.31    4.61
   4  -9   2   -3.09    4.82
   4  -8  -8    0.25    5.73
   4  -8  -6   13.88    4.69
   4  -8  -5   14.78    4.45
   4  -8  -5   16.56    5.38
   4  -8  -5   14.58    5.56
   4  -8  -4    4.21    3.93
   4  -8  -4    3.49    5.27
   4  -8  -4   17.87    5.36
   4  -8  -4    5.84    5.38
   4  -8  -3   13.02    3.91
   4  -8  -3   16.47    4.87
   4  -8  -3   13.89    5.13
   4  -8  -3   11.77    4.78
   4  -8  -2    1.96    3.49
   4  -8  -2    3.38    4.93
   4  -8  -2    1.53    5.00
   4  -8  -1   23.57    5.08
   4  -8  -1   33.65    4.99
   4  -8   0    5.32    3.21
   4  -8   0    5.22    4.67
   4  -8   0    3.25    3.57
   4  -8   1    4.20    3.05
   4  -8   1    3.58    3.62
   4  -8   1    6.22    4.18
   4  -8   2   -1.55    3.58
   4  -8   2    3.63    3.69
   4  -8   3    5.56    3.46
   4  -8   3    4.43    3.81
   4  -8   4   15.03    3.30
   4  -7  -9   -2.30    6.17
   4  -7  -8   11.05    5.72
   4  -7  -7    1.08    4.71
   4  -7  -7   -3.50    5.44
   4  -7  -6   41.41    5.93
   4  -7  -6   28.77    6.07
   4  -7  -6   31.20    5.86
   4  -7  -5    3.85    3.72
   4  -7  -5    1.21    4.85
   4  -7  -5    6.92    4.97
   4  -7  -5    5.17    4.85
   4  -7  -4    0.62    3.63
   4  -7  -4    3.65    4.72
   4  -7  -4   -2.06    4.68
   4  -7  -4    1.64    4.51
   4  -7  -3    9.02    3.50
   4  -7  -3   10.84    4.42
   4  -7  -3    3.84    4.34
   4  -7  -3    2.00    4.48
   4  -7  -2   33.68    3.94
   4  -7  -2   35.27    4.85
   4  -7  -2   43.40    5.19
   4  -7  -2   33.12    4.96
   4  -7  -1   32.85    3.71
   4  -7  -1   38.07    4.80
   4  -7  -1   42.97    4.77
   4  -7  -1   37.88    4.95
   4  -7  -1   33.55    4.63
   4  -7   0   27.38    3.24
   4  -7   0   22.52    4.06
   4  -7   0   22.07    4.04
   4  -7   0   22.33    4.01
   4  -7   1   31.37    3.01
   4  -7   1   27.14    3.97
   4  -7   1   20.58    3.60
   4  -7   1   24.78    4.00
   4  -7   2   16.52    2.93
   4  -7   2   14.49    3.66
   4  -7   2   16.67    3.56
   4  -7   2   18.92    3.87
   4  -7   3    6.91    3.13
   4  -7   3    6.92    2.96
   4  -7   3    8.86    3.42
   4  -7   4    5.59    2.73
   4  -7   4    9.25    3.13
   4  -7   4    0.92    2.59
   4  -7   4    6.21    3.16
   4  -7   5   12.20    3.33
   4  -6 -10    7.03    5.65
   4  -6  -9    0.74    5.16
   4  -6  -8   28.61    5.89
   4  -6  -8   32.20    5.35
   4  -6  -8   26.99    5.81
   4  -6  -8   28.97    5.88
   4  -6  -7   23.50    4.93
   4  -6  -7   18.48    5.47
   4  -6  -6   49.58    5.01
   4  -6  -6   38.00    5.74
   4  -6  -6   45.87    5.91
   4  -6  -6   33.52    5.52
   4  -6  -5   12.48    4.56
   4  -6  -5   14.76    4.73
   4  -6  -4    9.20    3.51
   4  -6  -4   13.11    4.51
   4  -6  -4    9.64    4.32
   4  -6  -4   15.25    4.57
   4  -6  -3   27.31    3.37
   4  -6  -3   25.96    4.57
   4  -6  -3   20.64    4.29
   4  -6  -3   21.95    4.50
   4  -6  -2    4.95    2.69
   4  -6  -2    3.50    4.08
   4  -6  -2    3.67    3.50
   4  -6  -2    1.58    3.86
   4  -6  -1    1.68    2.48
   4  -6  -1    6.48    3.71
   4  -6  -1   -0.53    3.44
   4  -6  -1    6.43    3.32
   4  -6  -1    0.37    3.80
   4  -6   0   76.54    5.18
   4  -6   0   65.61    4.77
   4  -6   0   63.27    4.94
   4  -6   0   70.45    5.17
   4  -6   0   67.48    3.86
   4  -6   1    2.77    2.11
   4  -6   1    2.55    1.13
   4  -6   1    8.58    3.34
   4  -6   1    2.28    3.14
   4  -6   1    1.94    3.57
   4  -6   2  148.95    7.45
   4  -6   2  154.37    7.45
   4  -6   2  159.44    6.69
   4  -6   3   56.16    3.29
   4  -6   3   55.95    4.05
   4  -6   3   50.52    4.06
   4  -6   3   51.63    4.28
   4  -6   4   52.71    3.38
   4  -6   4   52.09    3.77
   4  -6   4   49.00    3.89
   4  -6   4   58.91    3.97
   4  -6   5   20.40    2.85
   4  -6   5   22.98    3.09
   4  -6   5   16.09    1.18
   4  -6   5   22.48    2.60
   4  -6   5   19.90    2.95
   4  -6   6    2.63    2.78
   4  -6   6    5.01    2.77
   4  -6   6    2.64    1.54
   4  -6   6    2.59    2.05
   4  -6   7   -4.14    3.21
   4  -5 -10    6.82    5.74
   4  -5  -9    5.28    5.22
   4  -5  -9   -5.65    5.62
   4  -5  -9    3.19    5.61
   4  -5  -8   17.18    4.73
   4  -5  -8   13.44    5.17
   4  -5  -7    3.70    4.31
   4  -5  -7    9.01    4.80
   4  -5  -7    3.15    4.59
   4  -5  -6    2.80    4.34
   4  -5  -6   -2.60    3.63
   4  -5  -5  101.63    5.56
   4  -5  -5   87.46    6.45
   4  -5  -5   94.22    6.35
   4  -5  -5   85.18    6.27
   4  -5  -4    4.52    3.02
   4  -5  -4   -1.94    4.05
   4  -5  -4   -1.60    3.81
   4  -5  -3  145.24    7.84
   4  -5  -3  142.97    7.63
   4  -5  -3  154.35    7.83
   4  -5  -3  159.58    6.79
   4  -5  -2   53.03    4.89
   4  -5  -2   52.05    4.50
   4  -5  -2   48.90    3.45
   4  -5  -2   60.97    4.90
   4  -5  -1   24.95    3.74
   4  -5  -1   23.24    2.34
   4  -5  -1   19.06    3.91
   4  -5  -1   15.69    3.60
   4  -5   0   92.85    5.41
   4  -5   0   80.15    5.15
   4  -5   0   92.81    5.26
   4  -5   0   85.16    3.92
   4  -5   1    5.53    3.35
   4  -5   1    3.59    1.49
   4  -5   1    7.69    2.95
   4  -5   1    5.64    2.04
   4  -5   1    5.75    1.37
   4  -5   1    7.29    2.89
   4  -5   2    2.62    1.29
   4  -5   2    2.64    3.05
   4  -5   2    1.89    1.34
   4  -5   2    1.41    1.85
   4  -5   2    1.28    2.66
   4  -5   2    0.57    2.91
   4  -5   3    5.12    1.54
   4  -5   3    3.56    2.69
   4  -5   3    6.23    1.80
   4  -5   3    6.34    2.96
   4  -5   4   10.63    2.51
   4  -5   4   12.80    2.02
   4  -5   4   11.81    1.88
   4  -5   4    9.40    3.04
   4  -5   5   57.24    3.19
   4  -5   5   46.59    3.38
   4  -5   5   52.92    3.59
   4  -5   5   54.57    3.26
   4  -5   6   86.35    4.56
   4  -5   6   92.75    4.40
   4  -5   6   88.62    4.27
   4  -5   6   95.43    4.69
   4  -5   7   52.37    3.77
   4  -5   7   45.54    2.17
   4  -5   7   58.51    3.86
   4  -5   8   83.12    5.07
   4  -5   8   83.04    4.87
   4  -4 -11   12.98    5.61
   4  -4 -11   11.44    6.26
   4  -4 -10    5.33    5.96
   4  -4 -10    3.09    5.27
   4  -4 -10    4.27    5.62
   4  -4  -9   41.33    5.57
   4  -4  -9   44.07    6.17
   4  -4  -9   47.46    6.37
   4  -4  -8   13.25    3.92
   4  -4  -8   14.24    5.10
   4  -4  -8   16.84    5.13
   4  -4  -7   23.89    4.30
   4  -4  -6   12.76    3.55
   4  -4  -6   17.47    4.08
   4  -4  -6    8.12    4.32
   4  -4  -5   -2.58    3.09
   4  -4  -5    2.64    3.45
   4  -4  -4    9.79    3.72
   4  -4  -4    3.67    2.76
   4  -4  -4    5.50    3.47
   4  -4  -3   70.03    4.02
   4  -4  -3   73.95    5.02
   4  -4  -3   66.83    4.87
   4  -4  -2  169.55    6.76
   4  -4  -2  161.50    7.89
   4  -4  -1   71.70    3.45
   4  -4  -1   74.53    4.96
   4  -4  -1   77.18    4.89
   4  -4  -1   72.80    4.15
   4  -4   0  252.94   10.24
   4  -4   0  255.47   10.26
   4  -4   0  240.97    9.59
   4  -4   0  238.43    8.74
   4  -4   1  182.02    6.71
   4  -4   1  201.29    8.26
   4  -4   1  196.18    8.28
   4  -4   1  203.82    7.70
   4  -4   2  387.91   13.89
   4  -4   2  430.71   15.16
   4  -4   2  414.58   14.93
   4  -4   2  438.61   15.35
   4  -4   2  434.73   14.76
   4  -4   3   -0.99    2.53
   4  -4   3    1.11    0.72
   4  -4   3    1.65    2.30
   4  -4   3    4.72    1.99
   4  -4   3    0.89    2.05
   4  -4   4   56.56    3.16
   4  -4   4   58.21    3.78
   4  -4   4   57.78    3.59
   4  -4   4   58.67    2.59
   4  -4   5   25.08    2.86
   4  -4   5   28.59    2.09
   4  -4   5   24.62    3.00
   4  -4   5   24.68    2.14
   4  -4   6    6.55    2.11
   4  -4   6   10.44    2.13
   4  -4   6    9.20    2.81
   4  -4   7   17.19    2.71
   4  -4   7   14.24    3.25
   4  -4   7   12.70    1.68
   4  -4   8   16.06    3.54
   4  -4   8   17.94    3.18
   4  -4   8   22.80    2.13
   4  -4   9   34.81    4.33
   4  -4   9   29.03    3.82
   4  -4   9   33.04    3.12
   4  -4  10   34.38    4.16
   4  -4  10   24.81    4.61
   4  -3 -11    5.51    5.53
   4  -3 -11   -3.01    6.73
   4  -3 -11    1.86    6.05
   4  -3 -10    7.58    4.85
   4  -3 -10    8.45    6.04
   4  -3 -10   12.94    5.43
   4  -3  -9    5.27    4.71
   4  -3  -9    7.53    5.41
   4  -3  -9    2.18    5.13
   4  -3  -8   17.80    4.24
   4  -3  -8   20.13    4.90
   4  -3  -8   26.77    5.17
   4  -3  -7   42.38    5.06
   4  -3  -7   52.52    4.85
   4  -3  -7   46.67    5.17
   4  -3  -6   23.21    4.06
   4  -3  -6   20.13    3.62
   4  -3  -5   97.05    5.23
   4  -3  -5   81.91    5.66
   4  -3  -4    1.27    2.57
   4  -3  -3  138.79    6.09
   4  -3  -3  145.88    6.72
   4  -3  -3  142.94    7.03
   4  -3  -2   -2.02    2.72
   4  -3  -2   -0.51    1.65
   4  -3  -2    1.77    2.65
   4  -3  -1   14.56    3.07
   4  -3  -1   14.15    1.45
   4  -3   0   23.00    1.17
   4  -3   0   31.11    3.27
   4  -3   0   27.93    2.70
   4  -3   1  179.03    7.61
   4  -3   1  164.16    7.06
   4  -3   2    3.60    2.72
   4  -3   2    5.22    2.33
   4  -3   2    1.41    1.91
   4  -3   2    1.71    2.04
   4  -3   3  337.28   12.47
   4  -3   3  322.54   12.09
   4  -3   3  353.07   12.92
   4  -3   3  348.55   12.65
   4  -3   4   95.67    3.84
   4  -3   4  101.72    4.86
   4  -3   4  105.05    4.89
   4  -3   4   99.62    4.77
   4  -3   4   90.31    3.43
   4  -3   5  287.76   11.04
   4  -3   5  297.37   11.11
   4  -3   5  305.37   11.27
   4  -3   5  278.51   10.26
   4  -3   6  172.11    7.05
   4  -3   6  175.01    7.44
   4  -3   6  189.23    7.85
   4  -3   6  169.20    6.76
   4  -3   7   41.19    4.28
   4  -3   7   33.89    2.87
   4  -3   7   36.24    2.63
   4  -3   7   35.65    2.63
   4  -3   7   37.01    2.62
   4  -3   7   34.46    3.32
   4  -3   8    0.35    1.20
   4  -3   8    0.21    2.71
   4  -3   8    0.50    3.44
   4  -3   8   -0.09    2.50
   4  -3   8    1.72    2.53
   4  -3   9    5.63    3.26
   4  -3   9    6.82    3.85
   4  -3   9   10.76    3.09
   4  -3   9    6.00    2.69
   4  -3  10    7.61    3.37
   4  -3  10    5.49    4.45
   4  -3  10    7.45    3.25
   4  -3  11   31.03    4.30
   4  -3  11   24.21    5.33
   4  -2 -12    5.01    5.51
   4  -2 -11   12.41    6.00
   4  -2 -11   11.85    6.38
   4  -2 -11   10.90    5.82
   4  -2 -10    6.19    4.99
   4  -2 -10   10.18    5.59
   4  -2 -10    6.83    5.18
   4  -2  -9   12.56    4.74
   4  -2  -9   22.15    5.34
   4  -2  -9   28.93    5.12
   4  -2  -8    3.05    4.28
   4  -2  -8    3.64    3.97
   4  -2  -8   -1.82    4.22
   4  -2  -7    4.32    3.95
   4  -2  -7    5.21    3.38
   4  -2  -7    4.24    3.86
   4  -2  -6   16.80    3.90
   4  -2  -6   18.32    3.38
   4  -2  -6   17.61    3.87
   4  -2  -5   19.53    3.71
   4  -2  -5   18.86    3.16
   4  -2  -4  346.68   13.33
   4  -2  -4  371.17   14.10
   4  -2  -3  569.51   20.00
   4  -2  -3  545.69   20.67
   4  -2  -2  102.76    4.21
   4  -2  -2   89.18    5.44
   4  -2  -2   93.10    5.17
   4  -2  -1  475.48   16.73
   4  -2  -1  479.22   17.95
   4  -2  -1  500.26   17.73
   4  -2   0  351.49   13.17
   4  -2   0  329.06   12.76
   4  -2   1  212.67    8.73
   4  -2   1  226.95    8.97
   4  -2   2    5.55    2.01
   4  -2   2    8.72    2.57
   4  -2   2    8.04    2.36
   4  -2   3   35.93    2.96
   4  -2   3   35.18    3.06
   4  -2   3   30.89    1.83
   4  -2   3   35.98    2.88
   4  -2   4   82.24    3.66
   4  -2   4   85.28    4.52
   4  -2   4   83.54    4.48
   4  -2   4   81.71    4.55
   4  -2   5  291.10   11.43
   4  -2   5  318.30   11.62
   4  -2   5  305.04   11.72
   4  -2   5  293.66   10.56
   4  -2   6   76.70    3.80
   4  -2   6   70.51    4.05
   4  -2   6   77.41    4.46
   4  -2   6   71.82    3.47
   4  -2   6   71.70    4.59
   4  -2   7  214.52    9.31
   4  -2   7  202.76    8.32
   4  -2   7  218.57    8.46
   4  -2   7  214.66    8.41
   4  -2   7  221.42    8.86
   4  -2   7  214.35    8.31
   4  -2   8   66.25    3.51
   4  -2   8   73.11    4.33
   4  -2   8   61.32    5.20
   4  -2   8   69.12    3.63
   4  -2   8   70.09    4.35
   4  -2   8   66.54    4.11
   4  -2   9   97.70    6.36
   4  -2   9   99.35    5.29
   4  -2   9   90.52    4.04
   4  -2   9   98.43    5.47
   4  -2   9  103.21    5.29
   4  -2  10   33.27    3.97
   4  -2  10   35.48    4.10
   4  -2  10   36.01    4.99
   4  -2  10   36.58    3.93
   4  -2  11    6.24    3.86
   4  -2  11    2.98    3.49
   4  -2  11    4.17    3.77
   4  -2  11    5.10    4.68
   4  -2  12   -1.43    4.22
   4  -2  12    6.55    5.64
   4  -2  13    9.25    6.29
   4  -1 -12   -4.12    6.07
   4  -1 -12   -1.51    5.64
   4  -1 -11   17.13    5.89
   4  -1 -11    3.89    6.26
   4  -1 -11    4.36    5.12
   4  -1 -10   12.65    5.12
   4  -1 -10   15.86    5.39
   4  -1 -10   21.37    5.27
   4  -1  -9    5.92    4.53
   4  -1  -9    0.24    4.82
   4  -1  -8  110.73    6.79
   4  -1  -8  109.45    7.06
   4  -1  -8  118.29    6.95
   4  -1  -7   -0.20    3.83
   4  -1  -7    1.25    3.29
   4  -1  -6   19.83    3.95
   4  -1  -6   20.73    3.20
   4  -1  -5   16.37    3.51
   4  -1  -5   13.43    2.84
   4  -1  -4    2.41    2.88
   4  -1  -4   -1.06    2.83
   4  -1  -4    1.13    2.20
   4  -1  -3   30.81    2.53
   4  -1  -3   29.17    3.30
   4  -1  -2  165.61    6.54
   4  -1  -2  170.54    7.54
   4  -1  -1  134.49    5.13
   4  -1  -1  144.72    6.41
   4  -1  -1  127.87    6.16
   4  -1   0  334.23   12.76
   4  -1   0  323.61   12.48
   4  -1   0  326.36   12.53
   4  -1   1  209.78    8.44
   4  -1   1  196.43    8.18
   4  -1   1  197.85    8.21
   4  -1   2  214.66    8.63
   4  -1   2  210.08    8.57
   4  -1   3  464.02   16.68
   4  -1   3  460.66   16.60
   4  -1   3  426.98   16.52
   4  -1   4  107.62    5.18
   4  -1   4   97.35    5.17
   4  -1   5  120.50    4.59
   4  -1   5  131.64    5.54
   4  -1   5  135.65    6.12
   4  -1   6   26.01    3.50
   4  -1   6   28.16    2.73
   4  -1   6   27.37    3.28
   4  -1   6   30.87    2.34
   4  -1   7   55.72    3.73
   4  -1   7   61.76    4.81
   4  -1   7   62.17    3.93
   4  -1   7   58.97    3.49
   4  -1   8   43.90    3.37
   4  -1   8   37.47    3.64
   4  -1   8   33.62    4.23
   4  -1   8   39.09    3.15
   4  -1   9  232.95   10.23
   4  -1   9  219.93    9.25
   4  -1   9  216.14    8.59
   4  -1   9  216.21    9.06
   4  -1  10   89.84    6.43
   4  -1  10   92.26    5.55
   4  -1  10   84.43    4.29
   4  -1  10   96.75    5.43
   4  -1  11   41.87    5.63
   4  -1  11   49.24    4.56
   4  -1  11   42.71    4.62
   4  -1  12   22.28    4.47
   4  -1  12   19.69    5.37
   4  -1  12   20.28    4.24
   4  -1  13   32.30    6.72
   4   0 -12   10.78    6.16
   4   0 -12   -0.24    5.40
   4   0 -11    1.06    5.97
   4   0 -11    0.70    5.50
   4   0 -10    2.43    4.73
   4   0 -10    3.24    5.04
   4   0 -10   -1.46    4.76
   4   0  -9    7.95    4.18
   4   0  -9    9.48    4.91
   4   0  -9    5.87    4.82
   4   0  -8   10.37    4.17
   4   0  -8    2.11    4.09
   4   0  -7   35.54    4.22
   4   0  -7   34.92    4.11
   4   0  -6  121.35    6.65
   4   0  -6  143.01    6.99
   4   0  -5  456.00   17.48
   4   0  -5  486.63   17.93
   4   0  -4  427.48   15.86
   4   0  -4  428.87   16.55
   4   0  -3   98.43    4.77
   4   0  -3   99.55    5.46
   4   0  -3   99.23    5.41
   4   0  -2  140.90    5.78
   4   0  -2  140.19    6.51
   4   0   0   70.29    4.02
   4   0   0   62.24    3.79
   4   0   1   21.96    2.44
   4   0   1   18.22    2.21
   4   0   2  797.71   27.39
   4   0   2  787.58   28.21
   4   0   2  792.75   28.23
   4   0   3  124.88    4.69
   4   0   3  145.01    6.10
   4   0   3  143.98    6.09
   4   0   4  988.39   34.96
   4   0   5  289.00   10.91
   4   0   5  282.87   11.50
   4   0   6  350.91   14.18
   4   0   6  362.80   13.64
   4   0   6  371.53   13.63
   4   0   7  110.86    6.22
   4   0   7  110.16    5.41
   4   0   7  114.79    5.61
   4   0   8   48.27    3.69
   4   0   8   39.72    3.89
   4   0   8   39.90    3.41
   4   0   8   35.25    4.50
   4   0   9   44.14    5.01
   4   0   9   47.25    3.90
   4   0   9   46.07    4.40
   4   0   9   47.83    3.68
   4   0  10   37.41    4.22
   4   0  10   46.36    5.12
   4   0  10   40.47    4.44
   4   0  10   47.24    3.60
   4   0  11   12.91    3.91
   4   0  11   12.25    4.97
   4   0  11    7.16    4.26
   4   0  11    9.65    3.14
   4   0  12   57.24    5.50
   4   0  12   48.06    6.17
   4   0  12   62.87    5.59
   4   0  12   58.08    5.78
   4   0  13   59.61    6.14
   4   0  13   48.38    6.07
   4   1 -12   11.28    6.14
   4   1 -12    0.45    4.97
   4   1 -11    3.08    4.67
   4   1 -11    0.83    5.61
   4   1 -11    1.25    5.50
   4   1 -10   10.73    4.83
   4   1 -10    8.88    5.43
   4   1 -10   10.91    5.62
   4   1  -9   -0.20    4.15
   4   1  -9    4.18    4.60
   4   1  -9   -0.65    4.29
   4   1  -8   38.13    5.04
   4   1  -8   30.66    4.76
   4   1  -8   26.41    4.77
   4   1  -7   86.67    5.91
   4   1  -7   96.08    6.00
   4   1  -6   15.46    3.46
   4   1  -6   15.96    3.24
   4   1  -5   31.42    3.83
   4   1  -5   22.43    3.50
   4   1  -4   -1.61    2.67
   4   1  -4    0.65    2.33
   4   1  -3  231.75    9.21
   4   1  -3  226.20    9.07
   4   1  -2  526.00   19.29
   4   1  -1   48.24    3.37
   4   1   0  399.97   13.80
   4   1   0  348.35   14.26
   4   1   1   63.00    3.19
   4   1   1   74.54    4.13
   4   1   2  110.44    4.48
   4   1   2  114.84    5.37
   4   1   2  112.80    5.33
   4   1   3    0.58    0.98
   4   1   3    2.37    2.32
   4   1   4  103.28    5.36
   4   1   5  311.65   11.91
   4   1   5  310.96   12.38
   4   1   6  139.99    6.96
   4   1   6  142.91    6.45
   4   1   6  137.06    6.44
   4   1   7  386.34   15.73
   4   1   7  413.17   15.17
   4   1   7  399.11   15.21
   4   1   8  341.60   13.96
   4   1   8  337.93   13.03
   4   1   8  331.77   13.26
   4   1   9  223.28   10.45
   4   1   9  215.24    9.55
   4   1   9  224.66    9.29
   4   1  10    2.62    4.74
   4   1  10   -1.76    3.90
   4   1  10    3.13    3.18
   4   1  11   56.52    5.11
   4   1  11   63.16    6.31
   4   1  11   63.09    4.74
   4   1  11   58.45    5.53
   4   1  12    0.99    4.40
   4   1  12    3.91    6.10
   4   1  12   -3.98    4.71
   4   1  12    4.43    3.64
   4   1  13    3.72    5.62
   4   1  13    5.29    4.88
   4   1  13    4.77    5.07
   4   2 -11   -2.50    4.86
   4   2 -11    3.77    5.25
   4   2 -11    3.99    5.65
   4   2 -11    5.42    4.71
   4   2 -10    2.63    4.66
   4   2 -10   -1.65    5.17
   4   2 -10    0.53    5.02
   4   2 -10    9.71    4.89
   4   2  -9   27.63    4.61
   4   2  -9   31.08    5.04
   4   2  -9   25.82    5.23
   4   2  -9   24.29    4.72
   4   2  -8    6.48    4.04
   4   2  -8    6.83    4.32
   4   2  -7  221.72   10.12
   4   2  -7  228.66   10.05
   4   2  -6  102.51    6.15
   4   2  -6  111.79    6.89
   4   2  -6  113.44    6.23
   4   2  -5  226.15   10.15
   4   2  -5  250.32   10.92
   4   2  -5  260.11   10.46
   4   2  -4   -2.03    2.44
   4   2  -4    0.59    3.21
   4   2  -3   11.56    2.41
   4   2  -3   11.75    3.09
   4   2  -3    7.11    2.64
   4   2  -2   44.90    3.29
   4   2  -2   45.79    3.85
   4   2  -2   53.19    3.55
   4   2  -1  118.89    5.59
   4   2  -1  136.63    5.92
   4   2   0  371.71   13.93
   4   2   0  393.34   14.36
   4   2   1  634.97   22.38
   4   2   2  656.36   22.99
   4   2   3  285.02   10.41
   4   2   4 1102.50   38.62
   4   2   5   26.00    3.52
   4   2   5   25.28    2.93
   4   2   5   23.58    3.13
   4   2   6   63.24    4.73
   4   2   6   63.69    3.16
   4   2   6   66.53    4.31
   4   2   6   61.63    4.29
   4   2   7    9.13    1.72
   4   2   7   10.74    3.03
   4   2   7    6.05    3.54
   4   2   7    9.38    3.28
   4   2   8    8.67    3.47
   4   2   8   15.72    3.36
   4   2   8   10.53    3.68
   4   2   9  147.78    7.84
   4   2   9  137.71    7.29
   4   2  10  156.93    8.80
   4   2  10  148.13    7.98
   4   2  10  156.22    7.62
   4   2  11   83.58    7.15
   4   2  11   85.46    5.67
   4   2  11   83.04    6.44
   4   2  12  229.87   11.87
   4   2  12  217.43   10.77
   4   2  12  219.30   10.08
   4   2  13   12.85    6.49
   4   2  13   11.33    5.40
   4   3 -11   -3.25    5.28
   4   3 -11    2.19    5.00
   4   3 -10   11.70    4.51
   4   3 -10    0.47    5.31
   4   3 -10    3.84    5.32
   4   3 -10   -1.45    4.48
   4   3  -9    4.25    4.09
   4   3  -9   -0.66    4.56
   4   3  -9   -1.27    4.67
   4   3  -9    0.20    4.09
   4   3  -8   32.64    4.53
   4   3  -8   27.08    4.72
   4   3  -8   33.47    5.16
   4   3  -7   91.88    5.91
   4   3  -6    9.49    4.26
   4   3  -6    0.86    3.33
   4   3  -6   -0.60    3.55
   4   3  -5   48.20    4.87
   4   3  -4  165.61    7.79
   4   3  -4  187.65    8.64
   4   3  -4  182.23    8.02
   4   3  -3   75.05    4.52
   4   3  -3   85.57    5.23
   4   3  -3   85.53    4.75
   4   3  -2   92.74    4.88
   4   3  -2   98.11    5.48
   4   3  -2   96.00    5.10
   4   3  -1    1.75    2.22
   4   3  -1    2.28    2.74
   4   3  -1    0.26    2.27
   4   3   0  103.85    4.94
   4   3   0  102.00    5.52
   4   3   0  103.10    5.13
   4   3   1  213.38    8.74
   4   3   1  248.75    9.60
   4   3   2  124.74    5.50
   4   3   2  131.71    6.28
   4   3   3  736.20   25.00
   4   3   3  662.14   25.66
   4   3   4  287.11   11.20
   4   3   4  321.89   11.93
   4   3   4  299.34   11.76
   4   3   5  293.00   11.57
   4   3   5  282.97   11.44
   4   3   6  372.67   14.05
   4   3   6  344.35   13.88
   4   3   7  419.51   15.92
   4   3   7  460.67   16.85
   4   3   7  451.11   16.85
   4   3   8    6.07    3.78
   4   3   8    9.07    3.56
   4   3   9   12.38    4.33
   4   3   9   18.43    4.13
   4   3   9   20.77    3.93
   4   3  10    8.51    4.82
   4   3  10   10.67    4.31
   4   3  10   13.38    4.10
   4   3  11    0.28    5.10
   4   3  11    0.66    4.85
   4   3  11   -0.58    4.01
   4   3  12   58.84    6.91
   4   3  12   48.97    6.06
   4   3  12   58.73    5.62
   4   3  13   17.57    6.49
   4   4 -10    5.09    4.10
   4   4 -10    5.54    5.09
   4   4 -10    9.28    5.77
   4   4 -10   10.87    4.37
   4   4  -9   17.85    4.62
   4   4  -9   16.62    4.19
   4   4  -8   26.18    4.21
   4   4  -8   26.61    4.65
   4   4  -7   60.04    5.13
   4   4  -7   51.70    5.12
   4   4  -6    2.21    4.59
   4   4  -6    0.52    3.83
   4   4  -5    8.73    4.18
   4   4  -4  164.11    7.93
   4   4  -4  187.08    8.86
   4   4  -4  178.50    7.97
   4   4  -3   33.64    3.45
   4   4  -3   33.43    4.08
   4   4  -3   32.81    3.58
   4   4  -2  207.90    9.06
   4   4  -2  230.04    9.76
   4   4  -2  221.99    9.16
   4   4  -1  224.76    9.57
   4   4  -1  246.79   10.21
   4   4  -1  242.68    9.72
   4   4   0  454.98   17.10
   4   4   0  476.39   17.63
   4   4   1  141.28    6.42
   4   4   1  153.26    7.07
   4   4   2  154.20    6.92
   4   4   2  168.37    7.49
   4   4   3  423.68   16.12
   4   4   3  452.71   16.70
   4   4   4   -1.45    2.52
   4   4   4   -2.24    2.86
   4   4   4   -0.36    2.87
   4   4   5  108.57    5.96
   4   4   5  110.04    5.86
   4   4   5  112.19    6.26
   4   4   6   58.74    3.90
   4   4   6   61.08    5.10
   4   4   6   52.24    4.36
   4   4   6   52.07    4.57
   4   4   7  264.99   11.81
   4   4   7  259.90   10.65
   4   4   7  275.25   11.40
   4   4   7  273.47   11.29
   4   4   8  202.92   10.36
   4   4   8  221.10    9.12
   4   4   8  206.42    9.90
   4   4   9  200.54    9.67
   4   4   9  197.33    9.40
   4   4  10  182.20    9.25
   4   4  10  169.45    8.60
   4   4  11   95.64    7.07
   4   4  11   96.59    6.74
   4   4  12   14.48    5.78
   4   4  12   11.38    5.04
   4   4  13    6.81    6.21
   4   5  -9   22.80    4.80
   4   5  -9   14.75    5.11
   4   5  -9   30.03    4.36
   4   5  -8    9.34    4.24
   4   5  -8    7.08    4.84
   4   5  -7    2.36    3.77
   4   5  -7    5.44    4.35
   4   5  -6    7.55    5.41
   4   5  -6   10.19    3.58
   4   5  -5   75.59    5.96
   4   5  -5   75.63    5.03
   4   5  -4   -1.57    4.39
   4   5  -4    3.41    3.18
   4   5  -3    0.51    3.17
   4   5  -3    5.22    3.71
   4   5  -3    2.33    3.10
   4   5  -2   -0.16    2.86
   4   5  -2    6.96    3.48
   4   5  -2    2.43    2.99
   4   5  -1  108.53    5.67
   4   5  -1  106.96    6.23
   4   5  -1  110.95    5.79
   4   5   0   88.15    5.18
   4   5   0  101.38    5.36
   4   5   0   91.63    5.76
   4   5   1  789.86   28.77
   4   5   1  813.30   29.03
   4   5   1  815.05   29.28
   4   5   2  221.59    9.39
   4   5   2  219.16    9.61
   4   5   2  231.78    9.74
   4   5   3  266.00   11.15
   4   5   3  290.48   11.61
   4   5   4   81.20    5.57
   4   5   5  149.29    7.48
   4   5   5  150.65    7.79
   4   5   6   42.87    4.87
   4   5   6   50.25    4.34
   4   5   6   48.06    4.72
   4   5   7    8.04    3.49
   4   5   7   10.97    4.12
   4   5   7    9.12    4.11
   4   5   7    2.97    3.71
   4   5   8   41.01    4.43
   4   5   8   34.28    4.71
   4   5   8   39.75    5.36
   4   5   8   48.37    5.09
   4   5   9   37.13    5.37
   4   5   9   32.55    5.30
   4   5   9   28.12    5.14
   4   5  10  131.59    8.50
   4   5  10  126.92    8.05
   4   5  10  127.87    7.61
   4   5  11   49.60    6.89
   4   5  11   47.13    6.46
   4   5  11   61.38    6.44
   4   5  12   84.56    7.21
   4   5  13   17.16    6.28
   4   6  -8    0.18    3.80
   4   6  -8    5.50    5.10
   4   6  -8   -1.38    3.30
   4   6  -7    4.11    3.92
   4   6  -7    3.62    4.84
   4   6  -7    0.57    3.52
   4   6  -6   10.08    4.45
   4   6  -6   14.03    3.85
   4   6  -5   36.17    5.61
   4   6  -5   29.13    3.85
   4   6  -5   34.05    4.19
   4   6  -4   61.17    5.56
   4   6  -4   72.00    5.06
   4   6  -4   64.72    4.85
   4   6  -3   18.65    3.87
   4   6  -3   18.00    4.65
   4   6  -3   20.16    3.83
   4   6  -3   14.23    3.25
   4   6  -2  183.63    8.68
   4   6  -2  191.77    8.52
   4   6  -2  177.20    9.00
   4   6  -2  185.83    8.30
   4   6  -1   38.12    4.15
   4   6  -1   41.84    4.31
   4   6  -1   36.50    4.76
   4   6   0    9.64    3.36
   4   6   0    0.84    3.49
   4   6   0    3.86    3.60
   4   6   1   45.54    4.65
   4   6   1   43.95    4.18
   4   6   1   39.77    4.22
   4   6   2   48.29    4.78
   4   6   2   53.09    4.74
   4   6   2   49.24    4.58
   4   6   3   60.45    5.04
   4   6   3   72.30    5.13
   4   6   3   66.38    5.04
   4   6   4  245.75   11.01
   4   6   5  128.40    7.24
   4   6   5  144.11    7.46
   4   6   5  138.65    7.58
   4   6   6  231.73   10.02
   4   6   6  212.54   10.04
   4   6   6  222.15   10.52
   4   6   7  154.30    8.64
   4   6   7  166.20    8.21
   4   6   7  145.15    8.26
   4   6   8  109.27    7.55
   4   6   8  104.58    6.95
   4   6   8  115.47    7.17
   4   6   9   76.25    7.03
   4   6   9   68.29    6.38
   4   6  10   11.06    5.26
   4   6  10    3.22    5.84
   4   6  10    5.52    4.90
   4   6  11    6.73    5.29
   4   6  12   12.28    6.50
   4   7  -7   12.17    4.54
   4   7  -7    5.77    4.99
   4   7  -7    5.35    3.67
   4   7  -6    4.38    4.72
   4   7  -6    3.01    3.89
   4   7  -5    1.71    4.61
   4   7  -5    2.49    3.61
   4   7  -5   -3.16    3.62
   4   7  -4   31.58    5.51
   4   7  -4   31.50    4.29
   4   7  -4   29.16    4.27
   4   7  -3   13.00    4.13
   4   7  -3    5.51    4.23
   4   7  -3    6.46    3.61
   4   7  -3   10.29    3.72
   4   7  -2   52.78    5.11
   4   7  -2   52.55    5.53
   4   7  -2   57.13    4.81
   4   7  -2   54.92    4.71
   4   7  -1  150.35    8.08
   4   7  -1  157.89    7.81
   4   7  -1  168.24    8.41
   4   7   0  173.60    8.80
   4   7   0  189.29    8.76
   4   7   0  184.96    8.92
   4   7   1  152.99    8.18
   4   7   1  154.96    7.89
   4   7   1  158.76    8.27
   4   7   2    6.58    3.89
   4   7   2    5.17    4.41
   4   7   2    6.72    3.83
   4   7   3   26.49    4.84
   4   7   3   34.35    4.88
   4   7   3   30.40    4.36
   4   7   4   -1.29    3.96
   4   7   4    4.56    4.12
   4   7   5   16.75    4.26
   4   7   5    7.00    4.31
   4   7   6   41.96    5.35
   4   7   6   47.60    5.12
   4   7   6   43.60    5.45
   4   7   6   37.21    5.32
   4   7   7   98.07    6.78
   4   7   7  103.55    7.27
   4   7   7  110.70    7.12
   4   7   7  116.59    7.69
   4   7   8   83.00    6.68
   4   7   8   91.59    7.73
   4   7   8   97.62    6.92
   4   7   8   94.21    6.99
   4   7   9  117.65    8.27
   4   7   9  107.65    7.67
   4   7   9  107.01    7.73
   4   7   9   97.83    7.63
   4   7  10   81.03    8.12
   4   7  10   75.52    7.11
   4   8  -6    7.23    5.61
   4   8  -6   12.32    3.80
   4   8  -5    7.74    4.84
   4   8  -5    9.17    5.29
   4   8  -5    6.77    3.75
   4   8  -5    3.76    3.82
   4   8  -4    5.88    4.07
   4   8  -4   10.24    3.90
   4   8  -3   23.45    5.32
   4   8  -3   25.96    4.39
   4   8  -3   16.78    4.17
   4   8  -2    0.22    4.51
   4   8  -2    2.34    4.13
   4   8  -2   -2.05    3.62
   4   8  -1    8.53    4.68
   4   8  -1    7.77    4.40
   4   8  -1    8.95    4.14
   4   8   0    3.75    4.44
   4   8   0    2.12    4.12
   4   8   0    1.93    4.45
   4   8   1   -1.30    4.21
   4   8   1    1.70    4.64
   4   8   1    2.40    4.10
   4   8   2   95.79    7.12
   4   8   2   92.15    6.62
   4   8   3  105.87    6.90
   4   8   3  108.24    6.80
   4   8   4   68.20    5.66
   4   8   4   73.59    6.12
   4   8   5   77.91    6.33
   4   8   5   74.62    6.49
   4   8   5   70.36    6.47
   4   8   6   13.72    4.74
   4   8   6   15.28    5.33
   4   8   7   45.90    6.46
   4   8   7   28.86    5.54
   4   8   7   35.92    5.88
   4   8   7   35.05    5.62
   4   8   8   -2.55    6.12
   4   8   8   -1.08    6.16
   4   8   8    1.85    5.44
   4   8   8    2.69    5.19
   4   8   9   13.10    6.32
   4   8   9   11.74    6.77
   4   8   9   19.89    6.10
   4   9  -4   13.91    4.12
   4   9  -3   10.24    4.89
   4   9  -3    3.54    3.80
   4   9  -3    0.86    4.08
   4   9  -2   67.98    6.66
   4   9  -2   60.71    6.20
   4   9  -2   68.99    6.07
   4   9  -2   57.69    5.62
   4   9  -1   17.89    5.56
   4   9  -1   14.60    4.77
   4   9  -1   22.00    4.53
   4   9   0    1.92    5.50
   4   9   0    9.27    4.93
   4   9   0   11.56    4.73
   4   9   1   -1.64    5.81
   4   9   1    4.82    5.00
   4   9   1    1.34    4.73
   4   9   2    0.46    4.71
   4   9   2    2.99    5.16
   4   9   3   16.19    4.92
   4   9   3   19.42    5.34
   4   9   4   43.81    6.08
   4   9   4   40.96    5.65
   4   9   4   36.35    5.98
   4   9   5   49.41    6.58
   4   9   5   52.09    5.91
   4   9   5   47.48    6.15
   4   9   6   62.79    6.92
   4   9   6   75.43    7.27
   4   9   6   78.28    7.06
   4   9   7   56.04    7.18
   4   9   7   58.77    6.56
   4   9   8   37.18    6.50
   4  10  -2    0.21    5.11
   4  10  -1   -4.80    5.23
   4  10   0    7.72    5.39
   4  10   1   13.49    5.08
   4  10   1   13.98    5.96
   4  10   2   29.14    5.98
   4  10   2   26.98    5.86
   4  10   2   41.44    5.55
   4  10   3    6.07    5.20
   4  10   3   13.16    5.51
   4  10   3   18.28    6.52
   4  10   4    9.23    5.50
   4  10   5    2.80    5.23
   4  10   6    5.96    6.20
   4  10   7   10.52    6.55
   4  11  -1   15.84    5.92
   5  -8  -4   -0.26    5.71
   5  -8  -3    2.71    5.69
   5  -8  -3    8.68    5.54
   5  -8  -2   12.88    5.13
   5  -8  -2    7.59    5.34
   5  -8  -2    4.93    5.40
   5  -8  -2   -0.97    5.49
   5  -8  -1    3.18    4.79
   5  -8  -1    3.41    4.39
   5  -8  -1   10.29    5.10
   5  -8   0    8.21    4.74
   5  -8   0    7.03    4.30
   5  -8   0   10.53    5.15
   5  -8   1    4.77    2.98
   5  -8   1   11.35    4.50
   5  -7  -5   14.65    5.36
   5  -7  -5   10.11    5.80
   5  -7  -4   11.25    5.62
   5  -7  -4    8.96    5.32
   5  -7  -4    3.34    5.46
   5  -7  -3    5.09    3.31
   5  -7  -3    6.36    5.26
   5  -7  -3   11.87    5.38
   5  -7  -3    8.08    5.35
   5  -7  -2    5.55    4.53
   5  -7  -2    1.93    4.87
   5  -7  -2    4.57    4.51
   5  -7  -1    7.15    4.83
   5  -7  -1   -5.12    4.40
   5  -7  -1   -1.82    4.15
   5  -7   0   10.38    4.25
   5  -7   0    7.32    3.80
   5  -7   0    5.99    4.01
   5  -7   0    6.85    4.27
   5  -7   1    5.44    2.84
   5  -7   1    1.03    3.72
   5  -7   1    2.71    4.04
   5  -7   2   11.42    2.46
   5  -7   2    1.73    3.45
   5  -7   2    6.44    3.91
   5  -7   3   10.13    3.66
   5  -7   3   11.04    3.80
   5  -6  -8    7.16    4.76
   5  -6  -7    7.63    4.37
   5  -6  -6   -1.40    4.03
   5  -6  -6    4.98    5.66
   5  -6  -6    3.47    5.65
   5  -6  -6    5.35    5.33
   5  -6  -5    2.00    3.58
   5  -6  -5    7.90    5.02
   5  -6  -5    4.99    5.15
   5  -6  -5    1.28    4.77
   5  -6  -4    3.30    3.29
   5  -6  -4    5.45    5.13
   5  -6  -4    4.22    4.50
   5  -6  -4   -0.24    4.79
   5  -6  -3    6.80    3.06
   5  -6  -3    4.39    4.45
   5  -6  -3    7.93    4.67
   5  -6  -3   10.07    4.90
   5  -6  -2   36.30    3.19
   5  -6  -2   37.46    5.01
   5  -6  -2   30.45    4.79
   5  -6  -2   43.98    5.28
   5  -6  -1   79.65    3.91
   5  -6  -1   81.32    5.98
   5  -6  -1   73.12    5.90
   5  -6  -1   83.38    6.25
   5  -6   0   22.44    1.46
   5  -6   0   30.78    4.50
   5  -6   0   11.84    3.51
   5  -6   0   24.52    4.28
   5  -6   0   13.04    4.42
   5  -6   1   23.55    1.26
   5  -6   1   35.80    4.36
   5  -6   1   34.73    4.27
   5  -6   1   33.53    4.53
   5  -6   2   15.68    2.78
   5  -6   2   19.78    3.73
   5  -6   2   20.36    3.78
   5  -6   3   11.65    1.98
   5  -6   3   13.37    3.43
   5  -6   3   15.72    3.67
   5  -6   4    7.35    2.33
   5  -6   4    1.16    3.29
   5  -6   4   -2.43    3.14
   5  -6   5    6.91    3.28
   5  -5 -10    2.31    5.32
   5  -5  -9    0.94    5.22
   5  -5  -8   16.37    4.92
   5  -5  -8    6.33    5.77
   5  -5  -8   18.32    6.03
   5  -5  -7    0.57    3.96
   5  -5  -7    2.15    5.02
   5  -5  -6   19.59    4.14
   5  -5  -6   16.68    5.40
   5  -5  -6   20.92    5.04
   5  -5  -5    0.15    3.24
   5  -5  -5   -4.34    4.96
   5  -5  -5    5.69    4.70
   5  -5  -5   -0.49    4.60
   5  -5  -4   10.80    4.34
   5  -5  -4    9.77    3.18
   5  -5  -4   12.29    4.91
   5  -5  -4   10.73    4.52
   5  -5  -3   16.78    4.48
   5  -5  -3   19.20    2.96
   5  -5  -3   15.19    4.68
   5  -5  -3   17.53    4.54
   5  -5  -2    1.49    3.91
   5  -5  -2    0.55    2.18
   5  -5  -2   -0.64    4.29
   5  -5  -1    5.06    3.80
   5  -5  -1    1.37    3.98
   5  -5  -1    5.40    1.53
   5  -5   0    8.23    3.90
   5  -5   0    7.53    2.89
   5  -5   0    7.31    3.65
   5  -5   0    6.45    0.68
   5  -5   1   50.81    4.57
   5  -5   1   48.89    4.54
   5  -5   1   52.63    3.81
   5  -5   2   30.01    4.09
   5  -5   2   24.79    3.53
   5  -5   2   22.05    3.07
   5  -5   2   17.34    2.82
   5  -5   3   15.79    3.54
   5  -5   3   25.68    2.41
   5  -5   3   17.71    2.82
   5  -5   4   21.24    3.47
   5  -5   4   20.01    2.65
   5  -5   4   24.42    2.92
   5  -5   5   37.42    2.72
   5  -5   5   34.38    3.36
   5  -5   5   37.82    3.93
   5  -5   6    1.79    2.97
   5  -5   6   -0.11    2.98
   5  -4 -10   -0.25    5.63
   5  -4  -9    5.97    5.59
   5  -4  -9   -4.43    5.63
   5  -4  -8    8.94    4.77
   5  -4  -7    5.75    3.94
   5  -4  -7    1.03    5.01
   5  -4  -6   11.75    3.89
   5  -4  -6   18.76    4.88
   5  -4  -5    4.50    3.12
   5  -4  -5    2.95    4.17
   5  -4  -4   79.19    4.69
   5  -4  -4   72.55    5.76
   5  -4  -4   78.61    5.93
   5  -4  -3  110.17    5.33
   5  -4  -3  122.60    6.98
   5  -4  -2  132.57    5.48
   5  -4  -2  132.43    6.74
   5  -4  -2  135.58    7.39
   5  -4  -1   66.56    5.17
   5  -4  -1   61.30    4.50
   5  -4   0    3.15    3.24
   5  -4   0    3.46    3.30
   5  -4   0    3.68    2.93
   5  -4   1   48.59    4.61
   5  -4   1   46.63    4.38
   5  -4   1   53.58    3.93
   5  -4   2   19.98    3.76
   5  -4   2   22.88    3.34
   5  -4   2   20.89    3.08
   5  -4   3    0.16    3.21
   5  -4   3    3.38    2.73
   5  -4   3    6.73    1.97
   5  -4   3   -2.03    2.74
   5  -4   4  111.20    4.69
   5  -4   4  109.77    5.86
   5  -4   4  110.58    5.76
   5  -4   5   53.62    3.96
   5  -4   5   55.93    4.19
   5  -4   6   50.69    3.96
   5  -4   6   59.46    4.48
   5  -4   7   46.58    3.39
   5  -4   7   51.00    4.24
   5  -4   8   24.42    3.99
   5  -4   9    7.47    3.92
   5  -3 -10   -0.50    5.51
   5  -3 -10    0.84    5.91
   5  -3  -9    6.10    4.78
   5  -3  -9    2.22    5.34
   5  -3  -9   -1.88    5.78
   5  -3  -8    5.36    5.39
   5  -3  -8   10.60    4.31
   5  -3  -8    7.56    5.04
   5  -3  -7    6.57    4.50
   5  -3  -7   11.26    4.03
   5  -3  -7   -0.98    4.76
   5  -3  -6   26.07    4.80
   5  -3  -6   29.20    3.93
   5  -3  -5   65.06    4.47
   5  -3  -4    5.07    2.74
   5  -3  -3   80.11    4.18
   5  -3  -3   81.28    5.50
   5  -3  -3   87.74    5.96
   5  -3  -2   43.46    4.38
   5  -3  -2   34.26    4.00
   5  -3  -1  142.48    7.36
   5  -3  -1  135.42    6.86
   5  -3   0  111.34    6.34
   5  -3   0  115.75    5.92
   5  -3   1   25.08    3.87
   5  -3   1   19.50    2.93
   5  -3   2   65.66    4.48
   5  -3   2   73.75    5.15
   5  -3   2   72.27    4.40
   5  -3   3   12.30    3.28
   5  -3   3   13.06    2.86
   5  -3   3   14.40    1.82
   5  -3   3   18.78    3.14
   5  -3   4   18.35    3.36
   5  -3   4    8.55    3.40
   5  -3   4   15.07    2.57
   5  -3   4   14.26    1.34
   5  -3   4   12.58    3.26
   5  -3   5    3.20    3.27
   5  -3   5    4.89    3.04
   5  -3   5    1.01    3.12
   5  -3   6   15.40    3.35
   5  -3   6   13.28    3.49
   5  -3   6    8.45    3.29
   5  -3   7   24.36    3.32
   5  -3   7   34.48    3.79
   5  -3   8   54.34    3.76
   5  -3   8   57.93    5.08
   5  -3   8   55.43    4.56
   5  -3   8   57.06    3.17
   5  -3   9   15.81    3.56
   5  -3   9   11.20    4.45
   5  -3  10   69.35    6.15
   5  -2 -10   -3.01    5.27
   5  -2 -10    0.86    5.92
   5  -2 -10    4.59    6.08
   5  -2  -9   16.67    5.62
   5  -2  -9    4.10    4.49
   5  -2  -9    4.28    5.43
   5  -2  -8    7.08    4.83
   5  -2  -8    8.61    4.18
   5  -2  -8    8.25    5.20
   5  -2  -7   27.39    5.14
   5  -2  -7   37.34    4.55
   5  -2  -6   10.55    4.44
   5  -2  -6   11.48    3.58
   5  -2  -5   97.01    5.53
   5  -2  -5   95.85    6.31
   5  -2  -4  217.34    8.85
   5  -2  -4  218.34    9.86
   5  -2  -3   53.24    3.37
   5  -2  -3   59.16    4.65
   5  -2  -2   25.38    4.11
   5  -2  -2   25.25    2.12
   5  -2  -2   32.19    3.52
   5  -2  -1   -0.19    3.19
   5  -2  -1    1.12    2.74
   5  -2   0   33.13    3.99
   5  -2   0   34.07    3.55
   5  -2   1   17.01    2.94
   5  -2   2  273.54   11.21
   5  -2   2  266.26   10.86
   5  -2   2  273.49   11.10
   5  -2   3   93.59    5.21
   5  -2   3   95.51    5.10
   5  -2   3   90.00    4.98
   5  -2   4  339.31   13.25
   5  -2   4  372.41   14.22
   5  -2   4  371.73   14.10
   5  -2   4  384.88   14.14
   5  -2   5   14.56    3.50
   5  -2   5   15.74    1.76
   5  -2   5   13.14    3.25
   5  -2   5   15.21    3.40
   5  -2   6  240.55   10.01
   5  -2   6  262.32   10.38
   5  -2   6  226.50   10.36
   5  -2   7   19.62    3.35
   5  -2   7   23.95    4.32
   5  -2   7   21.34    3.70
   5  -2   8    1.37    3.03
   5  -2   8    0.21    2.77
   5  -2   8    2.95    3.48
   5  -2   8    3.48    4.00
   5  -2   9    7.45    2.93
   5  -2   9    5.30    4.43
   5  -2   9    1.64    2.64
   5  -2   9    5.80    3.09
   5  -2   9    5.58    2.74
   5  -2   9    3.58    3.63
   5  -2  10    2.53    4.74
   5  -2  10    9.38    3.62
   5  -2  10    9.51    3.94
   5  -2  11   17.58    5.64
   5  -2  12   27.21    6.87
   5  -1 -11    9.09    6.79
   5  -1 -11   -1.19    6.81
   5  -1 -11    0.54    6.21
   5  -1 -10    0.26    5.78
   5  -1 -10    1.01    5.51
   5  -1 -10   -2.21    5.93
   5  -1  -9    0.25    5.26
   5  -1  -9   -2.98    4.78
   5  -1  -9    2.84    5.19
   5  -1  -8    3.55    4.68
   5  -1  -8    1.03    4.33
   5  -1  -8    1.70    4.80
   5  -1  -7    4.11    4.43
   5  -1  -7    3.14    3.82
   5  -1  -6   64.10    5.66
   5  -1  -6   54.41    4.63
   5  -1  -5  143.24    6.79
   5  -1  -5  134.65    7.58
   5  -1  -5  142.17    7.68
   5  -1  -4   -3.26    3.56
   5  -1  -4    6.11    3.82
   5  -1  -4   -1.07    2.59
   5  -1  -3   68.54    3.96
   5  -1  -3   79.78    5.23
   5  -1  -2   15.30    3.39
   5  -1  -1  314.29   13.05
   5  -1  -1  331.36   12.92
   5  -1   0    4.49    2.90
   5  -1   0    8.37    3.03
   5  -1   0    7.80    2.91
   5  -1   1   47.66    4.25
   5  -1   1   45.76    3.90
   5  -1   1   47.35    3.87
   5  -1   2    9.58    2.95
   5  -1   2    2.63    2.76
   5  -1   3  104.65    4.14
   5  -1   3  115.76    5.81
   5  -1   3  106.56    5.69
   5  -1   4   26.61    3.76
   5  -1   4   35.78    3.88
   5  -1   4   30.98    3.79
   5  -1   5  437.70   16.16
   5  -1   5  418.37   16.08
   5  -1   5  398.87   16.06
   5  -1   6   70.20    4.95
   5  -1   6   75.69    5.02
   5  -1   7  112.73    5.86
   5  -1   7  111.51    6.27
   5  -1   7  115.99    6.57
   5  -1   8   87.92    5.11
   5  -1   8   79.57    4.92
   5  -1   8   87.74    6.37
   5  -1   9   52.77    5.89
   5  -1   9   62.88    4.30
   5  -1   9   64.44    4.57
   5  -1   9   66.77    4.65
   5  -1   9   62.47    5.16
   5  -1  10   12.51    5.17
   5  -1  10   14.10    3.96
   5  -1  10    8.60    3.02
   5  -1  10    8.47    4.31
   5  -1  11    5.45    5.13
   5  -1  11    0.67    4.00
   5  -1  11    5.51    4.16
   5  -1  12    1.39    5.27
   5   0 -11    5.46    5.56
   5   0 -11   -2.85    5.96
   5   0 -10   10.95    5.42
   5   0 -10   12.35    5.44
   5   0 -10    6.94    5.55
   5   0  -9   32.37    5.49
   5   0  -9   36.55    5.33
   5   0  -9   24.35    5.50
   5   0  -8   10.19    4.81
   5   0  -8    8.51    4.65
   5   0  -8    9.72    5.37
   5   0  -7   34.00    5.01
   5   0  -7   22.96    4.18
   5   0  -6   21.62    4.57
   5   0  -6   27.58    4.05
   5   0  -5  139.40    6.95
   5   0  -5  133.65    7.68
   5   0  -5  156.22    7.86
   5   0  -4    5.50    3.57
   5   0  -4   -2.70    2.91
   5   0  -3    0.96    3.38
   5   0  -3    3.58    2.38
   5   0  -3    6.51    3.50
   5   0  -2   75.96    4.99
   5   0  -1  185.99    8.33
   5   0   0   86.37    5.30
   5   0   0   78.64    5.06
   5   0   0   89.23    5.05
   5   0   1  348.03   13.71
   5   0   1  353.22   13.71
   5   0   2  287.40   10.54
   5   0   2  284.38   11.63
   5   0   2  297.54   11.68
   5   0   3   82.80    3.45
   5   0   3   89.64    5.15
   5   0   3   91.55    5.20
   5   0   4  114.03    6.10
   5   0   4  112.46    5.91
   5   0   5   90.82    5.42
   5   0   5   89.16    5.42
   5   0   6   49.38    4.61
   5   0   6   46.13    4.29
   5   0   7  141.61    6.75
   5   0   7  136.76    6.65
   5   0   7  133.07    7.64
   5   0   8   18.53    4.64
   5   0   8   19.69    3.51
   5   0   8   23.59    3.58
   5   0   9   83.65    6.48
   5   0   9   82.07    5.27
   5   0   9   94.41    5.75
   5   0  10   48.90    5.93
   5   0  10   59.34    5.04
   5   0  10   50.68    4.40
   5   0  11   91.16    6.19
   5   0  11   87.00    7.67
   5   0  12   50.25    8.05
   5   0  12   51.02    5.85
   5   1 -11    1.25    5.46
   5   1 -11   12.35    6.50
   5   1 -10    5.82    5.34
   5   1 -10    1.06    5.43
   5   1 -10    3.88    5.60
   5   1  -9    1.65    4.99
   5   1  -9   -1.95    4.79
   5   1  -9    0.49    5.08
   5   1  -8   13.46    4.51
   5   1  -7   17.43    4.86
   5   1  -7   22.58    4.42
   5   1  -6  131.73    7.15
   5   1  -6  139.90    7.61
   5   1  -5    2.21    3.76
   5   1  -5    4.20    2.94
   5   1  -4   45.98    4.71
   5   1  -4   52.66    4.10
   5   1  -3   43.19    4.22
   5   1  -2    4.52    3.33
   5   1  -2    7.50    3.11
   5   1  -1   17.52    3.15
   5   1   0   85.06    4.39
   5   1   0   80.51    5.12
   5   1   1    8.51    2.09
   5   1   1    9.40    3.01
   5   1   2  344.49   12.74
   5   1   2  362.25   13.78
   5   1   2  359.92   13.84
   5   1   3  470.66   16.73
   5   1   3  499.99   18.03
   5   1   3  471.95   17.98
   5   1   4  352.03   12.68
   5   1   4  398.00   14.42
   5   1   4  381.51   14.39
   5   1   5  277.26   11.60
   5   1   6   12.87    2.83
   5   1   6   10.59    3.27
   5   1   6   14.35    3.74
   5   1   7  145.21    7.29
   5   1   7  162.77    7.46
   5   1   7  168.96    8.33
   5   1   8    0.22    4.20
   5   1   8    0.32    3.54
   5   1   8    2.50    3.52
   5   1   9    6.76    4.52
   5   1   9    9.89    3.87
   5   1   9    4.32    3.54
   5   1  10   16.81    4.38
   5   1  10    6.68    3.65
   5   1  11   50.99    6.47
   5   1  11   51.11    5.54
   5   1  11   42.17    4.48
   5   1  12   25.67    5.29
   5   1  13   26.86    5.81
   5   2 -11    6.53    5.42
   5   2 -11    5.53    6.28
   5   2 -10   23.18    5.53
   5   2 -10   14.40    5.63
   5   2 -10   20.71    5.94
   5   2 -10   15.75    5.90
   5   2  -9    2.09    5.28
   5   2  -9    1.27    5.43
   5   2  -9    0.24    5.03
   5   2  -8    2.49    4.90
   5   2  -8   -6.33    4.85
   5   2  -7   10.72    4.64
   5   2  -7    5.75    4.15
   5   2  -7    9.68    4.56
   5   2  -6   -0.21    4.18
   5   2  -6    0.26    4.51
   5   2  -6    1.58    3.73
   5   2  -6   -3.15    3.96
   5   2  -5    7.67    3.96
   5   2  -5    5.85    4.19
   5   2  -5    8.05    3.53
   5   2  -4   80.40    5.22
   5   2  -4   70.28    5.88
   5   2  -4   73.65    5.47
   5   2  -3   63.87    4.54
   5   2  -3   69.82    5.16
   5   2  -3   68.22    4.95
   5   2  -2  205.84    8.86
   5   2  -2  218.82    9.24
   5   2  -1   96.00    5.15
   5   2  -1  108.92    5.74
   5   2   0  196.29    8.13
   5   2   0  199.66    8.69
   5   2   1  149.94    6.38
   5   2   2   11.26    2.16
   5   2   3   84.14    3.98
   5   2   3   91.75    5.29
   5   2   4    4.27    1.80
   5   2   4    7.73    3.21
   5   2   5    8.67    3.32
   5   2   6  365.21   14.77
   5   2   6  372.51   14.57
   5   2   6  398.83   15.28
   5   2   7  152.86    7.59
   5   2   7  145.36    7.39
   5   2   7  149.75    7.90
   5   2   8  126.25    7.88
   5   2   8  136.48    7.02
   5   2   8  131.25    6.89
   5   2   9  131.10    7.93
   5   2   9  117.81    7.09
   5   2  10   50.72    6.08
   5   2  10   61.08    5.54
   5   2  10   55.33    5.10
   5   2  11   63.65    6.67
   5   2  11   54.51    5.88
   5   2  11   55.50    5.17
   5   2  12    2.07    5.20
   5   3 -10    3.03    4.74
   5   3 -10    0.58    6.11
   5   3 -10    4.09    5.24
   5   3  -9    4.59    4.62
   5   3  -9    4.41    5.34
   5   3  -9   12.19    5.78
   5   3  -8   12.37    4.87
   5   3  -8    5.78    5.14
   5   3  -7    9.16    4.24
   5   3  -6   33.64    4.61
   5   3  -6   37.25    5.53
   5   3  -6   28.75    4.59
   5   3  -5    5.50    3.93
   5   3  -5    3.81    4.48
   5   3  -5    2.44    3.51
   5   3  -4   28.91    4.37
   5   3  -4   23.71    3.77
   5   3  -4   33.59    4.88
   5   3  -4   29.64    4.13
   5   3  -3   33.78    3.89
   5   3  -3   32.65    4.39
   5   3  -3   31.29    3.84
   5   3  -2    8.80    3.05
   5   3  -2   10.23    3.55
   5   3  -2   10.29    3.39
   5   3  -1  140.47    6.70
   5   3  -1  149.84    6.99
   5   3   0  204.07    8.96
   5   3   0  235.45    9.86
   5   3   0  232.45    9.53
   5   3   1  187.70    7.67
   5   3   1  170.99    8.51
   5   3   2  764.46   27.02
   5   3   3  207.01    8.24
   5   3   4   43.74    3.23
   5   3   4   38.27    4.08
   5   3   5    1.96    3.44
   5   3   6   -2.35    3.49
   5   3   6   -1.46    3.49
   5   3   7   17.03    4.27
   5   3   7   26.57    2.86
   5   3   7   23.38    3.97
   5   3   7   25.86    4.24
   5   3   8   71.24    4.12
   5   3   8   75.61    6.15
   5   3   8   83.48    5.65
   5   3   8   80.35    5.66
   5   3   9  101.73    7.16
   5   3   9   89.63    6.33
   5   3  10  124.87    8.39
   5   3  10  120.45    7.43
   5   3  10  113.69    7.02
   5   3  11  127.96    8.74
   5   3  11  106.29    7.47
   5   3  11  117.21    7.31
   5   3  12   33.48    6.00
   5   3  12   27.79    5.04
   5   4  -9    3.43    4.80
   5   4  -9    6.55    5.38
   5   4  -8    2.86    4.59
   5   4  -7   18.82    5.04
   5   4  -6   11.42    5.57
   5   4  -6   12.48    4.12
   5   4  -6    7.56    4.15
   5   4  -5   63.77    5.53
   5   4  -5   64.82    6.33
   5   4  -5   72.75    5.44
   5   4  -4    8.67    3.83
   5   4  -4   10.22    4.60
   5   4  -4   15.18    4.12
   5   4  -3   77.91    5.29
   5   4  -3   82.97    5.93
   5   4  -3   75.53    5.24
   5   4  -2   30.85    3.82
   5   4  -2   29.77    4.41
   5   4  -2   30.27    4.03
   5   4  -1   54.22    4.37
   5   4  -1   65.48    4.63
   5   4  -1   53.68    5.12
   5   4   0    0.70    2.88
   5   4   0    3.05    3.32
   5   4   0    5.03    3.69
   5   4   1   36.94    4.47
   5   4   1   33.00    3.60
   5   4   2    3.38    3.46
   5   4   2    1.74    2.69
   5   4   3    4.09    2.79
   5   4   3    9.27    3.55
   5   4   3    6.06    3.38
   5   4   4  247.73   10.03
   5   4   4  238.92   10.64
   5   4   4  253.30   10.95
   5   4   5  179.82    8.74
   5   4   5  186.09    8.97
   5   4   6  337.69   13.34
   5   4   6  336.95   13.07
   5   4   7   33.99    3.62
   5   4   7   31.61    4.51
   5   4   7   30.18    4.85
   5   4   8   91.20    5.22
   5   4   8  103.29    6.53
   5   4   8   91.19    6.38
   5   4   9    5.88    4.50
   5   4   9    7.27    4.42
   5   4  10    0.23    5.23
   5   4  10    1.10    4.88
   5   4  11   39.31    6.80
   5   4  11   30.62    6.30
   5   4  11   29.82    5.68
   5   4  12   16.89    6.16
   5   5  -8    5.75    4.59
   5   5  -8    0.49    5.41
   5   5  -7   -4.83    4.03
   5   5  -6    2.59    5.37
   5   5  -6    2.41    4.41
   5   5  -5   16.58    5.60
   5   5  -5   21.78    4.30
   5   5  -5   20.54    4.40
   5   5  -4    3.97    3.93
   5   5  -4   -0.52    4.95
   5   5  -4    0.18    3.49
   5   5  -3  100.97    6.33
   5   5  -3  110.38    6.49
   5   5  -2   89.43    5.98
   5   5  -2   96.74    6.59
   5   5  -2  102.60    6.15
   5   5  -1   85.33    5.54
   5   5  -1   88.11    6.26
   5   5  -1   82.69    5.58
   5   5   0  138.85    6.72
   5   5   0  130.33    7.49
   5   5   0  129.08    7.08
   5   5   1  178.42    8.33
   5   5   1  192.23    8.86
   5   5   1  198.61    9.31
   5   5   2   93.29    5.51
   5   5   2   96.41    6.26
   5   5   3   60.84    5.05
   5   5   3   55.92    4.28
   5   5   4    7.55    3.58
   5   5   4   11.80    3.96
   5   5   4   13.26    3.78
   5   5   5   79.24    5.90
   5   5   5   81.67    6.04
   5   5   6   96.98    6.50
   5   5   6  101.54    6.94
   5   5   7  183.32    8.03
   5   5   7  153.25    8.54
   5   5   7  163.96    8.84
   5   5   7  181.47    9.22
   5   5   8  122.23    6.74
   5   5   8  128.91    7.64
   5   5   8  127.19    7.74
   5   5   8  129.56    8.24
   5   5   9  180.47    9.99
   5   5   9  162.10    8.17
   5   5   9  187.74    9.45
   5   5   9  165.62    9.14
   5   5  10   44.03    6.83
   5   5  10   37.80    6.25
   5   5  10   34.36    5.82
   5   5  11   64.43    6.84
   5   6  -8    8.75    5.03
   5   6  -7   17.57    4.82
   5   6  -6   -4.44    5.51
   5   6  -5    6.55    5.97
   5   6  -5    5.63    4.39
   5   6  -5   10.23    4.53
   5   6  -4    3.18    4.16
   5   6  -4    3.82    5.41
   5   6  -4    3.73    4.36
   5   6  -3   48.02    5.31
   5   6  -3   58.58    6.03
   5   6  -3   53.34    5.09
   5   6  -2   10.01    4.01
   5   6  -2   15.01    5.03
   5   6  -2   13.56    4.14
   5   6  -2   10.29    3.93
   5   6  -1    4.14    3.94
   5   6  -1    4.59    3.99
   5   6  -1    8.20    4.61
   5   6  -1   12.16    3.94
   5   6   0   62.30    5.00
   5   6   0   57.74    5.32
   5   6   0   71.52    5.90
   5   6   1    4.50    3.50
   5   6   1    6.38    4.06
   5   6   2   74.48    6.02
   5   6   2   73.29    5.61
   5   6   2   75.73    5.55
   5   6   3  112.12    6.78
   5   6   3  135.16    7.51
   5   6   4   68.94    5.69
   5   6   4   86.57    6.46
   5   6   5   96.16    6.46
   5   6   5   95.18    6.87
   5   6   6    7.22    4.28
   5   6   6    7.51    4.86
   5   6   7    1.57    4.92
   5   6   7    5.48    4.28
   5   6   7   -0.23    4.44
   5   6   7    4.68    4.79
   5   6   8   -7.58    5.48
   5   6   8    0.72    4.54
   5   6   9   71.48    7.17
   5   6   9   59.26    5.76
   5   6   9   70.06    6.41
   5   6   9   65.76    6.72
   5   6  10   56.16    6.89
   5   6  11   28.62    6.97
   5   7  -7    1.77    4.20
   5   7  -6    5.72    6.17
   5   7  -6    8.16    4.34
   5   7  -5   21.19    6.15
   5   7  -5   30.42    5.52
   5   7  -5   20.42    4.94
   5   7  -5   13.31    4.66
   5   7  -4   21.97    5.85
   5   7  -4   34.13    5.24
   5   7  -4   31.66    4.92
   5   7  -4   31.89    4.74
   5   7  -3   49.03    5.64
   5   7  -3   58.04    6.67
   5   7  -3   55.68    5.30
   5   7  -3   56.68    5.41
   5   7  -2    9.07    4.68
   5   7  -2    5.63    4.59
   5   7  -2    3.35    4.45
   5   7  -2    4.81    4.20
   5   7  -1   14.00    4.32
   5   7  -1   12.11    4.62
   5   7  -1   17.32    4.76
   5   7  -1   13.06    4.37
   5   7   0   41.70    5.17
   5   7   0   44.10    5.17
   5   7   0   42.60    5.76
   5   7   1   14.50    4.82
   5   7   1    8.67    4.27
   5   7   1   12.13    4.48
   5   7   2   22.88    5.36
   5   7   2   20.58    4.76
   5   7   2   34.37    4.94
   5   7   3  107.35    7.36
   5   7   3  107.20    7.00
   5   7   3  125.26    7.55
   5   7   4   47.51    5.77
   5   7   5  148.95    8.75
   5   7   6  122.13    7.23
   5   7   6   99.06    7.36
   5   7   6  101.25    7.87
   5   7   7   95.36    6.36
   5   7   7   78.15    7.00
   5   7   7  102.02    7.77
   5   7   8   30.68    5.26
   5   7   8   33.32    5.93
   5   7   9   17.72    6.66
   5   7   9   15.06    5.31
   5   7   9   20.80    6.16
   5   8  -5   -3.77    5.52
   5   8  -5    0.38    4.52
   5   8  -4    5.14    5.73
   5   8  -4    2.27    4.94
   5   8  -4   -2.37    4.52
   5   8  -4   -5.13    4.39
   5   8  -3   14.93    5.05
   5   8  -3    0.84    5.39
   5   8  -3    0.81    4.74
   5   8  -3    1.61    4.47
   5   8  -2   39.80    5.63
   5   8  -2   36.55    5.64
   5   8  -2   37.81    5.18
   5   8  -2   37.05    5.24
   5   8  -1    6.05    5.02
   5   8  -1    8.52    5.40
   5   8  -1    4.90    4.89
   5   8  -1   10.12    4.58
   5   8   0   44.05    5.92
   5   8   0   45.80    5.73
   5   8   0   55.69    6.10
   5   8   1   11.04    5.09
   5   8   1   14.04    5.21
   5   8   1   24.05    5.42
   5   8   2   17.79    5.34
   5   8   2   24.13    5.67
   5   8   2   23.15    5.17
   5   8   3    5.18    5.12
   5   8   3    5.74    5.13
   5   8   3    7.33    4.96
   5   8   4    6.80    5.49
   5   8   4   11.98    4.94
   5   8   5    3.21    5.66
   5   8   6   31.22    5.82
   5   8   6   23.40    6.05
   5   8   7   13.41    5.37
   5   8   7    7.27    6.10
   5   8   7   16.44    5.64
   5   8   8   61.53    6.86
   5   8   8   62.05    7.49
   5   8   9   33.72    6.39
   5   9  -4    7.49    5.43
   5   9  -3   -3.63    5.40
   5   9  -3   -3.55    4.75
   5   9  -2    3.87    5.51
   5   9  -2    3.45    4.98
   5   9  -2    1.28    4.65
   5   9  -1   -4.71    6.14
   5   9  -1    1.07    5.11
   5   9  -1   13.13    5.51
   5   9  -1    4.82    4.56
   5   9   0   14.88    6.28
   5   9   0   15.86    5.33
   5   9   0   16.07    5.72
   5   9   1   27.77    6.44
   5   9   1   33.94    5.95
   5   9   1   34.49    5.58
   5   9   2   13.12    6.15
   5   9   2    7.03    6.08
   5   9   2   18.41    6.16
   5   9   3   55.55    7.29
   5   9   3   44.36    6.45
   5   9   4   27.12    5.82
   5   9   4   24.85    5.91
   5   9   5   73.76    7.32
   5   9   5   65.94    6.86
   5   9   6   13.71    6.37
   5   9   7    8.47    6.44
   5   9   7    0.61    7.20
   5   9   8   -2.06    6.14
   5  10  -2    0.46    6.18
   5  10  -1    6.65    5.74
   5  10   1    0.54    5.45
   5  10   2    6.29    6.10
   5  10   3   10.12    6.79
   5  10   4   14.44    6.80
   5  10   5   15.59    7.15
   5  10   6   17.57    7.06
   6  -7  -3    7.41    5.41
   6  -7  -2   16.32    5.83
   6  -7  -2    7.14    4.91
   6  -7  -2   11.58    5.64
   6  -7  -1    5.40    5.06
   6  -7  -1    2.74    3.68
   6  -7  -1    6.58    4.92
   6  -7  -1    3.69    5.57
   6  -7   0    9.55    4.94
   6  -7   0   -3.90    2.70
   6  -7   0    8.11    5.03
   6  -7   0    1.86    4.74
   6  -7   1    8.16    4.79
   6  -7   1    5.70    5.50
   6  -6  -4    3.53    5.67
   6  -6  -4    5.44    5.45
   6  -6  -3   13.26    5.35
   6  -6  -3   10.85    5.33
   6  -6  -2   33.43    5.84
   6  -6  -2   14.72    4.92
   6  -6  -2   20.24    5.76
   6  -6  -1   30.35    5.57
   6  -6  -1   25.77    5.53
   6  -6  -1   22.46    5.55
   6  -6   0    7.02    4.56
   6  -6   0   -0.35    2.64
   6  -6   0    0.21    4.56
   6  -6   0    6.19    4.59
   6  -6   1    7.56    3.85
   6  -6   1   -0.93    1.73
   6  -6   1   -1.08    5.28
   6  -6   2    0.51    3.86
   6  -6   2    2.11    1.16
   6  -6   2   -2.25    4.44
   6  -6   2    0.41    4.36
   6  -6   3    9.28    4.25
   6  -5  -5    3.29    5.34
   6  -5  -5   -3.69    5.98
   6  -5  -5    1.31    5.25
   6  -5  -4   15.55    5.51
   6  -5  -4    4.84    5.61
   6  -5  -4    4.01    5.12
   6  -5  -3   31.90    5.40
   6  -5  -3   25.87    5.90
   6  -5  -2    5.10    4.86
   6  -5  -2    3.56    4.76
   6  -5  -2    5.96    4.86
   6  -5  -1   -1.63    4.40
   6  -5  -1   -1.76    4.51
   6  -5   0   13.30    4.79
   6  -5   0   10.90    3.53
   6  -5   0    8.95    4.15
   6  -5   1   12.01    4.09
   6  -5   1   13.86    3.95
   6  -5   1    8.66    3.12
   6  -5   1    3.33    2.21
   6  -5   2    6.76    4.14
   6  -5   2    2.85    3.50
   6  -5   2    2.50    3.21
   6  -5   2   -0.12    1.45
   6  -5   3    0.74    3.75
   6  -5   3    7.81    3.45
   6  -5   3    9.79    1.27
   6  -5   3    4.04    3.28
   6  -5   4    3.27    3.70
   6  -5   4   -0.26    3.18
   6  -5   5    4.69    3.80
   6  -4  -6   12.84    3.71
   6  -4  -6   13.58    5.29
   6  -4  -5    8.67    5.08
   6  -4  -4    3.30    4.81
   6  -4  -3   49.10    5.70
   6  -4  -3   48.80    3.07
   6  -4  -2    5.93    4.50
   6  -4  -2   -0.18    3.58
   6  -4  -1    0.23    4.55
   6  -4  -1   -2.80    3.52
   6  -4   0   21.09    4.62
   6  -4   0   12.95    3.98
   6  -4   1   17.73    4.56
   6  -4   1   13.81    4.03
   6  -4   1   18.42    3.70
   6  -4   2   22.09    4.50
   6  -4   2   19.47    3.46
   6  -4   3   46.71    4.80
   6  -4   3   51.69    4.01
   6  -4   3   43.26    4.37
   6  -4   4   35.95    4.52
   6  -4   4   39.41    3.55
   6  -4   4   26.79    2.02
   6  -4   4   28.47    4.16
   6  -4   5    8.35    3.87
   6  -4   5   10.13    3.56
   6  -4   6    4.08    3.83
   6  -4   6    6.34    3.31
   6  -3  -7    3.27    5.27
   6  -3  -6    7.65    4.93
   6  -3  -5   13.23    3.28
   6  -3  -4   47.66    5.64
   6  -3  -4   46.16    3.66
   6  -3  -3    5.07    4.52
   6  -3  -3    0.41    4.06
   6  -3  -2    9.87    4.43
   6  -3  -2    9.02    3.51
   6  -3  -1    8.19    4.29
   6  -3  -1    1.11    3.69
   6  -3   0    5.07    4.18
   6  -3   0    4.26    3.27
   6  -3   1    2.56    4.36
   6  -3   1   -2.51    3.43
   6  -3   2    6.78    3.94
   6  -3   2    9.97    3.46
   6  -3   3   25.91    4.33
   6  -3   3   29.20    3.74
   6  -3   3   27.66    3.94
   6  -3   4   37.30    4.57
   6  -3   4   29.16    3.16
   6  -3   4   21.62    1.35
   6  -3   4   30.02    4.00
   6  -3   5   81.71    4.08
   6  -3   5   83.76    5.78
   6  -3   6   65.60    4.98
   6  -3   6   73.76    5.77
   6  -3   6   78.04    5.46
   6  -3   7   40.50    4.34
   6  -3   7   50.03    4.98
   6  -3   7   45.06    4.86
   6  -3   8    3.58    4.31
   6  -3   8   -1.70    3.97
   6  -3   9   12.24    4.89
   6  -2 -10    8.26    6.17
   6  -2  -8   19.46    5.85
   6  -2  -8   15.96    4.35
   6  -2  -8   12.16    5.51
   6  -2  -7    9.55    5.19
   6  -2  -7    8.56    4.06
   6  -2  -7   10.55    5.19
   6  -2  -6    0.26    4.68
   6  -2  -6   -0.16    3.51
   6  -2  -5    5.54    4.72
   6  -2  -5    5.25    3.21
   6  -2  -4    1.13    3.93
   6  -2  -4    2.22    2.87
   6  -2  -3   -0.71    4.37
   6  -2  -3   -3.23    4.07
   6  -2  -3    2.96    2.33
   6  -2  -2   71.34    5.85
   6  -2  -2   75.22    5.65
   6  -2  -1   31.50    4.77
   6  -2  -1   22.61    4.08
   6  -2   0   45.71    5.07
   6  -2   0   62.30    4.84
   6  -2   1   67.29    5.60
   6  -2   1   66.41    4.97
   6  -2   2   43.32    4.86
   6  -2   2   41.30    4.13
   6  -2   3   40.12    4.65
   6  -2   3   45.44    4.67
   6  -2   3   45.40    4.54
   6  -2   4    3.24    3.93
   6  -2   4    3.63    4.08
   6  -2   4    6.33    2.78
   6  -2   4    4.31    3.99
   6  -2   5   19.98    3.97
   6  -2   5   18.40    4.27
   6  -2   5   17.18    2.38
   6  -2   5   23.54    4.32
   6  -2   6   -1.39    3.72
   6  -2   6    3.67    4.07
   6  -2   6    1.12    3.99
   6  -2   7    0.82    3.44
   6  -2   7    1.20    3.95
   6  -2   7   -0.19    4.15
   6  -2   8   36.97    5.25
   6  -2   8   35.37    4.15
   6  -2   8   37.08    4.87
   6  -2   9   32.95    5.97
   6  -2   9   37.89    4.77
   6  -2  10   26.78    6.38
   6  -1 -10    5.61    6.01
   6  -1  -9    6.93    5.92
   6  -1  -9   10.69    5.46
   6  -1  -9    4.83    5.76
   6  -1  -8    0.54    5.55
   6  -1  -8    1.89    4.33
   6  -1  -8    8.38    5.54
   6  -1  -7    6.54    5.22
   6  -1  -7   10.50    4.23
   6  -1  -6   19.56    5.39
   6  -1  -6   29.33    4.12
   6  -1  -5   -0.25    4.78
   6  -1  -5    3.21    4.65
   6  -1  -5    1.72    3.16
   6  -1  -4   36.65    5.19
   6  -1  -4   35.46    3.67
   6  -1  -3    8.66    4.16
   6  -1  -2   22.55    4.16
   6  -1  -2   20.71    4.23
   6  -1  -1   64.52    5.36
   6  -1  -1   53.92    4.80
   6  -1   0   -0.22    3.83
   6  -1   0    5.61    3.39
   6  -1   0    1.78    3.66
   6  -1   1  160.74    8.12
   6  -1   1  143.26    7.53
   6  -1   1  148.79    7.72
   6  -1   2   75.54    5.98
   6  -1   2   84.09    5.44
   6  -1   3   67.37    3.12
   6  -1   3   69.65    5.28
   6  -1   3   71.84    5.37
   6  -1   4  238.72   10.35
   6  -1   4  219.48   10.12
   6  -1   4  220.24   10.00
   6  -1   5  147.52    7.89
   6  -1   5  151.54    7.89
   6  -1   5  142.13    7.80
   6  -1   6    7.24    1.24
   6  -1   6    5.57    3.93
   6  -1   6    9.80    3.77
   6  -1   6    4.35    4.22
   6  -1   7    2.96    3.71
   6  -1   7    3.43    4.41
   6  -1   7    4.62    4.18
   6  -1   8    8.77    3.82
   6  -1   8    2.04    4.73
   6  -1   8    3.24    3.74
   6  -1   8    0.81    4.22
   6  -1   9    0.65    3.91
   6  -1   9    1.16    3.53
   6  -1   9   -2.91    4.95
   6  -1   9    2.06    4.77
   6  -1  10   36.06    5.75
   6  -1  10   48.62    5.32
   6  -1  11   16.17    6.08
   6   0 -10    8.99    5.64
   6   0  -9   11.40    6.17
   6   0  -9   15.96    5.57
   6   0  -9   15.59    6.18
   6   0  -8   -1.59    5.57
   6   0  -8    0.66    4.80
   6   0  -7   -2.83    5.21
   6   0  -7    0.79    4.25
   6   0  -6   -3.27    5.18
   6   0  -6    4.91    4.85
   6   0  -6    3.72    3.92
   6   0  -5    7.22    4.54
   6   0  -5   11.23    4.52
   6   0  -4   23.40    4.54
   6   0  -4   23.29    4.92
   6   0  -3   48.84    5.01
   6   0  -2   57.17    5.12
   6   0  -1   11.14    3.99
   6   0  -1   12.11    3.86
   6   0   0   76.96    5.81
   6   0   0   74.38    5.43
   6   0   0   79.48    5.46
   6   0   1   19.86    2.74
   6   0   1   24.00    3.87
   6   0   1   21.90    4.09
   6   0   2    5.55    3.56
   6   0   2   10.99    4.24
   6   0   2    9.85    2.26
   6   0   2   10.94    3.56
   6   0   3    5.65    3.63
   6   0   3    2.13    1.59
   6   0   3    5.67    3.89
   6   0   4   30.63    4.31
   6   0   4   29.91    4.36
   6   0   5   14.42    4.16
   6   0   5   13.27    4.34
   6   0   6  154.84    8.08
   6   0   6  153.27    8.35
   6   0   7   34.70    5.00
   6   0   7   24.72    4.41
   6   0   7   31.79    4.81
   6   0   8  126.10    7.08
   6   0   8  142.64    8.10
   6   0   8  132.69    8.28
   6   0   9   12.45    4.19
   6   0   9   20.13    5.72
   6   0   9   16.03    5.00
   6   0  10    5.88    5.60
   6   0  10    5.71    4.30
   6   0  10    6.84    5.01
   6   0  11    9.14    6.79
   6   0  11   -1.63    5.30
   6   1 -10   13.15    6.51
   6   1  -9    1.61    6.05
   6   1  -9    1.01    5.30
   6   1  -9    0.82    5.51
   6   1  -8   -6.28    5.29
   6   1  -8    3.25    4.84
   6   1  -7    3.84    5.45
   6   1  -6    2.45    4.75
   6   1  -6   -3.27    4.07
   6   1  -4   -1.63    4.08
   6   1  -4    2.26    4.13
   6   1  -3   45.06    4.95
   6   1  -3   39.71    4.90
   6   1  -2   -5.97    3.57
   6   1  -2   -1.55    3.88
   6   1  -2    2.83    3.64
   6   1  -1  217.30    9.04
   6   1  -1  206.60    9.79
   6   1   0   36.28    3.57
   6   1   0   37.59    4.33
   6   1   1  288.08   11.29
   6   1   1  289.51   12.34
   6   1   1  307.58   12.35
   6   1   2    9.22    2.35
   6   1   2   14.71    3.62
   6   1   3  239.38    9.24
   6   1   3  267.08   10.96
   6   1   3  259.12   11.01
   6   1   4   83.97    5.63
   6   1   4   91.72    5.86
   6   1   5   65.51    5.55
   6   1   5   66.44    5.36
   6   1   6    9.32    4.46
   6   1   6    9.44    4.17
   6   1   7   70.56    5.65
   6   1   7   71.33    6.16
   6   1   7   77.24    5.94
   6   1   8   31.65    4.65
   6   1   8   31.33    5.18
   6   1   9   93.77    6.45
   6   1   9  106.18    6.54
   6   1   9  102.88    7.57
   6   1  10   58.70    6.99
   6   1  10   69.50    5.61
   6   1  10   69.09    5.57
   6   1  11   37.07    5.77
   6   2 -10    5.40    6.67
   6   2 -10   -1.68    6.37
   6   2  -9    2.13    5.26
   6   2  -9   -2.15    5.91
   6   2  -8    6.02    5.73
   6   2  -8   11.73    5.28
   6   2  -8    3.72    5.13
   6   2  -7   22.04    5.94
   6   2  -7   11.69    4.89
   6   2  -6   10.95    5.14
   6   2  -6   10.72    5.27
   6   2  -6    3.34    4.41
   6   2  -5   43.10    5.57
   6   2  -5   30.21    5.64
   6   2  -5   39.30    4.87
   6   2  -4    0.23    4.38
   6   2  -4    0.19    3.89
   6   2  -3   23.22    4.60
   6   2  -3   26.89    4.30
   6   2  -3   19.23    4.38
   6   2  -2    4.11    3.90
   6   2  -2    0.64    3.37
   6   2  -2   11.19    3.95
   6   2  -1   13.81    3.46
   6   2  -1   18.01    4.03
   6   2   0    1.05    2.85
   6   2   0   -1.07    3.80
   6   2   0   -4.69    3.75
   6   2   1   76.52    4.54
   6   2   1   75.98    5.48
   6   2   2   40.33    4.63
   6   2   2   43.68    3.40
   6   2   2   40.02    4.51
   6   2   3   21.71    4.07
   6   2   3   18.69    2.57
   6   2   4   60.61    3.28
   6   2   4   59.86    5.07
   6   2   4   56.98    5.24
   6   2   5   48.68    5.05
   6   2   6  134.54    7.42
   6   2   6  124.24    7.72
   6   2   7   18.95    4.44
   6   2   7   16.78    4.79
   6   2   8   49.94    5.05
   6   2   8   31.22    5.51
   6   2   9   21.37    5.62
   6   2   9   19.56    4.65
   6   2   9   16.05    5.03
   6   2  10    2.90    5.53
   6   2  10    1.45    4.70
   6   2  11   22.59    5.13
   6   3 -10    4.37    6.39
   6   3  -9    6.10    5.58
   6   3  -8    2.32    5.03
   6   3  -8   -4.35    5.24
   6   3  -7   -3.37    4.62
   6   3  -6    3.20    5.23
   6   3  -6    0.30    5.41
   6   3  -6   -4.97    4.85
   6   3  -5    5.55    5.20
   6   3  -5   -0.29    5.10
   6   3  -5    5.93    4.28
   6   3  -4   52.41    5.07
   6   3  -4   69.02    6.17
   6   3  -4   64.90    5.68
   6   3  -3   10.88    4.03
   6   3  -3   12.01    4.70
   6   3  -3   13.84    4.25
   6   3  -2  125.25    6.67
   6   3  -2  123.49    7.34
   6   3  -2  118.92    7.06
   6   3  -1  114.46    6.50
   6   3  -1  127.44    7.31
   6   3  -1  122.08    6.88
   6   3   0    2.58    3.20
   6   3   0    9.18    3.69
   6   3   1   75.84    4.71
   6   3   1   72.08    5.41
   6   3   2   -2.36    2.88
   6   3   3   14.77    2.81
   6   3   4  177.98    7.45
   6   3   5  100.57    6.50
   6   3   5   91.76    6.50
   6   3   6   74.03    6.11
   6   3   6   74.13    5.99
   6   3   7  181.58    9.35
   6   3   7  192.88    9.72
   6   3   8   54.20    5.78
   6   3   8   69.19    6.37
   6   3   9  142.51    8.27
   6   3   9  135.82    7.83
   6   3   9  128.78    8.57
   6   3  10    5.10    6.37
   6   3  10   14.56    5.45
   6   3  10    3.96    4.67
   6   3  11    2.60    5.26
   6   4  -9    5.31    6.59
   6   4  -8   22.87    5.98
   6   4  -7   -0.33    6.26
   6   4  -7    1.51    5.44
   6   4  -7   -3.72    5.25
   6   4  -6    3.24    5.52
   6   4  -6    2.19    5.88
   6   4  -6    3.75    4.70
   6   4  -5    2.96    4.80
   6   4  -5    0.90    5.47
   6   4  -5   -0.44    4.60
   6   4  -4    7.04    4.16
   6   4  -4    2.85    5.05
   6   4  -4    3.90    4.36
   6   4  -3   -0.97    4.14
   6   4  -3   -1.61    4.66
   6   4  -3    1.46    4.15
   6   4  -2    3.26    3.92
   6   4  -2    5.04    4.64
   6   4  -2    5.10    4.31
   6   4  -1    1.74    3.41
   6   4  -1    4.38    4.25
   6   4  -1   -2.86    4.08
   6   4   0   96.03    5.65
   6   4   0  103.35    6.97
   6   4   0  101.70    6.52
   6   4   1   49.57    5.14
   6   4   1   44.70    4.20
   6   4   1   38.62    4.72
   6   4   2   52.84    5.46
   6   4   2   45.28    4.13
   6   4   2   52.08    5.02
   6   4   3   84.25    6.11
   6   4   3   65.92    4.61
   6   4   4   11.82    4.65
   6   4   4   13.94    3.36
   6   4   4    6.52    4.26
   6   4   5   23.85    4.77
   6   4   6   -2.70    4.65
   6   4   7    1.37    4.58
   6   4   8   36.30    3.75
   6   4   8   35.62    5.57
   6   4   9   36.47    5.91
   6   4   9   32.37    5.42
   6   4   9   23.36    5.45
   6   4  10   55.94    6.57
   6   4  11   63.09    6.98
   6   5  -8    0.52    5.77
   6   5  -7    7.77    5.77
   6   5  -6   -1.27    5.07
   6   5  -6    7.15    6.55
   6   5  -6    1.94    4.72
   6   5  -5    7.06    5.18
   6   5  -5    0.94    5.82
   6   5  -5    3.68    4.72
   6   5  -4   60.19    5.96
   6   5  -4   43.67    6.43
   6   5  -4   51.43    5.56
   6   5  -3    9.76    4.60
   6   5  -3    8.18    5.37
   6   5  -3   10.00    4.76
   6   5  -2   54.80    5.35
   6   5  -2   63.00    6.21
   6   5  -2   56.21    5.59
   6   5  -1   11.63    4.51
   6   5  -1    7.21    4.68
   6   5  -1    9.91    4.63
   6   5   0   -1.42    3.48
   6   5   0    7.05    5.07
   6   5   0    3.15    4.13
   6   5   1   10.68    4.69
   6   5   1    8.53    3.58
   6   5   1    3.00    4.20
   6   5   2   74.07    6.49
   6   5   2   69.35    5.08
   6   5   3   51.63    5.48
   6   5   3   55.22    4.97
   6   5   4  157.50    7.82
   6   5   4  157.55    8.62
   6   5   4  176.83    8.97
   6   5   5   63.75    5.96
   6   5   5   51.55    5.76
   6   5   6  122.17    8.07
   6   5   6  131.19    8.30
   6   5   7   71.39    6.85
   6   5   7   71.91    6.73
   6   5   8   26.91    4.15
   6   5   8   21.93    5.51
   6   5   8   34.78    6.03
   6   5   9   -0.99    5.20
   6   5   9    2.03    5.91
   6   5  10   -0.79    5.83
   6   6  -7   -3.69    6.12
   6   6  -6    3.35    6.69
   6   6  -5   11.08    6.30
   6   6  -5    9.89    5.14
   6   6  -4    1.40    4.70
   6   6  -4   -5.94    5.85
   6   6  -4   -3.12    4.52
   6   6  -3   13.29    5.34
   6   6  -3   14.02    6.07
   6   6  -3    6.12    5.13
   6   6  -2    9.68    4.56
   6   6  -2   12.66    5.51
   6   6  -2    7.24    4.47
   6   6  -1   36.20    5.08
   6   6  -1   31.70    5.03
   6   6   0   19.89    4.44
   6   6   0   21.01    5.05
   6   6   0   22.15    5.67
   6   6   0   22.84    4.76
   6   6   1   33.67    4.54
   6   6   1   34.55    5.39
   6   6   1   27.15    5.29
   6   6   1   30.49    5.50
   6   6   2   16.97    5.36
   6   6   2   11.85    4.41
   6   6   2   17.51    5.13
   6   6   3    0.53    5.07
   6   6   3   -2.13    4.23
   6   6   4    0.53    4.98
   6   6   4    0.19    4.11
   6   6   4    4.87    5.03
   6   6   5   25.42    5.55
   6   6   5   16.37    5.32
   6   6   6   76.72    7.13
   6   6   6   73.81    6.64
   6   6   7   31.14    4.75
   6   6   7   23.18    5.80
   6   6   7   36.21    5.85
   6   6   8   55.83    5.19
   6   6   8   60.10    6.87
   6   6   8   65.13    7.39
   6   7  -6   -0.69    6.89
   6   7  -6    5.43    6.23
   6   7  -6    8.57    6.13
   6   7  -5    7.35    7.29
   6   7  -5    6.53    5.50
   6   7  -5    9.55    5.97
   6   7  -4   10.04    6.41
   6   7  -4    4.80    5.73
   6   7  -4   13.69    5.58
   6   7  -4   -0.23    5.11
   6   7  -3    0.24    5.24
   6   7  -3   -5.01    6.41
   6   7  -3   -0.90    4.91
   6   7  -3    8.14    5.12
   6   7  -2    4.22    5.06
   6   7  -2    7.73    6.24
   6   7  -2   -0.23    5.07
   6   7  -2    4.56    4.66
   6   7  -1   28.23    5.34
   6   7  -1   27.14    5.36
   6   7  -1   28.37    6.24
   6   7  -1   25.31    5.78
   6   7   0   15.60    4.85
   6   7   0   10.61    5.21
   6   7   0    8.18    5.92
   6   7   0   17.07    4.97
   6   7   1   47.72    5.68
   6   7   1   50.10    6.16
   6   7   1   36.78    5.63
   6   7   1   57.13    6.53
   6   7   2   25.68    5.36
   6   7   2   24.65    5.35
   6   7   3   43.76    6.57
   6   7   3   40.47    5.78
   6   7   4   50.90    7.19
   6   7   5   13.29    5.89
   6   7   5   12.22    5.18
   6   7   6   28.47    6.74
   6   7   6   33.31    5.84
   6   7   7    1.83    5.98
   6   7   8   10.48    5.10
   6   8  -5   -0.34    6.96
   6   8  -4   -1.32    6.60
   6   8  -4   -1.82    5.38
   6   8  -3    6.81    6.39
   6   8  -3   16.01    5.86
   6   8  -3    7.03    5.32
   6   8  -2    9.28    5.42
   6   8  -2    0.31    6.06
   6   8  -2    5.69    5.51
   6   8  -2   -1.67    4.98
   6   8  -1   23.08    6.01
   6   8  -1   24.56    6.28
   6   8  -1   24.25    6.11
   6   8  -1   20.52    6.11
   6   8   0   -0.49    5.67
   6   8   0   -1.48    5.71
   6   8   0   -0.97    5.26
   6   8   1   -2.56    5.49
   6   8   1    4.54    5.40
   6   8   1   -5.59    5.95
   6   8   1   -0.25    5.28
   6   8   2   20.86    6.21
   6   8   2   10.77    5.91
   6   8   2   14.92    5.83
   6   8   3    8.93    5.92
   6   8   3    9.48    5.84
   6   8   3    8.12    5.46
   6   8   4   52.38    7.34
   6   8   4   58.69    6.82
   6   8   5   43.17    6.80
   6   8   6   17.24    5.67
   6   8   6    5.80    6.43
   6   8   7   20.89    6.19
   6   8   8   18.02    6.79
   6   9  -2    6.73    7.30
   6   9  -1   18.66    6.73
   6   9  -1   21.00    6.50
   6   9   0   16.23    6.94
   6   9   0    1.54    5.62
   6   9   1   -3.27    6.41
   6   9   1    2.75    6.35
   6   9   1    3.68    5.42
   6   9   2    7.60    6.63
   6   9   2    3.96    6.20
   6   9   3    1.55    6.24
   6   9   4    5.36    6.79
   7  -6  -1    0.72    5.31
   7  -6   0    8.24    5.40
   7  -6   0    6.78    5.39
   7  -6   0    3.63    5.56
   7  -6   1    1.16    5.24
   7  -6   1   16.52    5.88
   7  -5  -3    2.53    6.19
   7  -5  -2   -3.68    5.52
   7  -5  -1    5.31    5.35
   7  -5  -1    2.92    5.14
   7  -5   0    1.02    5.50
   7  -5   0   -3.51    5.18
   7  -5   1    3.42    5.13
   7  -5   1    6.91    4.53
   7  -5   2    0.93    5.19
   7  -5   2   -1.74    3.67
   7  -5   3   15.05    4.93
   7  -4  -3    1.96    5.67
   7  -4  -2    5.18    5.71
   7  -4  -2    3.65    4.34
   7  -4  -1   21.11    5.58
   7  -4  -1   12.14    4.18
   7  -4   0    1.79    4.88
   7  -4   0    1.55    4.61
   7  -4   0    2.40    3.82
   7  -4   1    6.68    5.35
   7  -4   1   -0.20    4.64
   7  -4   1    4.65    4.17
   7  -4   2    5.69    5.07
   7  -4   2    4.59    3.84
   7  -4   2    3.95    4.25
   7  -4   3    5.64    4.62
   7  -4   3    6.87    3.41
   7  -4   3    0.55    4.14
   7  -4   4    2.77    5.04
   7  -4   4    0.73    3.81
   7  -4   5   15.62    4.77
   7  -3  -4    0.28    5.29
   7  -3  -3    1.39    5.21
   7  -3  -3    4.24    4.71
   7  -3  -2    0.55    5.23
   7  -3  -2   -0.23    4.54
   7  -3  -1    2.92    5.35
   7  -3  -1   -0.44    4.41
   7  -3   0    6.72    5.46
   7  -3   0    8.26    4.25
   7  -3   1   22.89    5.51
   7  -3   1   22.20    4.46
   7  -3   2   43.44    5.77
   7  -3   2   37.94    4.79
   7  -3   3   22.52    5.32
   7  -3   3   12.40    3.72
   7  -3   4    5.61    4.89
   7  -3   4    8.34    2.90
   7  -3   4    7.55    3.98
   7  -3   5   27.22    4.92
   7  -3   5   30.99    4.58
   7  -3   6   14.50    4.71
   7  -3   6   12.29    4.50
   7  -2  -4   25.83    5.74
   7  -2  -3    4.71    4.96
   7  -2  -3   10.82    5.15
   7  -2  -2   -4.37    5.18
   7  -2  -2    8.99    4.84
   7  -2  -1   12.99    5.18
   7  -2  -1    6.62    4.20
   7  -2   0   -0.52    5.01
   7  -2   0    1.30    4.23
   7  -2   1    4.02    5.20
   7  -2   1    3.56    3.82
   7  -2   2    2.21    4.55
   7  -2   3    1.43    4.64
   7  -2   3    3.67    4.66
   7  -2   3    7.70    4.16
   7  -2   4   25.13    4.92
   7  -2   4   17.92    4.50
   7  -2   5   11.98    4.51
   7  -2   5    5.45    5.01
   7  -2   6    8.36    4.63
   7  -2   6    2.69    4.82
   7  -2   7   11.95    4.84
   7  -2   7   14.10    5.58
   7  -2   7   14.51    4.99
   7  -2   8   10.01    5.58
   7  -2   8   13.30    5.44
   7  -1  -7   -2.07    4.13
   7  -1  -6    4.66    5.75
   7  -1  -6    5.64    3.89
   7  -1  -5    2.85    5.26
   7  -1  -5    6.93    5.46
   7  -1  -4   -3.98    5.39
   7  -1  -3    1.02    5.23
   7  -1  -2   15.98    5.09
   7  -1  -2    8.80    4.65
   7  -1  -1   21.67    4.72
   7  -1   0   59.89    6.22
   7  -1   0   54.43    5.49
   7  -1   1   51.60    6.05
   7  -1   1   47.90    5.63
   7  -1   2   11.85    5.00
   7  -1   2    9.38    2.57
   7  -1   2   10.43    4.57
   7  -1   2    8.15    4.60
   7  -1   3    2.74    4.94
   7  -1   3    3.46    4.44
   7  -1   3    6.32    4.23
   7  -1   4   19.39    4.83
   7  -1   4   13.63    4.82
   7  -1   4   13.38    4.67
   7  -1   5    4.13    4.51
   7  -1   5    0.24    4.80
   7  -1   5    3.24    4.90
   7  -1   6   24.65    5.47
   7  -1   6   25.10    5.20
   7  -1   6   28.71    5.28
   7  -1   7   31.20    5.25
   7  -1   7   36.66    5.53
   7  -1   7   32.51    5.67
   7  -1   8   25.68    5.05
   7  -1   8   22.33    5.29
   7  -1   8   12.84    5.34
   7  -1   9   28.61    6.00
   7  -1   9   39.56    6.26
   7   0  -8    2.47    5.26
   7   0  -7   10.74    4.65
   7   0  -6   13.86    5.89
   7   0  -6    6.64    5.46
   7   0  -5   16.59    5.66
   7   0  -5    8.88    5.25
   7   0  -4    4.93    5.29
   7   0  -4   -6.61    5.06
   7   0  -3    2.90    5.11
   7   0  -2    4.05    4.47
   7   0  -1    2.13    4.70
   7   0  -1    2.87    4.30
   7   0   0    8.66    4.87
   7   0   0    9.27    3.39
   7   0   0   14.29    4.48
   7   0   0   15.04    4.56
   7   0   1   -0.52    4.86
   7   0   1    0.12    2.94
   7   0   1    3.86    4.25
   7   0   1    4.63    4.60
   7   0   2   43.04    5.80
   7   0   2   35.61    3.09
   7   0   2   37.00    5.35
   7   0   2   35.53    4.78
   7   0   3   37.42    5.30
   7   0   3   44.54    5.44
   7   0   4   10.75    4.48
   7   0   4   22.43    5.63
   7   0   4   14.09    5.01
   7   0   5   17.20    4.89
   7   0   5   22.08    5.50
   7   0   5   25.46    5.28
   7   0   6    4.43    4.54
   7   0   6   14.95    5.20
   7   0   6    2.20    4.92
   7   0   7   14.45    5.38
   7   0   7   12.33    5.28
   7   0   7   18.11    5.57
   7   0   8   -2.34    4.93
   7   0   8    4.73    5.37
   7   0   8    3.78    6.19
   7   0   9    9.17    5.75
   7   0   9    7.65    5.95
   7   1  -7   -1.75    6.08
   7   1  -6   -6.53    5.49
   7   1  -6    8.40    5.70
   7   1  -5    2.49    5.27
   7   1  -5   -3.27    5.29
   7   1  -5   -0.91    4.79
   7   1  -4    9.54    5.10
   7   1  -4    3.18    4.49
   7   1  -4    9.14    5.15
   7   1  -3    0.81    4.75
   7   1  -3    0.39    4.29
   7   1  -3    1.09    4.66
   7   1  -2   52.72    5.04
   7   1  -2   52.88    5.80
   7   1  -1   14.98    5.17
   7   1  -1   19.98    3.92
   7   1  -1   17.53    4.88
   7   1   0   49.81    4.44
   7   1   1   17.51    5.16
   7   1   1   15.98    3.39
   7   1   1   13.72    4.76
   7   1   1   14.58    4.58
   7   1   2    4.09    2.68
   7   1   2   -1.16    4.17
   7   1   2    5.63    4.40
   7   1   3   10.60    2.48
   7   1   3   19.71    4.95
   7   1   4   35.02    5.22
   7   1   4   28.93    5.34
   7   1   5   54.82    5.72
   7   1   5   50.51    5.86
   7   1   6   68.57    6.38
   7   1   6   56.65    6.20
   7   1   7   58.82    6.50
   7   1   7   51.38    5.67
   7   1   7   60.44    6.73
   7   1   8   25.52    6.10
   7   1   8   30.49    5.11
   7   1   8   33.72    5.94
   7   1   9   27.31    6.88
   7   1   9   31.22    5.45
   7   1   9   26.48    6.87
   7   1  10    5.47    5.66
   7   2  -7   16.75    6.05
   7   2  -6    3.95    5.59
   7   2  -6    1.23    5.44
   7   2  -5    1.94    5.43
   7   2  -5    2.29    4.61
   7   2  -4    1.11    5.46
   7   2  -4    0.64    4.43
   7   2  -3   10.10    5.36
   7   2  -3    8.92    4.43
   7   2  -2   27.79    5.73
   7   2  -2   16.29    4.23
   7   2  -2   25.98    5.34
   7   2  -2   16.30    4.77
   7   2  -1    2.56    4.37
   7   2  -1   11.95    4.75
   7   2   0   16.35    3.59
   7   2   0   15.78    4.73
   7   2   1   13.61    3.25
   7   2   1   10.90    4.48
   7   2   2   51.19    4.02
   7   2   2   56.25    5.48
   7   2   2   57.19    5.64
   7   2   3   20.01    5.11
   7   2   3   14.31    2.71
   7   2   3   23.13    4.83
   7   2   4    0.76    4.54
   7   2   4    3.10    2.18
   7   2   4    1.95    4.51
   7   2   5    2.05    4.86
   7   2   5    1.00    4.89
   7   2   6   11.66    5.10
   7   2   6   15.54    5.03
   7   2   6   17.23    5.36
   7   2   7    2.17    5.35
   7   2   7    4.39    5.03
   7   2   7    6.35    5.77
   7   2   8   94.16    7.93
   7   2   8  102.46    8.25
   7   2   9    6.35    4.88
   7   2   9    4.47    5.95
   7   3  -7    2.88    6.63
   7   3  -6    5.39    5.89
   7   3  -6   -4.02    6.16
   7   3  -6   -4.27    5.16
   7   3  -5    1.70    5.38
   7   3  -5   -4.53    5.76
   7   3  -5   -0.94    5.28
   7   3  -4    3.34    5.62
   7   3  -4    4.43    4.63
   7   3  -4   -2.16    5.72
   7   3  -3    9.50    4.69
   7   3  -3   11.54    5.35
   7   3  -3    3.19    4.92
   7   3  -2   13.20    4.66
   7   3  -2    8.11    4.78
   7   3  -1   12.33    4.23
   7   3  -1   17.43    4.82
   7   3   0    0.98    3.85
   7   3   0   -3.53    4.60
   7   3   1   69.60    4.99
   7   3   1   71.80    6.31
   7   3   2   -2.84    4.65
   7   3   3  139.18    6.59
   7   3   3  154.45    8.52
   7   3   3  132.75    8.12
   7   3   4    3.96    4.87
   7   3   4    0.84    2.81
   7   3   4    2.75    4.60
   7   3   5   68.43    6.53
   7   3   5   67.40    6.34
   7   3   5   69.74    6.55
   7   3   6   42.11    5.84
   7   3   6   46.93    6.24
   7   3   7    1.97    5.11
   7   3   7    2.44    5.42
   7   3   8   25.34    6.35
   7   3   8   17.17    5.41
   7   3   9    0.73    4.83
   7   3  10    7.73    5.98
   7   4  -6    4.94    6.22
   7   4  -5    3.72    5.88
   7   4  -5   -0.34    6.49
   7   4  -5   11.46    5.18
   7   4  -4    1.38    4.73
   7   4  -4   10.31    6.25
   7   4  -4   -1.01    5.00
   7   4  -3   12.49    4.67
   7   4  -3   17.81    5.81
   7   4  -3   24.29    5.57
   7   4  -2    7.51    4.36
   7   4  -2    4.07    5.33
   7   4  -2    4.36    5.28
   7   4  -1    8.84    4.57
   7   4  -1   18.51    5.39
   7   4  -1    9.34    4.90
   7   4   0    2.47    3.98
   7   4   0    7.42    5.24
   7   4   0    3.87    4.86
   7   4   1   15.53    4.09
   7   4   1    9.74    4.84
   7   4   1   17.11    5.46
   7   4   2    4.34    5.10
   7   4   2   12.70    3.57
   7   4   2    0.49    4.82
   7   4   3    5.07    3.34
   7   4   4   10.06    5.10
   7   4   5   31.17    5.72
   7   4   5   17.99    5.20
   7   4   6   80.28    7.01
   7   4   7   41.10    6.39
   7   4   8   29.28    5.80
   7   5  -6    8.53    6.36
   7   5  -5   -1.47    6.46
   7   5  -5    2.04    5.53
   7   5  -4   -4.06    5.86
   7   5  -4    0.49    5.33
   7   5  -4   -0.34    6.27
   7   5  -4   -0.77    6.00
   7   5  -3    2.33    5.27
   7   5  -3    2.26    5.85
   7   5  -3    0.50    5.37
   7   5  -2   18.69    5.26
   7   5  -2   14.37    6.24
   7   5  -2   15.78    5.46
   7   5  -1    6.19    4.51
   7   5  -1    7.08    5.59
   7   5  -1   -0.25    5.21
   7   5   0   27.73    4.72
   7   5   0   21.69    6.01
   7   5   0   28.55    5.48
   7   5   1   69.24    5.32
   7   5   1   75.25    6.58
   7   5   1   73.97    6.83
   7   5   2    5.13    5.55
   7   5   2    4.89    3.73
   7   5   2    8.83    5.08
   7   5   3   26.76    5.81
   7   5   3   29.66    4.36
   7   5   3   21.48    5.25
   7   5   3   29.54    5.54
   7   5   4    9.57    5.63
   7   5   4   -0.33    4.04
   7   5   4   -0.79    5.29
   7   5   4   -4.25    5.30
   7   5   5   31.02    6.13
   7   5   5   37.94    6.01
   7   5   6    3.53    5.83
   7   5   6    2.97    5.62
   7   5   7    1.63    5.71
   7   5   8    1.64    5.86
   7   6  -4    6.57    5.40
   7   6  -3   15.02    5.85
   7   6  -3    7.14    6.64
   7   6  -3    6.92    5.77
   7   6  -2    7.27    5.27
   7   6  -2   -0.64    6.61
   7   6  -2    1.78    5.36
   7   6  -1   -0.45    5.22
   7   6  -1    1.55    6.36
   7   6  -1   -0.26    5.20
   7   6   0   -1.06    4.37
   7   6   0   -1.30    5.52
   7   6   0    1.53    5.84
   7   6   0    0.26    5.41
   7   6   1    0.41    4.51
   7   6   1   -2.63    5.41
   7   6   1    3.02    6.11
   7   6   1   -4.37    5.28
   7   6   2   17.12    6.34
   7   6   2   18.45    4.63
   7   6   2   14.39    5.78
   7   6   2   11.29    5.54
   7   6   3   33.67    6.60
   7   6   3   28.31    5.22
   7   6   3   19.08    5.55
   7   6   4   47.69    6.77
   7   6   4   37.71    5.16
   7   6   4   40.56    5.83
   7   6   5   82.70    7.51
   7   6   5   76.30    7.20
   7   6   6   27.94    6.41
   7   7  -4    5.11    6.23
   7   7  -3    5.53    5.65
   7   7  -2    6.07    5.84
   7   7  -2   13.20    7.45
   7   7  -2    9.66    5.96
   7   7  -2   10.76    5.63
   7   7  -1    8.02    5.51
   7   7  -1    2.28    6.65
   7   7  -1   14.00    6.02
   7   7  -1    7.15    5.61
   7   7   0   26.70    5.70
   7   7   0   32.26    6.34
   7   7   0   44.68    7.47
   7   7   0   25.76    5.99
   7   7   1    5.89    5.28
   7   7   1    8.45    5.99
   7   7   1    0.32    6.34
   7   7   1   -2.14    5.83
   7   7   2    3.99    5.63
   7   7   2    1.39    5.93
   7   7   2   -2.47    5.54
   7   7   2    0.95    6.19
   7   7   3    0.56    5.60
   7   7   4    3.40    5.07
   7   8   1   17.99    6.22
   7   8   3   13.26    6.28
   8  -4  -1   -2.12    6.11
   8  -4   0    0.24    5.49
   8  -4   3    2.35    5.61
   8  -3  -3    2.40    5.56
   8  -3  -2   -0.52    5.08
   8  -3  -1   11.10    5.50
   8  -3   0    4.18    5.66
   8  -3   1   17.75    6.00
   8  -3   1   20.14    6.07
   8  -3   2    3.67    5.89
   8  -3   2    3.98    6.00
   8  -3   3    3.82    6.07
   8  -3   3    1.16    5.19
   8  -3   4   -1.57    6.88
   8  -2  -3    3.61    5.19
   8  -2  -2   10.81    6.04
   8  -2  -1    1.24    5.90
   8  -2  -1    1.84    5.31
   8  -2   0    8.79    6.34
   8  -2   0    4.36    5.00
   8  -2   1    4.71    5.61
   8  -2   1    1.24    4.78
   8  -2   2    1.73    5.48
   8  -2   2    3.89    5.09
   8  -2   3    7.84    6.23
   8  -2   4   11.94    5.89
   8  -2   4    8.10    5.38
   8  -2   5    4.97    6.21
   8  -2   5    0.27    5.83
   8  -2   5    3.25    5.83
   8  -2   6    3.45    5.63
   8  -2   6    4.08    5.47
   8  -1  -3    3.47    5.52
   8  -1  -2   10.64    6.18
   8  -1  -1   10.38    5.65
   8  -1  -1    0.82    5.19
   8  -1   0    9.64    5.83
   8  -1   0    6.62    3.69
   8  -1   0    8.11    5.62
   8  -1   1    1.19    5.71
   8  -1   1    1.27    4.97
   8  -1   2    8.52    6.22
   8  -1   2    9.02    5.53
   8  -1   3    9.24    5.78
   8  -1   3    0.25    4.79
   8  -1   3    6.02    5.22
   8  -1   4   15.92    6.07
   8  -1   4   16.70    6.00
   8  -1   4   14.66    5.65
   8  -1   5   21.04    6.44
   8  -1   5   24.53    6.39
   8  -1   5   21.67    5.62
   8  -1   6    5.13    6.10
   8  -1   6    6.17    6.58
   8  -1   6   10.39    6.53
   8  -1   7   21.79    6.81
   8  -1   7   13.69    6.23
   8   0  -3   -0.21    5.21
   8   0  -3  -10.47    6.49
   8   0  -2   15.27    4.80
   8   0  -2   27.28    5.87
   8   0  -1   -0.31    5.87
   8   0  -1    5.29    5.12
   8   0   0    0.92    5.71
   8   0   0    3.19    3.52
   8   0   0    5.65    5.64
   8   0   1   13.17    6.30
   8   0   1    7.74    3.47
   8   0   1    6.33    5.01
   8   0   1    4.95    5.55
   8   0   2    4.54    6.21
   8   0   2    0.79    4.82
   8   0   2    4.38    5.50
   8   0   3    7.20    6.12
   8   0   3   13.69    5.65
   8   0   3    8.73    5.40
   8   0   4    4.45    6.11
   8   0   4    4.69    5.99
   8   0   4   -2.13    5.29
   8   0   5    3.01    5.31
   8   0   5    1.47    5.50
   8   0   5    0.55    5.91
   8   0   6    9.01    5.95
   8   0   6    5.76    6.33
   8   0   6    1.12    5.72
   8   0   7    8.98    5.90
   8   0   7   11.64    6.33
   8   1  -4    4.39    4.97
   8   1  -3   -1.71    4.67
   8   1  -3   -1.24    5.67
   8   1  -2    1.76    4.32
   8   1  -2   -1.20    5.92
   8   1  -1    5.00    5.80
   8   1  -1   -3.37    3.99
   8   1  -1    4.01    5.52
   8   1   0    5.61    5.79
   8   1   0   -1.11    3.64
   8   1   0    3.05    5.00
   8   1   0    1.66    5.28
   8   1   1   13.71    6.10
   8   1   1   12.43    3.51
   8   1   1   20.55    5.60
   8   1   1   13.92    5.35
   8   1   2   11.82    6.57
   8   1   2   10.64    5.23
   8   1   2   16.43    5.71
   8   1   3   28.86    6.33
   8   1   3   27.54    5.89
   8   1   3   27.35    5.90
   8   1   4    8.33    5.60
   8   1   4   22.80    7.10
   8   1   4   17.31    5.93
   8   1   5    5.42    5.53
   8   1   5    2.28    5.79
   8   1   6   11.09    6.37
   8   1   6    4.06    6.46
   8   1   7    2.26    6.24
   8   2  -5   -1.51    6.09
   8   2  -4    4.96    4.96
   8   2  -3    8.78    5.18
   8   2  -2    3.47    6.04
   8   2  -2    8.11    4.36
   8   2  -2    7.06    5.87
   8   2  -2   12.27    5.30
   8   2  -1    7.94    4.10
   8   2  -1    7.98    5.41
   8   2  -1    1.94    5.37
   8   2   0    4.46    3.92
   8   2   0    1.73    5.40
   8   2   1   -3.79    5.94
   8   2   1    1.93    3.62
   8   2   1    1.71    5.21
   8   2   1    4.92    5.47
   8   2   2    1.38    5.22
   8   2   2   -2.84    5.23
   8   2   3    6.71    5.39
   8   2   3    1.14    5.40
   8   2   4   11.29    5.92
   8   2   4   17.98    5.79
   8   2   5   27.75    6.27
   8   2   5   24.13    6.11
   8   2   6   17.58    5.59
   8   2   8    6.52    5.64
   8   3  -4   10.67    5.78
   8   3  -3    3.85    5.44
   8   3  -2   10.92    6.41
   8   3  -2   11.98    5.13
   8   3  -2   10.12    5.88
   8   3  -1   -0.39    4.45
   8   3  -1    8.56    5.44
   8   3   0   11.18    4.22
   8   3   0   17.39    6.02
   8   3   0   17.05    5.41
   8   3   1   10.46    3.87
   8   3   1   10.68    5.63
   8   3   2   25.74    4.15
   8   3   2   30.42    5.85
   8   3   3    3.42    5.45
   8   3   3   -5.34    5.39
   8   3   4    3.77    5.88
   8   3   5    5.56    5.81
   8   3   6    6.36    5.85
   8   4  -3   -3.32    5.18
   8   4  -2    5.90    5.33
   8   4  -1    0.62    4.87
   8   4  -1   -6.71    6.01
   8   4   0    7.33    4.33
   8   4   0   -0.56    5.81
   8   4   1    7.61    4.14
   8   4   1    7.90    5.67
   8   4   2    6.71    4.02
   8   4   2    0.86    5.77
   8   4   4   40.24    6.59
   8   5  -2    8.74    5.37
   8   5  -1    3.58    4.82
   8   5   0   24.30    5.96
   8   5   1    5.46    4.48
   8   5   2    2.42    4.42
   8   6  -1   12.29    5.64
   8   6   0    5.48    5.37
   8   6   1    7.07    5.30
   8   6   2   14.17    4.96
   8   7   1    7.75    6.12
   0   0   0    0.00    0.00


TITL exp_1 in P1
REM P1 (#1 in standard setting)
CELL 0.71073   6.624263   8.501554  10.852193  83.9079  86.0404  82.4646
ZERR    3.00   0.000349   0.000513   0.000710   0.0052   0.0049   0.0047
LATT -1
SFAC C H N O
UNIT 33.00 30.00 3.00 3.00
TREF
HKLF 4
END
_computing_structure_solution     'SHELXT 2014/5 (Sheldrick, 2014)'
;
_shelx_hkl_checksum              90077
loop_
_space_group_symop_operation_xyz
'x, y, z'
'-x, -y, -z'
loop_
_atom_site_label
_atom_site_type_symbol
_atom_site_fract_x
_atom_site_fract_y
_atom_site_fract_z
_atom_site_U_iso_or_equiv
_atom_site_adp_type
_atom_site_occupancy
_atom_site_site_symmetry_order
_atom_site_calc_flag
_atom_site_refinement_flags_posn
_atom_site_refinement_flags_adp
_atom_site_refinement_flags_occupancy
_atom_site_disorder_assembly
_atom_site_disorder_group
Br1 Br -0.19129(4) 0.17879(3) -0.05235(2) 0.06071(13) Uani 1 1 d . . . . .
N2 N 0.222(2) 0.317(2) 0.5219(13) 0.048(2) Uani 0.72(2) 1 d . . P A 1
O1 O 0.5253(19) 0.317(2) 0.4236(13) 0.0435(19) Uani 0.72(2) 1 d . . P A 1
N2B N 0.534(7) 0.322(7) 0.405(4) 0.046(4) Uani 0.28(2) 1 d . . P A 2
O1B O 0.220(4) 0.346(5) 0.517(2) 0.046(4) Uani 0.28(2) 1 d . . P A 2
C1 C 0.3300(3) 0.3797(3) 0.4240(2) 0.0442(5) Uani 1 1 d . . . . .
C2 C 0.3587(3) 0.2179(3) 0.58864(19) 0.0454(5) Uani 1 1 d . . . . .
C3 C 0.3331(5) 0.1246(4) 0.7001(2) 0.0677(7) Uani 1 1 d . . . . .
H3 H 0.207278 0.126443 0.743940 0.081 Uiso 1 1 calc R U . . .
C4 C 0.5038(6) 0.0288(3) 0.7426(3) 0.0732(9) Uani 1 1 d . . . . .
H4 H 0.491971 -0.035397 0.817026 0.088 Uiso 1 1 calc R U . . .
C5 C 0.6895(5) 0.0250(3) 0.6790(3) 0.0713(8) Uani 1 1 d . . . . .
H5 H 0.800111 -0.041689 0.711211 0.086 Uiso 1 1 calc R U . . .
C6 C 0.7169(4) 0.1176(3) 0.5683(3) 0.0608(7) Uani 1 1 d . . . . .
H6 H 0.843095 0.115677 0.524831 0.073 Uiso 1 1 calc R U . . .
C7 C 0.5461(3) 0.2131(3) 0.5259(2) 0.0420(5) Uani 1 1 d . . . . .
C8 C 0.2498(4) 0.4964(3) 0.3211(2) 0.0501(6) Uani 1 1 d . . . . .
H8A H 0.361344 0.547358 0.278646 0.060 Uiso 1 1 calc R U . . .
H8B H 0.152903 0.578401 0.355384 0.060 Uiso 1 1 calc R U . . .
C9 C 0.1460(3) 0.4162(2) 0.22856(19) 0.0405(5) Uani 1 1 d . . . . .
C10 C 0.2427(4) 0.3776(3) 0.1169(2) 0.0469(5) Uani 1 1 d . . . . .
H10 H 0.375165 0.400960 0.097364 0.056 Uiso 1 1 calc R U . . .
C11 C 0.1459(4) 0.3046(3) 0.0333(2) 0.0486(5) Uani 1 1 d . . . . .
H11 H 0.212103 0.279167 -0.041695 0.058 Uiso 1 1 calc R U . . .
C12 C -0.0498(3) 0.2706(2) 0.06343(19) 0.0430(5) Uani 1 1 d . . . . .
C13 C -0.1488(4) 0.3062(3) 0.1745(2) 0.0486(5) Uani 1 1 d . . . . .
H13 H -0.280681 0.281700 0.194166 0.058 Uiso 1 1 calc R U . . .
C14 C -0.0497(3) 0.3790(3) 0.2565(2) 0.0474(5) Uani 1 1 d . . . . .
H14 H -0.115929 0.403408 0.331705 0.057 Uiso 1 1 calc R U . . .
loop_
_atom_site_aniso_label
_atom_site_aniso_U_11
_atom_site_aniso_U_22
_atom_site_aniso_U_33
_atom_site_aniso_U_23
_atom_site_aniso_U_13
_atom_site_aniso_U_12
Br1 0.0762(2) 0.05821(17) 0.05314(17) -0.01404(11) -0.02345(12) -0.01147(12)
N2 0.036(3) 0.054(5) 0.055(4) -0.008(2) 0.001(2) -0.010(3)
O1 0.038(2) 0.055(3) 0.039(5) -0.009(3) 0.004(2) -0.0108(18)
N2B 0.049(7) 0.058(9) 0.030(8) -0.001(6) -0.009(6) -0.001(7)
O1B 0.049(6) 0.056(11) 0.032(6) -0.009(5) -0.013(4) 0.007(5)
C1 0.0467(13) 0.0460(12) 0.0439(13) -0.0155(10) -0.0110(10) -0.0074(10)
C2 0.0477(13) 0.0545(13) 0.0379(11) -0.0133(10) -0.0062(10) -0.0111(10)
C3 0.080(2) 0.0824(19) 0.0453(14) -0.0098(13) 0.0028(13) -0.0272(16)
C4 0.114(3) 0.0614(17) 0.0507(15) 0.0028(12) -0.0300(17) -0.0288(17)
C5 0.096(2) 0.0470(14) 0.0765(19) -0.0095(13) -0.0462(18) -0.0046(14)
C6 0.0528(15) 0.0580(15) 0.0738(17) -0.0168(13) -0.0165(13) 0.0002(12)
C7 0.0452(12) 0.0445(11) 0.0395(11) -0.0122(9) -0.0089(9) -0.0077(9)
C8 0.0551(14) 0.0456(12) 0.0524(13) -0.0067(10) -0.0142(11) -0.0098(10)
C9 0.0463(12) 0.0352(10) 0.0407(11) -0.0028(8) -0.0118(9) -0.0031(9)
C10 0.0423(12) 0.0495(12) 0.0489(13) -0.0024(10) -0.0045(10) -0.0067(10)
C11 0.0534(14) 0.0532(13) 0.0393(12) -0.0099(10) -0.0014(10) -0.0028(11)
C12 0.0520(13) 0.0381(11) 0.0402(11) -0.0047(9) -0.0149(10) -0.0032(9)
C13 0.0435(12) 0.0574(14) 0.0472(13) -0.0095(10) -0.0064(10) -0.0094(10)
C14 0.0477(13) 0.0561(13) 0.0399(11) -0.0117(10) -0.0020(10) -0.0066(10)
loop_
_atom_type_symbol
_atom_type_description
_atom_type_scat_dispersion_real
_atom_type_scat_dispersion_imag
_atom_type_scat_source
C C 0.0033 0.0016 'International Tables Vol C Tables 4.2.6.8 and 6.1.1.4'
H H 0.0000 0.0000 'International Tables Vol C Tables 4.2.6.8 and 6.1.1.4'
Br Br -0.2901 2.4595 'International Tables Vol C Tables 4.2.6.8 and 6.1.1.4'
N N 0.0061 0.0033 'International Tables Vol C Tables 4.2.6.8 and 6.1.1.4'
O O 0.0106 0.0060 'International Tables Vol C Tables 4.2.6.8 and 6.1.1.4'
loop_
_geom_angle_atom_site_label_1
_geom_angle_atom_site_label_2
_geom_angle_atom_site_label_3
_geom_angle
C1 N2 C2 105.6(9)
C1 O1 C7 106.8(7)
C1 N2B C7 96(2)
C1 O1B C2 102(2)
O1 C1 N2 111.4(8)
O1B C1 N2B 125(2)
O1B C1 C8 120.7(14)
O1 C1 C8 121.6(5)
N2 C1 C8 126.9(6)
N2B C1 C8 113.8(15)
N2 C2 C7 108.8(6)
N2 C2 C3 130.6(6)
C7 C2 C3 120.5(2)
C7 C2 O1B 106.0(11)
C3 C2 O1B 133.2(11)
C4 C3 C2 116.7(3)
C4 C3 H3 121.7
C2 C3 H3 121.7
C5 C4 C3 122.2(3)
C5 C4 H4 118.9
C3 C4 H4 118.9
C4 C5 C6 121.7(3)
C4 C5 H5 119.2
C6 C5 H5 119.2
C5 C6 C7 116.0(3)
C5 C6 H6 122.0
C7 C6 H6 122.0
O1 C7 C2 107.2(5)
O1 C7 C6 129.9(5)
C2 C7 C6 122.9(2)
C2 C7 N2B 110.6(16)
C6 C7 N2B 126.4(16)
C1 C8 C9 111.60(17)
C1 C8 H8A 109.3
C9 C8 H8A 109.3
C1 C8 H8B 109.3
C9 C8 H8B 109.3
H8A C8 H8B 108.0
C14 C9 C10 118.58(19)
C14 C9 C8 119.5(2)
C10 C9 C8 121.9(2)
C9 C10 C11 121.2(2)
C9 C10 H10 119.4
C11 C10 H10 119.4
C12 C11 C10 118.8(2)
C12 C11 H11 120.6
C10 C11 H11 120.6
C13 C12 C11 121.2(2)
C13 C12 Br1 118.94(17)
C11 C12 Br1 119.79(17)
C12 C13 C14 119.1(2)
C12 C13 H13 120.5
C14 C13 H13 120.5
C9 C14 C13 121.1(2)
C9 C14 H14 119.4
C13 C14 H14 119.4
loop_
_geom_bond_atom_site_label_1
_geom_bond_atom_site_label_2
_geom_bond_distance
Br1 C12 1.905(2)
N2 C1 1.339(14)
N2 C2 1.347(15)
O1 C1 1.332(13)
O1 C7 1.349(12)
N2B C1 1.38(4)
N2B C7 1.52(4)
O1B C1 1.24(3)
O1B C2 1.51(3)
C1 C8 1.490(3)
C2 C7 1.372(3)
C2 C3 1.387(3)
C3 C4 1.380(4)
C3 H3 0.9300
C4 C5 1.367(5)
C4 H4 0.9300
C5 C6 1.379(4)
C5 H5 0.9300
C6 C7 1.380(3)
C6 H6 0.9300
C8 C9 1.520(3)
C8 H8A 0.9700
C8 H8B 0.9700
C9 C14 1.380(3)
C9 C10 1.382(3)
C10 C11 1.386(3)
C10 H10 0.9300
C11 C12 1.375(3)
C11 H11 0.9300
C12 C13 1.375(3)
C13 C14 1.382(3)
C13 H13 0.9300
C14 H14 0.9300
