#------------------------------------------------------------------------------
#$Date: 2017-05-18 04:33:55 +0300 (Thu, 18 May 2017) $
#$Revision: 196711 $
#$URL: file:///home/coder/svn-repositories/cod/cif/1/54/60/1546048.cif $
#------------------------------------------------------------------------------
#
# This file is available in the Crystallography Open Database (COD),
# http://www.crystallography.net/
#
# All data on this site have been placed in the public domain by the
# contributors.
#
data_1546048
loop_
_publ_author_name
'Shtukenberg, Alexander G.'
'Zhu, Qiang'
'Carter, Damien J.'
'Vogt, Leslie'
'Hoja, Johannes'
'Schneider, Elia'
'Song, Hongxing'
'Pokroy, Boaz'
'Polishchuk, Iryna'
'Tkatchenko, Alexandre'
'Oganov, Artem R.'
'Rohl, Andrew L.'
'Tuckerman, Mark E.'
'Kahr, Bart'
_publ_section_title
;
 Powder diffraction and crystal structure prediction identify four new
 coumarin polymorphs
;
_journal_name_full               'Chem. Sci.'
_journal_paper_doi               10.1039/C7SC00168A
_journal_year                    2017
_chemical_formula_moiety         'C9 H6 O2'
_chemical_formula_sum            'C9 H6 O2'
_chemical_formula_weight         146.15
_chemical_melting_point          339.35
_chemical_name_common            coumarin
_chemical_name_systematic        2H-chromene-2-one
_space_group_IT_number           4
_symmetry_cell_setting           monoclinic
_symmetry_space_group_name_Hall  'P 2yb'
_symmetry_space_group_name_H-M   'P 1 21 1'
_audit_update_record
;
2017-04-07 deposited with the CCDC.
2017-05-03 downloaded from the CCDC.
;
_cell_angle_alpha                90.00000
_cell_angle_beta                 94.237(5)
_cell_angle_gamma                90.00000
_cell_formula_units_Z            2
_cell_length_a                   3.97954(16)
_cell_length_b                   15.2907(3)
_cell_length_c                   5.8583(2)
_cell_measurement_temperature    298
_cell_volume                     355.50(2)
_computing_structure_refinement  FULLPROF
_diffrn_ambient_temperature      298
_diffrn_measurement_device_type  'powder diffractometer at ESRF ID22 beamline'
_diffrn_radiation_monochromator  'monochromator at ESRF ID22 beamline'
_diffrn_radiation_probe          x-ray
_diffrn_radiation_wavelength     0.410639
_diffrn_source_type              synchrotron
_exptl_absorpt_correction_type   none
_exptl_crystal_colour            white
_exptl_crystal_description       powder
_exptl_crystal_F_000             152
_exptl_crystal_recrystallization_method 'From the Melt'
_pd_meas_2theta_range_inc        0.002000
_pd_meas_2theta_range_max        42.000000
_pd_meas_2theta_range_min        0.002000
_pd_proc_2theta_range_inc        0.002000
_pd_proc_2theta_range_max        16.00000
_pd_proc_2theta_range_min        2.50000
_pd_proc_ls_pref_orient_corr     none
_pd_proc_ls_prof_R_factor        6.97
_pd_proc_ls_prof_wR_expected     6.49
_pd_proc_ls_prof_wR_factor       9.67
_pd_proc_number_of_points        6751
_pd_spec_mounting                '1.0 mm glass capillary'
_pd_spec_mount_mode              transmission
_pd_spec_shape                   cylinder
_pd_spec_size_equat              1.0
_pd_spec_size_thick              1.0
_refine_ls_extinction_method     none
_refine_ls_goodness_of_fit_all   1.49
_refine_ls_matrix_type           fullcycle
_refine_ls_number_constraints    0
_refine_ls_number_parameters     29
_refine_ls_number_restraints     0
_refine_ls_R_I_factor            11.96
_refine_ls_weighting_scheme      sigma
_cod_data_source_file            c7sc00168a2.cif
_cod_data_source_block           coumarin_II_RT
_cod_depositor_comments
;
The following automatic conversions were performed:

'_symmetry_cell_setting' value 'Monoclinic' changed to 'monoclinic'
according to
/home/data/users/saulius/crontab/automatic-downloads/rss-feeds/RSC/lib/dictionaries/cif_core.dic
dictionary named 'cif_core.dic' version 2.4.2 from 2011-04-26.

Automatic conversion script
Id: cif_fix_values 4973 2017-02-22 13:04:09Z antanas 
;
_cod_database_code               1546048
loop_
_symmetry_equiv_pos_as_xyz
x,y,z
-x,y+1/2,-z
loop_
_atom_site_label
_atom_site_fract_x
_atom_site_fract_y
_atom_site_fract_z
_atom_site_U_iso_or_equiv
_atom_site_occupancy
_atom_site_adp_type
_atom_site_type_symbol
C1 -0.49353 0.06855 -0.13549 0.00000 1.00000 Uiso C
C2 -0.31819 0.01582 0.02087 0.00000 1.00000 Uiso C
C3 -0.62077 0.03863 -0.36143 0.00000 1.00000 Uiso C
C4 -0.25156 -0.07198 -0.04258 0.00000 1.00000 Uiso C
C5 -0.37337 -0.10018 -0.26922 0.00000 1.00000 Uiso C
C6 -0.07342 -0.13129 0.11008 0.00000 1.00000 Uiso C
C7 -0.31672 -0.18491 -0.34087 0.00000 1.00000 Uiso C
C8 -0.02001 -0.21502 0.03945 0.00000 1.00000 Uiso C
C9 -0.13895 -0.24163 -0.18669 0.00000 1.00000 Uiso C
O1 -0.54799 -0.04631 -0.41711 0.00000 1.00000 Uiso O
O2 -0.79176 0.08150 -0.50935 0.00000 1.00000 Uiso O
H1 -0.54692 0.13451 -0.08388 0.00000 1.00000 Uiso H
H2 -0.22477 0.03860 0.19404 0.00000 1.00000 Uiso H
H3 0.02468 -0.11041 0.28369 0.00000 1.00000 Uiso H
H4 -0.41353 -0.20579 -0.51447 0.00000 1.00000 Uiso H
H5 0.11522 -0.26000 0.16007 0.00000 1.00000 Uiso H
H6 -0.09125 -0.30676 -0.24337 0.00000 1.00000 Uiso H
loop_
_geom_angle_atom_site_label_1
_geom_angle_atom_site_label_2
_geom_angle_atom_site_label_3
_geom_angle
C2 C1 C3 123.24
C2 C1 H1 117.61
C3 C1 H1 119.10
C1 C2 C4 118.39
C1 C2 H2 123.04
C4 C2 H2 118.57
C1 C3 O1 116.57
C1 C3 O2 126.99
O1 C3 O2 116.43
C2 C4 C5 117.72
C2 C4 C6 122.01
C5 C4 C6 120.28
C4 C5 C7 120.42
C4 C5 O1 121.96
C7 C5 O1 117.62
C4 C6 C8 119.16
C4 C6 H3 121.15
C8 C6 H3 119.68
C5 C7 C9 117.90
C5 C7 H4 119.63
C9 C7 H4 122.47
C6 C8 C9 119.86
C6 C8 H5 118.14
C9 C8 H5 122.00
C7 C9 C8 122.38
C7 C9 H6 117.84
C8 C9 H6 119.79
C3 O1 C5 122.10
loop_
_geom_bond_atom_site_label_1
_geom_bond_atom_site_label_2
_geom_bond_distance
C1 C2 1.3717
C1 C3 1.4556
C1 H1 1.0786
C2 C4 1.4232
C2 H2 1.1104
C3 O1 1.3752
C3 O2 1.2476
C4 C5 1.4452
C4 C6 1.4252
C5 C7 1.3855
C5 O1 1.3502
C6 C8 1.3669
C6 H3 1.1091
C7 C9 1.4050
C7 H4 1.1076
C8 C9 1.4325
C8 H5 1.0981
C9 H6 1.0712
loop_
_pd_proc_point_id
_pd_proc_2theta_corrected
_pd_proc_intensity_total
_pd_calc_intensity_total
_pd_proc_intensity_bkg_calc
1 2.5000 341(18) 331.8855 331.8855
2 2.5020 351(19) 331.9763 331.9763
3 2.5040 356(19) 332.0670 332.0670
4 2.5060 335(18) 332.1573 332.1573
5 2.5080 345(19) 332.2473 332.2473
6 2.5100 351(19) 332.3371 332.3371
7 2.5120 352(19) 332.4264 332.4264
8 2.5140 348(19) 332.5156 332.5156
9 2.5160 368(19) 332.6045 332.6045
10 2.5180 351(19) 332.6929 332.6929
11 2.5200 348(19) 332.7812 332.7812
12 2.5220 327(18) 332.8692 332.8692
13 2.5240 353(19) 332.9568 332.9568
14 2.5260 340(18) 333.0441 333.0441
15 2.5280 349(19) 333.1312 333.1312
16 2.5300 344(19) 333.2180 333.2180
17 2.5320 336(18) 333.3045 333.3045
18 2.5340 345(19) 333.3906 333.3906
19 2.5360 342(18) 333.4767 333.4767
20 2.5380 364(19) 333.5623 333.5623
21 2.5400 332(18) 333.6476 333.6476
22 2.5420 344(19) 333.7326 333.7326
23 2.5440 350(19) 333.8174 333.8174
24 2.5460 365(19) 333.9017 333.9017
25 2.5480 333(18) 333.9860 333.9860
26 2.5500 348(19) 334.0699 334.0699
27 2.5520 335(18) 334.1534 334.1534
28 2.5540 351(19) 334.2368 334.2368
29 2.5560 360(19) 334.3198 334.3198
30 2.5580 351(19) 334.4025 334.4025
31 2.5600 350(19) 334.4850 334.4850
32 2.5620 363(19) 334.5671 334.5671
33 2.5640 361(19) 334.6489 334.6489
34 2.5660 349(19) 334.7305 334.7305
35 2.5680 340(18) 334.8118 334.8118
36 2.5700 333(18) 334.8929 334.8929
37 2.5720 353(19) 334.9735 334.9735
38 2.5740 344(19) 335.0540 335.0540
39 2.5760 345(19) 335.1341 335.1341
40 2.5780 355(19) 335.2140 335.2140
41 2.5800 349(19) 335.2935 335.2935
42 2.5820 353(19) 335.3728 335.3728
43 2.5840 356(19) 335.4519 335.4519
44 2.5860 348(19) 335.5306 335.5306
45 2.5880 339(18) 335.6091 335.6091
46 2.5900 347(19) 335.6872 335.6872
47 2.5920 360(19) 335.7651 335.7651
48 2.5940 353(19) 335.8427 335.8427
49 2.5960 357(19) 335.9200 335.9200
50 2.5980 348(19) 335.9970 335.9970
51 2.6000 353(19) 336.0738 336.0738
52 2.6020 353(19) 336.1502 336.1502
53 2.6040 354(19) 336.2265 336.2265
54 2.6060 365(19) 336.3024 336.3024
55 2.6080 352(19) 336.3780 336.3780
56 2.6100 342(18) 336.4533 336.4533
57 2.6120 349(19) 336.5284 336.5284
58 2.6140 342(18) 336.6032 336.6032
59 2.6160 343(19) 336.6777 336.6777
60 2.6180 341(18) 336.7519 336.7519
61 2.6200 356(19) 336.8259 336.8259
62 2.6220 335(18) 336.8996 336.8996
63 2.6240 342(19) 336.9729 336.9729
64 2.6260 355(19) 337.0461 337.0461
65 2.6280 368(19) 337.1189 337.1189
66 2.6300 368(19) 337.1915 337.1915
67 2.6320 330(18) 337.2637 337.2637
68 2.6340 351(19) 337.3358 337.3358
69 2.6360 362(19) 337.4074 337.4074
70 2.6380 357(19) 337.4790 337.4790
71 2.6400 342(18) 337.5501 337.5501
72 2.6420 346(19) 337.6210 337.6210
73 2.6440 365(19) 337.6916 337.6916
74 2.6460 349(19) 337.7620 337.7620
75 2.6480 363(19) 337.8322 337.8322
76 2.6500 342(18) 337.9019 337.9019
77 2.6520 381(20) 337.9714 337.9714
78 2.6540 328(18) 338.0407 338.0407
79 2.6560 349(19) 338.1096 338.1096
80 2.6580 361(19) 338.1784 338.1784
81 2.6600 347(19) 338.2469 338.2469
82 2.6620 345(19) 338.3149 338.3149
83 2.6640 358(19) 338.3829 338.3829
84 2.6660 373(19) 338.4505 338.4505
85 2.6680 348(19) 338.5178 338.5178
86 2.6700 331(18) 338.5849 338.5849
87 2.6720 332(18) 338.6517 338.6517
88 2.6740 356(19) 338.7182 338.7182
89 2.6760 338(18) 338.7845 338.7845
90 2.6780 340(18) 338.8504 338.8504
91 2.6800 354(19) 338.9162 338.9162
92 2.6820 351(19) 338.9817 338.9817
93 2.6840 333(18) 339.0468 339.0468
94 2.6860 348(19) 339.1118 339.1118
95 2.6880 341(18) 339.1765 339.1765
96 2.6900 343(19) 339.2407 339.2407
97 2.6920 335(18) 339.3049 339.3049
98 2.6940 345(19) 339.3687 339.3687
99 2.6960 344(19) 339.4323 339.4323
100 2.6980 349(19) 339.4956 339.4956
101 2.7000 369(19) 339.5585 339.5585
102 2.7020 342(18) 339.6215 339.6215
103 2.7040 346(19) 339.6839 339.6839
104 2.7060 351(19) 339.7462 339.7462
105 2.7080 348(19) 339.8082 339.8082
106 2.7100 345(19) 339.8698 339.8698
107 2.7120 338(18) 339.9312 339.9312
108 2.7140 338(18) 339.9924 339.9924
109 2.7160 371(19) 340.0533 340.0533
110 2.7180 355(19) 340.1140 340.1140
111 2.7200 338(18) 340.1743 340.1743
112 2.7220 348(19) 340.2345 340.2345
113 2.7240 358(19) 340.2943 340.2943
114 2.7260 358(19) 340.3539 340.3539
115 2.7280 341(18) 340.4132 340.4132
116 2.7300 333(18) 340.4723 340.4723
117 2.7320 364(19) 340.5312 340.5312
118 2.7340 349(19) 340.5896 340.5896
119 2.7360 354(19) 340.6479 340.6479
120 2.7380 337(18) 340.7059 340.7059
121 2.7400 346(19) 340.7637 340.7637
122 2.7420 360(19) 340.8212 340.8212
123 2.7440 342(18) 340.8784 340.8784
124 2.7460 358(19) 340.9353 340.9353
125 2.7480 346(19) 340.9920 340.9920
126 2.7500 335(18) 341.0485 341.0485
127 2.7520 352(19) 341.1047 341.1047
128 2.7540 358(19) 341.1606 341.1606
129 2.7560 341(18) 341.2162 341.2162
130 2.7580 349(19) 341.2716 341.2716
131 2.7600 331(18) 341.3268 341.3268
132 2.7620 335(18) 341.3817 341.3817
133 2.7640 346(19) 341.4363 341.4363
134 2.7660 343(19) 341.4907 341.4907
135 2.7680 354(19) 341.5448 341.5448
136 2.7700 347(19) 341.5988 341.5988
137 2.7720 355(19) 341.6523 341.6523
138 2.7740 328(18) 341.7056 341.7056
139 2.7760 340(18) 341.7587 341.7587
140 2.7780 344(19) 341.8115 341.8115
141 2.7800 334(18) 341.8642 341.8642
142 2.7820 324(18) 341.9164 341.9164
143 2.7840 353(19) 341.9685 341.9685
144 2.7860 353(19) 342.0203 342.0203
145 2.7880 345(19) 342.0719 342.0719
146 2.7900 339(18) 342.1232 342.1232
147 2.7920 334(18) 342.1742 342.1742
148 2.7940 327(18) 342.2249 342.2249
149 2.7960 344(19) 342.2755 342.2755
150 2.7980 353(19) 342.3258 342.3258
151 2.8000 361(19) 342.3758 342.3758
152 2.8020 344(19) 342.4256 342.4256
153 2.8040 343(19) 342.4751 342.4751
154 2.8060 363(19) 342.5244 342.5244
155 2.8080 347(19) 342.5734 342.5734
156 2.8100 342(18) 342.6221 342.6221
157 2.8120 336(18) 342.6707 342.6707
158 2.8140 343(19) 342.7190 342.7190
159 2.8160 334(18) 342.7669 342.7669
160 2.8180 342(18) 342.8147 342.8147
161 2.8200 363(19) 342.8623 342.8623
162 2.8220 334(18) 342.9095 342.9095
163 2.8240 328(18) 342.9565 342.9565
164 2.8260 344(19) 343.0032 343.0032
165 2.8280 344(19) 343.0498 343.0498
166 2.8300 364(19) 343.0960 343.0960
167 2.8320 340(18) 343.1420 343.1420
168 2.8340 339(18) 343.1879 343.1879
169 2.8360 343(19) 343.2333 343.2333
170 2.8380 327(18) 343.2785 343.2785
171 2.8400 341(18) 343.3235 343.3235
172 2.8420 368(19) 343.3684 343.3684
173 2.8440 365(19) 343.4129 343.4129
174 2.8460 344(19) 343.4572 343.4572
175 2.8480 342(18) 343.5013 343.5013
176 2.8500 351(19) 343.5450 343.5450
177 2.8520 362(19) 343.5885 343.5885
178 2.8540 328(18) 343.6318 343.6318
179 2.8560 336(18) 343.6749 343.6749
180 2.8580 357(19) 343.7177 343.7177
181 2.8600 354(19) 343.7602 343.7602
182 2.8620 355(19) 343.8025 343.8025
183 2.8640 364(19) 343.8446 343.8446
184 2.8660 341(18) 343.8863 343.8863
185 2.8680 352(19) 343.9280 343.9280
186 2.8700 363(19) 343.9693 343.9693
187 2.8720 343(19) 344.0104 344.0104
188 2.8740 336(18) 344.0512 344.0512
189 2.8760 352(19) 344.0918 344.0918
190 2.8780 346(19) 344.1322 344.1322
191 2.8800 343(19) 344.1723 344.1723
192 2.8820 347(19) 344.2121 344.2121
193 2.8840 352(19) 344.2517 344.2517
194 2.8860 360(19) 344.2912 344.2912
195 2.8880 334(18) 344.3303 344.3303
196 2.8900 344(19) 344.3692 344.3692
197 2.8920 340(18) 344.4079 344.4079
198 2.8940 368(19) 344.4464 344.4464
199 2.8960 354(19) 344.4846 344.4846
200 2.8980 361(19) 344.5225 344.5225
201 2.9000 334(18) 344.5602 344.5602
202 2.9020 338(18) 344.5976 344.5976
203 2.9040 348(19) 344.6349 344.6349
204 2.9060 351(19) 344.6719 344.6719
205 2.9080 344(19) 344.7086 344.7086
206 2.9100 344(19) 344.7451 344.7451
207 2.9120 345(19) 344.7813 344.7813
208 2.9140 356(19) 344.8174 344.8174
209 2.9160 353(19) 344.8532 344.8532
210 2.9180 352(19) 344.8888 344.8888
211 2.9200 337(18) 344.9241 344.9241
212 2.9220 362(19) 344.9592 344.9592
213 2.9240 366(19) 344.9940 344.9940
214 2.9260 354(19) 345.0286 345.0286
215 2.9280 349(19) 345.0630 345.0630
216 2.9300 358(19) 345.0971 345.0971
217 2.9320 329(18) 345.1310 345.1310
218 2.9340 325(18) 345.1647 345.1647
219 2.9360 366(19) 345.1982 345.1982
220 2.9380 359(19) 345.2313 345.2313
221 2.9400 358(19) 345.2643 345.2643
222 2.9420 336(18) 345.2971 345.2971
223 2.9440 359(19) 345.3295 345.3295
224 2.9460 346(19) 345.3618 345.3618
225 2.9480 328(18) 345.3938 345.3938
226 2.9500 344(19) 345.4255 345.4255
227 2.9520 354(19) 345.4572 345.4572
228 2.9540 338(18) 345.4885 345.4885
229 2.9560 358(19) 345.5196 345.5196
230 2.9580 335(18) 345.5504 345.5504
231 2.9600 374(19) 345.5811 345.5811
232 2.9620 348(19) 345.6115 345.6115
233 2.9640 340(18) 345.6417 345.6417
234 2.9660 337(18) 345.6716 345.6716
235 2.9680 354(19) 345.7013 345.7013
236 2.9700 352(19) 345.7307 345.7307
237 2.9720 347(19) 345.7600 345.7600
238 2.9740 354(19) 346.2568 345.7891
239 2.9760 358(19) 346.3203 345.8178
240 2.9780 343(19) 346.3877 345.8464
241 2.9800 351(19) 346.4594 345.8747
242 2.9820 357(19) 346.5364 345.9028
243 2.9840 361(19) 346.6196 345.9307
244 2.9860 359(19) 346.7100 345.9583
245 2.9880 344(19) 346.8091 345.9857
246 2.9900 370(19) 346.9189 346.0130
247 2.9920 367(19) 347.0414 346.0399
248 2.9940 350(19) 347.1795 346.0666
249 2.9960 366(19) 347.3371 346.0931
250 2.9980 364(19) 347.5189 346.1194
251 3.0000 353(19) 368.6002 346.1454
252 3.0020 318(18) 369.9643 346.1713
253 3.0040 378(19) 371.4708 346.1968
254 3.0060 349(19) 373.1473 346.2222
255 3.0080 344(19) 375.0294 346.2474
256 3.0100 347(19) 377.1673 346.2723
257 3.0120 366(19) 379.6313 346.2970
258 3.0140 368(19) 382.5266 346.3215
259 3.0160 383(20) 386.0199 346.3457
260 3.0180 379(19) 390.3882 346.3697
261 3.0200 382(20) 396.1268 346.3935
262 3.0220 360(19) 404.1924 346.4171
263 3.0240 398(20) 416.5565 346.4404
264 3.0260 428(21) 437.3438 346.4636
265 3.0280 446(21) 472.7728 346.4865
266 3.0300 471(22) 511.9806 346.5092
267 3.0320 458(21) 504.4452 346.5316
268 3.0340 466(22) 471.9276 346.5538
269 3.0360 429(21) 453.4085 346.5758
270 3.0380 438(21) 447.5179 346.5976
271 3.0400 433(21) 448.7485 346.6192
272 3.0420 431(21) 454.3795 346.6405
273 3.0440 439(21) 463.3506 346.6616
274 3.0460 449(21) 475.4180 346.6826
275 3.0480 455(21) 490.8136 346.7032
276 3.0500 490(22) 510.1278 346.7237
277 3.0520 521(23) 534.3395 346.7439
278 3.0540 533(23) 564.9043 346.7639
279 3.0560 644(25) 603.9895 346.7838
280 3.0580 720(27) 654.8293 346.8034
281 3.0600 819(29) 722.4443 346.8227
282 3.0620 1016(32) 815.2527 346.8419
283 3.0640 1316(36) 948.9530 346.8608
284 3.0660 1690(41) 1155.7329 346.8795
285 3.0680 2380(49) 1500.6775 346.8980
286 3.0700 3332(58) 2096.8308 346.9163
287 3.0720 4728(69) 3092.5547 346.9343
288 3.0740 6112(78) 4579.2324 346.9522
289 3.0760 7574(87) 6260.4985 346.9698
290 3.0780 7748(88) 6943.9048 346.9872
291 3.0800 7166(85) 5855.6338 347.0045
292 3.0820 5509(74) 4149.5352 347.0213
293 3.0840 3983(63) 2787.2112 347.0381
294 3.0860 2877(54) 1909.2911 347.0547
295 3.0880 2101(46) 1391.8821 347.0710
296 3.0900 1547(39) 1091.0908 347.0872
297 3.0920 1239(35) 907.7799 347.1030
298 3.0940 980(31) 786.7582 347.1187
299 3.0960 828(29) 701.4279 347.1342
300 3.0980 683(26) 638.5616 347.1494
301 3.1000 589(24) 590.8763 347.1644
302 3.1020 556(24) 553.8755 347.1793
303 3.1040 516(23) 524.6246 347.1939
304 3.1060 474(22) 501.1240 347.2083
305 3.1080 422(21) 481.9678 347.2225
306 3.1100 429(21) 466.1576 347.2365
307 3.1120 392(20) 452.9638 347.2502
308 3.1140 413(20) 441.8406 347.2638
309 3.1160 403(20) 432.3800 347.2772
310 3.1180 386(20) 424.2690 347.2903
311 3.1200 371(19) 417.2631 347.3031
312 3.1220 376(19) 411.1707 347.3158
313 3.1240 372(19) 405.8410 347.3283
314 3.1260 369(19) 401.1529 347.3405
315 3.1280 376(19) 397.0070 347.3527
316 3.1300 357(19) 393.3233 347.3645
317 3.1320 345(19) 390.0366 347.3762
318 3.1340 360(19) 387.0912 347.3876
319 3.1360 349(19) 384.4419 347.3988
320 3.1380 373(19) 382.0510 347.4099
321 3.1400 346(19) 379.8854 347.4207
322 3.1420 346(19) 377.9183 347.4313
323 3.1440 372(19) 376.1258 347.4417
324 3.1460 346(19) 374.4884 347.4519
325 3.1480 353(19) 372.9883 347.4618
326 3.1500 370(19) 371.6110 347.4717
327 3.1520 334(18) 370.3434 347.4812
328 3.1540 356(19) 369.1742 347.4906
329 3.1560 359(19) 368.0934 347.4997
330 3.1580 347(19) 347.5086 347.5086
331 3.1600 347(19) 347.5174 347.5174
332 3.1620 332(18) 347.5259 347.5259
333 3.1640 354(19) 347.5342 347.5342
334 3.1660 358(19) 347.5423 347.5423
335 3.1680 338(18) 347.5503 347.5503
336 3.1700 341(18) 347.5580 347.5580
337 3.1720 354(19) 347.5654 347.5654
338 3.1740 351(19) 347.5728 347.5728
339 3.1760 367(19) 347.5798 347.5798
340 3.1780 349(19) 347.5867 347.5867
341 3.1800 343(19) 347.5934 347.5934
342 3.1820 340(18) 347.5999 347.5999
343 3.1840 351(19) 347.6062 347.6062
344 3.1860 354(19) 347.6122 347.6122
345 3.1880 360(19) 347.6181 347.6181
346 3.1900 345(19) 347.6238 347.6238
347 3.1920 342(19) 347.6293 347.6293
348 3.1940 332(18) 347.6346 347.6346
349 3.1960 361(19) 347.6396 347.6396
350 3.1980 348(19) 347.6445 347.6445
351 3.2000 358(19) 347.6491 347.6491
352 3.2020 338(18) 347.6536 347.6536
353 3.2040 361(19) 347.6578 347.6578
354 3.2060 312(18) 347.6619 347.6619
355 3.2080 351(19) 347.6657 347.6657
356 3.2100 339(18) 347.6694 347.6694
357 3.2120 368(19) 347.6729 347.6729
358 3.2140 363(19) 347.6761 347.6761
359 3.2160 345(19) 347.6791 347.6791
360 3.2180 363(19) 347.6819 347.6819
361 3.2200 347(19) 347.6846 347.6846
362 3.2220 356(19) 347.6871 347.6871
363 3.2240 342(18) 347.6893 347.6893
364 3.2260 368(19) 347.6914 347.6914
365 3.2280 342(18) 347.6933 347.6933
366 3.2300 353(19) 347.6949 347.6949
367 3.2320 348(19) 347.6964 347.6964
368 3.2340 361(19) 347.6977 347.6977
369 3.2360 338(18) 347.6987 347.6987
370 3.2380 364(19) 347.6996 347.6996
371 3.2400 361(19) 347.7003 347.7003
372 3.2420 358(19) 347.7007 347.7007
373 3.2440 349(19) 347.7010 347.7010
374 3.2460 358(19) 347.7011 347.7011
375 3.2480 336(18) 347.7010 347.7010
376 3.2500 362(19) 347.7007 347.7007
377 3.2520 345(19) 347.7002 347.7002
378 3.2540 358(19) 347.6995 347.6995
379 3.2560 348(19) 347.6986 347.6986
380 3.2580 343(19) 347.6975 347.6975
381 3.2600 339(18) 347.6964 347.6964
382 3.2620 342(18) 347.6948 347.6948
383 3.2640 353(19) 347.6931 347.6931
384 3.2660 306(18) 347.6913 347.6913
385 3.2680 349(19) 347.6892 347.6892
386 3.2700 345(19) 347.6870 347.6870
387 3.2720 341(18) 347.6846 347.6846
388 3.2740 348(19) 347.6819 347.6819
389 3.2760 348(19) 347.6791 347.6791
390 3.2780 329(18) 347.6761 347.6761
391 3.2800 354(19) 347.6728 347.6728
392 3.2820 357(19) 347.6695 347.6695
393 3.2840 343(19) 347.6659 347.6659
394 3.2860 353(19) 347.6621 347.6621
395 3.2880 362(19) 347.6581 347.6581
396 3.2900 344(19) 347.6539 347.6539
397 3.2920 345(19) 347.6495 347.6495
398 3.2940 342(18) 347.6451 347.6451
399 3.2960 346(19) 347.6403 347.6403
400 3.2980 371(19) 347.6354 347.6354
401 3.3000 356(19) 347.6302 347.6302
402 3.3020 338(18) 347.6249 347.6249
403 3.3040 363(19) 347.6194 347.6194
404 3.3060 335(18) 347.6138 347.6138
405 3.3080 338(18) 347.6079 347.6079
406 3.3100 354(19) 347.6019 347.6019
407 3.3120 359(19) 347.5956 347.5956
408 3.3140 340(18) 347.5891 347.5891
409 3.3160 356(19) 347.5826 347.5826
410 3.3180 351(19) 347.5757 347.5757
411 3.3200 356(19) 347.5688 347.5688
412 3.3220 338(18) 347.5616 347.5616
413 3.3240 336(18) 347.5541 347.5541
414 3.3260 359(19) 347.5466 347.5466
415 3.3280 359(19) 347.5389 347.5389
416 3.3300 344(19) 347.5309 347.5309
417 3.3320 342(18) 347.5228 347.5228
418 3.3340 337(18) 347.5145 347.5145
419 3.3360 340(18) 347.5061 347.5061
420 3.3380 333(18) 347.4974 347.4974
421 3.3400 345(19) 347.4885 347.4885
422 3.3420 343(19) 347.4794 347.4794
423 3.3440 327(18) 347.4702 347.4702
424 3.3460 357(19) 347.4608 347.4608
425 3.3480 340(18) 347.4512 347.4512
426 3.3500 339(18) 347.4414 347.4414
427 3.3520 360(19) 347.4315 347.4315
428 3.3540 335(18) 347.4213 347.4213
429 3.3560 338(18) 347.4110 347.4110
430 3.3580 342(18) 347.4005 347.4005
431 3.3600 336(18) 347.3898 347.3898
432 3.3620 331(18) 347.3789 347.3789
433 3.3640 349(19) 347.3679 347.3679
434 3.3660 328(18) 347.3566 347.3566
435 3.3680 345(19) 347.3452 347.3452
436 3.3700 329(18) 347.3336 347.3336
437 3.3720 349(19) 347.3218 347.3218
438 3.3740 338(18) 347.3099 347.3099
439 3.3760 340(18) 347.2977 347.2977
440 3.3780 336(18) 347.2854 347.2854
441 3.3800 334(18) 347.2728 347.2728
442 3.3820 332(18) 347.2602 347.2602
443 3.3840 342(18) 347.2473 347.2473
444 3.3860 347(19) 347.2343 347.2343
445 3.3880 333(18) 347.2210 347.2210
446 3.3900 361(19) 347.2076 347.2076
447 3.3920 336(18) 347.1940 347.1940
448 3.3940 342(18) 347.1803 347.1803
449 3.3960 344(19) 347.1664 347.1664
450 3.3980 332(18) 347.1522 347.1522
451 3.4000 320(18) 347.1379 347.1379
452 3.4020 343(19) 347.1235 347.1235
453 3.4040 332(18) 347.1088 347.1088
454 3.4060 339(18) 347.0939 347.0939
455 3.4080 350(19) 347.0790 347.0790
456 3.4100 339(18) 347.0638 347.0638
457 3.4120 340(18) 347.0483 347.0483
458 3.4140 333(18) 347.0328 347.0328
459 3.4160 339(18) 347.0171 347.0171
460 3.4180 346(19) 347.0013 347.0013
461 3.4200 343(19) 346.9852 346.9852
462 3.4220 344(19) 346.9689 346.9689
463 3.4240 328(18) 346.9525 346.9525
464 3.4260 337(18) 346.9360 346.9360
465 3.4280 346(19) 346.9191 346.9191
466 3.4300 336(18) 346.9022 346.9022
467 3.4320 329(18) 346.8851 346.8851
468 3.4340 338(18) 346.8679 346.8679
469 3.4360 358(19) 346.8504 346.8504
470 3.4380 348(19) 346.8328 346.8328
471 3.4400 357(19) 346.8149 346.8149
472 3.4420 351(19) 346.7969 346.7969
473 3.4440 358(19) 346.7788 346.7788
474 3.4460 360(19) 346.7604 346.7604
475 3.4480 371(19) 346.7419 346.7419
476 3.4500 384(20) 346.7233 346.7233
477 3.4520 369(19) 346.7044 346.7044
478 3.4540 345(19) 346.6854 346.6854
479 3.4560 366(19) 346.6663 346.6663
480 3.4580 367(19) 346.6469 346.6469
481 3.4600 329(18) 346.6274 346.6274
482 3.4620 320(18) 346.6076 346.6076
483 3.4640 353(19) 346.5877 346.5877
484 3.4660 346(19) 346.5677 346.5677
485 3.4680 339(18) 346.5475 346.5475
486 3.4700 329(18) 346.5272 346.5272
487 3.4720 332(18) 346.5066 346.5066
488 3.4740 337(18) 346.4858 346.4858
489 3.4760 327(18) 346.4650 346.4650
490 3.4780 325(18) 346.4439 346.4439
491 3.4800 323(18) 346.4227 346.4227
492 3.4820 330(18) 346.4013 346.4013
493 3.4840 329(18) 346.3796 346.3796
494 3.4860 354(19) 346.3580 346.3580
495 3.4880 337(18) 346.3361 346.3361
496 3.4900 341(18) 346.3139 346.3139
497 3.4920 315(18) 346.2918 346.2918
498 3.4940 336(18) 346.2693 346.2693
499 3.4960 332(18) 346.2468 346.2468
500 3.4980 331(18) 346.2241 346.2241
501 3.5000 321(18) 346.2011 346.2011
502 3.5020 326(18) 346.1780 346.1780
503 3.5040 333(18) 346.1548 346.1548
504 3.5060 330(18) 346.1313 346.1313
505 3.5080 337(18) 346.1078 346.1078
506 3.5100 341(18) 346.0841 346.0841
507 3.5120 336(18) 346.0601 346.0601
508 3.5140 326(18) 346.0361 346.0361
509 3.5160 341(18) 346.0119 346.0119
510 3.5180 341(18) 345.9874 345.9874
511 3.5200 330(18) 345.9629 345.9629
512 3.5220 308(18) 345.9381 345.9381
513 3.5240 331(18) 345.9133 345.9133
514 3.5260 325(18) 345.8882 345.8882
515 3.5280 317(18) 345.8630 345.8630
516 3.5300 299(17) 345.8376 345.8376
517 3.5320 331(18) 345.8121 345.8121
518 3.5340 336(18) 345.7863 345.7863
519 3.5360 329(18) 345.7605 345.7605
520 3.5380 324(18) 345.7345 345.7345
521 3.5400 341(18) 345.7083 345.7083
522 3.5420 330(18) 345.6819 345.6819
523 3.5440 319(18) 345.6554 345.6554
524 3.5460 335(18) 345.6287 345.6287
525 3.5480 339(18) 345.6018 345.6018
526 3.5500 321(18) 345.5748 345.5748
527 3.5520 325(18) 345.5477 345.5477
528 3.5540 337(18) 345.5203 345.5203
529 3.5560 339(18) 345.4929 345.4929
530 3.5580 327(18) 345.4652 345.4652
531 3.5600 332(18) 345.4374 345.4374
532 3.5620 341(18) 345.4095 345.4095
533 3.5640 319(18) 345.3814 345.3814
534 3.5660 324(18) 345.3530 345.3530
535 3.5680 318(18) 345.3246 345.3246
536 3.5700 333(18) 345.2960 345.2960
537 3.5720 324(18) 345.2672 345.2672
538 3.5740 331(18) 345.2383 345.2383
539 3.5760 317(18) 345.2092 345.2092
540 3.5780 341(18) 345.1800 345.1800
541 3.5800 329(18) 345.1506 345.1506
542 3.5820 321(18) 345.1210 345.1210
543 3.5840 336(18) 345.0913 345.0913
544 3.5860 334(18) 345.0614 345.0614
545 3.5880 318(18) 345.0314 345.0314
546 3.5900 311(18) 345.0013 345.0013
547 3.5920 328(18) 344.9709 344.9709
548 3.5940 319(18) 344.9404 344.9404
549 3.5960 317(18) 344.9097 344.9097
550 3.5980 327(18) 344.8790 344.8790
551 3.6000 332(18) 344.8480 344.8480
552 3.6020 315(18) 344.8169 344.8169
553 3.6040 330(18) 344.7856 344.7856
554 3.6060 302(17) 344.7542 344.7542
555 3.6080 339(18) 344.7225 344.7225
556 3.6100 312(18) 344.6908 344.6908
557 3.6120 336(18) 344.6589 344.6589
558 3.6140 329(18) 344.6269 344.6269
559 3.6160 320(18) 344.5947 344.5947
560 3.6180 315(18) 344.5623 344.5623
561 3.6200 319(18) 344.5298 344.5298
562 3.6220 328(18) 344.4971 344.4971
563 3.6240 319(18) 344.4643 344.4643
564 3.6260 350(19) 344.4313 344.4313
565 3.6280 324(18) 344.3983 344.3983
566 3.6300 333(18) 344.3650 344.3650
567 3.6320 318(18) 344.3315 344.3315
568 3.6340 334(18) 344.2979 344.2979
569 3.6360 317(18) 344.2642 344.2642
570 3.6380 329(18) 344.2303 344.2303
571 3.6400 333(18) 344.1963 344.1963
572 3.6420 331(18) 344.1621 344.1621
573 3.6440 330(18) 344.1277 344.1277
574 3.6460 334(18) 344.0932 344.0932
575 3.6480 323(18) 344.0586 344.0586
576 3.6500 317(18) 344.0238 344.0238
577 3.6520 343(19) 343.9889 343.9889
578 3.6540 330(18) 343.9538 343.9538
579 3.6560 309(18) 343.9186 343.9186
580 3.6580 313(18) 343.8832 343.8832
581 3.6600 322(18) 343.8476 343.8476
582 3.6620 336(18) 343.8119 343.8119
583 3.6640 330(18) 343.7761 343.7761
584 3.6660 316(18) 343.7401 343.7401
585 3.6680 320(18) 343.7040 343.7040
586 3.6700 341(18) 343.6677 343.6677
587 3.6720 326(18) 343.6313 343.6313
588 3.6740 329(18) 343.5947 343.5947
589 3.6760 328(18) 343.5580 343.5580
590 3.6780 339(18) 343.5211 343.5211
591 3.6800 315(18) 343.4841 343.4841
592 3.6820 309(18) 343.4469 343.4469
593 3.6840 321(18) 343.4096 343.4096
594 3.6860 328(18) 343.3721 343.3721
595 3.6880 299(17) 343.3345 343.3345
596 3.6900 307(18) 343.2968 343.2968
597 3.6920 340(18) 343.2589 343.2589
598 3.6940 331(18) 343.2208 343.2208
599 3.6960 320(18) 343.1826 343.1826
600 3.6980 313(18) 343.1443 343.1443
601 3.7000 338(18) 343.1057 343.1057
602 3.7020 331(18) 343.0671 343.0671
603 3.7040 316(18) 343.0283 343.0283
604 3.7060 302(17) 342.9894 342.9894
605 3.7080 315(18) 342.9504 342.9504
606 3.7100 312(18) 342.9112 342.9112
607 3.7120 317(18) 342.8718 342.8718
608 3.7140 331(18) 342.8323 342.8323
609 3.7160 312(18) 342.7927 342.7927
610 3.7180 309(18) 342.7529 342.7529
611 3.7200 316(18) 342.7130 342.7130
612 3.7220 328(18) 342.6729 342.6729
613 3.7240 319(18) 342.6328 342.6328
614 3.7260 323(18) 342.5923 342.5923
615 3.7280 316(18) 342.5518 342.5518
616 3.7300 329(18) 342.5112 342.5112
617 3.7320 316(18) 342.4704 342.4704
618 3.7340 311(18) 342.4295 342.4295
619 3.7360 322(18) 342.3884 342.3884
620 3.7380 319(18) 342.3472 342.3472
621 3.7400 326(18) 342.3059 342.3059
622 3.7420 320(18) 342.2644 342.2644
623 3.7440 316(18) 342.2227 342.2227
624 3.7460 324(18) 342.1810 342.1810
625 3.7480 319(18) 342.1391 342.1391
626 3.7500 330(18) 342.0971 342.0971
627 3.7520 327(18) 342.0549 342.0549
628 3.7540 311(18) 342.0125 342.0125
629 3.7560 325(18) 341.9701 341.9701
630 3.7580 311(18) 341.9275 341.9275
631 3.7600 319(18) 341.8847 341.8847
632 3.7620 337(18) 341.8418 341.8418
633 3.7640 330(18) 341.7988 341.7988
634 3.7660 322(18) 341.7556 341.7556
635 3.7680 335(18) 341.7124 341.7124
636 3.7700 336(18) 341.6689 341.6689
637 3.7720 321(18) 341.6254 341.6254
638 3.7740 339(18) 341.5816 341.5816
639 3.7760 314(18) 341.5378 341.5378
640 3.7780 347(19) 341.4938 341.4938
641 3.7800 323(18) 341.4496 341.4496
642 3.7820 332(18) 341.4053 341.4053
643 3.7840 337(18) 341.3610 341.3610
644 3.7860 329(18) 341.3164 341.3164
645 3.7880 347(19) 341.2717 341.2717
646 3.7900 340(18) 341.2270 341.2270
647 3.7920 351(19) 341.1820 341.1820
648 3.7940 346(19) 341.1369 341.1369
649 3.7960 354(19) 341.0917 341.0917
650 3.7980 361(19) 341.0463 341.0463
651 3.8000 381(20) 341.0009 341.0009
652 3.8020 373(19) 340.9553 340.9553
653 3.8040 348(19) 340.9095 340.9095
654 3.8060 365(19) 340.8636 340.8636
655 3.8080 344(19) 340.8176 340.8176
656 3.8100 342(18) 340.7714 340.7714
657 3.8120 333(18) 340.7251 340.7251
658 3.8140 322(18) 340.6787 340.6787
659 3.8160 338(18) 340.6321 340.6321
660 3.8180 327(18) 340.5854 340.5854
661 3.8200 323(18) 340.5386 340.5386
662 3.8220 314(18) 340.4917 340.4917
663 3.8240 310(18) 340.4446 340.4446
664 3.8260 344(19) 340.3973 340.3973
665 3.8280 341(18) 340.3500 340.3500
666 3.8300 349(19) 340.3025 340.3025
667 3.8320 315(18) 340.2548 340.2548
668 3.8340 314(18) 340.2071 340.2071
669 3.8360 322(18) 340.1592 340.1592
670 3.8380 323(18) 340.1112 340.1112
671 3.8400 329(18) 340.0631 340.0631
672 3.8420 328(18) 340.0148 340.0148
673 3.8440 335(18) 339.9664 339.9664
674 3.8460 319(18) 339.9178 339.9178
675 3.8480 317(18) 339.8692 339.8692
676 3.8500 322(18) 339.8204 339.8204
677 3.8520 329(18) 339.7715 339.7715
678 3.8540 333(18) 339.7224 339.7224
679 3.8560 309(18) 339.6732 339.6732
680 3.8580 328(18) 339.6239 339.6239
681 3.8600 320(18) 339.5745 339.5745
682 3.8620 326(18) 339.5249 339.5249
683 3.8640 311(18) 339.9335 339.4752
684 3.8660 344(19) 339.8951 339.4254
685 3.8680 339(18) 339.8568 339.3754
686 3.8700 324(18) 339.8189 339.3253
687 3.8720 324(18) 339.7815 339.2751
688 3.8740 300(17) 339.7443 339.2247
689 3.8760 320(18) 339.7075 339.1742
690 3.8780 338(18) 339.6712 339.1237
691 3.8800 330(18) 339.6353 339.0729
692 3.8820 327(18) 339.5999 339.0221
693 3.8840 332(18) 339.5650 338.9711
694 3.8860 331(18) 339.5306 338.9200
695 3.8880 326(18) 339.4968 338.8687
696 3.8900 316(18) 339.4638 338.8174
697 3.8920 328(18) 339.4313 338.7659
698 3.8940 323(18) 339.3996 338.7143
699 3.8960 313(18) 339.3687 338.6626
700 3.8980 341(18) 339.3386 338.6107
701 3.9000 316(18) 339.3094 338.5587
702 3.9020 300(17) 339.2812 338.5066
703 3.9040 306(18) 339.2539 338.4543
704 3.9060 323(18) 339.2278 338.4020
705 3.9080 328(18) 339.2029 338.3495
706 3.9100 319(18) 339.1793 338.2969
707 3.9120 324(18) 339.1570 338.2442
708 3.9140 337(18) 339.1362 338.1913
709 3.9160 332(18) 339.1170 338.1383
710 3.9180 320(18) 339.0995 338.0852
711 3.9200 332(18) 339.0839 338.0320
712 3.9220 313(18) 339.0703 337.9786
713 3.9240 317(18) 339.0588 337.9251
714 3.9260 313(18) 339.0497 337.8716
715 3.9280 324(18) 339.0432 337.8179
716 3.9300 341(18) 339.0392 337.7640
717 3.9320 316(18) 339.0384 337.7100
718 3.9340 311(18) 339.0408 337.6559
719 3.9360 343(19) 339.0468 337.6017
720 3.9380 317(18) 339.0565 337.5474
721 3.9400 335(18) 339.0706 337.4930
722 3.9420 319(18) 339.0893 337.4384
723 3.9440 330(18) 339.1130 337.3837
724 3.9460 326(18) 339.1423 337.3289
725 3.9480 322(18) 339.1778 337.2739
726 3.9500 339(18) 339.2200 337.2189
727 3.9520 321(18) 339.2697 337.1637
728 3.9540 331(18) 339.3277 337.1084
729 3.9560 333(18) 339.3949 337.0530
730 3.9580 326(18) 339.4724 336.9975
731 3.9600 327(18) 339.5612 336.9418
732 3.9620 330(18) 339.6630 336.8861
733 3.9640 324(18) 339.7791 336.8301
734 3.9660 335(18) 339.9114 336.7741
735 3.9680 335(18) 340.0621 336.7180
736 3.9700 318(18) 340.2335 336.6617
737 3.9720 313(18) 340.4287 336.6054
738 3.9740 333(18) 340.6509 336.5489
739 3.9760 327(18) 340.9041 336.4923
740 3.9780 333(18) 341.1933 336.4356
741 3.9800 328(18) 341.5239 336.3787
742 3.9820 339(18) 341.9030 336.3218
743 3.9840 323(18) 342.3387 336.2647
744 3.9860 334(18) 342.8413 336.2075
745 3.9880 342(18) 343.4233 336.1502
746 3.9900 344(19) 344.1007 336.0928
747 3.9920 332(18) 344.8937 336.0352
748 3.9940 345(19) 345.8293 335.9776
749 3.9960 318(18) 346.9444 335.9198
750 3.9980 342(18) 348.2903 335.8619
751 4.0000 330(18) 349.9398 335.8040
752 4.0020 345(19) 351.9976 335.7458
753 4.0040 338(18) 354.6112 335.6876
754 4.0060 355(19) 357.9802 335.6292
755 4.0080 339(18) 362.3672 335.5708
756 4.0100 398(20) 368.0971 335.5122
757 4.0120 384(20) 375.5374 335.4535
758 4.0140 399(20) 385.0736 335.3947
759 4.0160 445(21) 397.0421 335.3358
760 4.0180 462(22) 411.6226 335.2767
761 4.0200 490(22) 428.6084 335.2176
762 4.0220 528(23) 447.0458 335.1583
763 4.0240 558(24) 464.6843 335.0989
764 4.0260 581(24) 477.8430 335.0394
765 4.0280 609(25) 482.5652 334.9799
766 4.0300 557(24) 477.1313 334.9201
767 4.0320 577(24) 463.4626 334.8603
768 4.0340 508(23) 445.5649 334.8004
769 4.0360 479(22) 427.0471 334.7403
770 4.0380 456(21) 410.4148 334.6801
771 4.0400 426(21) 395.8876 334.6198
772 4.0420 406(20) 383.9665 334.5595
773 4.0440 382(20) 374.4592 334.4990
774 4.0460 380(19) 367.0285 334.4384
775 4.0480 359(19) 361.2859 334.3776
776 4.0500 349(19) 356.8661 334.3168
777 4.0520 344(19) 353.4477 334.2558
778 4.0540 358(19) 350.7725 334.1948
779 4.0560 341(18) 348.6429 334.1336
780 4.0580 340(18) 346.9160 334.0723
781 4.0600 325(18) 345.4891 334.0110
782 4.0620 326(18) 344.2906 333.9494
783 4.0640 317(18) 343.2708 333.8878
784 4.0660 329(18) 342.3936 333.8262
785 4.0680 330(18) 341.6327 333.7643
786 4.0700 322(18) 340.9680 333.7024
787 4.0720 320(18) 340.3845 333.6403
788 4.0740 319(18) 339.8696 333.5781
789 4.0760 344(19) 339.4140 333.5159
790 4.0780 327(18) 339.0095 333.4535
791 4.0800 305(17) 338.6498 333.3910
792 4.0820 329(18) 338.3297 333.3285
793 4.0840 340(18) 338.0448 333.2658
794 4.0860 318(18) 337.7919 333.2030
795 4.0880 321(18) 337.5681 333.1401
796 4.0900 324(18) 337.3714 333.0770
797 4.0920 313(18) 337.2002 333.0139
798 4.0940 334(18) 337.0534 332.9507
799 4.0960 312(18) 336.9303 332.8873
800 4.0980 331(18) 336.8310 332.8239
801 4.1000 323(18) 336.7555 332.7603
802 4.1020 340(18) 336.7048 332.6967
803 4.1040 323(18) 336.6804 332.6329
804 4.1060 330(18) 336.6841 332.5690
805 4.1080 327(18) 336.7190 332.5051
806 4.1100 329(18) 336.7886 332.4409
807 4.1120 335(18) 336.8981 332.3768
808 4.1140 323(18) 337.0538 332.3125
809 4.1160 326(18) 337.2642 332.2481
810 4.1180 321(18) 337.5402 332.1836
811 4.1200 344(19) 337.8964 332.1190
812 4.1220 330(18) 338.3522 332.0543
813 4.1240 324(18) 338.9331 331.9895
814 4.1260 324(18) 339.6746 331.9246
815 4.1280 345(19) 349.8528 331.8595
816 4.1300 339(18) 351.3168 331.7944
817 4.1320 342(19) 353.1656 331.7291
818 4.1340 343(19) 355.5416 331.6638
819 4.1360 342(18) 358.6550 331.5984
820 4.1380 364(19) 362.8151 331.5328
821 4.1400 361(19) 368.4806 331.4672
822 4.1420 364(19) 376.2877 331.4014
823 4.1440 393(20) 386.9926 331.3356
824 4.1460 381(20) 400.9932 331.2696
825 4.1480 399(20) 416.8568 331.2036
826 4.1500 424(21) 429.1761 331.1374
827 4.1520 411(20) 430.5636 331.0711
828 4.1540 389(20) 420.1967 331.0048
829 4.1560 382(20) 405.0144 330.9384
830 4.1580 362(19) 391.1091 330.8718
831 4.1600 376(19) 380.4551 330.8051
832 4.1620 363(19) 372.8238 330.7383
833 4.1640 354(19) 367.4744 330.6715
834 4.1660 355(19) 363.7385 330.6045
835 4.1680 358(19) 361.1354 330.5374
836 4.1700 362(19) 359.3357 330.4703
837 4.1720 332(18) 358.1192 330.4030
838 4.1740 357(19) 357.3382 330.3356
839 4.1760 349(19) 356.8925 330.2681
840 4.1780 342(18) 356.7144 330.2006
841 4.1800 329(18) 356.7570 330.1329
842 4.1820 339(18) 356.9889 330.0652
843 4.1840 330(18) 357.3891 329.9973
844 4.1860 341(18) 357.9452 329.9294
845 4.1880 336(18) 358.6506 329.8613
846 4.1900 340(18) 359.5036 329.7931
847 4.1920 351(19) 360.5076 329.7249
848 4.1940 340(18) 361.2232 329.6565
849 4.1960 340(18) 362.5654 329.5880
850 4.1980 349(19) 364.0929 329.5195
851 4.2000 344(19) 365.8264 329.4508
852 4.2020 346(19) 367.7937 329.3821
853 4.2040 362(19) 370.0278 329.3132
854 4.2060 354(19) 372.5731 329.2443
855 4.2080 352(19) 375.4828 329.1753
856 4.2100 356(19) 378.8269 329.1061
857 4.2120 370(19) 382.6944 329.0369
858 4.2140 379(19) 387.2012 328.9676
859 4.2160 378(19) 392.4959 328.8982
860 4.2180 379(19) 398.7791 328.8286
861 4.2200 408(20) 406.3211 328.7590
862 4.2220 423(21) 415.4853 328.6893
863 4.2240 426(21) 426.7825 328.6194
864 4.2260 453(21) 440.9321 328.5496
865 4.2280 490(22) 458.9711 328.4796
866 4.2300 493(22) 482.3929 328.4095
867 4.2320 525(23) 513.4096 328.3393
868 4.2340 576(24) 555.2000 328.2690
869 4.2360 643(25) 612.1874 328.1986
870 4.2380 700(26) 689.5972 328.1281
871 4.2400 751(27) 790.5688 328.0576
872 4.2420 886(30) 906.9099 327.9869
873 4.2440 943(31) 1004.7903 327.9162
874 4.2460 988(31) 1031.7172 327.8453
875 4.2480 933(31) 970.6678 327.7744
876 4.2500 884(30) 863.5098 327.7033
877 4.2520 749(27) 758.0233 327.6322
878 4.2540 686(26) 674.3176 327.5610
879 4.2560 619(25) 613.5908 327.4897
880 4.2580 570(24) 571.1071 327.4182
881 4.2600 534(23) 541.9852 327.3468
882 4.2620 490(22) 522.4861 327.2752
883 4.2640 476(22) 510.0387 327.2035
884 4.2660 502(22) 502.6029 327.1317
885 4.2680 449(21) 499.7586 327.0598
886 4.2700 455(21) 500.4793 326.9879
887 4.2720 441(21) 504.3889 326.9158
888 4.2740 442(21) 511.3486 326.8437
889 4.2760 458(21) 521.4342 326.7715
890 4.2780 455(21) 534.9376 326.6991
891 4.2800 477(22) 552.4052 326.6267
892 4.2820 487(22) 574.6764 326.5542
893 4.2840 505(22) 602.9866 326.4816
894 4.2860 541(23) 639.0446 326.4089
895 4.2880 616(25) 685.0740 326.3362
896 4.2900 672(26) 743.8975 326.2632
897 4.2920 743(27) 818.8679 326.1903
898 4.2940 843(29) 913.7589 326.1172
899 4.2960 1042(32) 1033.2693 326.0441
900 4.2980 1205(35) 1179.2041 325.9709
901 4.3000 1429(38) 1354.6379 325.8976
902 4.3020 1739(42) 1559.2375 325.8242
903 4.3040 2078(46) 1787.4358 325.7507
904 4.3060 2464(50) 2024.6194 325.6771
905 4.3080 2728(52) 2242.9778 325.6035
906 4.3100 3139(56) 2402.7759 325.5297
907 4.3120 3160(56) 2464.4849 325.4558
908 4.3140 2980(55) 2410.1025 325.3819
909 4.3160 2739(52) 2255.3042 325.3079
910 4.3180 2361(49) 2038.7688 325.2337
911 4.3200 2037(45) 1800.7885 325.1595
912 4.3220 1650(41) 1570.1920 325.0853
913 4.3240 1443(38) 1362.3801 325.0109
914 4.3260 1218(35) 1183.5283 324.9364
915 4.3280 1006(32) 1034.2119 324.8619
916 4.3300 835(29) 912.2601 324.7873
917 4.3320 765(28) 814.1999 324.7126
918 4.3340 671(26) 736.1998 324.6378
919 4.3360 607(25) 674.4347 324.5629
920 4.3380 557(24) 625.4674 324.4879
921 4.3400 513(23) 586.4161 324.4128
922 4.3420 491(22) 554.9264 324.3377
923 4.3440 456(21) 529.1858 324.2625
924 4.3460 440(21) 507.8297 324.1871
925 4.3480 396(20) 489.8687 324.1117
926 4.3500 399(20) 474.5659 324.0363
927 4.3520 384(20) 461.3967 323.9607
928 4.3540 401(20) 449.9646 323.8850
929 4.3560 363(19) 439.9731 323.8092
930 4.3580 364(19) 431.1940 323.7335
931 4.3600 363(19) 423.4456 323.6575
932 4.3620 354(19) 416.5872 323.5815
933 4.3640 353(19) 407.9804 323.5054
934 4.3660 365(19) 402.6510 323.4293
935 4.3680 352(19) 397.9141 323.3530
936 4.3700 352(19) 393.7052 323.2767
937 4.3720 343(19) 389.9711 323.2003
938 4.3740 321(18) 386.6714 323.1238
939 4.3760 349(19) 383.7723 323.0472
940 4.3780 345(19) 381.2490 322.9705
941 4.3800 330(18) 379.0869 322.8938
942 4.3820 353(19) 377.2775 322.8170
943 4.3840 356(19) 375.8225 322.7401
944 4.3860 345(19) 374.7337 322.6631
945 4.3880 345(19) 374.0360 322.5861
946 4.3900 351(19) 373.7689 322.5089
947 4.3920 362(19) 373.9929 322.4316
948 4.3940 367(19) 374.7958 322.3543
949 4.3960 362(19) 376.3036 322.2769
950 4.3980 378(19) 378.6972 322.1994
951 4.4000 359(19) 382.2344 322.1219
952 4.4020 374(19) 387.2888 322.0443
953 4.4040 387(20) 394.4034 321.9665
954 4.4060 402(20) 404.3557 321.8887
955 4.4080 437(21) 418.2473 321.8108
956 4.4100 419(20) 437.5133 321.7328
957 4.4120 452(21) 463.6392 321.6548
958 4.4140 495(22) 496.8782 321.5767
959 4.4160 530(23) 533.1538 321.4985
960 4.4180 522(23) 560.4377 321.4202
961 4.4200 538(23) 563.5154 321.3419
962 4.4220 492(22) 539.8460 321.2634
963 4.4240 473(22) 502.8523 321.1849
964 4.4260 444(21) 466.4950 321.1063
965 4.4280 419(20) 436.7465 321.0276
966 4.4300 396(20) 414.1006 320.9489
967 4.4320 386(20) 397.2217 320.8700
968 4.4340 378(19) 384.5975 320.7911
969 4.4360 366(19) 375.0263 320.7122
970 4.4380 375(19) 367.6396 320.6331
971 4.4400 353(19) 361.8350 320.5540
972 4.4420 364(19) 357.1882 320.4747
973 4.4440 354(19) 353.4063 320.3954
974 4.4460 348(19) 350.2786 320.3161
975 4.4480 328(18) 347.6542 320.2366
976 4.4500 334(18) 345.4232 320.1570
977 4.4520 342(19) 343.5032 320.0774
978 4.4540 333(18) 341.8337 319.9978
979 4.4560 347(19) 340.3668 319.9179
980 4.4580 334(18) 339.0671 319.8382
981 4.4600 326(18) 337.9055 319.7582
982 4.4620 336(18) 336.8599 319.6783
983 4.4640 342(18) 335.9120 319.5982
984 4.4660 324(18) 335.0476 319.5181
985 4.4680 314(18) 334.2548 319.4378
986 4.4700 321(18) 333.5238 319.3575
987 4.4720 330(18) 332.8469 319.2772
988 4.4740 319(18) 332.2171 319.1967
989 4.4760 324(18) 331.6288 319.1162
990 4.4780 312(18) 331.0771 319.0356
991 4.4800 324(18) 330.5584 318.9550
992 4.4820 308(18) 330.0687 318.8742
993 4.4840 327(18) 329.6055 318.7934
994 4.4860 324(18) 329.1659 318.7125
995 4.4880 317(18) 328.7477 318.6316
996 4.4900 324(18) 328.3488 318.5505
997 4.4920 322(18) 327.9678 318.4694
998 4.4940 318(18) 327.6030 318.3882
999 4.4960 303(17) 327.2530 318.3070
1000 4.4980 319(18) 320.3802 318.2256
1001 4.5000 322(18) 320.1944 318.1443
1002 4.5020 307(18) 320.0158 318.0628
1003 4.5040 324(18) 319.8439 317.9812
1004 4.5060 319(18) 319.6780 317.8996
1005 4.5080 317(18) 319.5176 317.8179
1006 4.5100 320(18) 319.3623 317.7361
1007 4.5120 334(18) 319.2116 317.6543
1008 4.5140 317(18) 319.0650 317.5724
1009 4.5160 314(18) 318.9224 317.4904
1010 4.5180 309(18) 318.7833 317.4084
1011 4.5200 313(18) 318.6474 317.3262
1012 4.5220 308(18) 318.5145 317.2440
1013 4.5240 321(18) 318.3845 317.1618
1014 4.5260 309(18) 318.2570 317.0794
1015 4.5280 305(17) 318.1319 316.9970
1016 4.5300 301(17) 318.0089 316.9146
1017 4.5320 314(18) 317.8881 316.8320
1018 4.5340 326(18) 317.7691 316.7494
1019 4.5360 320(18) 317.6519 316.6667
1020 4.5380 314(18) 317.5364 316.5839
1021 4.5400 301(17) 317.4225 316.5011
1022 4.5420 316(18) 317.3099 316.4182
1023 4.5440 312(18) 316.3352 316.3352
1024 4.5460 321(18) 316.2522 316.2522
1025 4.5480 303(17) 316.1691 316.1691
1026 4.5500 324(18) 316.0859 316.0859
1027 4.5520 322(18) 316.0026 316.0026
1028 4.5540 311(18) 315.9194 315.9194
1029 4.5560 306(18) 315.8360 315.8360
1030 4.5580 307(18) 315.7525 315.7525
1031 4.5600 325(18) 315.6689 315.6689
1032 4.5620 319(18) 315.5854 315.5854
1033 4.5640 325(18) 315.5017 315.5017
1034 4.5660 320(18) 315.4180 315.4180
1035 4.5680 330(18) 315.3342 315.3342
1036 4.5700 308(18) 315.2504 315.2504
1037 4.5720 307(18) 315.1664 315.1664
1038 4.5740 310(18) 315.0824 315.0824
1039 4.5760 306(18) 314.9984 314.9984
1040 4.5780 302(17) 314.9142 314.9142
1041 4.5800 315(18) 314.8300 314.8300
1042 4.5820 316(18) 314.7458 314.7458
1043 4.5840 302(17) 314.6614 314.6614
1044 4.5860 317(18) 314.5770 314.5770
1045 4.5880 313(18) 314.4926 314.4926
1046 4.5900 311(18) 314.4081 314.4081
1047 4.5920 311(18) 314.3234 314.3234
1048 4.5940 296(17) 314.2388 314.2388
1049 4.5960 326(18) 314.1541 314.1541
1050 4.5980 317(18) 314.0693 314.0693
1051 4.6000 325(18) 313.9844 313.9844
1052 4.6020 315(18) 313.8995 313.8995
1053 4.6040 326(18) 313.8145 313.8145
1054 4.6060 320(18) 313.7294 313.7294
1055 4.6080 306(17) 313.6443 313.6443
1056 4.6100 314(18) 313.5591 313.5591
1057 4.6120 320(18) 313.4739 313.4739
1058 4.6140 319(18) 313.3886 313.3886
1059 4.6160 302(17) 313.3032 313.3032
1060 4.6180 316(18) 313.2178 313.2178
1061 4.6200 314(18) 313.1323 313.1323
1062 4.6220 289(17) 313.0467 313.0467
1063 4.6240 318(18) 312.9611 312.9611
1064 4.6260 321(18) 312.8754 312.8754
1065 4.6280 326(18) 312.7896 312.7896
1066 4.6300 322(18) 312.7038 312.7038
1067 4.6320 318(18) 312.6179 312.6179
1068 4.6340 328(18) 312.5320 312.5320
1069 4.6360 315(18) 312.4459 312.4459
1070 4.6380 312(18) 312.3599 312.3599
1071 4.6400 323(18) 312.2737 312.2737
1072 4.6420 309(18) 312.1876 312.1876
1073 4.6440 300(17) 312.1013 312.1013
1074 4.6460 316(18) 312.0150 312.0150
1075 4.6480 327(18) 311.9286 311.9286
1076 4.6500 311(18) 311.8421 311.8421
1077 4.6520 316(18) 311.7556 311.7556
1078 4.6540 309(18) 311.6690 311.6690
1079 4.6560 328(18) 311.5824 311.5824
1080 4.6580 302(17) 311.4957 311.4957
1081 4.6600 306(17) 311.4090 311.4090
1082 4.6620 310(18) 311.3222 311.3222
1083 4.6640 316(18) 311.2353 311.2353
1084 4.6660 323(18) 311.1483 311.1483
1085 4.6680 300(17) 311.0614 311.0614
1086 4.6700 320(18) 310.9743 310.9743
1087 4.6720 325(18) 310.8872 310.8872
1088 4.6740 308(18) 310.8001 310.8001
1089 4.6760 318(18) 310.7128 310.7128
1090 4.6780 320(18) 310.6255 310.6255
1091 4.6800 331(18) 310.5381 310.5381
1092 4.6820 325(18) 310.4507 310.4507
1093 4.6840 312(18) 310.3633 310.3633
1094 4.6860 321(18) 310.2758 310.2758
1095 4.6880 314(18) 310.1881 310.1881
1096 4.6900 327(18) 310.1005 310.1005
1097 4.6920 332(18) 310.0128 310.0128
1098 4.6940 314(18) 309.9250 309.9250
1099 4.6960 314(18) 309.8372 309.8372
1100 4.6980 336(18) 309.7493 309.7493
1101 4.7000 331(18) 309.6614 309.6614
1102 4.7020 328(18) 309.5734 309.5734
1103 4.7040 327(18) 309.4853 309.4853
1104 4.7060 356(19) 309.3972 309.3972
1105 4.7080 353(19) 309.3090 309.3090
1106 4.7100 349(19) 309.2208 309.2208
1107 4.7120 314(18) 309.1326 309.1326
1108 4.7140 344(19) 309.0442 309.0442
1109 4.7160 324(18) 308.9558 308.9558
1110 4.7180 304(17) 308.8673 308.8673
1111 4.7200 311(18) 308.7788 308.7788
1112 4.7220 309(18) 308.6902 308.6902
1113 4.7240 294(17) 308.6016 308.6016
1114 4.7260 311(18) 308.5130 308.5130
1115 4.7280 299(17) 308.4242 308.4242
1116 4.7300 301(17) 308.3354 308.3354
1117 4.7320 298(17) 308.2465 308.2465
1118 4.7340 301(17) 308.1576 308.1576
1119 4.7360 321(18) 308.0687 308.0687
1120 4.7380 300(17) 307.9796 307.9796
1121 4.7400 291(17) 307.8906 307.8906
1122 4.7420 287(17) 307.8014 307.8014
1123 4.7440 302(17) 307.7122 307.7122
1124 4.7460 310(18) 307.6230 307.6230
1125 4.7480 299(17) 307.5338 307.5338
1126 4.7500 320(18) 307.4444 307.4444
1127 4.7520 302(17) 307.3550 307.3550
1128 4.7540 315(18) 307.2655 307.2655
1129 4.7560 315(18) 307.1760 307.1760
1130 4.7580 304(17) 307.0864 307.0864
1131 4.7600 307(18) 306.9968 306.9968
1132 4.7620 297(17) 306.9072 306.9072
1133 4.7640 310(18) 306.8174 306.8174
1134 4.7660 310(18) 306.7277 306.7277
1135 4.7680 310(18) 306.6378 306.6378
1136 4.7700 308(18) 306.5479 306.5479
1137 4.7720 304(17) 306.4580 306.4580
1138 4.7740 303(17) 306.3680 306.3680
1139 4.7760 295(17) 306.2780 306.2780
1140 4.7780 306(18) 306.1879 306.1879
1141 4.7800 285(17) 306.0977 306.0977
1142 4.7820 312(18) 306.0075 306.0075
1143 4.7840 295(17) 305.9172 305.9172
1144 4.7860 309(18) 305.8269 305.8269
1145 4.7880 312(18) 305.7366 305.7366
1146 4.7900 301(17) 305.6461 305.6461
1147 4.7920 297(17) 305.5557 305.5557
1148 4.7940 305(17) 305.4652 305.4652
1149 4.7960 298(17) 305.3746 305.3746
1150 4.7980 299(17) 305.2840 305.2840
1151 4.8000 299(17) 305.1933 305.1933
1152 4.8020 310(18) 305.1026 305.1026
1153 4.8040 303(17) 305.0119 305.0119
1154 4.8060 292(17) 304.9211 304.9211
1155 4.8080 300(17) 304.8301 304.8301
1156 4.8100 311(18) 304.7392 304.7392
1157 4.8120 286(17) 304.6483 304.6483
1158 4.8140 295(17) 304.5573 304.5573
1159 4.8160 318(18) 304.4662 304.4662
1160 4.8180 308(18) 304.3751 304.3751
1161 4.8200 296(17) 304.2839 304.2839
1162 4.8220 291(17) 304.1927 304.1927
1163 4.8240 324(18) 304.1013 304.1013
1164 4.8260 293(17) 304.0101 304.0101
1165 4.8280 291(17) 303.9187 303.9187
1166 4.8300 289(17) 303.8273 303.8273
1167 4.8320 309(18) 303.7359 303.7359
1168 4.8340 302(17) 305.0143 303.6443
1169 4.8360 305(17) 304.9462 303.5527
1170 4.8380 305(17) 304.8785 303.4611
1171 4.8400 305(17) 304.8116 303.3694
1172 4.8420 298(17) 304.7451 303.2777
1173 4.8440 291(17) 304.6794 303.1860
1174 4.8460 307(18) 304.6143 303.0942
1175 4.8480 282(17) 304.5498 303.0023
1176 4.8500 299(17) 304.4860 302.9104
1177 4.8520 300(17) 304.4229 302.8185
1178 4.8540 307(18) 304.3607 302.7265
1179 4.8560 301(17) 304.2992 302.6344
1180 4.8580 294(17) 304.2385 302.5424
1181 4.8600 304(17) 304.1787 302.4502
1182 4.8620 301(17) 304.1198 302.3580
1183 4.8640 299(17) 304.0617 302.2658
1184 4.8660 290(17) 304.0046 302.1735
1185 4.8680 308(18) 303.9485 302.0812
1186 4.8700 301(17) 303.8935 301.9888
1187 4.8720 303(17) 303.8396 301.8964
1188 4.8740 296(17) 303.7867 301.8039
1189 4.8760 297(17) 303.7351 301.7114
1190 4.8780 305(17) 303.6846 301.6189
1191 4.8800 289(17) 303.6355 301.5262
1192 4.8820 312(18) 303.5877 301.4336
1193 4.8840 295(17) 303.5413 301.3409
1194 4.8860 303(17) 303.4963 301.2482
1195 4.8880 293(17) 303.4529 301.1554
1196 4.8900 305(17) 303.4111 301.0626
1197 4.8920 290(17) 303.3709 300.9697
1198 4.8940 301(17) 303.3325 300.8768
1199 4.8960 300(17) 303.2959 300.7838
1200 4.8980 303(17) 303.2612 300.6908
1201 4.9000 296(17) 303.2286 300.5978
1202 4.9020 289(17) 303.1980 300.5046
1203 4.9040 309(18) 303.1696 300.4115
1204 4.9060 298(17) 303.1436 300.3184
1205 4.9080 303(17) 303.1200 300.2251
1206 4.9100 308(18) 303.0989 300.1319
1207 4.9120 317(18) 303.0806 300.0385
1208 4.9140 301(17) 303.0650 299.9452
1209 4.9160 309(18) 303.0524 299.8518
1210 4.9180 281(17) 303.0430 299.7583
1211 4.9200 295(17) 303.0368 299.6649
1212 4.9220 295(17) 303.0341 299.5713
1213 4.9240 303(17) 303.0351 299.4778
1214 4.9260 304(17) 303.0399 299.3841
1215 4.9280 295(17) 303.0489 299.2904
1216 4.9300 295(17) 303.0621 299.1967
1217 4.9320 295(17) 303.0800 299.1030
1218 4.9340 300(17) 303.1026 299.0092
1219 4.9360 307(18) 303.1305 298.9154
1220 4.9380 308(18) 303.1637 298.8215
1221 4.9400 288(17) 303.2027 298.7276
1222 4.9420 279(17) 303.2478 298.6336
1223 4.9440 299(17) 303.2995 298.5397
1224 4.9460 300(17) 303.3581 298.4456
1225 4.9480 294(17) 303.4240 298.3515
1226 4.9500 281(17) 303.4978 298.2574
1227 4.9520 294(17) 303.5801 298.1632
1228 4.9540 294(17) 303.6713 298.0690
1229 4.9560 302(17) 303.7721 297.9748
1230 4.9580 307(18) 303.8831 297.8805
1231 4.9600 294(17) 304.0052 297.7862
1232 4.9620 303(17) 304.1390 297.6919
1233 4.9640 301(17) 304.2855 297.5974
1234 4.9660 286(17) 304.4456 297.5030
1235 4.9680 294(17) 304.6204 297.4085
1236 4.9700 302(17) 304.8110 297.3140
1237 4.9720 299(17) 305.0187 297.2194
1238 4.9740 298(17) 305.2448 297.1248
1239 4.9760 312(18) 305.4910 297.0302
1240 4.9780 305(17) 305.7589 296.9355
1241 4.9800 292(17) 306.0502 296.8407
1242 4.9820 290(17) 306.3672 296.7460
1243 4.9840 302(17) 306.7121 296.6512
1244 4.9860 301(17) 307.0875 296.5564
1245 4.9880 297(17) 307.4962 296.4615
1246 4.9900 298(17) 307.9415 296.3666
1247 4.9920 315(18) 308.4270 296.2716
1248 4.9940 308(18) 309.5754 296.1766
1249 4.9960 285(17) 310.1708 296.0816
1250 4.9980 291(17) 310.8207 295.9865
1251 5.0000 323(18) 311.5310 295.8914
1252 5.0020 309(18) 312.3083 295.7962
1253 5.0040 298(17) 313.1604 295.7010
1254 5.0060 297(17) 314.0957 295.6058
1255 5.0080 302(17) 315.1244 295.5106
1256 5.0100 297(17) 316.2578 295.4153
1257 5.0120 302(17) 317.5093 295.3199
1258 5.0140 313(18) 318.8949 295.2246
1259 5.0160 295(17) 320.4333 295.1292
1260 5.0180 300(17) 322.1475 295.0338
1261 5.0200 293(17) 324.0645 294.9383
1262 5.0220 321(18) 326.2177 294.8427
1263 5.0240 310(18) 328.6503 294.7472
1264 5.0260 306(17) 331.4161 294.6516
1265 5.0280 309(18) 334.5841 294.5560
1266 5.0300 315(18) 338.2436 294.4603
1267 5.0320 308(18) 342.5059 294.3646
1268 5.0340 315(18) 347.5157 294.2689
1269 5.0360 329(18) 353.4496 294.1731
1270 5.0380 338(18) 360.5273 294.0773
1271 5.0400 337(18) 369.0110 293.9814
1272 5.0420 345(19) 379.2055 293.8856
1273 5.0440 361(19) 391.4575 293.7897
1274 5.0460 379(19) 406.1334 293.6937
1275 5.0480 383(20) 423.6243 293.5977
1276 5.0500 392(20) 444.2929 293.5017
1277 5.0520 441(21) 468.4625 293.4056
1278 5.0540 476(22) 496.3439 293.3096
1279 5.0560 532(23) 527.9556 293.2134
1280 5.0580 576(24) 562.9509 293.1173
1281 5.0600 630(25) 600.4611 293.0211
1282 5.0620 701(26) 638.7628 292.9249
1283 5.0640 768(28) 675.1118 292.8286
1284 5.0660 868(29) 705.7361 292.7323
1285 5.0680 955(31) 726.4243 292.6360
1286 5.0700 957(31) 733.7303 292.5396
1287 5.0720 977(31) 726.3156 292.4432
1288 5.0740 859(29) 705.5527 292.3468
1289 5.0760 818(29) 674.9231 292.2504
1290 5.0780 711(27) 638.6384 292.1539
1291 5.0800 681(26) 600.4611 292.0573
1292 5.0820 589(24) 563.1316 291.9608
1293 5.0840 552(23) 528.3365 291.8642
1294 5.0860 477(22) 496.9648 291.7675
1295 5.0880 461(21) 469.3530 291.6709
1296 5.0900 442(21) 445.4841 291.5742
1297 5.0920 413(20) 425.1517 291.4775
1298 5.0940 392(20) 408.0428 291.3807
1299 5.0960 385(20) 393.7925 291.2839
1300 5.0980 357(19) 382.0343 291.1872
1301 5.1000 344(19) 372.4042 291.0902
1302 5.1020 358(19) 364.5806 290.9934
1303 5.1040 337(18) 358.2773 290.8965
1304 5.1060 342(18) 353.2593 290.7995
1305 5.1080 325(18) 349.3412 290.7025
1306 5.1100 344(19) 346.3873 290.6055
1307 5.1120 329(18) 344.3111 290.5085
1308 5.1140 346(19) 343.0728 290.4114
1309 5.1160 324(18) 342.6797 290.3143
1310 5.1180 330(18) 343.1919 290.2172
1311 5.1200 345(19) 344.7292 290.1201
1312 5.1220 341(18) 347.4863 290.0229
1313 5.1240 376(19) 351.7488 289.9256
1314 5.1260 361(19) 357.9222 289.8283
1315 5.1280 365(19) 366.5377 289.7310
1316 5.1300 369(19) 378.2328 289.6338
1317 5.1320 392(20) 393.5800 289.5364
1318 5.1340 427(21) 412.5935 289.4390
1319 5.1360 436(21) 433.6942 289.3416
1320 5.1380 449(21) 452.4241 289.2442
1321 5.1400 457(21) 461.9510 289.1467
1322 5.1420 456(21) 457.4221 289.0492
1323 5.1440 442(21) 440.6184 288.9517
1324 5.1460 411(20) 418.1162 288.8542
1325 5.1480 408(20) 395.8297 288.7566
1326 5.1500 382(20) 376.6541 288.6590
1327 5.1520 382(20) 361.1852 288.5613
1328 5.1540 371(19) 349.0268 288.4637
1329 5.1560 350(19) 339.5149 288.3660
1330 5.1580 319(18) 332.0320 288.2682
1331 5.1600 339(18) 326.0824 288.1705
1332 5.1620 344(19) 321.2902 288.0727
1333 5.1640 314(18) 317.3801 287.9749
1334 5.1660 307(18) 314.1459 287.8770
1335 5.1680 327(18) 311.4381 287.7792
1336 5.1700 323(18) 309.1436 287.6813
1337 5.1720 318(18) 307.1776 287.5834
1338 5.1740 309(18) 305.4760 287.4855
1339 5.1760 308(18) 306.3327 287.3875
1340 5.1780 303(17) 305.0855 287.2895
1341 5.1800 321(18) 303.9875 287.1914
1342 5.1820 311(18) 303.0147 287.0934
1343 5.1840 296(17) 302.1480 286.9953
1344 5.1860 292(17) 301.3721 286.8972
1345 5.1880 311(18) 300.6744 286.7990
1346 5.1900 304(17) 300.0450 286.7009
1347 5.1920 294(17) 299.4753 286.6027
1348 5.1940 292(17) 298.9583 286.5045
1349 5.1960 305(17) 298.4883 286.4062
1350 5.1980 307(18) 298.0606 286.3080
1351 5.2000 301(17) 297.6708 286.2097
1352 5.2020 303(17) 297.3157 286.1114
1353 5.2040 299(17) 296.9924 286.0130
1354 5.2060 286(17) 296.6985 285.9146
1355 5.2080 303(17) 296.4320 285.8163
1356 5.2100 298(17) 296.1911 285.7178
1357 5.2120 304(17) 295.9746 285.6194
1358 5.2140 291(17) 295.7812 285.5209
1359 5.2160 293(17) 295.6101 285.4224
1360 5.2180 295(17) 295.4606 285.3239
1361 5.2200 294(17) 295.3322 285.2253
1362 5.2220 288(17) 295.2246 285.1268
1363 5.2240 303(17) 295.1376 285.0282
1364 5.2260 298(17) 295.0713 284.9296
1365 5.2280 302(17) 295.0258 284.8309
1366 5.2300 296(17) 295.0016 284.7322
1367 5.2320 303(17) 294.9989 284.6335
1368 5.2340 314(18) 295.0188 284.5348
1369 5.2360 301(17) 295.0618 284.4361
1370 5.2380 291(17) 295.1291 284.3373
1371 5.2400 302(17) 295.2220 284.2385
1372 5.2420 302(17) 295.3420 284.1397
1373 5.2440 290(17) 295.4908 284.0409
1374 5.2460 290(17) 295.6704 283.9420
1375 5.2480 307(18) 295.8833 283.8431
1376 5.2500 306(17) 296.1319 283.7442
1377 5.2520 282(17) 296.4196 283.6453
1378 5.2540 313(18) 296.7499 283.5463
1379 5.2560 293(17) 297.1268 283.4473
1380 5.2580 301(17) 297.5554 283.3483
1381 5.2600 294(17) 298.0407 283.2493
1382 5.2620 306(17) 298.5894 283.1503
1383 5.2640 297(17) 299.2088 283.0512
1384 5.2660 310(18) 299.9075 282.9521
1385 5.2680 312(18) 300.6956 282.8530
1386 5.2700 311(18) 301.5850 282.7538
1387 5.2720 311(18) 302.5891 282.6547
1388 5.2740 292(17) 303.7246 282.5555
1389 5.2760 307(18) 305.0110 282.4564
1390 5.2780 318(18) 306.4716 282.3571
1391 5.2800 317(18) 308.1349 282.2579
1392 5.2820 310(18) 310.0341 282.1586
1393 5.2840 307(18) 312.2115 282.0593
1394 5.2860 333(18) 314.7170 281.9600
1395 5.2880 316(18) 317.0032 281.8607
1396 5.2900 332(18) 320.3855 281.7614
1397 5.2920 313(18) 324.3348 281.6620
1398 5.2940 340(18) 328.9773 281.5626
1399 5.2960 339(18) 334.4717 281.4632
1400 5.2980 350(19) 341.0227 281.3637
1401 5.3000 362(19) 348.9010 281.2643
1402 5.3020 379(19) 358.4615 281.1649
1403 5.3040 388(20) 370.1764 281.0653
1404 5.3060 395(20) 384.6822 280.9658
1405 5.3080 424(21) 401.4768 280.8663
1406 5.3100 458(21) 424.4283 280.7667
1407 5.3120 486(22) 453.6687 280.6671
1408 5.3140 547(23) 491.1253 280.5676
1409 5.3160 584(24) 539.0131 280.4680
1410 5.3180 655(26) 599.2655 280.3683
1411 5.3200 792(28) 671.9336 280.2687
1412 5.3220 858(29) 751.8088 280.1690
1413 5.3240 1061(33) 824.5010 280.0693
1414 5.3260 1132(34) 867.2083 279.9696
1415 5.3280 1196(35) 861.7731 279.8698
1416 5.3300 975(31) 810.6631 279.7701
1417 5.3320 805(28) 734.5787 279.6704
1418 5.3340 678(26) 655.1566 279.5706
1419 5.3360 638(25) 584.6890 279.4708
1420 5.3380 571(24) 526.9226 279.3710
1421 5.3400 512(23) 481.1982 279.2711
1422 5.3420 462(22) 445.4357 279.1713
1423 5.3440 440(21) 417.4558 279.0714
1424 5.3460 421(21) 395.4153 278.9715
1425 5.3480 380(19) 377.8951 278.8716
1426 5.3500 374(19) 363.8106 278.7717
1427 5.3520 362(19) 352.3683 278.6718
1428 5.3540 352(19) 342.9695 278.5718
1429 5.3560 327(18) 335.1697 278.4718
1430 5.3580 334(18) 328.6339 278.3718
1431 5.3600 336(18) 323.1065 278.2718
1432 5.3620 321(18) 318.3935 278.1717
1433 5.3640 317(18) 314.3442 278.0717
1434 5.3660 327(18) 310.8387 277.9716
1435 5.3680 313(18) 307.7834 277.8716
1436 5.3700 318(18) 305.1036 277.7715
1437 5.3720 322(18) 302.7386 277.6713
1438 5.3740 328(18) 300.6407 277.5712
1439 5.3760 316(18) 298.7693 277.4710
1440 5.3780 332(18) 297.0925 277.3709
1441 5.3800 335(18) 295.5828 277.2707
1442 5.3820 349(19) 294.2175 277.1705
1443 5.3840 328(18) 292.9778 277.0703
1444 5.3860 326(18) 291.8475 276.9701
1445 5.3880 320(18) 290.8133 276.8698
1446 5.3900 311(18) 289.8639 276.7695
1447 5.3920 298(17) 288.9892 276.6693
1448 5.3940 325(18) 288.1808 276.5690
1449 5.3960 313(18) 287.4315 276.4687
1450 5.3980 306(18) 286.7345 276.3683
1451 5.4000 292(17) 286.0848 276.2680
1452 5.4020 281(17) 285.4773 276.1676
1453 5.4040 312(18) 284.9080 276.0673
1454 5.4060 305(17) 284.3732 275.9669
1455 5.4080 294(17) 283.8694 275.8665
1456 5.4100 282(17) 283.3938 275.7661
1457 5.4120 289(17) 282.9438 275.6657
1458 5.4140 294(17) 282.5173 275.5652
1459 5.4160 304(17) 282.1120 275.4648
1460 5.4180 297(17) 281.7264 275.3643
1461 5.4200 296(17) 281.3586 275.2639
1462 5.4220 287(17) 281.0073 275.1634
1463 5.4240 299(17) 280.6710 275.0628
1464 5.4260 297(17) 280.3486 274.9623
1465 5.4280 279(17) 280.0391 274.8617
1466 5.4300 294(17) 279.7416 274.7612
1467 5.4320 278(17) 279.4550 274.6607
1468 5.4340 317(18) 279.1786 274.5601
1469 5.4360 297(17) 278.9117 274.4595
1470 5.4380 306(17) 278.6535 274.3589
1471 5.4400 294(17) 278.4035 274.2583
1472 5.4420 304(17) 278.1611 274.1576
1473 5.4440 286(17) 277.9259 274.0570
1474 5.4460 283(17) 277.6974 273.9564
1475 5.4480 299(17) 277.4750 273.8557
1476 5.4500 282(17) 277.2585 273.7550
1477 5.4520 297(17) 277.0474 273.6543
1478 5.4540 297(17) 276.8414 273.5536
1479 5.4560 284(17) 276.6402 273.4529
1480 5.4580 300(17) 276.4436 273.3521
1481 5.4600 308(18) 276.2512 273.2514
1482 5.4620 301(17) 276.0628 273.1506
1483 5.4640 301(17) 275.8781 273.0499
1484 5.4660 289(17) 275.6971 272.9491
1485 5.4680 313(18) 275.5193 272.8483
1486 5.4700 312(18) 275.3447 272.7475
1487 5.4720 308(18) 275.1732 272.6467
1488 5.4740 303(17) 275.0045 272.5459
1489 5.4760 278(17) 274.8385 272.4450
1490 5.4780 289(17) 274.6749 272.3442
1491 5.4800 298(17) 272.2433 272.2433
1492 5.4820 300(17) 272.1425 272.1425
1493 5.4840 297(17) 272.0416 272.0416
1494 5.4860 286(17) 271.9407 271.9407
1495 5.4880 294(17) 271.8398 271.8398
1496 5.4900 295(17) 271.7389 271.7389
1497 5.4920 295(17) 271.6379 271.6379
1498 5.4940 284(17) 271.5370 271.5370
1499 5.4960 287(17) 271.4361 271.4361
1500 5.4980 294(17) 271.3351 271.3351
1501 5.5000 288(17) 271.2342 271.2342
1502 5.5020 281(17) 271.1332 271.1332
1503 5.5040 298(17) 271.0322 271.0322
1504 5.5060 290(17) 270.9312 270.9312
1505 5.5080 291(17) 270.8302 270.8302
1506 5.5100 280(17) 270.7292 270.7292
1507 5.5120 313(18) 270.6282 270.6282
1508 5.5140 299(17) 270.5271 270.5271
1509 5.5160 282(17) 270.4261 270.4261
1510 5.5180 277(17) 270.3251 270.3251
1511 5.5200 278(17) 270.2240 270.2240
1512 5.5220 293(17) 270.1229 270.1229
1513 5.5240 291(17) 270.0219 270.0219
1514 5.5260 284(17) 269.9207 269.9207
1515 5.5280 282(17) 269.8197 269.8197
1516 5.5300 289(17) 269.7186 269.7186
1517 5.5320 272(17) 269.6175 269.6175
1518 5.5340 302(17) 269.5163 269.5163
1519 5.5360 309(18) 269.4152 269.4152
1520 5.5380 308(18) 269.3141 269.3141
1521 5.5400 287(17) 269.2129 269.2129
1522 5.5420 290(17) 269.1118 269.1118
1523 5.5440 281(17) 269.0106 269.0106
1524 5.5460 285(17) 268.9095 268.9095
1525 5.5480 285(17) 268.8083 268.8083
1526 5.5500 293(17) 268.7071 268.7071
1527 5.5520 294(17) 268.6059 268.6059
1528 5.5540 274(17) 268.5047 268.5047
1529 5.5560 294(17) 268.4035 268.4035
1530 5.5580 288(17) 268.3023 268.3023
1531 5.5600 294(17) 268.2010 268.2010
1532 5.5620 270(16) 268.0998 268.0998
1533 5.5640 288(17) 267.9986 267.9986
1534 5.5660 302(17) 267.8974 267.8974
1535 5.5680 279(17) 267.7961 267.7961
1536 5.5700 285(17) 267.6948 267.6948
1537 5.5720 282(17) 267.5936 267.5936
1538 5.5740 300(17) 267.4923 267.4923
1539 5.5760 285(17) 267.3911 267.3911
1540 5.5780 301(17) 267.2898 267.2898
1541 5.5800 280(17) 267.1885 267.1885
1542 5.5820 298(17) 267.0872 267.0872
1543 5.5840 289(17) 266.9859 266.9859
1544 5.5860 276(17) 266.8846 266.8846
1545 5.5880 290(17) 266.7833 266.7833
1546 5.5900 291(17) 266.6820 266.6820
1547 5.5920 286(17) 266.5807 266.5807
1548 5.5940 284(17) 266.4794 266.4794
1549 5.5960 311(18) 266.3780 266.3780
1550 5.5980 287(17) 266.2766 266.2766
1551 5.6000 280(17) 266.1753 266.1753
1552 5.6020 282(17) 266.0740 266.0740
1553 5.6040 291(17) 265.9727 265.9727
1554 5.6060 280(17) 265.8713 265.8713
1555 5.6080 296(17) 265.7699 265.7699
1556 5.6100 292(17) 265.6686 265.6686
1557 5.6120 294(17) 265.5672 265.5672
1558 5.6140 283(17) 265.4658 265.4658
1559 5.6160 278(17) 265.3644 265.3644
1560 5.6180 274(17) 265.2630 265.2630
1561 5.6200 301(17) 265.1616 265.1616
1562 5.6220 292(17) 265.0602 265.0602
1563 5.6240 272(16) 264.9588 264.9588
1564 5.6260 292(17) 264.8574 264.8574
1565 5.6280 292(17) 264.7560 264.7560
1566 5.6300 280(17) 264.6546 264.6546
1567 5.6320 287(17) 264.5532 264.5532
1568 5.6340 285(17) 264.4518 264.4518
1569 5.6360 279(17) 264.3504 264.3504
1570 5.6380 282(17) 264.2489 264.2489
1571 5.6400 294(17) 264.4219 264.1475
1572 5.6420 284(17) 264.3242 264.0461
1573 5.6440 289(17) 264.2267 263.9446
1574 5.6460 280(17) 264.1292 263.8432
1575 5.6480 289(17) 264.0318 263.7418
1576 5.6500 272(16) 263.9345 263.6404
1577 5.6520 285(17) 263.8372 263.5389
1578 5.6540 288(17) 263.7401 263.4374
1579 5.6560 284(17) 263.6430 263.3359
1580 5.6580 300(17) 263.5461 263.2345
1581 5.6600 285(17) 263.4492 263.1331
1582 5.6620 285(17) 263.3524 263.0316
1583 5.6640 279(17) 263.2558 262.9301
1584 5.6660 286(17) 263.1593 262.8287
1585 5.6680 278(17) 263.0628 262.7272
1586 5.6700 279(17) 262.9665 262.6257
1587 5.6720 268(16) 262.8703 262.5243
1588 5.6740 290(17) 262.7741 262.4228
1589 5.6760 285(17) 262.6782 262.3213
1590 5.6780 274(17) 262.5823 262.2198
1591 5.6800 283(17) 262.4866 262.1183
1592 5.6820 286(17) 262.3911 262.0169
1593 5.6840 281(17) 262.2957 261.9154
1594 5.6860 288(17) 262.2004 261.8139
1595 5.6880 292(17) 262.1052 261.7124
1596 5.6900 289(17) 262.0103 261.6110
1597 5.6920 278(17) 261.9154 261.5094
1598 5.6940 275(17) 261.8208 261.4080
1599 5.6960 279(17) 261.7263 261.3065
1600 5.6980 297(17) 261.6320 261.2050
1601 5.7000 276(17) 261.5379 261.1035
1602 5.7020 300(17) 261.4440 261.0020
1603 5.7040 282(17) 261.3503 260.9005
1604 5.7060 289(17) 261.2568 260.7990
1605 5.7080 293(17) 261.1635 260.6975
1606 5.7100 291(17) 261.0704 260.5961
1607 5.7120 280(17) 260.9775 260.4946
1608 5.7140 287(17) 260.8849 260.3931
1609 5.7160 282(17) 260.7925 260.2916
1610 5.7180 294(17) 260.7004 260.1901
1611 5.7200 281(17) 260.6086 260.0886
1612 5.7220 268(16) 260.5171 259.9872
1613 5.7240 283(17) 260.4258 259.8857
1614 5.7260 291(17) 260.3348 259.7841
1615 5.7280 276(17) 260.2441 259.6826
1616 5.7300 271(16) 260.1537 259.5811
1617 5.7320 283(17) 260.0637 259.4797
1618 5.7340 282(17) 259.9741 259.3782
1619 5.7360 300(17) 259.8848 259.2767
1620 5.7380 274(17) 259.7959 259.1753
1621 5.7400 296(17) 259.7073 259.0737
1622 5.7420 271(16) 259.6192 258.9723
1623 5.7440 292(17) 259.5314 258.8708
1624 5.7460 282(17) 259.4442 258.7693
1625 5.7480 285(17) 259.3574 258.6678
1626 5.7500 280(17) 259.2711 258.5663
1627 5.7520 298(17) 259.1853 258.4649
1628 5.7540 289(17) 259.1000 258.3634
1629 5.7560 289(17) 259.0153 258.2619
1630 5.7580 263(16) 258.9311 258.1604
1631 5.7600 269(16) 258.8476 258.0589
1632 5.7620 306(17) 258.7647 257.9575
1633 5.7640 295(17) 258.6824 257.8560
1634 5.7660 286(17) 258.6009 257.7546
1635 5.7680 268(16) 258.5201 257.6531
1636 5.7700 278(17) 258.4400 257.5517
1637 5.7720 288(17) 258.7392 257.4501
1638 5.7740 290(17) 258.6700 257.3488
1639 5.7760 286(17) 258.6020 257.2473
1640 5.7780 299(17) 258.5353 257.1459
1641 5.7800 284(17) 259.3317 257.0444
1642 5.7820 275(17) 259.2887 256.9430
1643 5.7840 298(17) 259.2479 256.8415
1644 5.7860 290(17) 259.2095 256.7401
1645 5.7880 275(17) 259.1737 256.6386
1646 5.7900 274(17) 259.1404 256.5372
1647 5.7920 291(17) 259.1100 256.4358
1648 5.7940 297(17) 259.0825 256.3344
1649 5.7960 282(17) 259.0581 256.2329
1650 5.7980 292(17) 259.0370 256.1315
1651 5.8000 297(17) 259.0193 256.0301
1652 5.8020 283(17) 259.0054 255.9287
1653 5.8040 279(17) 258.9954 255.8273
1654 5.8060 303(17) 258.9894 255.7259
1655 5.8080 296(17) 258.9878 255.6245
1656 5.8100 285(17) 258.9908 255.5231
1657 5.8120 275(17) 258.9989 255.4217
1658 5.8140 294(17) 259.0121 255.3203
1659 5.8160 292(17) 259.0309 255.2189
1660 5.8180 280(17) 259.0557 255.1176
1661 5.8200 291(17) 259.0868 255.0162
1662 5.8220 306(18) 259.1248 254.9148
1663 5.8240 281(17) 261.7534 254.8135
1664 5.8260 281(17) 262.0195 254.7121
1665 5.8280 276(17) 262.1180 254.6107
1666 5.8300 283(17) 262.2262 254.5094
1667 5.8320 292(17) 262.3448 254.4080
1668 5.8340 281(17) 262.4745 254.3067
1669 5.8360 287(17) 262.6161 254.2054
1670 5.8380 290(17) 262.7705 254.1040
1671 5.8400 293(17) 262.9386 254.0027
1672 5.8420 283(17) 263.1217 253.9014
1673 5.8440 271(16) 263.3207 253.8001
1674 5.8460 293(17) 263.5372 253.6987
1675 5.8480 275(17) 263.7724 253.5975
1676 5.8500 290(17) 264.0281 253.4962
1677 5.8520 291(17) 265.0468 253.3949
1678 5.8540 306(17) 265.3585 253.2936
1679 5.8560 279(17) 265.6968 253.1923
1680 5.8580 280(17) 266.0644 253.0910
1681 5.8600 281(17) 266.4637 252.9898
1682 5.8620 309(18) 266.8982 252.8885
1683 5.8640 292(17) 267.3714 252.7873
1684 5.8660 283(17) 267.8875 252.6860
1685 5.8680 290(17) 268.4511 252.5848
1686 5.8700 295(17) 269.0679 252.4835
1687 5.8720 291(17) 269.7446 252.3823
1688 5.8740 296(17) 270.4884 252.2811
1689 5.8760 319(18) 271.3088 252.1799
1690 5.8780 301(17) 272.2162 252.0786
1691 5.8800 284(17) 273.2236 251.9774
1692 5.8820 283(17) 274.3466 251.8763
1693 5.8840 315(18) 275.6039 251.7751
1694 5.8860 308(18) 277.0178 251.6739
1695 5.8880 297(17) 278.6147 251.5727
1696 5.8900 285(17) 280.4254 251.4715
1697 5.8920 295(17) 282.8451 251.3704
1698 5.8940 311(18) 285.2086 251.2693
1699 5.8960 315(18) 287.9149 251.1681
1700 5.8980 307(18) 291.0204 251.0670
1701 5.9000 308(18) 294.5859 250.9658
1702 5.9020 317(18) 298.6826 250.8647
1703 5.9040 320(18) 303.3846 250.7636
1704 5.9060 338(18) 308.7756 250.6625
1705 5.9080 334(18) 314.9445 250.5614
1706 5.9100 333(18) 321.9858 250.4603
1707 5.9120 343(19) 330.0004 250.3592
1708 5.9140 345(19) 339.0873 250.2581
1709 5.9160 350(19) 349.3424 250.1571
1710 5.9180 368(19) 360.8579 250.0560
1711 5.9200 378(19) 373.7101 249.9550
1712 5.9220 379(19) 387.9573 249.8539
1713 5.9240 408(20) 403.6516 249.7529
1714 5.9260 403(20) 420.8461 249.6519
1715 5.9280 425(21) 439.6573 249.5509
1716 5.9300 433(21) 460.2404 249.4498
1717 5.9320 460(21) 482.7098 249.3488
1718 5.9340 483(22) 506.8034 249.2479
1719 5.9360 503(22) 531.4389 249.1469
1720 5.9380 543(23) 554.6283 249.0459
1721 5.9400 560(24) 574.1980 248.9450
1722 5.9420 550(23) 588.5723 248.8440
1723 5.9440 532(23) 595.9305 248.7431
1724 5.9460 535(23) 593.0543 248.6421
1725 5.9480 529(23) 576.9483 248.5412
1726 5.9500 501(22) 548.4045 248.4403
1727 5.9520 450(21) 512.5442 248.3394
1728 5.9540 467(22) 475.5502 248.2385
1729 5.9560 439(21) 441.6685 248.1376
1730 5.9580 428(21) 412.6695 248.0367
1731 5.9600 393(20) 388.7186 247.9359
1732 5.9620 398(20) 369.2527 247.8351
1733 5.9640 394(20) 353.5060 247.7342
1734 5.9660 356(19) 340.7585 247.6334
1735 5.9680 343(19) 330.3892 247.5325
1736 5.9700 369(19) 321.9099 247.4317
1737 5.9720 351(19) 314.9306 247.3309
1738 5.9740 342(19) 309.1508 247.2301
1739 5.9760 328(18) 304.3366 247.1294
1740 5.9780 336(18) 300.3053 247.0286
1741 5.9800 327(18) 296.9161 246.9278
1742 5.9820 317(18) 294.0578 246.8271
1743 5.9840 322(18) 291.6691 246.7263
1744 5.9860 322(18) 289.6260 246.6256
1745 5.9880 315(18) 287.8997 246.5249
1746 5.9900 333(18) 286.4457 246.4241
1747 5.9920 309(18) 285.2290 246.3235
1748 5.9940 309(18) 284.2203 246.2228
1749 5.9960 299(17) 283.3969 246.1221
1750 5.9980 294(17) 282.7403 246.0215
1751 6.0000 305(17) 282.2354 245.9208
1752 6.0020 309(18) 281.8706 245.8202
1753 6.0040 294(17) 281.6369 245.7196
1754 6.0060 308(18) 281.5274 245.6189
1755 6.0080 310(18) 281.5375 245.5183
1756 6.0100 300(17) 281.6641 245.4178
1757 6.0120 293(17) 281.9060 245.3172
1758 6.0140 316(18) 282.2638 245.2166
1759 6.0160 308(18) 282.7400 245.1161
1760 6.0180 310(18) 283.3385 245.0155
1761 6.0200 310(18) 284.0659 244.9149
1762 6.0220 306(17) 284.9302 244.8145
1763 6.0240 317(18) 285.9429 244.7140
1764 6.0260 307(18) 287.1183 244.6135
1765 6.0280 308(18) 288.4749 244.5130
1766 6.0300 327(18) 290.0364 244.4125
1767 6.0320 313(18) 291.8314 244.3121
1768 6.0340 323(18) 293.8983 244.2116
1769 6.0360 320(18) 296.2838 244.1112
1770 6.0380 329(18) 299.0494 244.0108
1771 6.0400 314(18) 302.2739 243.9104
1772 6.0420 325(18) 306.0588 243.8100
1773 6.0440 326(18) 310.5361 243.7096
1774 6.0460 338(18) 315.8719 243.6092
1775 6.0480 327(18) 322.2723 243.5089
1776 6.0500 347(19) 329.9818 243.4086
1777 6.0520 364(19) 339.2502 243.3083
1778 6.0540 354(19) 350.2462 243.2079
1779 6.0560 369(19) 362.8671 243.1076
1780 6.0580 383(20) 376.3972 243.0073
1781 6.0600 404(20) 389.1930 242.9071
1782 6.0620 398(20) 398.7882 242.8068
1783 6.0640 439(21) 403.0283 242.7066
1784 6.0660 429(21) 401.5982 242.6064
1785 6.0680 442(21) 396.3116 242.5061
1786 6.0700 427(21) 389.7763 242.4060
1787 6.0720 430(21) 384.0243 242.3057
1788 6.0740 436(21) 380.1165 242.2056
1789 6.0760 421(21) 378.4063 242.1054
1790 6.0780 406(20) 378.9043 242.0053
1791 6.0800 412(20) 381.5154 241.9052
1792 6.0820 410(20) 386.1577 241.8050
1793 6.0840 432(21) 392.8036 241.7050
1794 6.0860 435(21) 401.5015 241.6049
1795 6.0880 441(21) 412.3618 241.5047
1796 6.0900 449(21) 425.5643 241.4047
1797 6.0920 462(21) 441.3430 241.3047
1798 6.0940 476(22) 459.9782 241.2047
1799 6.0960 495(22) 481.7922 241.1046
1800 6.0980 502(22) 507.1214 241.0046
1801 6.1000 533(23) 536.3081 240.9047
1802 6.1020 538(23) 569.6968 240.8047
1803 6.1040 553(24) 607.5914 240.7047
1804 6.1060 582(24) 650.2261 240.6048
1805 6.1080 618(25) 697.3595 240.5049
1806 6.1100 641(25) 749.6493 240.4050
1807 6.1120 662(26) 806.3893 240.3051
1808 6.1140 688(26) 866.7894 240.2052
1809 6.1160 701(26) 928.6877 240.1053
1810 6.1180 769(28) 991.7361 240.0055
1811 6.1200 774(28) 1052.2042 239.9057
1812 6.1220 826(29) 1106.5043 239.8059
1813 6.1240 824(29) 1150.6326 239.7061
1814 6.1260 908(30) 1180.9202 239.6063
1815 6.1280 876(30) 1194.7942 239.5065
1816 6.1300 886(30) 1191.5383 239.4068
1817 6.1320 853(29) 1172.4927 239.3071
1818 6.1340 852(29) 1140.6991 239.2074
1819 6.1360 803(28) 1100.1173 239.1076
1820 6.1380 784(28) 1054.8157 239.0079
1821 6.1400 775(28) 1008.3301 238.9083
1822 6.1420 758(28) 963.3188 238.8087
1823 6.1440 786(28) 921.5273 238.7090
1824 6.1460 776(28) 883.8448 238.6094
1825 6.1480 804(28) 850.4131 238.5098
1826 6.1500 793(28) 820.7739 238.4102
1827 6.1520 845(29) 793.9435 238.3106
1828 6.1540 897(30) 768.6298 238.2111
1829 6.1560 938(31) 743.4207 238.1116
1830 6.1580 951(31) 717.1302 238.0120
1831 6.1600 984(31) 689.1182 237.9126
1832 6.1620 945(31) 659.4298 237.8131
1833 6.1640 869(29) 628.6765 237.7136
1834 6.1660 803(28) 597.7205 237.6142
1835 6.1680 725(27) 567.3923 237.5147
1836 6.1700 656(26) 538.3669 237.4153
1837 6.1720 601(25) 511.1089 237.3159
1838 6.1740 545(23) 485.8799 237.2165
1839 6.1760 511(23) 462.8026 237.1172
1840 6.1780 494(22) 441.8639 237.0178
1841 6.1800 448(21) 422.9984 236.9185
1842 6.1820 426(21) 406.0813 236.8192
1843 6.1840 398(20) 390.9692 236.7200
1844 6.1860 400(20) 377.5079 236.6207
1845 6.1880 363(19) 365.5383 236.5214
1846 6.1900 362(19) 354.9127 236.4222
1847 6.1920 344(19) 345.4789 236.3230
1848 6.1940 340(18) 337.1031 236.2238
1849 6.1960 336(18) 329.6553 236.1246
1850 6.1980 328(18) 323.0187 236.0255
1851 6.2000 315(18) 317.0870 235.9263
1852 6.2020 307(18) 311.7697 235.8271
1853 6.2040 301(17) 306.9827 235.7281
1854 6.2060 309(18) 302.6569 235.6290
1855 6.2080 310(18) 298.7301 235.5299
1856 6.2100 296(17) 295.1501 235.4309
1857 6.2120 285(17) 291.8725 235.3319
1858 6.2140 286(17) 288.8592 235.2328
1859 6.2160 282(17) 286.0799 235.1338
1860 6.2180 295(17) 283.5065 235.0349
1861 6.2200 273(17) 281.1175 234.9359
1862 6.2220 283(17) 278.8929 234.8370
1863 6.2240 293(17) 276.5455 234.7381
1864 6.2260 273(17) 274.6061 234.6392
1865 6.2280 293(17) 272.7874 234.5403
1866 6.2300 278(17) 271.0790 234.4414
1867 6.2320 277(17) 269.4719 234.3426
1868 6.2340 261(16) 267.9571 234.2438
1869 6.2360 294(17) 266.1747 234.1450
1870 6.2380 262(16) 264.8307 234.0462
1871 6.2400 298(17) 263.5581 233.9474
1872 6.2420 256(16) 262.3521 233.8487
1873 6.2440 277(17) 261.2073 233.7500
1874 6.2460 265(16) 260.1195 233.6513
1875 6.2480 271(16) 259.0846 233.5526
1876 6.2500 271(16) 258.0988 233.4540
1877 6.2520 260(16) 257.1587 233.3553
1878 6.2540 280(17) 256.2609 233.2567
1879 6.2560 269(16) 255.4030 233.1581
1880 6.2580 264(16) 254.5825 233.0595
1881 6.2600 273(17) 253.7966 232.9609
1882 6.2620 272(17) 253.0434 232.8624
1883 6.2640 262(16) 252.3207 232.7639
1884 6.2660 270(16) 251.6266 232.6654
1885 6.2680 283(17) 250.9595 232.5669
1886 6.2700 266(16) 250.3175 232.4685
1887 6.2720 283(17) 249.6996 232.3700
1888 6.2740 263(16) 249.1041 232.2716
1889 6.2760 261(16) 248.5299 232.1732
1890 6.2780 268(16) 247.9756 232.0749
1891 6.2800 277(17) 247.4400 231.9765
1892 6.2820 274(17) 246.9225 231.8782
1893 6.2840 280(17) 246.4218 231.7799
1894 6.2860 270(16) 245.9371 231.6816
1895 6.2880 263(16) 245.4676 231.5833
1896 6.2900 277(17) 245.0125 231.4851
1897 6.2920 288(17) 244.5710 231.3868
1898 6.2940 280(17) 244.1425 231.2887
1899 6.2960 252(16) 243.7263 231.1905
1900 6.2980 271(16) 243.3218 231.0923
1901 6.3000 262(16) 242.9285 230.9942
1902 6.3020 280(17) 242.5457 230.8960
1903 6.3040 272(17) 242.1732 230.7980
1904 6.3060 274(17) 241.8101 230.6999
1905 6.3080 263(16) 241.4563 230.6018
1906 6.3100 270(16) 241.1113 230.5038
1907 6.3120 274(17) 240.7746 230.4058
1908 6.3140 265(16) 240.4460 230.3078
1909 6.3160 269(16) 240.1251 230.2099
1910 6.3180 262(16) 239.8114 230.1119
1911 6.3200 267(16) 239.5047 230.0140
1912 6.3220 242(16) 239.2047 229.9161
1913 6.3240 275(17) 238.9111 229.8182
1914 6.3260 263(16) 238.6238 229.7204
1915 6.3280 257(16) 238.3423 229.6226
1916 6.3300 249(16) 238.0665 229.5247
1917 6.3320 265(16) 237.7960 229.4269
1918 6.3340 259(16) 237.5040 229.3292
1919 6.3360 271(16) 237.2444 229.2314
1920 6.3380 274(17) 236.9896 229.1337
1921 6.3400 267(16) 236.7394 229.0360
1922 6.3420 279(17) 236.4937 228.9384
1923 6.3440 246(16) 236.2522 228.8407
1924 6.3460 269(16) 238.4672 228.7431
1925 6.3480 267(16) 238.2629 228.6455
1926 6.3500 262(16) 238.0630 228.5479
1927 6.3520 268(16) 237.8673 228.4504
1928 6.3540 266(16) 237.6757 228.3528
1929 6.3560 270(16) 237.4881 228.2554
1930 6.3580 256(16) 237.3042 228.1578
1931 6.3600 264(16) 237.1241 228.0604
1932 6.3620 262(16) 236.9477 227.9629
1933 6.3640 263(16) 236.7749 227.8655
1934 6.3660 250(16) 236.6056 227.7681
1935 6.3680 263(16) 236.4397 227.6708
1936 6.3700 245(16) 236.2772 227.5735
1937 6.3720 259(16) 236.1178 227.4761
1938 6.3740 249(16) 235.9617 227.3788
1939 6.3760 262(16) 235.8086 227.2815
1940 6.3780 265(16) 235.6587 227.1843
1941 6.3800 253(16) 235.5118 227.0871
1942 6.3820 259(16) 235.3678 226.9899
1943 6.3840 249(16) 235.2267 226.8927
1944 6.3860 251(16) 235.0886 226.7955
1945 6.3880 243(16) 234.9532 226.6984
1946 6.3900 269(16) 234.8206 226.6013
1947 6.3920 233(15) 234.6908 226.5042
1948 6.3940 263(16) 234.5637 226.4072
1949 6.3960 234(15) 234.4393 226.3102
1950 6.3980 263(16) 234.3176 226.2131
1951 6.4000 251(16) 234.1985 226.1161
1952 6.4020 253(16) 234.0820 226.0192
1953 6.4040 255(16) 233.9681 225.9222
1954 6.4060 257(16) 233.8569 225.8253
1955 6.4080 245(16) 233.7482 225.7285
1956 6.4100 257(16) 233.6421 225.6316
1957 6.4120 266(16) 233.5385 225.5348
1958 6.4140 255(16) 233.4375 225.4379
1959 6.4160 258(16) 233.3391 225.3412
1960 6.4180 240(15) 233.2432 225.2444
1961 6.4200 265(16) 233.1498 225.1477
1962 6.4220 256(16) 233.0591 225.0510
1963 6.4240 265(16) 232.9709 224.9543
1964 6.4260 257(16) 232.8854 224.8576
1965 6.4280 266(16) 232.8024 224.7610
1966 6.4300 251(16) 232.7221 224.6644
1967 6.4320 248(16) 232.6444 224.5678
1968 6.4340 257(16) 229.8526 224.4713
1969 6.4360 252(16) 229.8153 224.3747
1970 6.4380 263(16) 229.7800 224.2782
1971 6.4400 252(16) 229.7468 224.1817
1972 6.4420 263(16) 229.7158 224.0853
1973 6.4440 261(16) 229.6870 223.9889
1974 6.4460 267(16) 229.6605 223.8925
1975 6.4480 245(16) 229.6363 223.7961
1976 6.4500 271(16) 229.6145 223.6997
1977 6.4520 268(16) 229.5951 223.6034
1978 6.4540 262(16) 229.5783 223.5071
1979 6.4560 242(16) 229.5641 223.4108
1980 6.4580 258(16) 229.5526 223.3146
1981 6.4600 269(16) 229.5438 223.2184
1982 6.4620 251(16) 229.5379 223.1222
1983 6.4640 255(16) 229.5349 223.0260
1984 6.4660 249(16) 228.8061 222.9299
1985 6.4680 268(16) 228.8186 222.8337
1986 6.4700 263(16) 228.8342 222.7377
1987 6.4720 259(16) 228.8529 222.6416
1988 6.4740 265(16) 228.8749 222.5455
1989 6.4760 260(16) 228.9003 222.4496
1990 6.4780 251(16) 228.9293 222.3536
1991 6.4800 260(16) 228.9620 222.2576
1992 6.4820 259(16) 228.9985 222.1617
1993 6.4840 245(16) 229.0389 222.0658
1994 6.4860 253(16) 229.0835 221.9699
1995 6.4880 242(16) 229.1324 221.8741
1996 6.4900 248(16) 230.3196 221.7782
1997 6.4920 231(15) 230.4023 221.6824
1998 6.4940 252(16) 230.4907 221.5867
1999 6.4960 245(16) 230.5849 221.4909
2000 6.4980 248(16) 230.6853 221.3952
2001 6.5000 231(15) 230.7922 221.2996
2002 6.5020 262(16) 230.9057 221.2039
2003 6.5040 252(16) 231.0262 221.1082
2004 6.5060 254(16) 231.1540 221.0126
2005 6.5080 244(16) 231.2895 220.9171
2006 6.5100 251(16) 231.4329 220.8215
2007 6.5120 244(16) 231.5847 220.7260
2008 6.5140 254(16) 231.7452 220.6305
2009 6.5160 243(16) 231.9149 220.5351
2010 6.5180 247(16) 232.0941 220.4396
2011 6.5200 254(16) 232.2833 220.3442
2012 6.5220 244(16) 232.4832 220.2488
2013 6.5240 254(16) 232.6941 220.1535
2014 6.5260 247(16) 232.9166 220.0582
2015 6.5280 243(16) 233.1513 219.9628
2016 6.5300 264(16) 233.3988 219.8676
2017 6.5320 244(16) 233.6598 219.7723
2018 6.5340 247(16) 233.9351 219.6771
2019 6.5360 243(16) 234.2253 219.5819
2020 6.5380 249(16) 234.5312 219.4868
2021 6.5400 266(16) 234.8538 219.3916
2022 6.5420 250(16) 235.1940 219.2965
2023 6.5440 248(16) 235.5527 219.2015
2024 6.5460 249(16) 235.9310 219.1064
2025 6.5480 272(16) 236.3301 219.0114
2026 6.5500 264(16) 236.7511 218.9164
2027 6.5520 251(16) 237.1954 218.8215
2028 6.5540 258(16) 237.6644 218.7265
2029 6.5560 263(16) 238.1596 218.6316
2030 6.5580 257(16) 238.6825 218.5368
2031 6.5600 246(16) 239.2352 218.4419
2032 6.5620 249(16) 239.8192 218.3471
2033 6.5640 239(15) 240.4368 218.2523
2034 6.5660 242(16) 241.1297 218.1576
2035 6.5680 255(16) 242.6816 218.0628
2036 6.5700 267(16) 243.4245 217.9681
2037 6.5720 258(16) 244.2112 217.8735
2038 6.5740 253(16) 245.0450 217.7788
2039 6.5760 260(16) 245.9289 217.6842
2040 6.5780 266(16) 246.8667 217.5896
2041 6.5800 266(16) 247.8626 217.4951
2042 6.5820 264(16) 248.9207 217.4006
2043 6.5840 272(16) 250.0459 217.3061
2044 6.5860 271(16) 251.2436 217.2116
2045 6.5880 262(16) 252.5197 217.1172
2046 6.5900 270(16) 253.8801 217.0227
2047 6.5920 271(16) 255.3321 216.9284
2048 6.5940 276(17) 256.8841 216.8340
2049 6.5960 263(16) 258.5438 216.7397
2050 6.5980 276(17) 260.3214 216.6454
2051 6.6000 296(17) 262.2280 216.5512
2052 6.6020 274(17) 264.2749 216.4570
2053 6.6040 267(16) 266.4762 216.3627
2054 6.6060 298(17) 268.8480 216.2686
2055 6.6080 295(17) 271.4069 216.1745
2056 6.6100 304(17) 274.1736 216.0803
2057 6.6120 291(17) 277.1716 215.9863
2058 6.6140 301(17) 280.4288 215.8922
2059 6.6160 306(17) 283.9755 215.7982
2060 6.6180 319(18) 287.8496 215.7042
2061 6.6200 327(18) 292.0966 215.6102
2062 6.6220 343(19) 296.7666 215.5163
2063 6.6240 336(18) 301.9225 215.4224
2064 6.6260 329(18) 307.6397 215.3286
2065 6.6280 351(19) 314.0029 215.2347
2066 6.6300 363(19) 321.1172 215.1409
2067 6.6320 368(19) 329.1047 215.0471
2068 6.6340 371(19) 338.1113 214.9534
2069 6.6360 396(20) 348.3002 214.8597
2070 6.6380 401(20) 359.8673 214.7660
2071 6.6400 421(21) 373.0391 214.6723
2072 6.6420 444(21) 388.0640 214.5787
2073 6.6440 476(22) 405.2339 214.4852
2074 6.6460 480(22) 424.8794 214.3916
2075 6.6480 486(22) 447.3559 214.2980
2076 6.6500 519(23) 473.1461 214.2046
2077 6.6520 527(23) 502.5708 214.1111
2078 6.6540 600(24) 536.1887 214.0177
2079 6.6560 579(24) 574.5616 213.9243
2080 6.6580 633(25) 618.2931 213.8309
2081 6.6600 656(26) 668.0292 213.7375
2082 6.6620 701(26) 724.3539 213.6442
2083 6.6640 742(27) 787.7280 213.5510
2084 6.6660 804(28) 858.1779 213.4577
2085 6.6680 831(29) 934.7130 213.3645
2086 6.6700 890(30) 1014.6206 213.2713
2087 6.6720 934(31) 1092.6066 213.1781
2088 6.6740 997(32) 1160.8033 213.0850
2089 6.6760 1092(33) 1210.9502 212.9919
2090 6.6780 1042(32) 1237.8989 212.8989
2091 6.6800 1081(33) 1241.7175 212.8058
2092 6.6820 1089(33) 1226.2589 212.7129
2093 6.6840 1091(33) 1196.1676 212.6199
2094 6.6860 1030(32) 1155.1682 212.5270
2095 6.6880 969(31) 1106.0652 212.4341
2096 6.6900 909(30) 1051.1865 212.3412
2097 6.6920 849(29) 992.7095 212.2483
2098 6.6940 826(29) 932.7166 212.1555
2099 6.6960 741(27) 872.9926 212.0628
2100 6.6980 721(27) 814.9627 211.9700
2101 6.7000 663(26) 759.7040 211.8773
2102 6.7020 666(26) 707.8902 211.7847
2103 6.7040 598(24) 659.9119 211.6920
2104 6.7060 589(24) 615.9230 211.5994
2105 6.7080 541(23) 575.9453 211.5068
2106 6.7100 506(23) 539.8569 211.4143
2107 6.7120 497(22) 507.4653 211.3218
2108 6.7140 467(22) 478.5536 211.2293
2109 6.7160 454(21) 452.8551 211.1368
2110 6.7180 413(20) 430.0924 211.0444
2111 6.7200 403(20) 410.0016 210.9520
2112 6.7220 411(20) 392.3077 210.8597
2113 6.7240 389(20) 376.7523 210.7674
2114 6.7260 348(19) 363.0901 210.6751
2115 6.7280 354(19) 356.2543 210.5828
2116 6.7300 331(18) 345.7973 210.4906
2117 6.7320 327(18) 336.6321 210.3984
2118 6.7340 320(18) 328.6079 210.3062
2119 6.7360 315(18) 321.5908 210.2141
2120 6.7380 313(18) 315.4699 210.1220
2121 6.7400 307(18) 310.1586 210.0300
2122 6.7420 297(17) 305.5806 209.9380
2123 6.7440 287(17) 301.6652 209.8459
2124 6.7460 293(17) 298.3319 209.7540
2125 6.7480 295(17) 295.4582 209.6621
2126 6.7500 294(17) 292.8583 209.5702
2127 6.7520 286(17) 290.2851 209.4783
2128 6.7540 287(17) 287.5018 209.3865
2129 6.7560 278(17) 284.3925 209.2947
2130 6.7580 276(17) 281.0226 209.2030
2131 6.7600 281(17) 277.5779 209.1112
2132 6.7620 265(16) 274.2446 209.0195
2133 6.7640 267(16) 271.1423 208.9279
2134 6.7660 263(16) 268.3218 208.8362
2135 6.7680 285(17) 265.7845 208.7447
2136 6.7700 259(16) 263.5093 208.6531
2137 6.7720 257(16) 261.4675 208.5616
2138 6.7740 255(16) 259.6313 208.4701
2139 6.7760 252(16) 257.9747 208.3786
2140 6.7780 252(16) 256.4756 208.2872
2141 6.7800 256(16) 255.1168 208.1958
2142 6.7820 264(16) 253.8833 208.1045
2143 6.7840 255(16) 252.7626 208.0132
2144 6.7860 253(16) 251.7457 207.9219
2145 6.7880 241(16) 250.8242 207.8306
2146 6.7900 252(16) 249.9917 207.7394
2147 6.7920 244(16) 249.2434 207.6482
2148 6.7940 245(16) 248.5753 207.5571
2149 6.7960 248(16) 247.9846 207.4660
2150 6.7980 243(16) 247.4693 207.3749
2151 6.8000 238(15) 247.0291 207.2838
2152 6.8020 251(16) 246.6639 207.1928
2153 6.8040 248(16) 246.3751 207.1018
2154 6.8060 251(16) 246.1657 207.0109
2155 6.8080 242(16) 246.0397 206.9200
2156 6.8100 236(15) 246.0032 206.8291
2157 6.8120 243(16) 246.0646 206.7382
2158 6.8140 242(16) 246.2348 206.6474
2159 6.8160 250(16) 246.5284 206.5567
2160 6.8180 241(16) 246.9640 206.4659
2161 6.8200 260(16) 247.5653 206.3752
2162 6.8220 241(16) 248.3614 206.2845
2163 6.8240 243(16) 249.3867 206.1939
2164 6.8260 242(16) 250.6766 206.1033
2165 6.8280 262(16) 252.2601 206.0128
2166 6.8300 246(16) 254.1411 205.9222
2167 6.8320 248(16) 256.2625 205.8317
2168 6.8340 247(16) 258.4645 205.7413
2169 6.8360 257(16) 260.4560 205.6508
2170 6.8380 261(16) 261.8633 205.5605
2171 6.8400 270(16) 262.3969 205.4701
2172 6.8420 263(16) 262.0302 205.3798
2173 6.8440 272(17) 261.0216 205.2895
2174 6.8460 264(16) 259.7520 205.1993
2175 6.8480 252(16) 258.5446 205.1090
2176 6.8500 240(16) 257.5937 205.0188
2177 6.8520 260(16) 256.9827 204.9287
2178 6.8540 256(16) 256.7283 204.8386
2179 6.8560 250(16) 256.8180 204.7485
2180 6.8580 247(16) 257.2317 204.6585
2181 6.8600 259(16) 257.9524 204.5685
2182 6.8620 265(16) 258.9707 204.4785
2183 6.8640 255(16) 259.1769 204.3886
2184 6.8660 271(16) 260.8209 204.2987
2185 6.8680 282(17) 262.7867 204.2088
2186 6.8700 259(16) 265.1004 204.1190
2187 6.8720 275(17) 267.7945 204.0292
2188 6.8740 259(16) 270.9106 203.9395
2189 6.8760 270(16) 274.4977 203.8497
2190 6.8780 274(17) 278.6094 203.7600
2191 6.8800 275(17) 283.3072 203.6704
2192 6.8820 277(17) 288.6584 203.5808
2193 6.8840 301(17) 294.7301 203.4912
2194 6.8860 286(17) 301.5948 203.4017
2195 6.8880 310(18) 309.3238 203.3122
2196 6.8900 318(18) 317.9878 203.2227
2197 6.8920 346(19) 327.6444 203.1333
2198 6.8940 321(18) 338.3463 203.0439
2199 6.8960 336(18) 350.1298 202.9545
2200 6.8980 345(19) 362.9962 202.8652
2201 6.9000 389(20) 376.9177 202.7760
2202 6.9020 375(19) 391.8140 202.6867
2203 6.9040 374(19) 407.5208 202.5975
2204 6.9060 421(21) 423.7879 202.5083
2205 6.9080 398(20) 440.2409 202.4191
2206 6.9100 439(21) 456.3696 202.3300
2207 6.9120 431(21) 471.5107 202.2410
2208 6.9140 465(22) 484.8974 202.1520
2209 6.9160 455(21) 495.7120 202.0629
2210 6.9180 485(22) 503.1877 201.9740
2211 6.9200 486(22) 506.7513 201.8850
2212 6.9220 525(23) 506.1273 201.7962
2213 6.9240 502(22) 501.4007 201.7073
2214 6.9260 494(22) 492.9987 201.6185
2215 6.9280 483(22) 481.6000 201.5298
2216 6.9300 466(22) 468.0063 201.4410
2217 6.9320 439(21) 453.0337 201.3523
2218 6.9340 422(21) 437.4039 201.2636
2219 6.9360 419(20) 421.7061 201.1750
2220 6.9380 389(20) 406.3972 201.0864
2221 6.9400 358(19) 391.7908 200.9978
2222 6.9420 370(19) 378.0912 200.9093
2223 6.9440 360(19) 365.3883 200.8209
2224 6.9460 355(19) 353.8156 200.7324
2225 6.9480 324(18) 343.3440 200.6440
2226 6.9500 333(18) 333.9595 200.5556
2227 6.9520 304(17) 325.6185 200.4673
2228 6.9540 297(17) 318.2660 200.3790
2229 6.9560 315(18) 311.8362 200.2907
2230 6.9580 303(17) 306.2632 200.2025
2231 6.9600 299(17) 301.4745 200.1144
2232 6.9620 287(17) 297.3990 200.0262
2233 6.9640 295(17) 293.9712 199.9380
2234 6.9660 272(16) 291.1261 199.8500
2235 6.9680 283(17) 288.8042 199.7619
2236 6.9700 269(16) 286.9531 199.6740
2237 6.9720 278(17) 285.5247 199.5860
2238 6.9740 262(16) 284.4770 199.4981
2239 6.9760 258(16) 283.7742 199.4102
2240 6.9780 263(16) 283.3863 199.3223
2241 6.9800 258(16) 283.2881 199.2345
2242 6.9820 258(16) 283.5083 199.1468
2243 6.9840 264(16) 283.9344 199.0590
2244 6.9860 265(16) 284.6028 198.9713
2245 6.9880 262(16) 285.5057 198.8837
2246 6.9900 264(16) 286.6377 198.7961
2247 6.9920 253(16) 287.9973 198.7085
2248 6.9940 270(16) 289.5855 198.6209
2249 6.9960 274(17) 291.4051 198.5334
2250 6.9980 261(16) 293.4619 198.4460
2251 7.0000 278(17) 295.7643 198.3585
2252 7.0020 281(17) 298.3233 198.2711
2253 7.0040 278(17) 301.1507 198.1838
2254 7.0060 281(17) 304.2629 198.0964
2255 7.0080 284(17) 307.6796 198.0091
2256 7.0100 291(17) 311.4212 197.9219
2257 7.0120 281(17) 315.5147 197.8347
2258 7.0140 291(17) 319.9918 197.7475
2259 7.0160 301(17) 324.8864 197.6604
2260 7.0180 300(17) 330.2422 197.5733
2261 7.0200 310(18) 336.1092 197.4863
2262 7.0220 313(18) 342.5482 197.3993
2263 7.0240 305(17) 347.2221 197.3123
2264 7.0260 317(18) 355.0514 197.2254
2265 7.0280 320(18) 363.7033 197.1384
2266 7.0300 342(18) 373.2191 197.0516
2267 7.0320 354(19) 383.9274 196.9648
2268 7.0340 370(19) 395.8156 196.8780
2269 7.0360 395(20) 409.1101 196.7912
2270 7.0380 400(20) 424.0224 196.7045
2271 7.0400 399(20) 440.7941 196.6179
2272 7.0420 433(21) 459.6841 196.5312
2273 7.0440 455(21) 480.9929 196.4447
2274 7.0460 491(22) 505.0461 196.3581
2275 7.0480 511(23) 532.2029 196.2716
2276 7.0500 515(23) 562.8253 196.1851
2277 7.0520 556(24) 597.3115 196.0987
2278 7.0540 586(24) 636.0722 196.0123
2279 7.0560 622(25) 681.3533 195.9259
2280 7.0580 669(26) 729.8599 195.8396
2281 7.0600 703(27) 783.7874 195.7533
2282 7.0620 761(28) 843.4114 195.6671
2283 7.0640 798(28) 908.9621 195.5809
2284 7.0660 863(29) 980.5338 195.4947
2285 7.0680 918(30) 1058.0616 195.4086
2286 7.0700 987(31) 1141.1738 195.3225
2287 7.0720 1060(33) 1229.2075 195.2365
2288 7.0740 1158(34) 1321.0461 195.1505
2289 7.0760 1236(35) 1414.9175 195.0645
2290 7.0780 1284(36) 1508.4164 194.9786
2291 7.0800 1395(37) 1598.3716 194.8926
2292 7.0820 1464(38) 1680.8328 194.8068
2293 7.0840 1530(39) 1751.4258 194.7210
2294 7.0860 1625(40) 1805.7117 194.6352
2295 7.0880 1769(42) 1839.7742 194.5495
2296 7.0900 1766(42) 1850.9637 194.4638
2297 7.0920 1765(42) 1838.3618 194.3781
2298 7.0940 1678(41) 1802.9727 194.2925
2299 7.0960 1658(41) 1747.5562 194.2070
2300 7.0980 1544(39) 1676.0411 194.1214
2301 7.1000 1427(38) 1592.8671 194.0359
2302 7.1020 1362(37) 1502.4543 193.9505
2303 7.1040 1262(36) 1408.6580 193.8651
2304 7.1060 1149(34) 1314.6083 193.7797
2305 7.1080 1081(33) 1222.7408 193.6943
2306 7.1100 1012(32) 1134.7262 193.6090
2307 7.1120 945(31) 1051.6777 193.5238
2308 7.1140 858(29) 974.2375 193.4386
2309 7.1160 785(28) 902.7627 193.3534
2310 7.1180 736(27) 837.3073 193.2683
2311 7.1200 695(26) 777.7559 193.1832
2312 7.1220 640(25) 723.9138 193.0981
2313 7.1240 571(24) 675.4614 193.0131
2314 7.1260 582(24) 632.0317 192.9281
2315 7.1280 516(23) 593.2583 192.8432
2316 7.1300 492(22) 559.1443 192.7583
2317 7.1320 475(22) 528.4562 192.6734
2318 7.1340 440(21) 501.2278 192.5886
2319 7.1360 398(20) 477.0775 192.5038
2320 7.1380 380(19) 455.6544 192.4191
2321 7.1400 389(20) 436.6298 192.3343
2322 7.1420 371(19) 419.7174 192.2497
2323 7.1440 354(19) 404.6469 192.1651
2324 7.1460 330(18) 391.1794 192.0805
2325 7.1480 342(18) 379.1140 191.9960
2326 7.1500 329(18) 368.2713 191.9115
2327 7.1520 295(17) 358.4843 191.8270
2328 7.1540 314(18) 349.6281 191.7426
2329 7.1560 305(17) 341.5864 191.6582
2330 7.1580 302(17) 334.2622 191.5739
2331 7.1600 281(17) 327.5718 191.4896
2332 7.1620 298(17) 321.4490 191.4053
2333 7.1640 284(17) 315.8334 191.3211
2334 7.1660 265(16) 310.6742 191.2369
2335 7.1680 273(17) 305.9316 191.1528
2336 7.1700 273(17) 301.5688 191.0687
2337 7.1720 270(16) 297.5546 190.9846
2338 7.1740 261(16) 293.8650 190.9006
2339 7.1760 256(16) 290.4774 190.8167
2340 7.1780 252(16) 287.3725 190.7327
2341 7.1800 261(16) 284.6302 190.6488
2342 7.1820 266(16) 282.0507 190.5650
2343 7.1840 267(16) 281.6921 190.4812
2344 7.1860 262(16) 279.6152 190.3974
2345 7.1880 252(16) 277.7710 190.3137
2346 7.1900 247(16) 276.1559 190.2300
2347 7.1920 250(16) 274.7686 190.1463
2348 7.1940 246(16) 273.6114 190.0627
2349 7.1960 228(15) 272.6879 189.9791
2350 7.1980 254(16) 272.0052 189.8956
2351 7.2000 250(16) 271.5736 189.8121
2352 7.2020 271(16) 271.4070 189.7287
2353 7.2040 260(16) 271.5236 189.6453
2354 7.2060 257(16) 271.9465 189.5619
2355 7.2080 267(16) 272.7047 189.4786
2356 7.2100 257(16) 274.5232 189.3953
2357 7.2120 280(17) 276.0840 189.3121
2358 7.2140 272(16) 278.1175 189.2289
2359 7.2160 261(16) 280.6929 189.1457
2360 7.2180 262(16) 283.8969 189.0626
2361 7.2200 270(16) 287.8346 188.9796
2362 7.2220 292(17) 292.6396 188.8965
2363 7.2240 311(18) 298.4799 188.8135
2364 7.2260 311(18) 305.5617 188.7305
2365 7.2280 327(18) 314.1488 188.6477
2366 7.2300 320(18) 324.5718 188.5648
2367 7.2320 343(19) 337.2482 188.4819
2368 7.2340 382(20) 352.6871 188.3992
2369 7.2360 389(20) 371.5186 188.3164
2370 7.2380 405(20) 394.4867 188.2337
2371 7.2400 432(21) 422.3852 188.1511
2372 7.2420 466(22) 455.9628 188.0685
2373 7.2440 500(22) 495.6209 187.9859
2374 7.2460 548(23) 540.8249 187.9033
2375 7.2480 566(24) 589.3073 187.8209
2376 7.2500 659(26) 636.1268 187.7384
2377 7.2520 696(26) 673.5826 187.6560
2378 7.2540 736(27) 693.1020 187.5736
2379 7.2560 740(27) 689.2516 187.4913
2380 7.2580 727(27) 662.9570 187.4090
2381 7.2600 639(25) 620.9464 187.3267
2382 7.2620 576(24) 571.8704 187.2446
2383 7.2640 543(23) 522.7568 187.1624
2384 7.2660 513(23) 477.7772 187.0802
2385 7.2680 471(22) 438.6175 186.9982
2386 7.2700 416(20) 405.4644 186.9161
2387 7.2720 375(19) 377.8024 186.8341
2388 7.2740 376(19) 353.9856 186.7522
2389 7.2760 352(19) 334.9371 186.6703
2390 7.2780 336(18) 319.0772 186.5884
2391 7.2800 318(18) 305.8151 186.5066
2392 7.2820 298(17) 294.6588 186.4248
2393 7.2840 287(17) 285.2144 186.3430
2394 7.2860 288(17) 277.1737 186.2613
2395 7.2880 266(16) 270.2852 186.1797
2396 7.2900 263(16) 264.3491 186.0981
2397 7.2920 255(16) 259.2094 186.0165
2398 7.2940 263(16) 254.7368 185.9350
2399 7.2960 254(16) 250.8285 185.8535
2400 7.2980 242(16) 247.4002 185.7720
2401 7.3000 231(15) 244.3858 185.6906
2402 7.3020 235(15) 241.7289 185.6093
2403 7.3040 240(15) 239.3838 185.5279
2404 7.3060 237(15) 237.3143 185.4466
2405 7.3080 235(15) 235.4893 185.3654
2406 7.3100 224(15) 233.8837 185.2842
2407 7.3120 214(15) 232.4778 185.2030
2408 7.3140 225(15) 231.2546 185.1219
2409 7.3160 228(15) 230.2008 185.0409
2410 7.3180 224(15) 229.3063 184.9598
2411 7.3200 209(14) 228.5627 184.8788
2412 7.3220 216(15) 227.9637 184.7979
2413 7.3240 232(15) 227.5049 184.7170
2414 7.3260 230(15) 227.1834 184.6362
2415 7.3280 219(15) 226.9971 184.5553
2416 7.3300 221(15) 226.9452 184.4745
2417 7.3320 218(15) 227.0273 184.3938
2418 7.3340 225(15) 227.2435 184.3131
2419 7.3360 221(15) 227.5936 184.2325
2420 7.3380 222(15) 228.0759 184.1519
2421 7.3400 227(15) 228.6866 184.0713
2422 7.3420 215(15) 229.4170 183.9908
2423 7.3440 217(15) 230.2508 183.9103
2424 7.3460 217(15) 231.1604 183.8299
2425 7.3480 227(15) 232.1081 183.7495
2426 7.3500 226(15) 233.0503 183.6692
2427 7.3520 221(15) 233.9474 183.5889
2428 7.3540 227(15) 234.7730 183.5086
2429 7.3560 242(16) 235.5138 183.4284
2430 7.3580 224(15) 236.1650 183.3482
2431 7.3600 233(15) 236.7283 183.2681
2432 7.3620 242(16) 237.2144 183.1880
2433 7.3640 243(16) 237.6456 183.1079
2434 7.3660 221(15) 238.0581 183.0279
2435 7.3680 230(15) 238.5005 182.9480
2436 7.3700 233(15) 239.0300 182.8680
2437 7.3720 242(16) 239.7094 182.7882
2438 7.3740 226(15) 240.6044 182.7083
2439 7.3760 254(16) 241.7830 182.6285
2440 7.3780 223(15) 243.3153 182.5488
2441 7.3800 250(16) 245.2774 182.4691
2442 7.3820 251(16) 247.7547 182.3894
2443 7.3840 256(16) 250.8439 182.3098
2444 7.3860 260(16) 254.6617 182.2302
2445 7.3880 248(16) 259.3487 182.1507
2446 7.3900 266(16) 265.0770 182.0712
2447 7.3920 276(17) 272.0497 181.9918
2448 7.3940 281(17) 280.5094 181.9124
2449 7.3960 284(17) 290.7265 181.8330
2450 7.3980 301(17) 302.9579 181.7537
2451 7.4000 318(18) 317.3841 181.6744
2452 7.4020 328(18) 333.9514 181.5952
2453 7.4040 333(18) 352.1035 181.5160
2454 7.4060 377(19) 370.4841 181.4369
2455 7.4080 385(20) 386.7318 181.3578
2456 7.4100 406(20) 397.7905 181.2787
2457 7.4120 426(21) 401.0390 181.1997
2458 7.4140 423(21) 395.6601 181.1207
2459 7.4160 385(20) 383.1353 181.0418
2460 7.4180 366(19) 366.3624 180.9629
2461 7.4200 337(18) 348.2303 180.8841
2462 7.4220 327(18) 330.7688 180.8053
2463 7.4240 326(18) 315.0518 180.7265
2464 7.4260 288(17) 301.4396 180.6478
2465 7.4280 286(17) 289.8998 180.5691
2466 7.4300 279(17) 280.2327 180.4905
2467 7.4320 273(17) 272.1774 180.4119
2468 7.4340 255(16) 265.4828 180.3334
2469 7.4360 258(16) 259.9263 180.2549
2470 7.4380 248(16) 255.3248 180.1764
2471 7.4400 249(16) 251.5249 180.0980
2472 7.4420 247(16) 248.4032 180.0197
2473 7.4440 245(16) 245.8631 179.9413
2474 7.4460 237(15) 243.8254 179.8631
2475 7.4480 239(15) 242.2276 179.7849
2476 7.4500 248(16) 241.0213 179.7067
2477 7.4520 237(15) 240.1680 179.6285
2478 7.4540 229(15) 234.5473 179.5504
2479 7.4560 235(15) 232.5574 179.4724
2480 7.4580 249(16) 232.7059 179.3943
2481 7.4600 238(15) 233.1296 179.3164
2482 7.4620 223(15) 233.8245 179.2385
2483 7.4640 241(16) 234.7908 179.1606
2484 7.4660 231(15) 236.0335 179.0827
2485 7.4680 251(16) 237.5619 179.0049
2486 7.4700 248(16) 239.3881 178.9272
2487 7.4720 236(15) 241.5285 178.8495
2488 7.4740 234(15) 244.0033 178.7718
2489 7.4760 235(15) 246.8334 178.6942
2490 7.4780 246(16) 250.0440 178.6167
2491 7.4800 258(16) 253.6615 178.5391
2492 7.4820 252(16) 257.7147 178.4616
2493 7.4840 245(16) 262.2298 178.3842
2494 7.4860 254(16) 267.2357 178.3068
2495 7.4880 275(17) 272.7601 178.2294
2496 7.4900 263(16) 278.8238 178.1521
2497 7.4920 287(17) 285.4466 178.0749
2498 7.4940 290(17) 292.6415 177.9976
2499 7.4960 296(17) 300.4058 177.9204
2500 7.4980 292(17) 308.7266 177.8433
2501 7.5000 321(18) 317.5691 177.7662
2502 7.5020 329(18) 326.8740 177.6892
2503 7.5040 343(19) 336.5413 177.6122
2504 7.5060 329(18) 346.4379 177.5352
2505 7.5080 378(19) 356.3882 177.4583
2506 7.5100 376(19) 366.1695 177.3814
2507 7.5120 386(20) 375.5383 177.3046
2508 7.5140 382(20) 384.2469 177.2278
2509 7.5160 396(20) 392.0710 177.1511
2510 7.5180 431(21) 398.8620 177.0744
2511 7.5200 440(21) 404.5753 176.9978
2512 7.5220 423(21) 409.2882 176.9212
2513 7.5240 435(21) 413.2081 176.8446
2514 7.5260 442(21) 416.6457 176.7681
2515 7.5280 437(21) 419.9819 176.6916
2516 7.5300 434(21) 423.6254 176.6152
2517 7.5320 434(21) 427.9827 176.5388
2518 7.5340 435(21) 433.4324 176.4625
2519 7.5360 462(21) 440.3071 176.3862
2520 7.5380 448(21) 448.8965 176.3099
2521 7.5400 460(21) 459.4450 176.2337
2522 7.5420 482(22) 472.1455 176.1576
2523 7.5440 484(22) 487.1554 176.0815
2524 7.5460 499(22) 504.5872 176.0054
2525 7.5480 546(23) 524.5120 175.9294
2526 7.5500 556(24) 546.9325 175.8534
2527 7.5520 599(24) 571.7937 175.7774
2528 7.5540 602(25) 598.9706 175.7015
2529 7.5560 657(26) 628.1948 175.6257
2530 7.5580 679(26) 659.0810 175.5499
2531 7.5600 740(27) 691.0719 175.4741
2532 7.5620 751(27) 723.3818 175.3984
2533 7.5640 827(29) 755.0248 175.3228
2534 7.5660 863(29) 784.7963 175.2471
2535 7.5680 888(30) 811.2997 175.1715
2536 7.5700 916(30) 833.0879 175.0960
2537 7.5720 961(31) 848.7817 175.0205
2538 7.5740 1011(32) 857.2602 174.9451
2539 7.5760 1032(32) 857.8251 174.8696
2540 7.5780 1016(32) 850.3305 174.7943
2541 7.5800 994(32) 835.1921 174.7190
2542 7.5820 977(31) 813.3301 174.6437
2543 7.5840 877(30) 785.9946 174.5685
2544 7.5860 855(29) 754.5885 174.4933
2545 7.5880 808(28) 720.5270 174.4182
2546 7.5900 738(27) 685.0702 174.3431
2547 7.5920 692(26) 649.2820 174.2681
2548 7.5940 629(25) 613.9932 174.1930
2549 7.5960 592(24) 579.8446 174.1181
2550 7.5980 569(24) 547.2645 174.0432
2551 7.6000 510(23) 516.5294 173.9683
2552 7.6020 479(22) 487.8182 173.8935
2553 7.6040 434(21) 461.1971 173.8187
2554 7.6060 422(21) 436.6677 173.7440
2555 7.6080 393(20) 414.2006 173.6693
2556 7.6100 390(20) 393.8986 173.5947
2557 7.6120 348(19) 375.2914 173.5201
2558 7.6140 340(18) 358.4561 173.4455
2559 7.6160 318(18) 342.5928 173.3710
2560 7.6180 301(17) 328.9276 173.2966
2561 7.6200 305(17) 316.6437 173.2222
2562 7.6220 283(17) 305.6194 173.1478
2563 7.6240 285(17) 295.7282 173.0734
2564 7.6260 257(16) 286.8512 172.9992
2565 7.6280 252(16) 278.8826 172.9249
2566 7.6300 252(16) 271.7187 172.8508
2567 7.6320 237(15) 265.2653 172.7766
2568 7.6340 244(16) 259.4416 172.7025
2569 7.6360 235(15) 254.1707 172.6284
2570 7.6380 222(15) 249.3859 172.5544
2571 7.6400 222(15) 245.2149 172.4805
2572 7.6420 223(15) 241.2353 172.4065
2573 7.6440 220(15) 237.5868 172.3327
2574 7.6460 226(15) 234.2299 172.2588
2575 7.6480 232(15) 231.1328 172.1851
2576 7.6500 218(15) 228.2657 172.1113
2577 7.6520 212(15) 226.2842 172.0376
2578 7.6540 205(14) 223.8189 171.9640
2579 7.6560 196(14) 221.5193 171.8904
2580 7.6580 202(14) 219.3687 171.8168
2581 7.6600 209(14) 217.3543 171.7433
2582 7.6620 226(15) 215.4634 171.6698
2583 7.6640 223(15) 213.6855 171.5964
2584 7.6660 203(14) 212.0107 171.5230
2585 7.6680 209(14) 210.4315 171.4497
2586 7.6700 199(14) 208.9402 171.3764
2587 7.6720 205(14) 207.5298 171.3032
2588 7.6740 203(14) 206.1949 171.2300
2589 7.6760 212(15) 204.9300 171.1568
2590 7.6780 199(14) 203.7297 171.0837
2591 7.6800 201(14) 202.5904 171.0107
2592 7.6820 200(14) 201.5075 170.9376
2593 7.6840 206(14) 200.4776 170.8647
2594 7.6860 204(14) 199.4968 170.7917
2595 7.6880 182(13) 198.5627 170.7189
2596 7.6900 185(14) 197.6722 170.6461
2597 7.6920 192(14) 196.8223 170.5733
2598 7.6940 191(14) 196.0110 170.5005
2599 7.6960 192(14) 195.2361 170.4278
2600 7.6980 188(14) 194.4951 170.3552
2601 7.7000 185(14) 193.7866 170.2826
2602 7.7020 193(14) 193.1086 170.2100
2603 7.7040 183(14) 192.4594 170.1375
2604 7.7060 193(14) 191.8377 170.0650
2605 7.7080 184(14) 191.2420 169.9926
2606 7.7100 175(13) 190.6710 169.9202
2607 7.7120 192(14) 190.1233 169.8479
2608 7.7140 189(14) 189.5981 169.7756
2609 7.7160 195(14) 189.0943 169.7034
2610 7.7180 171(13) 188.6216 169.6312
2611 7.7200 189(14) 188.1579 169.5590
2612 7.7220 174(13) 187.7129 169.4869
2613 7.7240 191(14) 187.2859 169.4149
2614 7.7260 183(14) 186.8761 169.3428
2615 7.7280 179(13) 186.4831 169.2709
2616 7.7300 193(14) 186.1060 169.1990
2617 7.7320 210(14) 185.7445 169.1271
2618 7.7340 201(14) 185.3981 169.0553
2619 7.7360 215(15) 185.0662 168.9835
2620 7.7380 221(15) 184.7486 168.9117
2621 7.7400 210(14) 184.4449 168.8400
2622 7.7420 206(14) 184.1071 168.7684
2623 7.7440 201(14) 183.8307 168.6968
2624 7.7460 191(14) 183.5675 168.6252
2625 7.7480 178(13) 183.3172 168.5537
2626 7.7500 189(14) 183.0797 168.4822
2627 7.7520 181(13) 182.8549 168.4108
2628 7.7540 192(14) 182.6427 168.3395
2629 7.7560 178(13) 182.4432 168.2681
2630 7.7580 185(14) 182.2564 168.1968
2631 7.7600 177(13) 182.0825 168.1256
2632 7.7620 179(13) 181.9215 168.0544
2633 7.7640 181(13) 181.7736 167.9833
2634 7.7660 175(13) 181.6393 167.9122
2635 7.7680 186(14) 181.5187 167.8411
2636 7.7700 179(13) 181.4123 167.7701
2637 7.7720 179(13) 181.3206 167.6991
2638 7.7740 177(13) 181.2441 167.6283
2639 7.7760 188(14) 181.1835 167.5574
2640 7.7780 183(14) 181.6136 167.4865
2641 7.7800 182(13) 181.5918 167.4158
2642 7.7820 176(13) 181.5886 167.3450
2643 7.7840 171(13) 181.6053 167.2743
2644 7.7860 179(13) 181.6432 167.2037
2645 7.7880 180(13) 181.7038 167.1331
2646 7.7900 182(14) 181.7890 167.0626
2647 7.7920 183(14) 181.9007 166.9921
2648 7.7940 181(13) 182.0413 166.9216
2649 7.7960 182(13) 182.2134 166.8512
2650 7.7980 184(14) 182.3696 166.7808
2651 7.8000 182(13) 182.6150 166.7105
2652 7.8020 180(13) 182.9026 166.6402
2653 7.8040 184(14) 183.2374 166.5700
2654 7.8060 184(14) 183.6246 166.4998
2655 7.8080 185(14) 184.0707 166.4297
2656 7.8100 183(14) 184.5835 166.3596
2657 7.8120 192(14) 185.1715 166.2896
2658 7.8140 175(13) 185.8453 166.2196
2659 7.8160 192(14) 186.6176 166.1496
2660 7.8180 177(13) 187.5027 166.0797
2661 7.8200 182(14) 188.5185 166.0098
2662 7.8220 187(14) 189.6861 165.9400
2663 7.8240 187(14) 191.0317 165.8703
2664 7.8260 189(14) 192.5856 165.8005
2665 7.8280 199(14) 194.3863 165.7309
2666 7.8300 205(14) 196.4808 165.6612
2667 7.8320 204(14) 198.9255 165.5916
2668 7.8340 208(14) 201.7916 165.5221
2669 7.8360 204(14) 205.1676 165.4526
2670 7.8380 218(15) 209.1604 165.3832
2671 7.8400 218(15) 213.9045 165.3138
2672 7.8420 216(15) 219.5648 165.2444
2673 7.8440 232(15) 226.3347 165.1751
2674 7.8460 239(15) 234.4427 165.1059
2675 7.8480 234(15) 244.1349 165.0367
2676 7.8500 245(16) 255.6453 164.9675
2677 7.8520 269(16) 269.1096 164.8984
2678 7.8540 285(17) 284.4431 164.8293
2679 7.8560 292(17) 301.1157 164.7602
2680 7.8580 311(18) 317.8806 164.6913
2681 7.8600 333(18) 332.6636 164.6223
2682 7.8620 342(19) 342.8340 164.5534
2683 7.8640 347(19) 346.0910 164.4846
2684 7.8660 361(19) 341.6025 164.4158
2685 7.8680 350(19) 330.4692 164.3470
2686 7.8700 333(18) 315.1039 164.2783
2687 7.8720 290(17) 298.1083 164.2097
2688 7.8740 285(17) 281.4405 164.1411
2689 7.8760 264(16) 266.2200 164.0725
2690 7.8780 249(16) 252.9081 164.0040
2691 7.8800 234(15) 241.5438 163.9355
2692 7.8820 238(15) 231.9642 163.8671
2693 7.8840 214(15) 223.9378 163.7987
2694 7.8860 217(15) 217.3669 163.7303
2695 7.8880 225(15) 211.7302 163.6620
2696 7.8900 217(15) 206.9876 163.5938
2697 7.8920 207(14) 202.9793 163.5256
2698 7.8940 198(14) 199.5763 163.4575
2699 7.8960 203(14) 196.6735 163.3894
2700 7.8980 202(14) 194.1882 163.3213
2701 7.9000 199(14) 192.0524 163.2533
2702 7.9020 194(14) 190.2114 163.1853
2703 7.9040 197(14) 188.6227 163.1174
2704 7.9060 179(13) 187.2511 163.0495
2705 7.9080 184(14) 186.0686 162.9817
2706 7.9100 182(13) 184.6433 162.9139
2707 7.9120 185(14) 183.7835 162.8462
2708 7.9140 185(14) 183.0609 162.7785
2709 7.9160 186(14) 182.4648 162.7108
2710 7.9180 178(13) 181.9864 162.6432
2711 7.9200 185(14) 181.6146 162.5757
2712 7.9220 187(14) 181.3345 162.5082
2713 7.9240 172(13) 181.1220 162.4407
2714 7.9260 178(13) 180.9415 162.3733
2715 7.9280 185(14) 180.7484 162.3060
2716 7.9300 178(13) 180.5014 162.2386
2717 7.9320 177(13) 180.1788 162.1714
2718 7.9340 174(13) 179.7892 162.1041
2719 7.9360 171(13) 179.3648 162.0370
2720 7.9380 176(13) 178.9438 161.9698
2721 7.9400 181(13) 178.5574 161.9027
2722 7.9420 169(13) 178.2243 161.8357
2723 7.9440 162(13) 177.9528 161.7687
2724 7.9460 176(13) 177.7440 161.7018
2725 7.9480 184(14) 177.5962 161.6349
2726 7.9500 185(14) 177.5062 161.5680
2727 7.9520 179(13) 177.4710 161.5012
2728 7.9540 161(13) 177.4881 161.4344
2729 7.9560 173(13) 177.5561 161.3677
2730 7.9580 187(14) 177.6744 161.3010
2731 7.9600 177(13) 177.8434 161.2344
2732 7.9620 177(13) 178.0644 161.1678
2733 7.9640 173(13) 178.3395 161.1013
2734 7.9660 178(13) 178.5786 161.0348
2735 7.9680 163(13) 178.9730 160.9684
2736 7.9700 174(13) 177.4855 160.9020
2737 7.9720 177(13) 178.0367 160.8356
2738 7.9740 187(14) 178.6657 160.7693
2739 7.9760 175(13) 179.3796 160.7031
2740 7.9780 175(13) 180.1866 160.6369
2741 7.9800 180(13) 181.0960 160.5707
2742 7.9820 179(13) 182.1169 160.5046
2743 7.9840 174(13) 183.2598 160.4386
2744 7.9860 188(14) 184.5358 160.3725
2745 7.9880 170(13) 185.9564 160.3066
2746 7.9900 177(13) 187.5327 160.2406
2747 7.9920 183(14) 189.2766 160.1748
2748 7.9940 173(13) 191.2002 160.1089
2749 7.9960 184(14) 193.3135 160.0432
2750 7.9980 178(13) 195.6269 159.9774
2751 8.0000 186(14) 198.1488 159.9117
2752 8.0020 190(14) 200.8866 159.8460
2753 8.0040 198(14) 203.8388 159.7805
2754 8.0060 186(14) 207.0085 159.7149
2755 8.0080 187(14) 210.3826 159.6494
2756 8.0100 195(14) 213.9451 159.5840
2757 8.0120 198(14) 217.6674 159.5185
2758 8.0140 201(14) 221.5083 159.4532
2759 8.0160 205(14) 225.4130 159.3878
2760 8.0180 214(15) 229.3045 159.3226
2761 8.0200 208(14) 233.1046 159.2573
2762 8.0220 226(15) 236.7134 159.1921
2763 8.0240 218(15) 240.0366 159.1270
2764 8.0260 227(15) 242.9884 159.0619
2765 8.0280 207(14) 245.4986 158.9969
2766 8.0300 215(15) 247.5360 158.9318
2767 8.0320 221(15) 249.0972 158.8670
2768 8.0340 222(15) 250.2214 158.8020
2769 8.0360 211(15) 250.9722 158.7372
2770 8.0380 216(15) 251.4332 158.6724
2771 8.0400 221(15) 251.6914 158.6076
2772 8.0420 212(15) 251.8241 158.5429
2773 8.0440 226(15) 251.8895 158.4782
2774 8.0460 220(15) 251.9178 158.4136
2775 8.0480 241(16) 251.9091 158.3490
2776 8.0500 233(15) 251.8322 158.2845
2777 8.0520 238(15) 251.6292 158.2200
2778 8.0540 232(15) 251.2218 158.1555
2779 8.0560 248(16) 250.5236 158.0912
2780 8.0580 251(16) 249.4500 158.0268
2781 8.0600 263(16) 247.9361 157.9625
2782 8.0620 253(16) 245.9445 157.8982
2783 8.0640 248(16) 243.4739 157.8340
2784 8.0660 253(16) 240.5595 157.7699
2785 8.0680 227(15) 237.2655 157.7058
2786 8.0700 238(15) 233.6835 157.6417
2787 8.0720 224(15) 229.9033 157.5777
2788 8.0740 218(15) 226.0251 157.5137
2789 8.0760 198(14) 222.1339 157.4498
2790 8.0780 213(15) 217.6357 157.3859
2791 8.0800 202(14) 213.9341 157.3221
2792 8.0820 195(14) 210.3911 157.2583
2793 8.0840 192(14) 207.0412 157.1945
2794 8.0860 181(13) 203.8970 157.1308
2795 8.0880 189(14) 201.0925 157.0672
2796 8.0900 186(14) 198.3929 157.0036
2797 8.0920 181(13) 195.9126 156.9400
2798 8.0940 183(14) 193.6501 156.8766
2799 8.0960 180(13) 191.5935 156.8130
2800 8.0980 168(13) 189.7375 156.7497
2801 8.1000 162(13) 188.0685 156.6863
2802 8.1020 170(13) 186.5782 156.6230
2803 8.1040 181(13) 185.2844 156.5597
2804 8.1060 173(13) 184.1170 156.4964
2805 8.1080 164(13) 183.0965 156.4333
2806 8.1100 170(13) 182.2109 156.3701
2807 8.1120 166(13) 181.4522 156.3070
2808 8.1140 170(13) 180.8114 156.2440
2809 8.1160 161(13) 180.2807 156.1810
2810 8.1180 177(13) 179.8535 156.1181
2811 8.1200 166(13) 179.5236 156.0551
2812 8.1220 160(13) 179.2868 155.9923
2813 8.1240 170(13) 179.1387 155.9295
2814 8.1260 179(13) 179.0772 155.8667
2815 8.1280 156(13) 179.1005 155.8040
2816 8.1300 160(13) 179.2084 155.7413
2817 8.1320 159(13) 179.4018 155.6787
2818 8.1340 150(12) 179.6830 155.6161
2819 8.1360 165(13) 180.0549 155.5536
2820 8.1380 171(13) 180.5231 155.4911
2821 8.1400 168(13) 181.0932 155.4287
2822 8.1420 166(13) 181.7729 155.3663
2823 8.1440 153(12) 182.5611 155.3039
2824 8.1460 171(13) 183.4896 155.2417
2825 8.1480 167(13) 184.5605 155.1794
2826 8.1500 171(13) 185.7862 155.1172
2827 8.1520 169(13) 187.1843 155.0550
2828 8.1540 175(13) 188.7699 154.9929
2829 8.1560 179(13) 190.5620 154.9308
2830 8.1580 165(13) 192.5812 154.8688
2831 8.1600 159(13) 194.8450 154.8069
2832 8.1620 175(13) 197.3791 154.7449
2833 8.1640 181(13) 200.2006 154.6831
2834 8.1660 170(13) 203.3368 154.6212
2835 8.1680 175(13) 206.8047 154.5594
2836 8.1700 181(13) 210.6259 154.4977
2837 8.1720 190(14) 214.8210 154.4360
2838 8.1740 174(13) 219.3991 154.3744
2839 8.1760 200(14) 224.6806 154.3127
2840 8.1780 193(14) 230.0653 154.2512
2841 8.1800 202(14) 235.8509 154.1897
2842 8.1820 185(14) 242.0237 154.1282
2843 8.1840 199(14) 248.5560 154.0668
2844 8.1860 214(15) 255.4050 154.0054
2845 8.1880 217(15) 262.4911 153.9441
2846 8.1900 247(16) 269.7299 153.8828
2847 8.1920 251(16) 276.9804 153.8216
2848 8.1940 253(16) 284.0794 153.7604
2849 8.1960 269(16) 290.8246 153.6993
2850 8.1980 290(17) 296.9839 153.6382
2851 8.2000 291(17) 302.3103 153.5771
2852 8.2020 315(18) 306.5496 153.5162
2853 8.2040 326(18) 309.4905 153.4552
2854 8.2060 336(18) 310.9628 153.3943
2855 8.2080 334(18) 310.8810 153.3335
2856 8.2100 317(18) 309.2482 153.2726
2857 8.2120 330(18) 306.1578 153.2119
2858 8.2140 322(18) 301.7767 153.1512
2859 8.2160 302(17) 296.3345 153.0905
2860 8.2180 259(16) 290.0695 153.0298
2861 8.2200 292(17) 283.2393 152.9693
2862 8.2220 264(16) 276.1680 152.9088
2863 8.2240 251(16) 268.8625 152.8483
2864 8.2260 230(15) 261.5923 152.7878
2865 8.2280 236(15) 254.4729 152.7274
2866 8.2300 229(15) 247.6111 152.6671
2867 8.2320 217(15) 241.0719 152.6068
2868 8.2340 195(14) 234.9270 152.5465
2869 8.2360 207(14) 229.1527 152.4863
2870 8.2380 186(14) 223.7861 152.4261
2871 8.2400 200(14) 218.8379 152.3661
2872 8.2420 183(14) 214.2943 152.3060
2873 8.2440 185(14) 210.1524 152.2459
2874 8.2460 187(14) 206.3963 152.1860
2875 8.2480 175(13) 203.0096 152.1261
2876 8.2500 169(13) 199.9746 152.0662
2877 8.2520 188(14) 197.2717 152.0063
2878 8.2540 167(13) 194.8859 151.9465
2879 8.2560 178(13) 192.7950 151.8868
2880 8.2580 179(13) 190.9850 151.8271
2881 8.2600 183(14) 189.4398 151.7675
2882 8.2620 163(13) 188.1456 151.7079
2883 8.2640 165(13) 187.0909 151.6483
2884 8.2660 180(13) 186.2664 151.5888
2885 8.2680 167(13) 185.6665 151.5293
2886 8.2700 167(13) 185.2863 151.4699
2887 8.2720 175(13) 185.1255 151.4105
2888 8.2740 174(13) 185.1883 151.3512
2889 8.2760 175(13) 185.4769 151.2919
2890 8.2780 174(13) 186.2991 151.2327
2891 8.2800 185(14) 187.0781 151.1735
2892 8.2820 191(14) 188.1249 151.1144
2893 8.2840 183(14) 189.4642 151.0553
2894 8.2860 192(14) 191.1222 150.9962
2895 8.2880 189(14) 193.1321 150.9372
2896 8.2900 195(14) 195.5317 150.8783
2897 8.2920 208(14) 198.3541 150.8194
2898 8.2940 192(14) 201.6346 150.7605
2899 8.2960 201(14) 205.3782 150.7017
2900 8.2980 202(14) 209.5502 150.6429
2901 8.3000 212(15) 214.0353 150.5842
2902 8.3020 226(15) 218.6007 150.5255
2903 8.3040 239(15) 222.8850 150.4669
2904 8.3060 235(15) 226.4388 150.4083
2905 8.3080 226(15) 228.8791 150.3498
2906 8.3100 240(16) 230.0253 150.2913
2907 8.3120 230(15) 229.9809 150.2328
2908 8.3140 247(16) 229.0408 150.1744
2909 8.3160 260(16) 227.5331 150.1161
2910 8.3180 245(16) 225.7019 150.0578
2911 8.3200 253(16) 223.6797 149.9995
2912 8.3220 266(16) 221.5044 149.9413
2913 8.3240 258(16) 219.1753 149.8831
2914 8.3260 264(16) 216.6779 149.8250
2915 8.3280 251(16) 214.0092 149.7669
2916 8.3300 251(16) 211.1843 149.7089
2917 8.3320 239(15) 208.2336 149.6509
2918 8.3340 244(16) 205.2045 149.5930
2919 8.3360 234(15) 202.1387 149.5351
2920 8.3380 227(15) 199.0871 149.4773
2921 8.3400 211(15) 196.1536 149.4195
2922 8.3420 205(14) 193.2436 149.3617
2923 8.3440 207(14) 190.4504 149.3040
2924 8.3460 201(14) 187.7875 149.2463
2925 8.3480 200(14) 185.2721 149.1887
2926 8.3500 188(14) 182.9062 149.1311
2927 8.3520 202(14) 180.6960 149.0736
2928 8.3540 180(13) 178.6397 149.0162
2929 8.3560 183(14) 176.7332 148.9587
2930 8.3580 163(13) 174.9745 148.9014
2931 8.3600 172(13) 173.3540 148.8440
2932 8.3620 167(13) 171.8673 148.7867
2933 8.3640 174(13) 170.5062 148.7295
2934 8.3660 167(13) 169.2630 148.6723
2935 8.3680 163(13) 168.1297 148.6151
2936 8.3700 160(13) 167.0981 148.5580
2937 8.3720 162(13) 166.1622 148.5010
2938 8.3740 165(13) 165.3127 148.4439
2939 8.3760 157(13) 164.5439 148.3870
2940 8.3780 153(12) 163.8491 148.3301
2941 8.3800 161(13) 163.2220 148.2732
2942 8.3820 155(12) 162.6573 148.2164
2943 8.3840 165(13) 162.1498 148.1596
2944 8.3860 155(12) 161.6957 148.1029
2945 8.3880 161(13) 161.2904 148.0461
2946 8.3900 166(13) 160.9314 147.9895
2947 8.3920 159(13) 160.6158 147.9329
2948 8.3940 166(13) 160.3418 147.8764
2949 8.3960 171(13) 160.1079 147.8199
2950 8.3980 153(12) 159.9135 147.7634
2951 8.4000 164(13) 159.7587 147.7070
2952 8.4020 154(12) 159.6441 147.6506
2953 8.4040 155(12) 159.5714 147.5943
2954 8.4060 165(13) 159.5428 147.5380
2955 8.4080 157(13) 159.5620 147.4818
2956 8.4100 158(13) 159.6336 147.4256
2957 8.4120 163(13) 159.7638 147.3694
2958 8.4140 161(13) 159.9604 147.3134
2959 8.4160 154(12) 160.2332 147.2573
2960 8.4180 156(12) 160.5948 147.2013
2961 8.4200 154(12) 161.0747 147.1454
2962 8.4220 155(12) 161.6639 147.0894
2963 8.4240 162(13) 162.3982 147.0336
2964 8.4260 163(13) 163.3051 146.9778
2965 8.4280 166(13) 164.4126 146.9220
2966 8.4300 150(12) 165.7497 146.8663
2967 8.4320 158(13) 167.3381 146.8106
2968 8.4340 155(12) 169.1805 146.7550
2969 8.4360 165(13) 171.2404 146.6994
2970 8.4380 170(13) 173.4106 146.6438
2971 8.4400 174(13) 175.4984 146.5883
2972 8.4420 164(13) 177.2140 146.5329
2973 8.4440 173(13) 178.2390 146.4775
2974 8.4460 188(14) 178.3375 146.4221
2975 8.4480 174(13) 177.4697 146.3668
2976 8.4500 186(14) 175.6285 146.3115
2977 8.4520 179(13) 173.4896 146.2563
2978 8.4540 165(13) 171.1726 146.2012
2979 8.4560 164(13) 168.9112 146.1460
2980 8.4580 176(13) 166.8388 146.0909
2981 8.4600 158(13) 165.0120 146.0359
2982 8.4620 173(13) 163.4419 145.9809
2983 8.4640 155(12) 162.1085 145.9259
2984 8.4660 154(12) 160.9874 145.8711
2985 8.4680 161(13) 160.0469 145.8162
2986 8.4700 160(13) 159.2613 145.7614
2987 8.4720 157(13) 158.6063 145.7066
2988 8.4740 158(13) 158.0617 145.6519
2989 8.4760 149(12) 157.6119 145.5973
2990 8.4780 167(13) 157.2429 145.5426
2991 8.4800 156(12) 156.9450 145.4880
2992 8.4820 160(13) 156.7096 145.4335
2993 8.4840 155(12) 156.3447 145.3790
2994 8.4860 155(12) 156.2172 145.3246
2995 8.4880 149(12) 156.1348 145.2702
2996 8.4900 157(13) 156.0921 145.2159
2997 8.4920 162(13) 156.0823 145.1615
2998 8.4940 147(12) 156.0985 145.1073
2999 8.4960 141(12) 156.1337 145.0531
3000 8.4980 148(12) 156.1836 144.9989
3001 8.5000 155(12) 156.2483 144.9448
3002 8.5020 152(12) 156.3318 144.8907
3003 8.5040 148(12) 156.4405 144.8367
3004 8.5060 155(12) 156.5808 144.7827
3005 8.5080 152(12) 156.7575 144.7287
3006 8.5100 149(12) 156.9744 144.6748
3007 8.5120 142(12) 157.2339 144.6210
3008 8.5140 154(12) 157.5379 144.5672
3009 8.5160 161(13) 157.8885 144.5134
3010 8.5180 152(12) 158.2867 144.4597
3011 8.5200 164(13) 158.7353 144.4060
3012 8.5220 158(13) 159.2359 144.3524
3013 8.5240 164(13) 159.7907 144.2989
3014 8.5260 149(12) 160.4027 144.2453
3015 8.5280 163(13) 161.0735 144.1918
3016 8.5300 152(12) 161.6901 144.1384
3017 8.5320 158(13) 162.4898 144.0850
3018 8.5340 158(13) 163.3577 144.0316
3019 8.5360 169(13) 164.2954 143.9783
3020 8.5380 152(12) 165.3060 143.9251
3021 8.5400 167(13) 166.3932 143.8719
3022 8.5420 160(13) 167.5590 143.8187
3023 8.5440 175(13) 168.8104 143.7656
3024 8.5460 169(13) 170.1521 143.7125
3025 8.5480 169(13) 171.5924 143.6595
3026 8.5500 167(13) 173.1396 143.6065
3027 8.5520 178(13) 174.7986 143.5536
3028 8.5540 177(13) 176.5635 143.5007
3029 8.5560 172(13) 178.4005 143.4478
3030 8.5580 171(13) 180.2390 143.3950
3031 8.5600 175(13) 181.9464 143.3423
3032 8.5620 172(13) 183.3450 143.2896
3033 8.5640 184(14) 184.2534 143.2369
3034 8.5660 176(13) 184.5640 143.1843
3035 8.5680 176(13) 184.3036 143.1317
3036 8.5700 169(13) 183.6306 143.0791
3037 8.5720 177(13) 182.7659 143.0267
3038 8.5740 162(13) 181.9203 142.9742
3039 8.5760 177(13) 181.2474 142.9218
3040 8.5780 165(13) 180.8399 142.8695
3041 8.5800 164(13) 180.7434 142.8172
3042 8.5820 169(13) 180.9745 142.7649
3043 8.5840 177(13) 181.5338 142.7127
3044 8.5860 165(13) 182.4170 142.6605
3045 8.5880 175(13) 183.6165 142.6084
3046 8.5900 172(13) 185.1263 142.5563
3047 8.5920 176(13) 186.9421 142.5043
3048 8.5940 161(13) 189.0573 142.4523
3049 8.5960 174(13) 191.4722 142.4003
3050 8.5980 174(13) 194.1793 142.3485
3051 8.6000 178(13) 197.1739 142.2966
3052 8.6020 181(13) 200.4473 142.2448
3053 8.6040 174(13) 203.9862 142.1930
3054 8.6060 183(14) 207.7728 142.1413
3055 8.6080 195(14) 211.7733 142.0897
3056 8.6100 211(15) 215.9560 142.0380
3057 8.6120 208(14) 220.2626 141.9864
3058 8.6140 207(14) 224.6279 141.9349
3059 8.6160 216(15) 228.9633 141.8834
3060 8.6180 244(16) 233.1670 141.8320
3061 8.6200 244(16) 237.1214 141.7805
3062 8.6220 251(16) 240.6915 141.7292
3063 8.6240 266(16) 243.7516 141.6779
3064 8.6260 260(16) 246.1730 141.6266
3065 8.6280 278(17) 247.8551 141.5754
3066 8.6300 291(17) 248.7291 141.5242
3067 8.6320 295(17) 248.7683 141.4731
3068 8.6340 290(17) 247.9904 141.4220
3069 8.6360 285(17) 246.4557 141.3710
3070 8.6380 270(16) 243.7794 141.3200
3071 8.6400 271(16) 241.0077 141.2690
3072 8.6420 250(16) 237.7655 141.2181
3073 8.6440 253(16) 234.1441 141.1672
3074 8.6460 222(15) 230.2300 141.1164
3075 8.6480 224(15) 226.1147 141.0656
3076 8.6500 218(15) 221.9102 141.0149
3077 8.6520 209(14) 217.7205 140.9642
3078 8.6540 201(14) 213.6546 140.9136
3079 8.6560 198(14) 209.7920 140.8630
3080 8.6580 183(14) 206.1874 140.8124
3081 8.6600 187(14) 202.8801 140.7620
3082 8.6620 179(13) 199.8813 140.7115
3083 8.6640 182(14) 197.2022 140.6611
3084 8.6660 187(14) 194.8409 140.6107
3085 8.6680 181(13) 192.7921 140.5604
3086 8.6700 168(13) 190.9533 140.5101
3087 8.6720 172(13) 189.5053 140.4599
3088 8.6740 170(13) 188.3422 140.4097
3089 8.6760 167(13) 187.4496 140.3595
3090 8.6780 163(13) 186.8154 140.3094
3091 8.6800 151(12) 186.4254 140.2594
3092 8.6820 175(13) 186.2653 140.2094
3093 8.6840 166(13) 186.3209 140.1594
3094 8.6860 168(13) 186.5793 140.1095
3095 8.6880 186(14) 187.0286 140.0596
3096 8.6900 181(13) 187.6612 140.0097
3097 8.6920 176(13) 188.4716 139.9600
3098 8.6940 177(13) 189.4598 139.9102
3099 8.6960 184(14) 190.6295 139.8605
3100 8.6980 183(14) 191.9886 139.8109
3101 8.7000 183(14) 193.5483 139.7612
3102 8.7020 184(14) 195.3182 139.7117
3103 8.7040 180(13) 197.3131 139.6622
3104 8.7060 177(13) 199.5396 139.6127
3105 8.7080 201(14) 202.0042 139.5633
3106 8.7100 185(14) 204.7085 139.5139
3107 8.7120 195(14) 207.6416 139.4645
3108 8.7140 192(14) 210.7934 139.4152
3109 8.7160 219(15) 214.1313 139.3660
3110 8.7180 216(15) 217.6223 139.3168
3111 8.7200 204(14) 221.2071 139.2676
3112 8.7220 215(15) 224.8768 139.2185
3113 8.7240 223(15) 228.4247 139.1694
3114 8.7260 225(15) 231.7995 139.1204
3115 8.7280 234(15) 234.8881 139.0714
3116 8.7300 247(16) 237.5579 139.0224
3117 8.7320 252(16) 239.6828 138.9735
3118 8.7340 243(16) 241.1467 138.9247
3119 8.7360 255(16) 241.8566 138.8759
3120 8.7380 256(16) 241.7537 138.8271
3121 8.7400 258(16) 240.8216 138.7784
3122 8.7420 253(16) 239.0850 138.7297
3123 8.7440 250(16) 236.6122 138.6811
3124 8.7460 226(15) 233.5002 138.6325
3125 8.7480 233(15) 229.8668 138.5839
3126 8.7500 225(15) 225.8378 138.5354
3127 8.7520 221(15) 221.7499 138.4870
3128 8.7540 215(15) 217.2938 138.4386
3129 8.7560 198(14) 212.7733 138.3902
3130 8.7580 180(13) 208.2765 138.3419
3131 8.7600 181(13) 203.7172 138.2936
3132 8.7620 179(13) 199.4436 138.2454
3133 8.7640 178(13) 195.3414 138.1972
3134 8.7660 169(13) 191.4333 138.1490
3135 8.7680 171(13) 187.7400 138.1009
3136 8.7700 166(13) 184.2628 138.0529
3137 8.7720 161(13) 181.0094 138.0049
3138 8.7740 163(13) 177.9766 137.9569
3139 8.7760 152(12) 175.2072 137.9089
3140 8.7780 157(13) 172.6002 137.8611
3141 8.7800 153(12) 170.1906 137.8132
3142 8.7820 156(13) 167.9727 137.7655
3143 8.7840 155(12) 165.9314 137.7177
3144 8.7860 159(13) 164.0585 137.6700
3145 8.7880 152(12) 162.3413 137.6223
3146 8.7900 151(12) 160.7675 137.5747
3147 8.7920 152(12) 159.2652 137.5271
3148 8.7940 146(12) 157.9473 137.4796
3149 8.7960 139(12) 156.7413 137.4321
3150 8.7980 145(12) 155.6366 137.3847
3151 8.8000 150(12) 154.7064 137.3372
3152 8.8020 140(12) 153.7772 137.2899
3153 8.8040 146(12) 152.9226 137.2426
3154 8.8060 141(12) 152.1364 137.1953
3155 8.8080 144(12) 151.4104 137.1481
3156 8.8100 143(12) 150.7396 137.1009
3157 8.8120 141(12) 150.1181 137.0538
3158 8.8140 142(12) 149.5413 137.0067
3159 8.8160 153(12) 149.0048 136.9596
3160 8.8180 145(12) 148.5046 136.9126
3161 8.8200 142(12) 148.0383 136.8657
3162 8.8220 144(12) 147.6021 136.8187
3163 8.8240 141(12) 147.1943 136.7719
3164 8.8260 139(12) 146.8127 136.7250
3165 8.8280 145(12) 146.4555 136.6783
3166 8.8300 144(12) 146.1212 136.6315
3167 8.8320 143(12) 145.8084 136.5848
3168 8.8340 133(12) 145.5159 136.5382
3169 8.8360 138(12) 145.2412 136.4915
3170 8.8380 127(11) 144.9820 136.4450
3171 8.8400 138(12) 144.7343 136.3984
3172 8.8420 138(12) 144.4935 136.3519
3173 8.8440 149(12) 144.2551 136.3055
3174 8.8460 133(12) 144.0152 136.2591
3175 8.8480 134(12) 143.7732 136.2128
3176 8.8500 143(12) 143.5309 136.1665
3177 8.8520 142(12) 143.2915 136.1202
3178 8.8540 136(12) 143.0585 136.0740
3179 8.8560 134(12) 142.8344 136.0278
3180 8.8580 150(12) 142.6208 135.9817
3181 8.8600 134(12) 142.4177 135.9356
3182 8.8620 131(11) 142.2253 135.8895
3183 8.8640 135(12) 142.0431 135.8435
3184 8.8660 145(12) 141.8832 135.7976
3185 8.8680 140(12) 141.7198 135.7517
3186 8.8700 131(11) 141.5649 135.7058
3187 8.8720 134(12) 141.4181 135.6600
3188 8.8740 146(12) 141.2649 135.6142
3189 8.8760 134(12) 141.1333 135.5684
3190 8.8780 132(11) 141.0087 135.5227
3191 8.8800 149(12) 140.8911 135.4771
3192 8.8820 136(12) 140.7802 135.4315
3193 8.8840 134(12) 140.6761 135.3859
3194 8.8860 136(12) 140.5788 135.3404
3195 8.8880 141(12) 140.4884 135.2949
3196 8.8900 140(12) 140.4050 135.2494
3197 8.8920 136(12) 140.3289 135.2040
3198 8.8940 133(12) 140.2602 135.1587
3199 8.8960 136(12) 140.1996 135.1134
3200 8.8980 140(12) 140.1473 135.0681
3201 8.9000 132(12) 140.1041 135.0229
3202 8.9020 139(12) 140.0705 134.9777
3203 8.9040 145(12) 140.0476 134.9325
3204 8.9060 129(11) 140.0364 134.8875
3205 8.9080 131(11) 140.0470 134.8424
3206 8.9100 144(12) 140.0634 134.7974
3207 8.9120 133(12) 140.0961 134.7524
3208 8.9140 141(12) 140.1475 134.7075
3209 8.9160 134(12) 140.2202 134.6626
3210 8.9180 140(12) 140.3175 134.6178
3211 8.9200 134(12) 140.4435 134.5730
3212 8.9220 140(12) 140.6029 134.5282
3213 8.9240 146(12) 140.8016 134.4835
3214 8.9260 146(12) 141.0471 134.4388
3215 8.9280 137(12) 141.3478 134.3942
3216 8.9300 140(12) 141.7144 134.3497
3217 8.9320 143(12) 142.1593 134.3051
3218 8.9340 145(12) 142.6972 134.2606
3219 8.9360 138(12) 143.3447 134.2161
3220 8.9380 136(12) 144.1178 134.1718
3221 8.9400 145(12) 145.0330 134.1274
3222 8.9420 143(12) 146.0973 134.0831
3223 8.9440 149(12) 147.3041 134.0388
3224 8.9460 157(13) 148.6181 133.9946
3225 8.9480 150(12) 149.9612 133.9504
3226 8.9500 143(12) 151.2027 133.9062
3227 8.9520 153(12) 152.1658 133.8621
3228 8.9540 155(12) 152.6743 133.8180
3229 8.9560 153(12) 152.6114 133.7740
3230 8.9580 147(12) 151.9774 133.7300
3231 8.9600 151(12) 150.8872 133.6861
3232 8.9620 154(12) 149.5204 133.6422
3233 8.9640 143(12) 148.0498 133.5983
3234 8.9660 142(12) 146.6093 133.5545
3235 8.9680 146(12) 145.2744 133.5107
3236 8.9700 149(12) 144.0823 133.4670
3237 8.9720 151(12) 143.0395 133.4234
3238 8.9740 140(12) 142.1373 133.3797
3239 8.9760 141(12) 141.3617 133.3361
3240 8.9780 140(12) 140.6944 133.2925
3241 8.9800 141(12) 140.1199 133.2490
3242 8.9820 145(12) 139.6233 133.2056
3243 8.9840 147(12) 139.1920 133.1621
3244 8.9860 142(12) 138.8155 133.1187
3245 8.9880 127(11) 138.4848 133.0754
3246 8.9900 146(12) 138.1930 133.0321
3247 8.9920 134(12) 137.9337 132.9888
3248 8.9940 135(12) 137.7024 132.9456
3249 8.9960 139(12) 137.4948 132.9024
3250 8.9980 141(12) 137.3076 132.8593
3251 9.0000 142(12) 137.1381 132.8162
3252 9.0020 139(12) 136.9838 132.7731
3253 9.0040 138(12) 136.8430 132.7302
3254 9.0060 145(12) 136.6847 132.6872
3255 9.0080 138(12) 136.5663 132.6443
3256 9.0100 133(12) 136.4572 132.6014
3257 9.0120 142(12) 136.3563 132.5586
3258 9.0140 134(12) 136.2629 132.5158
3259 9.0160 142(12) 136.1762 132.4730
3260 9.0180 128(11) 136.0958 132.4303
3261 9.0200 135(12) 136.0211 132.3876
3262 9.0220 132(11) 135.9516 132.3450
3263 9.0240 141(12) 135.8870 132.3024
3264 9.0260 140(12) 135.8270 132.2598
3265 9.0280 129(11) 135.7715 132.2174
3266 9.0300 137(12) 135.7200 132.1749
3267 9.0320 136(12) 135.6725 132.1325
3268 9.0340 143(12) 135.6290 132.0901
3269 9.0360 135(12) 135.5892 132.0478
3270 9.0380 135(12) 135.5532 132.0055
3271 9.0400 148(12) 135.5208 131.9632
3272 9.0420 144(12) 135.4923 131.9211
3273 9.0440 143(12) 135.4675 131.8789
3274 9.0460 139(12) 135.4466 131.8367
3275 9.0480 144(12) 135.4296 131.7946
3276 9.0500 128(11) 135.4169 131.7526
3277 9.0520 142(12) 135.4085 131.7106
3278 9.0540 145(12) 135.4048 131.6686
3279 9.0560 154(12) 135.4061 131.6268
3280 9.0580 148(12) 135.4129 131.5849
3281 9.0600 159(13) 135.4256 131.5431
3282 9.0620 165(13) 135.4448 131.5013
3283 9.0640 162(13) 135.4714 131.4595
3284 9.0660 169(13) 135.5061 131.4178
3285 9.0680 160(13) 135.5503 131.3761
3286 9.0700 163(13) 135.6051 131.3345
3287 9.0720 154(12) 135.6722 131.2929
3288 9.0740 154(12) 135.7535 131.2514
3289 9.0760 145(12) 135.8515 131.2099
3290 9.0780 153(12) 135.9675 131.1684
3291 9.0800 142(12) 136.1072 131.1270
3292 9.0820 132(11) 136.2729 131.0856
3293 9.0840 139(12) 136.4676 131.0443
3294 9.0860 137(12) 136.3956 131.0030
3295 9.0880 136(12) 136.6574 130.9618
3296 9.0900 140(12) 136.9487 130.9206
3297 9.0920 149(12) 137.2597 130.8794
3298 9.0940 140(12) 137.7284 130.8383
3299 9.0960 128(11) 138.0143 130.7972
3300 9.0980 145(12) 138.2365 130.7561
3301 9.1000 139(12) 138.3639 130.7151
3302 9.1020 138(12) 138.3818 130.6742
3303 9.1040 128(11) 138.2993 130.6333
3304 9.1060 143(12) 138.1448 130.5924
3305 9.1080 133(12) 137.9550 130.5516
3306 9.1100 142(12) 137.7621 130.5108
3307 9.1120 139(12) 137.5897 130.4700
3308 9.1140 139(12) 137.4512 130.4293
3309 9.1160 130(11) 137.3529 130.3886
3310 9.1180 128(11) 137.2967 130.3480
3311 9.1200 131(11) 137.2824 130.3074
3312 9.1220 142(12) 137.3090 130.2669
3313 9.1240 131(11) 137.3756 130.2263
3314 9.1260 128(11) 137.4818 130.1859
3315 9.1280 135(12) 137.6274 130.1455
3316 9.1300 138(12) 137.8663 130.1051
3317 9.1320 141(12) 138.0905 130.0647
3318 9.1340 138(12) 138.3506 130.0244
3319 9.1360 136(12) 138.6396 129.9842
3320 9.1380 137(12) 138.9454 129.9440
3321 9.1400 136(12) 139.2527 129.9038
3322 9.1420 131(11) 139.5277 129.8636
3323 9.1440 147(12) 139.7518 129.8235
3324 9.1460 137(12) 139.9114 129.7835
3325 9.1480 127(11) 140.0097 129.7435
3326 9.1500 143(12) 140.0646 129.7035
3327 9.1520 138(12) 140.0766 129.6636
3328 9.1540 134(12) 140.1214 129.6237
3329 9.1560 133(12) 140.1924 129.5838
3330 9.1580 139(12) 140.3014 129.5440
3331 9.1600 136(12) 140.4550 129.5043
3332 9.1620 131(11) 140.6565 129.4645
3333 9.1640 127(11) 140.9071 129.4248
3334 9.1660 145(12) 141.2076 129.3852
3335 9.1680 135(12) 141.5590 129.3456
3336 9.1700 136(12) 141.9626 129.3060
3337 9.1720 137(12) 142.4206 129.2665
3338 9.1740 143(12) 142.9350 129.2270
3339 9.1760 132(11) 143.5102 129.1875
3340 9.1780 141(12) 144.1494 129.1481
3341 9.1800 144(12) 144.8575 129.1088
3342 9.1820 152(12) 145.6397 129.0695
3343 9.1840 138(12) 146.5018 129.0302
3344 9.1860 141(12) 147.4507 128.9909
3345 9.1880 147(12) 148.5173 128.9517
3346 9.1900 141(12) 149.5986 128.9126
3347 9.1920 152(12) 150.8490 128.8734
3348 9.1940 141(12) 152.2145 128.8344
3349 9.1960 144(12) 153.7026 128.7953
3350 9.1980 138(12) 155.3211 128.7563
3351 9.2000 145(12) 156.7848 128.7174
3352 9.2020 144(12) 158.6875 128.6785
3353 9.2040 148(12) 160.7432 128.6396
3354 9.2060 157(13) 163.0311 128.6007
3355 9.2080 150(12) 165.4041 128.5619
3356 9.2100 152(12) 167.9417 128.5232
3357 9.2120 159(13) 170.6403 128.4845
3358 9.2140 159(13) 173.5022 128.4458
3359 9.2160 158(13) 176.5166 128.4072
3360 9.2180 162(13) 179.7185 128.3686
3361 9.2200 172(13) 183.0001 128.3300
3362 9.2220 172(13) 186.3809 128.2915
3363 9.2240 173(13) 189.8290 128.2530
3364 9.2260 181(13) 193.2964 128.2146
3365 9.2280 205(14) 196.7370 128.1762
3366 9.2300 194(14) 200.0838 128.1378
3367 9.2320 203(14) 203.3326 128.0995
3368 9.2340 231(15) 206.2834 128.0612
3369 9.2360 239(15) 208.9252 128.0230
3370 9.2380 247(16) 211.1911 127.9848
3371 9.2400 248(16) 213.0231 127.9466
3372 9.2420 273(17) 214.3872 127.9085
3373 9.2440 280(17) 215.2659 127.8704
3374 9.2460 280(17) 215.6681 127.8324
3375 9.2480 273(17) 215.6239 127.7944
3376 9.2500 274(17) 215.1816 127.7565
3377 9.2520 276(17) 214.4007 127.7185
3378 9.2540 271(16) 213.3919 127.6807
3379 9.2560 255(16) 212.1302 127.6428
3380 9.2580 246(16) 210.7204 127.6050
3381 9.2600 247(16) 209.2123 127.5673
3382 9.2620 229(15) 207.6471 127.5295
3383 9.2640 216(15) 206.0562 127.4919
3384 9.2660 216(15) 204.4622 127.4542
3385 9.2680 220(15) 202.8848 127.4166
3386 9.2700 219(15) 201.3334 127.3791
3387 9.2720 220(15) 199.8196 127.3415
3388 9.2740 209(14) 198.3494 127.3041
3389 9.2760 210(14) 196.9259 127.2666
3390 9.2780 207(14) 195.5515 127.2292
3391 9.2800 199(14) 194.2202 127.1918
3392 9.2820 203(14) 192.9260 127.1545
3393 9.2840 217(15) 191.6563 127.1172
3394 9.2860 201(14) 190.3961 127.0800
3395 9.2880 196(14) 189.1294 127.0428
3396 9.2900 201(14) 187.8407 127.0056
3397 9.2920 208(14) 186.5213 126.9685
3398 9.2940 202(14) 185.1648 126.9314
3399 9.2960 198(14) 183.7777 126.8944
3400 9.2980 204(14) 182.3736 126.8574
3401 9.3000 193(14) 180.9761 126.8204
3402 9.3020 184(14) 179.6173 126.7835
3403 9.3040 180(13) 178.3359 126.7466
3404 9.3060 193(14) 177.1783 126.7097
3405 9.3080 166(13) 176.1909 126.6729
3406 9.3100 180(13) 175.4268 126.6361
3407 9.3120 177(13) 174.9384 126.5994
3408 9.3140 186(14) 174.7791 126.5627
3409 9.3160 172(13) 174.9992 126.5261
3410 9.3180 170(13) 175.6407 126.4894
3411 9.3200 165(13) 176.7231 126.4529
3412 9.3220 173(13) 178.2297 126.4163
3413 9.3240 165(13) 180.0715 126.3798
3414 9.3260 173(13) 182.0620 126.3434
3415 9.3280 169(13) 183.8946 126.3069
3416 9.3300 180(13) 185.1606 126.2706
3417 9.3320 171(13) 185.5614 126.2342
3418 9.3340 162(13) 184.5851 126.1979
3419 9.3360 190(14) 182.3142 126.1617
3420 9.3380 170(13) 178.9753 126.1254
3421 9.3400 162(13) 174.9881 126.0892
3422 9.3420 163(13) 170.7477 126.0531
3423 9.3440 157(13) 166.5822 126.0170
3424 9.3460 162(13) 162.6867 125.9809
3425 9.3480 149(12) 159.1662 125.9449
3426 9.3500 157(13) 156.0461 125.9089
3427 9.3520 144(12) 153.3124 125.8729
3428 9.3540 150(12) 150.9305 125.8370
3429 9.3560 144(12) 148.8581 125.8011
3430 9.3580 145(12) 147.0562 125.7653
3431 9.3600 143(12) 145.4831 125.7295
3432 9.3620 144(12) 144.1077 125.6937
3433 9.3640 151(12) 142.9004 125.6580
3434 9.3660 139(12) 141.8370 125.6223
3435 9.3680 139(12) 140.8972 125.5867
3436 9.3700 145(12) 140.0637 125.5511
3437 9.3720 139(12) 139.3236 125.5155
3438 9.3740 138(12) 138.6638 125.4800
3439 9.3760 138(12) 138.0759 125.4445
3440 9.3780 140(12) 137.5513 125.4090
3441 9.3800 138(12) 137.0838 125.3736
3442 9.3820 130(11) 136.6591 125.3382
3443 9.3840 149(12) 136.2907 125.3029
3444 9.3860 135(12) 135.9668 125.2676
3445 9.3880 136(12) 135.6842 125.2323
3446 9.3900 137(12) 135.4417 125.1971
3447 9.3920 140(12) 135.2382 125.1619
3448 9.3940 142(12) 135.0735 125.1268
3449 9.3960 139(12) 134.9483 125.0917
3450 9.3980 131(11) 134.8635 125.0566
3451 9.4000 144(12) 134.8218 125.0216
3452 9.4020 148(12) 134.8259 124.9866
3453 9.4040 126(11) 134.8800 124.9516
3454 9.4060 128(11) 134.9892 124.9167
3455 9.4080 138(12) 135.1595 124.8818
3456 9.4100 134(12) 135.3973 124.8470
3457 9.4120 144(12) 135.7093 124.8122
3458 9.4140 138(12) 136.1000 124.7774
3459 9.4160 139(12) 136.5704 124.7427
3460 9.4180 130(11) 137.1130 124.7080
3461 9.4200 130(11) 137.7077 124.6733
3462 9.4220 137(12) 138.3171 124.6387
3463 9.4240 140(12) 138.8853 124.6042
3464 9.4260 149(12) 139.3499 124.5696
3465 9.4280 138(12) 139.6584 124.5351
3466 9.4300 152(12) 139.7936 124.5007
3467 9.4320 158(13) 139.7829 124.4662
3468 9.4340 148(12) 139.6901 124.4318
3469 9.4360 139(12) 139.5938 124.3975
3470 9.4380 142(12) 139.5667 124.3632
3471 9.4400 149(12) 139.6661 124.3289
3472 9.4420 127(11) 139.9321 124.2947
3473 9.4440 138(12) 140.3916 124.2605
3474 9.4460 139(12) 141.0601 124.2263
3475 9.4480 143(12) 141.9421 124.1922
3476 9.4500 144(12) 143.0274 124.1581
3477 9.4520 151(12) 144.2806 124.1241
3478 9.4540 154(12) 145.6407 124.0900
3479 9.4560 137(12) 147.0120 124.0561
3480 9.4580 135(12) 148.2853 124.0221
3481 9.4600 143(12) 149.3667 123.9882
3482 9.4620 142(12) 150.2091 123.9544
3483 9.4640 147(12) 150.8274 123.9205
3484 9.4660 146(12) 151.2643 123.8868
3485 9.4680 147(12) 151.5438 123.8530
3486 9.4700 154(12) 151.6318 123.8193
3487 9.4720 146(12) 151.4360 123.7856
3488 9.4740 148(12) 150.8499 123.7520
3489 9.4760 150(12) 149.8184 123.7184
3490 9.4780 149(12) 148.3746 123.6848
3491 9.4800 138(12) 146.6390 123.6513
3492 9.4820 134(12) 144.7661 123.6178
3493 9.4840 141(12) 142.8983 123.5844
3494 9.4860 144(12) 141.1369 123.5510
3495 9.4880 132(12) 139.5378 123.5176
3496 9.4900 139(12) 138.1246 123.4842
3497 9.4920 140(12) 136.8936 123.4509
3498 9.4940 122(11) 135.8334 123.4177
3499 9.4960 132(11) 134.9250 123.3844
3500 9.4980 145(12) 134.1493 123.3513
3501 9.5000 137(12) 133.4882 123.3181
3502 9.5020 146(12) 132.9253 123.2850
3503 9.5040 140(12) 132.4476 123.2519
3504 9.5060 135(12) 132.0428 123.2189
3505 9.5080 137(12) 131.7020 123.1859
3506 9.5100 136(12) 131.4173 123.1529
3507 9.5120 135(12) 131.1822 123.1199
3508 9.5140 135(12) 130.9924 123.0871
3509 9.5160 134(12) 130.8434 123.0542
3510 9.5180 133(12) 130.7329 123.0214
3511 9.5200 134(12) 130.6585 122.9886
3512 9.5220 128(11) 130.6193 122.9558
3513 9.5240 125(11) 130.6146 122.9231
3514 9.5260 138(12) 130.6447 122.8904
3515 9.5280 143(12) 130.7105 122.8578
3516 9.5300 140(12) 130.8136 122.8252
3517 9.5320 134(12) 130.9565 122.7926
3518 9.5340 124(11) 131.1424 122.7601
3519 9.5360 138(12) 131.3757 122.7276
3520 9.5380 133(12) 131.6618 122.6952
3521 9.5400 140(12) 132.0077 122.6627
3522 9.5420 129(11) 132.4214 122.6304
3523 9.5440 136(12) 132.9140 122.5980
3524 9.5460 132(11) 133.5287 122.5657
3525 9.5480 131(11) 134.2186 122.5334
3526 9.5500 136(12) 135.0330 122.5012
3527 9.5520 128(11) 135.9933 122.4690
3528 9.5540 134(12) 137.1247 122.4368
3529 9.5560 143(12) 138.4523 122.4047
3530 9.5580 135(12) 140.0058 122.3726
3531 9.5600 138(12) 141.8062 122.3406
3532 9.5620 137(12) 143.8652 122.3086
3533 9.5640 138(12) 146.1677 122.2766
3534 9.5660 147(12) 148.6540 122.2446
3535 9.5680 142(12) 151.1987 122.2127
3536 9.5700 139(12) 153.5904 122.1808
3537 9.5720 155(12) 155.5569 122.1490
3538 9.5740 160(13) 156.6508 122.1172
3539 9.5760 147(12) 156.9790 122.0854
3540 9.5780 154(12) 156.3442 122.0537
3541 9.5800 166(13) 154.8950 122.0220
3542 9.5820 154(12) 152.8981 121.9903
3543 9.5840 145(12) 150.6510 121.9587
3544 9.5860 157(13) 148.3923 121.9271
3545 9.5880 150(12) 146.2872 121.8956
3546 9.5900 138(12) 144.4219 121.8641
3547 9.5920 134(12) 142.8308 121.8326
3548 9.5940 156(12) 141.5123 121.8012
3549 9.5960 150(12) 140.4484 121.7697
3550 9.5980 146(12) 139.6166 121.7384
3551 9.6000 131(11) 138.9906 121.7070
3552 9.6020 142(12) 138.5461 121.6757
3553 9.6040 142(12) 138.2616 121.6445
3554 9.6060 144(12) 138.1185 121.6132
3555 9.6080 136(12) 138.1263 121.5821
3556 9.6100 144(12) 138.2207 121.5509
3557 9.6120 145(12) 138.4148 121.5198
3558 9.6140 144(12) 138.6981 121.4887
3559 9.6160 140(12) 139.0607 121.4576
3560 9.6180 133(12) 139.4927 121.4266
3561 9.6200 137(12) 139.9847 121.3956
3562 9.6220 136(12) 140.5251 121.3647
3563 9.6240 143(12) 141.1035 121.3338
3564 9.6260 132(11) 141.7059 121.3029
3565 9.6280 147(12) 142.3179 121.2721
3566 9.6300 149(12) 142.9234 121.2413
3567 9.6320 163(13) 143.5046 121.2105
3568 9.6340 150(12) 144.0434 121.1798
3569 9.6360 155(12) 144.5206 121.1491
3570 9.6380 163(13) 144.9194 121.1184
3571 9.6400 154(12) 145.2242 121.0878
3572 9.6420 158(13) 145.4233 121.0572
3573 9.6440 163(13) 145.5098 121.0266
3574 9.6460 144(12) 145.4818 120.9962
3575 9.6480 147(12) 145.3427 120.9657
3576 9.6500 159(13) 145.1013 120.9352
3577 9.6520 161(13) 144.7703 120.9048
3578 9.6540 153(12) 144.3657 120.8744
3579 9.6560 155(12) 143.9050 120.8441
3580 9.6580 160(13) 143.4066 120.8138
3581 9.6600 156(12) 142.8891 120.7835
3582 9.6620 143(12) 142.3686 120.7532
3583 9.6640 139(12) 141.8613 120.7231
3584 9.6660 153(12) 141.3806 120.6929
3585 9.6680 145(12) 140.9383 120.6627
3586 9.6700 145(12) 140.5442 120.6326
3587 9.6720 142(12) 140.1815 120.6026
3588 9.6740 140(12) 139.9076 120.5726
3589 9.6760 135(12) 139.7021 120.5425
3590 9.6780 128(11) 139.5694 120.5126
3591 9.6800 130(11) 139.5129 120.4827
3592 9.6820 139(12) 139.5702 120.4528
3593 9.6840 144(12) 139.6728 120.4229
3594 9.6860 134(12) 139.8566 120.3931
3595 9.6880 145(12) 140.1213 120.3633
3596 9.6900 131(11) 140.4670 120.3336
3597 9.6920 133(12) 140.8917 120.3038
3598 9.6940 132(11) 141.3932 120.2742
3599 9.6960 135(12) 141.9682 120.2445
3600 9.6980 136(12) 142.6108 120.2149
3601 9.7000 138(12) 143.3159 120.1853
3602 9.7020 141(12) 144.0734 120.1558
3603 9.7040 154(12) 144.8295 120.1263
3604 9.7060 143(12) 145.6598 120.0968
3605 9.7080 137(12) 146.5034 120.0674
3606 9.7100 142(12) 147.3423 120.0379
3607 9.7120 155(12) 148.1544 120.0086
3608 9.7140 144(12) 149.0237 119.9792
3609 9.7160 141(12) 149.7174 119.9499
3610 9.7180 140(12) 150.2536 119.9207
3611 9.7200 156(12) 150.7388 119.8914
3612 9.7220 148(12) 151.0924 119.8622
3613 9.7240 146(12) 151.3037 119.8330
3614 9.7260 152(12) 151.3681 119.8039
3615 9.7280 165(13) 151.2885 119.7748
3616 9.7300 143(12) 151.0746 119.7458
3617 9.7320 153(12) 150.7419 119.7167
3618 9.7340 156(12) 150.0959 119.6877
3619 9.7360 157(13) 149.5892 119.6588
3620 9.7380 145(12) 149.0288 119.6298
3621 9.7400 131(11) 148.4380 119.6010
3622 9.7420 142(12) 147.8366 119.5721
3623 9.7440 140(12) 147.2432 119.5433
3624 9.7460 142(12) 146.6723 119.5145
3625 9.7480 131(11) 146.1351 119.4857
3626 9.7500 146(12) 145.6395 119.4570
3627 9.7520 139(12) 145.1897 119.4283
3628 9.7540 143(12) 144.8016 119.3996
3629 9.7560 127(11) 144.4442 119.3710
3630 9.7580 143(12) 144.1270 119.3424
3631 9.7600 132(11) 143.8421 119.3139
3632 9.7620 135(12) 143.5303 119.2853
3633 9.7640 132(11) 143.2780 119.2569
3634 9.7660 140(12) 143.0218 119.2284
3635 9.7680 141(12) 142.7479 119.2000
3636 9.7700 142(12) 142.4421 119.1716
3637 9.7720 146(12) 142.0921 119.1432
3638 9.7740 143(12) 141.6877 119.1149
3639 9.7760 133(12) 141.2218 119.0866
3640 9.7780 134(12) 140.6920 119.0584
3641 9.7800 151(12) 140.0982 119.0301
3642 9.7820 146(12) 139.4457 119.0020
3643 9.7840 142(12) 138.7417 118.9738
3644 9.7860 126(11) 137.9959 118.9457
3645 9.7880 130(11) 137.1369 118.9176
3646 9.7900 144(12) 136.3410 118.8895
3647 9.7920 131(11) 135.5371 118.8615
3648 9.7940 117(11) 134.7334 118.8335
3649 9.7960 130(11) 133.9397 118.8056
3650 9.7980 144(12) 133.1626 118.7777
3651 9.8000 136(12) 132.4078 118.7498
3652 9.8020 132(11) 131.6795 118.7219
3653 9.8040 129(11) 131.1310 118.6941
3654 9.8060 128(11) 130.4658 118.6663
3655 9.8080 133(12) 129.8327 118.6386
3656 9.8100 134(12) 129.2335 118.6108
3657 9.8120 126(11) 128.6678 118.5831
3658 9.8140 127(11) 128.1354 118.5555
3659 9.8160 125(11) 127.6354 118.5279
3660 9.8180 127(11) 127.1667 118.5003
3661 9.8200 131(11) 126.7289 118.4727
3662 9.8220 123(11) 126.2075 118.4452
3663 9.8240 125(11) 125.8283 118.4177
3664 9.8260 130(11) 125.4755 118.3903
3665 9.8280 129(11) 125.1476 118.3628
3666 9.8300 131(11) 124.8437 118.3354
3667 9.8320 127(11) 124.5618 118.3081
3668 9.8340 124(11) 124.3010 118.2807
3669 9.8360 125(11) 124.0597 118.2534
3670 9.8380 124(11) 123.8368 118.2262
3671 9.8400 128(11) 123.6312 118.1990
3672 9.8420 126(11) 123.4415 118.1717
3673 9.8440 123(11) 123.2670 118.1446
3674 9.8460 125(11) 123.1065 118.1175
3675 9.8480 123(11) 122.9591 118.0904
3676 9.8500 125(11) 122.8242 118.0633
3677 9.8520 123(11) 122.7009 118.0363
3678 9.8540 122(11) 122.5886 118.0093
3679 9.8560 124(11) 122.4867 117.9823
3680 9.8580 126(11) 122.3949 117.9554
3681 9.8600 134(12) 122.3126 117.9285
3682 9.8620 122(11) 122.2397 117.9016
3683 9.8640 123(11) 122.1758 117.8747
3684 9.8660 124(11) 122.1209 117.8479
3685 9.8680 124(11) 122.0750 117.8212
3686 9.8700 129(11) 122.0379 117.7944
3687 9.8720 128(11) 122.0100 117.7677
3688 9.8740 128(11) 121.9914 117.7410
3689 9.8760 126(11) 121.9825 117.7144
3690 9.8780 125(11) 121.9837 117.6878
3691 9.8800 125(11) 121.9956 117.6612
3692 9.8820 120(11) 122.0189 117.6346
3693 9.8840 136(12) 122.0546 117.6081
3694 9.8860 127(11) 122.1036 117.5816
3695 9.8880 121(11) 122.1674 117.5552
3696 9.8900 123(11) 122.2475 117.5287
3697 9.8920 127(11) 122.3458 117.5024
3698 9.8940 126(11) 122.4646 117.4760
3699 9.8960 127(11) 122.6063 117.4497
3700 9.8980 117(11) 122.7745 117.4234
3701 9.9000 125(11) 122.9728 117.3971
3702 9.9020 124(11) 123.2058 117.3709
3703 9.9040 126(11) 123.4790 117.3447
3704 9.9060 127(11) 123.7988 117.3185
3705 9.9080 122(11) 124.1728 117.2924
3706 9.9100 135(12) 124.6090 117.2663
3707 9.9120 129(11) 125.1175 117.2402
3708 9.9140 129(11) 125.7100 117.2142
3709 9.9160 130(11) 126.3902 117.1882
3710 9.9180 124(11) 127.1662 117.1622
3711 9.9200 133(12) 128.0371 117.1363
3712 9.9220 138(12) 128.9905 117.1103
3713 9.9240 135(12) 129.9946 117.0844
3714 9.9260 134(12) 130.9992 117.0586
3715 9.9280 129(11) 131.9318 117.0328
3716 9.9300 143(12) 132.7170 117.0070
3717 9.9320 142(12) 133.2996 116.9812
3718 9.9340 131(11) 133.6696 116.9555
3719 9.9360 137(12) 133.8724 116.9298
3720 9.9380 140(12) 133.9946 116.9042
3721 9.9400 135(12) 134.1391 116.8785
3722 9.9420 135(12) 134.4011 116.8529
3723 9.9440 132(11) 134.8560 116.8274
3724 9.9460 131(11) 135.5576 116.8018
3725 9.9480 130(11) 136.5369 116.7763
3726 9.9500 137(12) 137.8065 116.7508
3727 9.9520 139(12) 139.3468 116.7254
3728 9.9540 145(12) 141.1040 116.7000
3729 9.9560 136(12) 142.9637 116.6746
3730 9.9580 146(12) 144.7490 116.6492
3731 9.9600 138(12) 146.2252 116.6239
3732 9.9620 137(12) 147.1395 116.5986
3733 9.9640 144(12) 147.3002 116.5734
3734 9.9660 139(12) 146.6430 116.5481
3735 9.9680 150(12) 145.3038 116.5229
3736 9.9700 142(12) 143.4029 116.4978
3737 9.9720 135(12) 141.2291 116.4727
3738 9.9740 129(11) 138.9980 116.4475
3739 9.9760 150(12) 136.8675 116.4225
3740 9.9780 143(12) 134.9241 116.3974
3741 9.9800 133(12) 133.2119 116.3724
3742 9.9820 138(12) 131.7386 116.3474
3743 9.9840 135(12) 130.4949 116.3225
3744 9.9860 125(11) 129.4634 116.2976
3745 9.9880 128(11) 128.6236 116.2727
3746 9.9900 121(11) 127.9566 116.2478
3747 9.9920 132(12) 127.4417 116.2230
3748 9.9940 127(11) 127.0603 116.1982
3749 9.9960 136(12) 126.7908 116.1734
3750 9.9980 126(11) 126.6067 116.1487
3751 10.0000 133(12) 126.4753 116.1240
3752 10.0020 120(11) 126.3570 116.0993
3753 10.0040 122(11) 126.2112 116.0747
3754 10.0060 128(11) 126.0040 116.0501
3755 10.0080 129(11) 125.7202 116.0255
3756 10.0100 125(11) 125.3657 116.0009
3757 10.0120 130(11) 124.9641 115.9764
3758 10.0140 130(11) 124.5467 115.9519
3759 10.0160 119(11) 124.1411 115.9275
3760 10.0180 127(11) 123.7687 115.9030
3761 10.0200 116(11) 123.4408 115.8786
3762 10.0220 118(11) 123.1633 115.8542
3763 10.0240 137(12) 122.9367 115.8299
3764 10.0260 127(11) 122.7591 115.8056
3765 10.0280 133(12) 122.6279 115.7813
3766 10.0300 123(11) 122.5396 115.7571
3767 10.0320 123(11) 122.4911 115.7328
3768 10.0340 123(11) 122.4798 115.7086
3769 10.0360 124(11) 122.5102 115.6845
3770 10.0380 127(11) 122.5666 115.6603
3771 10.0400 129(11) 122.6543 115.6362
3772 10.0420 120(11) 122.7718 115.6122
3773 10.0440 132(11) 122.9183 115.5881
3774 10.0460 117(11) 123.0926 115.5641
3775 10.0480 129(11) 123.2940 115.5401
3776 10.0500 122(11) 123.7407 115.5162
3777 10.0520 127(11) 123.9967 115.4923
3778 10.0540 122(11) 124.2769 115.4684
3779 10.0560 116(11) 124.5795 115.4445
3780 10.0580 115(11) 124.9031 115.4207
3781 10.0600 117(11) 125.2450 115.3969
3782 10.0620 135(12) 125.6024 115.3731
3783 10.0640 121(11) 125.9717 115.3494
3784 10.0660 120(11) 126.3482 115.3256
3785 10.0680 128(11) 126.7269 115.3019
3786 10.0700 123(11) 127.1007 115.2783
3787 10.0720 127(11) 127.4634 115.2547
3788 10.0740 126(11) 127.8066 115.2311
3789 10.0760 120(11) 128.1223 115.2075
3790 10.0780 124(11) 128.4072 115.1840
3791 10.0800 117(11) 128.6443 115.1605
3792 10.0820 131(11) 128.8322 115.1370
3793 10.0840 127(11) 128.9663 115.1135
3794 10.0860 136(12) 129.0443 115.0901
3795 10.0880 134(12) 129.0661 115.0667
3796 10.0900 126(11) 129.0346 115.0433
3797 10.0920 130(11) 128.9545 115.0200
3798 10.0940 133(12) 128.8327 114.9967
3799 10.0960 132(12) 128.6771 114.9734
3800 10.0980 118(11) 128.4968 114.9502
3801 10.1000 117(11) 128.3006 114.9270
3802 10.1020 130(11) 128.0972 114.9038
3803 10.1040 127(11) 127.8946 114.8806
3804 10.1060 127(11) 127.6999 114.8575
3805 10.1080 127(11) 127.5192 114.8344
3806 10.1100 123(11) 127.3573 114.8113
3807 10.1120 131(11) 127.2182 114.7883
3808 10.1140 127(11) 127.1047 114.7653
3809 10.1160 135(12) 127.0185 114.7423
3810 10.1180 118(11) 126.9606 114.7193
3811 10.1200 118(11) 126.9312 114.6964
3812 10.1220 128(11) 126.9449 114.6735
3813 10.1240 130(11) 126.9691 114.6506
3814 10.1260 124(11) 127.0168 114.6278
3815 10.1280 129(11) 127.0849 114.6050
3816 10.1300 124(11) 127.1849 114.5822
3817 10.1320 134(12) 127.2809 114.5594
3818 10.1340 130(11) 127.3829 114.5367
3819 10.1360 120(11) 127.4846 114.5140
3820 10.1380 129(11) 127.5795 114.4913
3821 10.1400 129(11) 127.6603 114.4687
3822 10.1420 134(12) 127.7201 114.4461
3823 10.1440 133(12) 127.7525 114.4235
3824 10.1460 134(12) 127.7515 114.4009
3825 10.1480 136(12) 127.7128 114.3784
3826 10.1500 131(11) 127.6335 114.3559
3827 10.1520 131(11) 127.5127 114.3334
3828 10.1540 128(11) 127.3513 114.3110
3829 10.1560 139(12) 127.1521 114.2886
3830 10.1580 142(12) 126.8661 114.2662
3831 10.1600 138(12) 126.6067 114.2438
3832 10.1620 134(12) 126.3259 114.2215
3833 10.1640 134(12) 126.0311 114.1992
3834 10.1660 139(12) 125.7288 114.1769
3835 10.1680 124(11) 125.4255 114.1547
3836 10.1700 131(11) 125.1227 114.1325
3837 10.1720 130(11) 124.8347 114.1102
3838 10.1740 134(12) 124.5623 114.0881
3839 10.1760 113(11) 124.3089 114.0660
3840 10.1780 124(11) 124.0787 114.0439
3841 10.1800 124(11) 123.8750 114.0218
3842 10.1820 124(11) 123.7623 113.9997
3843 10.1840 120(11) 123.5870 113.9777
3844 10.1860 121(11) 123.4825 113.9557
3845 10.1880 133(12) 123.4171 113.9337
3846 10.1900 121(11) 123.3942 113.9118
3847 10.1920 120(11) 123.4182 113.8899
3848 10.1940 123(11) 123.4937 113.8680
3849 10.1960 121(11) 123.6264 113.8461
3850 10.1980 123(11) 123.8228 113.8243
3851 10.2000 127(11) 124.0907 113.8025
3852 10.2020 131(11) 124.4378 113.7808
3853 10.2040 128(11) 124.8737 113.7590
3854 10.2060 119(11) 125.4056 113.7373
3855 10.2080 117(11) 126.0395 113.7156
3856 10.2100 135(12) 126.7751 113.6939
3857 10.2120 120(11) 127.6004 113.6723
3858 10.2140 130(11) 128.4883 113.6507
3859 10.2160 126(11) 129.2827 113.6291
3860 10.2180 133(12) 130.1135 113.6076
3861 10.2200 127(11) 130.7799 113.5860
3862 10.2220 133(12) 131.1883 113.5646
3863 10.2240 144(12) 131.2781 113.5431
3864 10.2260 144(12) 131.0456 113.5216
3865 10.2280 139(12) 130.5449 113.5002
3866 10.2300 125(11) 129.9161 113.4788
3867 10.2320 130(11) 129.1614 113.4575
3868 10.2340 131(11) 128.4107 113.4361
3869 10.2360 133(12) 127.7203 113.4148
3870 10.2380 123(11) 127.1224 113.3935
3871 10.2400 124(11) 126.6775 113.3723
3872 10.2420 120(11) 126.2976 113.3511
3873 10.2440 123(11) 125.9489 113.3299
3874 10.2460 122(11) 125.7780 113.3087
3875 10.2480 131(11) 125.7020 113.2875
3876 10.2500 124(11) 125.7156 113.2664
3877 10.2520 128(11) 125.8148 113.2453
3878 10.2540 122(11) 125.9968 113.2243
3879 10.2560 139(12) 126.2614 113.2032
3880 10.2580 130(11) 126.6095 113.1822
3881 10.2600 132(11) 127.0303 113.1612
3882 10.2620 126(11) 127.5573 113.1403
3883 10.2640 140(12) 128.1827 113.1194
3884 10.2660 124(11) 128.9174 113.0984
3885 10.2680 131(11) 129.7727 113.0776
3886 10.2700 137(12) 130.7638 113.0567
3887 10.2720 136(12) 131.9093 113.0359
3888 10.2740 134(12) 133.2310 113.0151
3889 10.2760 132(11) 134.7555 112.9943
3890 10.2780 126(11) 136.5101 112.9736
3891 10.2800 141(12) 138.5315 112.9529
3892 10.2820 144(12) 140.8527 112.9322
3893 10.2840 124(11) 143.5111 112.9115
3894 10.2860 128(11) 146.5416 112.8909
3895 10.2880 150(12) 149.9730 112.8703
3896 10.2900 153(12) 153.8242 112.8497
3897 10.2920 145(12) 158.0833 112.8291
3898 10.2940 145(12) 162.7094 112.8086
3899 10.2960 151(12) 167.5737 112.7881
3900 10.2980 150(12) 172.4053 112.7676
3901 10.3000 164(13) 176.9376 112.7471
3902 10.3020 163(13) 180.6755 112.7267
3903 10.3040 159(13) 183.1687 112.7063
3904 10.3060 157(13) 184.1076 112.6860
3905 10.3080 162(13) 183.4529 112.6656
3906 10.3100 163(13) 181.4497 112.6453
3907 10.3120 161(13) 178.5351 112.6250
3908 10.3140 155(12) 175.1896 112.6047
3909 10.3160 164(13) 171.8290 112.5844
3910 10.3180 159(13) 168.7345 112.5642
3911 10.3200 161(13) 166.0774 112.5440
3912 10.3220 155(12) 163.9243 112.5239
3913 10.3240 151(12) 162.2876 112.5037
3914 10.3260 152(12) 161.1383 112.4836
3915 10.3280 160(13) 160.4280 112.4635
3916 10.3300 158(13) 160.0997 112.4435
3917 10.3320 148(12) 160.0916 112.4234
3918 10.3340 152(12) 160.3434 112.4034
3919 10.3360 149(12) 160.7995 112.3834
3920 10.3380 156(12) 161.4113 112.3635
3921 10.3400 167(13) 162.1369 112.3435
3922 10.3420 157(13) 162.9393 112.3236
3923 10.3440 162(13) 163.7801 112.3037
3924 10.3460 158(13) 164.6216 112.2839
3925 10.3480 159(13) 165.4206 112.2640
3926 10.3500 164(13) 166.1330 112.2442
3927 10.3520 164(13) 166.7147 112.2244
3928 10.3540 178(13) 167.1241 112.2047
3929 10.3560 182(13) 167.3253 112.1850
3930 10.3580 192(14) 167.2899 112.1653
3931 10.3600 176(13) 166.9997 112.1456
3932 10.3620 189(14) 166.4478 112.1259
3933 10.3640 189(14) 165.6383 112.1063
3934 10.3660 183(14) 164.5858 112.0867
3935 10.3680 186(14) 163.3137 112.0671
3936 10.3700 186(14) 161.8511 112.0475
3937 10.3720 173(13) 160.2341 112.0280
3938 10.3740 175(13) 158.4953 112.0085
3939 10.3760 166(13) 156.6721 111.9890
3940 10.3780 164(13) 154.7969 111.9696
3941 10.3800 153(12) 152.8987 111.9501
3942 10.3820 149(12) 151.0064 111.9307
3943 10.3840 147(12) 149.1387 111.9114
3944 10.3860 146(12) 147.3177 111.8920
3945 10.3880 145(12) 145.5549 111.8727
3946 10.3900 138(12) 143.8647 111.8534
3947 10.3920 139(12) 142.2555 111.8341
3948 10.3940 135(12) 140.7337 111.8148
3949 10.3960 141(12) 139.3069 111.7956
3950 10.3980 140(12) 137.9782 111.7764
3951 10.4000 137(12) 136.7495 111.7572
3952 10.4020 133(12) 135.6623 111.7381
3953 10.4040 120(11) 134.6443 111.7189
3954 10.4060 135(12) 133.7351 111.6998
3955 10.4080 128(11) 132.9375 111.6807
3956 10.4100 127(11) 132.2560 111.6617
3957 10.4120 125(11) 131.6939 111.6427
3958 10.4140 137(12) 131.2576 111.6236
3959 10.4160 128(11) 130.9536 111.6047
3960 10.4180 129(11) 130.7897 111.5857
3961 10.4200 129(11) 130.7749 111.5668
3962 10.4220 127(11) 130.9179 111.5479
3963 10.4240 142(12) 131.2253 111.5290
3964 10.4260 126(11) 131.6990 111.5101
3965 10.4280 140(12) 132.3294 111.4913
3966 10.4300 136(12) 133.0896 111.4725
3967 10.4320 127(11) 133.9252 111.4537
3968 10.4340 123(11) 134.7485 111.4349
3969 10.4360 127(11) 135.4396 111.4162
3970 10.4380 128(11) 135.8633 111.3975
3971 10.4400 129(11) 135.9050 111.3788
3972 10.4420 130(11) 135.5079 111.3601
3973 10.4440 134(12) 134.6959 111.3415
3974 10.4460 138(12) 133.5621 111.3228
3975 10.4480 126(11) 132.2372 111.3043
3976 10.4500 128(11) 130.8443 111.2857
3977 10.4520 126(11) 129.5214 111.2672
3978 10.4540 132(11) 128.2556 111.2486
3979 10.4560 125(11) 127.1191 111.2301
3980 10.4580 132(11) 126.1237 111.2117
3981 10.4600 132(11) 125.2683 111.1932
3982 10.4620 119(11) 124.5466 111.1748
3983 10.4640 125(11) 123.9470 111.1564
3984 10.4660 127(11) 123.4603 111.1380
3985 10.4680 122(11) 123.0773 111.1196
3986 10.4700 133(12) 122.7908 111.1013
3987 10.4720 122(11) 122.5963 111.0830
3988 10.4740 126(11) 122.4913 111.0647
3989 10.4760 142(12) 122.4760 111.0465
3990 10.4780 129(11) 122.5526 111.0282
3991 10.4800 127(11) 122.6817 111.0100
3992 10.4820 117(11) 122.9552 110.9918
3993 10.4840 129(11) 123.3333 110.9737
3994 10.4860 124(11) 123.8168 110.9555
3995 10.4880 131(11) 124.3994 110.9374
3996 10.4900 128(11) 125.0607 110.9193
3997 10.4920 128(11) 125.7630 110.9012
3998 10.4940 125(11) 126.4415 110.8832
3999 10.4960 128(11) 127.0095 110.8652
4000 10.4980 140(12) 127.3689 110.8472
4001 10.5000 132(11) 127.4351 110.8292
4002 10.5020 129(11) 127.1659 110.8112
4003 10.5040 134(12) 126.5779 110.7933
4004 10.5060 124(11) 125.7393 110.7754
4005 10.5080 138(12) 124.7446 110.7575
4006 10.5100 129(11) 123.6868 110.7396
4007 10.5120 130(11) 122.6392 110.7218
4008 10.5140 121(11) 121.6496 110.7040
4009 10.5160 128(11) 120.7428 110.6862
4010 10.5180 126(11) 119.9290 110.6684
4011 10.5200 129(11) 119.2071 110.6507
4012 10.5220 125(11) 118.5706 110.6329
4013 10.5240 124(11) 118.0109 110.6152
4014 10.5260 111(11) 117.5190 110.5976
4015 10.5280 127(11) 117.0855 110.5799
4016 10.5300 119(11) 116.7031 110.5623
4017 10.5320 125(11) 116.3666 110.5447
4018 10.5340 115(11) 116.0656 110.5271
4019 10.5360 116(11) 115.7971 110.5095
4020 10.5380 117(11) 115.5568 110.4920
4021 10.5400 119(11) 115.3410 110.4745
4022 10.5420 116(11) 115.1464 110.4570
4023 10.5440 119(11) 114.9705 110.4395
4024 10.5460 106(10) 114.8112 110.4221
4025 10.5480 127(11) 114.6665 110.4046
4026 10.5500 125(11) 114.5281 110.3872
4027 10.5520 115(11) 114.4082 110.3699
4028 10.5540 110(10) 114.3663 110.3525
4029 10.5560 125(11) 114.2669 110.3351
4030 10.5580 112(11) 114.1762 110.3178
4031 10.5600 121(11) 114.0934 110.3005
4032 10.5620 116(11) 114.0180 110.2833
4033 10.5640 122(11) 113.7358 110.2660
4034 10.5660 115(11) 113.6769 110.2488
4035 10.5680 112(11) 113.6239 110.2316
4036 10.5700 117(11) 113.5766 110.2144
4037 10.5720 120(11) 113.5346 110.1973
4038 10.5740 129(11) 113.4978 110.1801
4039 10.5760 118(11) 113.4661 110.1630
4040 10.5780 112(11) 113.4392 110.1459
4041 10.5800 122(11) 113.4172 110.1289
4042 10.5820 119(11) 113.3999 110.1118
4043 10.5840 112(11) 113.3875 110.0948
4044 10.5860 116(11) 113.3903 110.0778
4045 10.5880 115(11) 113.3878 110.0608
4046 10.5900 118(11) 113.3902 110.0438
4047 10.5920 127(11) 113.3978 110.0269
4048 10.5940 132(11) 113.4061 110.0100
4049 10.5960 121(11) 113.4247 109.9931
4050 10.5980 126(11) 113.4492 109.9762
4051 10.6000 118(11) 113.4800 109.9594
4052 10.6020 128(11) 113.5174 109.9426
4053 10.6040 120(11) 113.5619 109.9258
4054 10.6060 120(11) 113.6141 109.9090
4055 10.6080 116(11) 113.6746 109.8922
4056 10.6100 139(12) 113.7441 109.8755
4057 10.6120 112(11) 113.8259 109.8588
4058 10.6140 119(11) 113.9162 109.8420
4059 10.6160 119(11) 114.0186 109.8254
4060 10.6180 122(11) 114.1342 109.8087
4061 10.6200 119(11) 114.2647 109.7921
4062 10.6220 123(11) 114.4117 109.7755
4063 10.6240 117(11) 114.5771 109.7589
4064 10.6260 112(11) 114.7323 109.7423
4065 10.6280 118(11) 114.9423 109.7258
4066 10.6300 132(11) 115.1791 109.7093
4067 10.6320 119(11) 115.4462 109.6928
4068 10.6340 109(10) 115.7480 109.6763
4069 10.6360 110(11) 116.0892 109.6598
4070 10.6380 119(11) 116.4757 109.6434
4071 10.6400 115(11) 116.9139 109.6270
4072 10.6420 127(11) 117.4113 109.6106
4073 10.6440 116(11) 117.9755 109.5942
4074 10.6460 115(11) 118.6151 109.5778
4075 10.6480 117(11) 119.3365 109.5615
4076 10.6500 128(11) 120.1447 109.5452
4077 10.6520 117(11) 121.0390 109.5289
4078 10.6540 125(11) 122.0098 109.5126
4079 10.6560 123(11) 123.0325 109.4964
4080 10.6580 120(11) 124.0642 109.4802
4081 10.6600 133(12) 125.0419 109.4640
4082 10.6620 123(11) 125.8878 109.4478
4083 10.6640 131(11) 126.5288 109.4316
4084 10.6660 122(11) 126.9171 109.4155
4085 10.6680 131(11) 127.0487 109.3994
4086 10.6700 129(11) 126.9652 109.3833
4087 10.6720 126(11) 126.7377 109.3672
4088 10.6740 138(12) 126.4444 109.3511
4089 10.6760 128(11) 126.1519 109.3351
4090 10.6780 130(11) 125.9050 109.3191
4091 10.6800 126(11) 125.7346 109.3031
4092 10.6820 131(11) 125.6504 109.2871
4093 10.6840 123(11) 125.6539 109.2711
4094 10.6860 122(11) 125.7411 109.2552
4095 10.6880 129(11) 125.9050 109.2393
4096 10.6900 129(11) 126.1385 109.2234
4097 10.6920 125(11) 126.4349 109.2075
4098 10.6940 125(11) 126.7636 109.1917
4099 10.6960 128(11) 127.1714 109.1758
4100 10.6980 128(11) 127.6291 109.1600
4101 10.7000 131(11) 128.0708 109.1442
4102 10.7020 130(11) 128.6089 109.1285
4103 10.7040 135(12) 129.1634 109.1127
4104 10.7060 130(11) 129.7016 109.0970
4105 10.7080 126(11) 130.1735 109.0813
4106 10.7100 129(11) 130.5130 109.0656
4107 10.7120 132(11) 130.6476 109.0499
4108 10.7140 131(11) 130.5182 109.0343
4109 10.7160 134(12) 130.0998 109.0186
4110 10.7180 137(12) 129.4132 109.0030
4111 10.7200 129(11) 128.5182 108.9874
4112 10.7220 133(12) 127.4947 108.9719
4113 10.7240 123(11) 126.4202 108.9563
4114 10.7260 137(12) 125.3563 108.9408
4115 10.7280 129(11) 124.3458 108.9253
4116 10.7300 122(11) 123.4120 108.9098
4117 10.7320 119(11) 122.5658 108.8943
4118 10.7340 128(11) 121.8092 108.8789
4119 10.7360 123(11) 121.3506 108.8635
4120 10.7380 131(11) 120.7647 108.8481
4121 10.7400 122(11) 120.2550 108.8327
4122 10.7420 121(11) 119.8162 108.8173
4123 10.7440 115(11) 119.4428 108.8019
4124 10.7460 114(11) 119.1301 108.7866
4125 10.7480 123(11) 118.8741 108.7713
4126 10.7500 114(11) 118.6712 108.7560
4127 10.7520 122(11) 118.5185 108.7407
4128 10.7540 120(11) 118.4138 108.7255
4129 10.7560 121(11) 118.3550 108.7103
4130 10.7580 116(11) 118.3404 108.6951
4131 10.7600 121(11) 118.3688 108.6799
4132 10.7620 117(11) 118.3939 108.6647
4133 10.7640 127(11) 118.5055 108.6496
4134 10.7660 122(11) 118.6571 108.6344
4135 10.7680 123(11) 118.8479 108.6193
4136 10.7700 123(11) 119.0772 108.6042
4137 10.7720 115(11) 119.3442 108.5891
4138 10.7740 123(11) 119.6482 108.5741
4139 10.7760 123(11) 119.9881 108.5591
4140 10.7780 124(11) 120.3628 108.5440
4141 10.7800 117(11) 120.7701 108.5290
4142 10.7820 126(11) 121.2080 108.5141
4143 10.7840 127(11) 121.6732 108.4991
4144 10.7860 127(11) 122.1611 108.4842
4145 10.7880 124(11) 122.6658 108.4693
4146 10.7900 118(11) 123.1791 108.4543
4147 10.7920 134(12) 123.6910 108.4395
4148 10.7940 128(11) 124.1892 108.4246
4149 10.7960 127(11) 124.6610 108.4098
4150 10.7980 136(12) 125.0942 108.3949
4151 10.8000 135(12) 125.4782 108.3801
4152 10.8020 129(11) 125.8049 108.3654
4153 10.8040 133(12) 126.0681 108.3506
4154 10.8060 133(12) 126.2626 108.3358
4155 10.8080 137(12) 126.3843 108.3211
4156 10.8100 141(12) 126.4304 108.3064
4157 10.8120 130(11) 126.3992 108.2917
4158 10.8140 143(12) 126.2912 108.2770
4159 10.8160 128(11) 126.1092 108.2624
4160 10.8180 126(11) 125.8584 108.2477
4161 10.8200 121(11) 125.5466 108.2331
4162 10.8220 130(11) 125.1831 108.2185
4163 10.8240 126(11) 124.7785 108.2039
4164 10.8260 131(11) 124.3445 108.1894
4165 10.8280 122(11) 123.8926 108.1749
4166 10.8300 132(11) 123.4343 108.1603
4167 10.8320 123(11) 122.9799 108.1458
4168 10.8340 122(11) 122.5394 108.1313
4169 10.8360 127(11) 122.1200 108.1169
4170 10.8380 119(11) 121.7266 108.1024
4171 10.8400 122(11) 121.3615 108.0880
4172 10.8420 112(11) 121.0189 108.0736
4173 10.8440 128(11) 120.6900 108.0592
4174 10.8460 124(11) 120.3595 108.0448
4175 10.8480 120(11) 120.0082 108.0305
4176 10.8500 115(11) 119.6180 108.0161
4177 10.8520 126(11) 119.1784 108.0018
4178 10.8540 125(11) 118.6901 107.9875
4179 10.8560 120(11) 118.1656 107.9732
4180 10.8580 111(11) 117.6243 107.9589
4181 10.8600 120(11) 117.0872 107.9447
4182 10.8620 110(10) 116.5714 107.9305
4183 10.8640 118(11) 116.0885 107.9163
4184 10.8660 118(11) 115.6445 107.9021
4185 10.8680 119(11) 115.2409 107.8879
4186 10.8700 125(11) 114.8750 107.8737
4187 10.8720 112(11) 114.5423 107.8596
4188 10.8740 119(11) 114.2356 107.8455
4189 10.8760 111(11) 113.9478 107.8314
4190 10.8780 118(11) 113.6722 107.8173
4191 10.8800 113(11) 113.4049 107.8032
4192 10.8820 118(11) 113.1445 107.7892
4193 10.8840 121(11) 112.8921 107.7751
4194 10.8860 111(11) 112.6506 107.7611
4195 10.8880 117(11) 112.4222 107.7471
4196 10.8900 125(11) 112.2088 107.7332
4197 10.8920 115(11) 112.0111 107.7192
4198 10.8940 120(11) 111.8290 107.7052
4199 10.8960 115(11) 111.7331 107.6913
4200 10.8980 128(11) 111.5804 107.6774
4201 10.9000 112(11) 111.4404 107.6635
4202 10.9020 123(11) 111.3120 107.6497
4203 10.9040 109(10) 111.1941 107.6358
4204 10.9060 115(11) 111.0856 107.6220
4205 10.9080 105(10) 110.9857 107.6081
4206 10.9100 112(11) 110.8934 107.5943
4207 10.9120 126(11) 110.8082 107.5806
4208 10.9140 119(11) 110.7293 107.5668
4209 10.9160 113(11) 110.5064 107.5530
4210 10.9180 122(11) 110.4396 107.5393
4211 10.9200 118(11) 110.3778 107.5256
4212 10.9220 123(11) 110.3263 107.5119
4213 10.9240 111(11) 110.2734 107.4982
4214 10.9260 118(11) 110.2246 107.4846
4215 10.9280 109(10) 110.1795 107.4709
4216 10.9300 116(11) 110.2010 107.4573
4217 10.9320 116(11) 110.1640 107.4437
4218 10.9340 115(11) 110.1303 107.4301
4219 10.9360 123(11) 110.0997 107.4165
4220 10.9380 110(10) 110.0720 107.4029
4221 10.9400 113(11) 110.0472 107.3894
4222 10.9420 122(11) 110.0253 107.3759
4223 10.9440 123(11) 110.0060 107.3624
4224 10.9460 118(11) 109.9893 107.3489
4225 10.9480 114(11) 109.9752 107.3354
4226 10.9500 115(11) 109.9635 107.3219
4227 10.9520 118(11) 109.9543 107.3085
4228 10.9540 120(11) 109.9473 107.2951
4229 10.9560 118(11) 109.9426 107.2817
4230 10.9580 116(11) 109.9399 107.2683
4231 10.9600 118(11) 109.9393 107.2549
4232 10.9620 118(11) 109.9405 107.2415
4233 10.9640 119(11) 109.9434 107.2282
4234 10.9660 118(11) 109.9477 107.2149
4235 10.9680 116(11) 109.9534 107.2016
4236 10.9700 111(11) 109.9600 107.1883
4237 10.9720 110(11) 109.9673 107.1750
4238 10.9740 116(11) 109.9750 107.1618
4239 10.9760 121(11) 109.9827 107.1485
4240 10.9780 117(11) 109.9901 107.1353
4241 10.9800 109(10) 109.9604 107.1221
4242 10.9820 116(11) 109.9666 107.1089
4243 10.9840 116(11) 109.9735 107.0957
4244 10.9860 123(11) 109.9769 107.0826
4245 10.9880 118(11) 109.9785 107.0694
4246 10.9900 111(11) 109.9783 107.0563
4247 10.9920 129(11) 109.9764 107.0432
4248 10.9940 117(11) 109.9728 107.0301
4249 10.9960 117(11) 109.9678 107.0170
4250 10.9980 114(11) 109.9617 107.0039
4251 11.0000 119(11) 109.9547 106.9909
4252 11.0020 112(11) 109.9474 106.9779
4253 11.0040 111(11) 109.9400 106.9648
4254 11.0060 112(11) 109.9329 106.9519
4255 11.0080 110(10) 109.9266 106.9389
4256 11.0100 119(11) 109.9212 106.9259
4257 11.0120 123(11) 109.9173 106.9130
4258 11.0140 115(11) 109.9149 106.9000
4259 11.0160 120(11) 109.9144 106.8871
4260 11.0180 109(10) 109.9160 106.8742
4261 11.0200 123(11) 109.9198 106.8613
4262 11.0220 119(11) 109.9260 106.8485
4263 11.0240 109(10) 109.9348 106.8356
4264 11.0260 118(11) 109.9463 106.8228
4265 11.0280 122(11) 109.9607 106.8100
4266 11.0300 117(11) 109.9780 106.7972
4267 11.0320 119(11) 109.9983 106.7844
4268 11.0340 111(11) 110.0219 106.7716
4269 11.0360 120(11) 110.0487 106.7588
4270 11.0380 124(11) 110.0790 106.7461
4271 11.0400 111(11) 110.1104 106.7334
4272 11.0420 115(11) 110.1481 106.7207
4273 11.0440 121(11) 110.1897 106.7080
4274 11.0460 112(11) 110.2354 106.6953
4275 11.0480 109(10) 110.2855 106.6826
4276 11.0500 114(11) 110.3402 106.6700
4277 11.0520 127(11) 110.3997 106.6573
4278 11.0540 117(11) 110.4645 106.6447
4279 11.0560 114(11) 110.5346 106.6321
4280 11.0580 112(11) 110.6107 106.6195
4281 11.0600 117(11) 110.6930 106.6070
4282 11.0620 124(11) 110.7820 106.5944
4283 11.0640 113(11) 110.8761 106.5819
4284 11.0660 127(11) 110.9802 106.5694
4285 11.0680 113(11) 111.0926 106.5568
4286 11.0700 119(11) 111.2140 106.5443
4287 11.0720 116(11) 111.3450 106.5319
4288 11.0740 121(11) 111.4865 106.5194
4289 11.0760 122(11) 111.6393 106.5070
4290 11.0780 110(11) 111.8042 106.4945
4291 11.0800 109(10) 111.9822 106.4821
4292 11.0820 126(11) 112.1741 106.4697
4293 11.0840 123(11) 112.3811 106.4573
4294 11.0860 114(11) 112.6041 106.4449
4295 11.0880 122(11) 112.8443 106.4326
4296 11.0900 117(11) 113.1027 106.4202
4297 11.0920 113(11) 113.3807 106.4079
4298 11.0940 111(11) 113.6795 106.3956
4299 11.0960 120(11) 113.9999 106.3833
4300 11.0980 117(11) 114.3433 106.3710
4301 11.1000 111(11) 114.7109 106.3588
4302 11.1020 115(11) 115.1038 106.3465
4303 11.1040 128(11) 115.5230 106.3343
4304 11.1060 122(11) 115.9696 106.3220
4305 11.1080 112(11) 116.4447 106.3098
4306 11.1100 125(11) 116.9485 106.2976
4307 11.1120 115(11) 117.4818 106.2855
4308 11.1140 113(11) 118.0450 106.2733
4309 11.1160 120(11) 118.6382 106.2612
4310 11.1180 125(11) 119.2508 106.2490
4311 11.1200 123(11) 119.9031 106.2369
4312 11.1220 115(11) 120.5830 106.2248
4313 11.1240 119(11) 121.2888 106.2127
4314 11.1260 128(11) 122.0179 106.2006
4315 11.1280 123(11) 122.7670 106.1886
4316 11.1300 127(11) 123.5315 106.1765
4317 11.1320 121(11) 124.3058 106.1645
4318 11.1340 118(11) 125.1235 106.1525
4319 11.1360 116(11) 125.8961 106.1404
4320 11.1380 129(11) 126.6539 106.1285
4321 11.1400 126(11) 127.3859 106.1165
4322 11.1420 127(11) 128.0804 106.1045
4323 11.1440 125(11) 128.7245 106.0926
4324 11.1460 131(11) 129.3034 106.0806
4325 11.1480 128(11) 129.8081 106.0687
4326 11.1500 133(12) 130.2250 106.0568
4327 11.1520 134(12) 130.5441 106.0449
4328 11.1540 142(12) 130.7577 106.0330
4329 11.1560 126(11) 130.8615 106.0212
4330 11.1580 130(11) 130.8541 106.0093
4331 11.1600 138(12) 130.7380 105.9975
4332 11.1620 149(12) 130.5191 105.9857
4333 11.1640 137(12) 130.2063 105.9739
4334 11.1660 138(12) 129.8108 105.9621
4335 11.1680 133(12) 129.3455 105.9503
4336 11.1700 147(12) 128.8245 105.9385
4337 11.1720 137(12) 128.2617 105.9268
4338 11.1740 131(11) 127.6715 105.9151
4339 11.1760 140(12) 127.0664 105.9033
4340 11.1780 128(11) 126.4580 105.8916
4341 11.1800 122(11) 125.8554 105.8799
4342 11.1820 132(11) 125.2653 105.8682
4343 11.1840 129(11) 124.6913 105.8566
4344 11.1860 123(11) 124.1327 105.8449
4345 11.1880 125(11) 123.5861 105.8333
4346 11.1900 120(11) 123.0444 105.8217
4347 11.1920 129(11) 122.4999 105.8101
4348 11.1940 125(11) 121.9477 105.7984
4349 11.1960 126(11) 121.3876 105.7869
4350 11.1980 119(11) 120.8250 105.7753
4351 11.2000 122(11) 120.2691 105.7637
4352 11.2020 112(11) 119.7313 105.7522
4353 11.2040 126(11) 119.2208 105.7407
4354 11.2060 130(11) 118.7443 105.7291
4355 11.2080 120(11) 118.3061 105.7176
4356 11.2100 128(11) 117.9079 105.7061
4357 11.2120 115(11) 117.5498 105.6947
4358 11.2140 130(11) 117.2310 105.6832
4359 11.2160 119(11) 116.9781 105.6717
4360 11.2180 125(11) 116.7335 105.6603
4361 11.2200 116(11) 116.5234 105.6489
4362 11.2220 122(11) 116.3462 105.6375
4363 11.2240 117(11) 116.2003 105.6261
4364 11.2260 105(10) 116.0845 105.6147
4365 11.2280 127(11) 115.9976 105.6033
4366 11.2300 126(11) 115.9389 105.5920
4367 11.2320 104(10) 115.9076 105.5806
4368 11.2340 113(11) 115.9032 105.5693
4369 11.2360 119(11) 115.9258 105.5580
4370 11.2380 119(11) 115.9744 105.5467
4371 11.2400 112(11) 116.0492 105.5354
4372 11.2420 117(11) 116.1501 105.5241
4373 11.2440 119(11) 116.2765 105.5128
4374 11.2460 123(11) 116.4276 105.5016
4375 11.2480 121(11) 116.6015 105.4903
4376 11.2500 117(11) 116.7959 105.4791
4377 11.2520 122(11) 117.0078 105.4679
4378 11.2540 118(11) 117.2340 105.4567
4379 11.2560 116(11) 117.4726 105.4455
4380 11.2580 124(11) 117.7239 105.4343
4381 11.2600 120(11) 117.9903 105.4231
4382 11.2620 118(11) 118.2766 105.4120
4383 11.2640 122(11) 118.5886 105.4008
4384 11.2660 128(11) 118.9317 105.3897
4385 11.2680 128(11) 119.3110 105.3786
4386 11.2700 120(11) 119.7309 105.3675
4387 11.2720 112(11) 120.1950 105.3564
4388 11.2740 122(11) 120.6909 105.3453
4389 11.2760 120(11) 121.2525 105.3343
4390 11.2780 119(11) 121.8673 105.3232
4391 11.2800 126(11) 122.5376 105.3122
4392 11.2820 121(11) 123.2509 105.3012
4393 11.2840 119(11) 124.0413 105.2901
4394 11.2860 115(11) 124.8963 105.2792
4395 11.2880 122(11) 125.8188 105.2682
4396 11.2900 122(11) 126.8121 105.2572
4397 11.2920 114(11) 127.8798 105.2462
4398 11.2940 122(11) 129.0239 105.2353
4399 11.2960 116(11) 130.2938 105.2243
4400 11.2980 127(11) 131.6009 105.2134
4401 11.3000 126(11) 132.9930 105.2025
4402 11.3020 130(11) 134.4722 105.1916
4403 11.3040 123(11) 136.0409 105.1807
4404 11.3060 139(12) 137.6985 105.1698
4405 11.3080 129(11) 139.4461 105.1590
4406 11.3100 133(12) 141.2829 105.1481
4407 11.3120 138(12) 143.2071 105.1373
4408 11.3140 134(12) 145.2153 105.1264
4409 11.3160 135(12) 147.3025 105.1156
4410 11.3180 132(11) 149.4627 105.1048
4411 11.3200 130(11) 151.6844 105.0940
4412 11.3220 135(12) 153.9561 105.0832
4413 11.3240 152(12) 156.2623 105.0725
4414 11.3260 148(12) 158.5839 105.0617
4415 11.3280 148(12) 160.8981 105.0510
4416 11.3300 155(12) 163.1853 105.0402
4417 11.3320 173(13) 165.4001 105.0295
4418 11.3340 170(13) 167.5155 105.0188
4419 11.3360 168(13) 169.4948 105.0081
4420 11.3380 177(13) 171.2993 104.9974
4421 11.3400 186(14) 172.8905 104.9867
4422 11.3420 191(14) 174.2316 104.9761
4423 11.3440 187(14) 175.2901 104.9654
4424 11.3460 194(14) 176.0380 104.9548
4425 11.3480 192(14) 176.4568 104.9442
4426 11.3500 201(14) 176.5363 104.9335
4427 11.3520 201(14) 176.2770 104.9229
4428 11.3540 198(14) 175.6891 104.9123
4429 11.3560 179(13) 174.7921 104.9018
4430 11.3580 191(14) 173.6132 104.8912
4431 11.3600 174(13) 172.1874 104.8806
4432 11.3620 174(13) 170.5522 104.8701
4433 11.3640 176(13) 168.7479 104.8595
4434 11.3660 164(13) 166.8612 104.8490
4435 11.3680 153(12) 164.8393 104.8385
4436 11.3700 150(12) 162.7800 104.8280
4437 11.3720 149(12) 160.6871 104.8175
4438 11.3740 145(12) 158.6059 104.8070
4439 11.3760 149(12) 156.5634 104.7966
4440 11.3780 141(12) 154.5835 104.7861
4441 11.3800 141(12) 152.6870 104.7757
4442 11.3820 135(12) 150.8922 104.7652
4443 11.3840 145(12) 149.2144 104.7548
4444 11.3860 142(12) 147.6693 104.7444
4445 11.3880 134(12) 146.2680 104.7340
4446 11.3900 131(11) 145.0197 104.7236
4447 11.3920 141(12) 143.9299 104.7132
4448 11.3940 135(12) 142.9501 104.7029
4449 11.3960 130(11) 142.1663 104.6925
4450 11.3980 134(12) 141.5079 104.6822
4451 11.4000 130(11) 140.9343 104.6718
4452 11.4020 132(11) 140.3871 104.6615
4453 11.4040 126(11) 139.7937 104.6512
4454 11.4060 135(12) 139.0807 104.6409
4455 11.4080 119(11) 138.3415 104.6306
4456 11.4100 128(11) 137.2580 104.6203
4457 11.4120 129(11) 136.0011 104.6100
4458 11.4140 130(11) 134.6246 104.5998
4459 11.4160 130(11) 133.1976 104.5895
4460 11.4180 129(11) 131.7856 104.5793
4461 11.4200 121(11) 130.4394 104.5691
4462 11.4220 138(12) 129.1913 104.5589
4463 11.4240 133(12) 128.0595 104.5487
4464 11.4260 136(12) 127.0491 104.5385
4465 11.4280 125(11) 126.1583 104.5283
4466 11.4300 124(11) 125.3809 104.5181
4467 11.4320 126(11) 124.7093 104.5079
4468 11.4340 119(11) 124.1349 104.4978
4469 11.4360 123(11) 123.6495 104.4876
4470 11.4380 120(11) 123.2462 104.4775
4471 11.4400 119(11) 122.9181 104.4674
4472 11.4420 127(11) 122.6596 104.4573
4473 11.4440 143(12) 122.4660 104.4472
4474 11.4460 126(11) 122.3333 104.4371
4475 11.4480 115(11) 122.2586 104.4270
4476 11.4500 133(12) 122.2384 104.4170
4477 11.4520 120(11) 122.2711 104.4069
4478 11.4540 125(11) 122.3554 104.3969
4479 11.4560 123(11) 122.4901 104.3868
4480 11.4580 119(11) 122.6746 104.3768
4481 11.4600 116(11) 122.9088 104.3668
4482 11.4620 106(10) 123.1928 104.3568
4483 11.4640 124(11) 123.5268 104.3468
4484 11.4660 122(11) 123.9059 104.3368
4485 11.4680 118(11) 124.3421 104.3268
4486 11.4700 128(11) 124.8307 104.3169
4487 11.4720 135(12) 125.3726 104.3069
4488 11.4740 126(11) 125.9687 104.2970
4489 11.4760 128(11) 126.6203 104.2870
4490 11.4780 125(11) 127.3275 104.2771
4491 11.4800 128(11) 128.0910 104.2672
4492 11.4820 133(12) 128.9111 104.2573
4493 11.4840 120(11) 129.7876 104.2474
4494 11.4860 130(11) 130.7196 104.2375
4495 11.4880 128(11) 131.7064 104.2276
4496 11.4900 124(11) 132.7447 104.2178
4497 11.4920 138(12) 133.8319 104.2079
4498 11.4940 131(11) 134.9639 104.1981
4499 11.4960 137(12) 136.1353 104.1882
4500 11.4980 131(11) 137.3396 104.1784
4501 11.5000 135(12) 138.5689 104.1686
4502 11.5020 147(12) 139.8148 104.1588
4503 11.5040 142(12) 141.0660 104.1490
4504 11.5060 146(12) 142.3120 104.1392
4505 11.5080 143(12) 143.5412 104.1294
4506 11.5100 147(12) 144.7423 104.1197
4507 11.5120 151(12) 145.9194 104.1099
4508 11.5140 154(12) 147.0332 104.1002
4509 11.5160 160(13) 148.0895 104.0904
4510 11.5180 159(13) 149.0829 104.0807
4511 11.5200 155(12) 150.0100 104.0710
4512 11.5220 151(12) 150.8698 104.0613
4513 11.5240 169(13) 151.6638 104.0516
4514 11.5260 156(12) 152.3953 104.0419
4515 11.5280 164(13) 153.0693 104.0322
4516 11.5300 157(13) 153.6882 104.0225
4517 11.5320 167(13) 154.2618 104.0129
4518 11.5340 158(13) 154.7921 104.0032
4519 11.5360 162(13) 155.2819 103.9936
4520 11.5380 165(13) 155.7325 103.9839
4521 11.5400 168(13) 156.1842 103.9743
4522 11.5420 161(13) 156.5531 103.9647
4523 11.5440 167(13) 156.8761 103.9551
4524 11.5460 171(13) 157.1497 103.9455
4525 11.5480 177(13) 157.3704 103.9359
4526 11.5500 174(13) 157.5356 103.9263
4527 11.5520 176(13) 157.6446 103.9168
4528 11.5540 175(13) 157.6984 103.9072
4529 11.5560 183(14) 157.6985 103.8977
4530 11.5580 180(13) 157.6455 103.8881
4531 11.5600 180(13) 157.5350 103.8786
4532 11.5620 177(13) 157.3529 103.8691
4533 11.5640 173(13) 157.0708 103.8595
4534 11.5660 174(13) 156.6427 103.8500
4535 11.5680 172(13) 156.0079 103.8405
4536 11.5700 166(13) 155.1038 103.8311
4537 11.5720 169(13) 153.8833 103.8216
4538 11.5740 153(12) 152.3355 103.8121
4539 11.5760 160(13) 150.4950 103.8027
4540 11.5780 159(13) 148.4338 103.7932
4541 11.5800 145(12) 146.2420 103.7838
4542 11.5820 147(12) 144.0088 103.7743
4543 11.5840 159(13) 141.8094 103.7649
4544 11.5860 150(12) 139.6934 103.7555
4545 11.5880 152(12) 137.6925 103.7461
4546 11.5900 143(12) 135.8230 103.7367
4547 11.5920 145(12) 134.0908 103.7273
4548 11.5940 135(12) 132.4946 103.7179
4549 11.5960 146(12) 131.0385 103.7085
4550 11.5980 140(12) 129.7033 103.6992
4551 11.6000 137(12) 128.4896 103.6898
4552 11.6020 135(12) 127.3918 103.6805
4553 11.6040 133(12) 126.4051 103.6711
4554 11.6060 135(12) 125.5254 103.6618
4555 11.6080 134(12) 124.7638 103.6525
4556 11.6100 125(11) 124.1306 103.6432
4557 11.6120 129(11) 123.5720 103.6339
4558 11.6140 134(12) 123.1068 103.6246
4559 11.6160 118(11) 122.7474 103.6153
4560 11.6180 128(11) 122.4975 103.6060
4561 11.6200 120(11) 122.3622 103.5967
4562 11.6220 126(11) 122.3474 103.5875
4563 11.6240 121(11) 122.4597 103.5782
4564 11.6260 124(11) 122.7050 103.5690
4565 11.6280 130(11) 123.0908 103.5598
4566 11.6300 126(11) 123.6081 103.5505
4567 11.6320 132(11) 124.2498 103.5413
4568 11.6340 125(11) 124.9903 103.5321
4569 11.6360 121(11) 125.7822 103.5229
4570 11.6380 136(12) 126.5545 103.5137
4571 11.6400 131(11) 127.2131 103.5045
4572 11.6420 140(12) 127.6529 103.4953
4573 11.6440 123(11) 127.7800 103.4862
4574 11.6460 136(12) 127.5358 103.4770
4575 11.6480 135(12) 126.9165 103.4678
4576 11.6500 135(12) 126.0004 103.4587
4577 11.6520 125(11) 124.8177 103.4496
4578 11.6540 135(12) 123.4978 103.4404
4579 11.6560 137(12) 122.1331 103.4313
4580 11.6580 132(11) 120.7948 103.4222
4581 11.6600 123(11) 119.5295 103.4131
4582 11.6620 120(11) 118.3644 103.4040
4583 11.6640 115(11) 117.3417 103.3949
4584 11.6660 119(11) 116.3957 103.3858
4585 11.6680 125(11) 115.5528 103.3768
4586 11.6700 123(11) 114.8039 103.3677
4587 11.6720 126(11) 114.1386 103.3586
4588 11.6740 115(11) 113.5474 103.3496
4589 11.6760 120(11) 113.0207 103.3405
4590 11.6780 112(11) 112.5503 103.3315
4591 11.6800 124(11) 112.1288 103.3225
4592 11.6820 123(11) 111.7498 103.3135
4593 11.6840 125(11) 111.3686 103.3044
4594 11.6860 124(11) 111.1332 103.2954
4595 11.6880 121(11) 110.8721 103.2864
4596 11.6900 123(11) 110.6175 103.2775
4597 11.6920 125(11) 110.3851 103.2685
4598 11.6940 124(11) 110.1725 103.2595
4599 11.6960 121(11) 109.9775 103.2505
4600 11.6980 113(11) 109.7983 103.2416
4601 11.7000 122(11) 109.6335 103.2326
4602 11.7020 122(11) 109.4816 103.2237
4603 11.7040 121(11) 109.3414 103.2148
4604 11.7060 124(11) 109.2121 103.2058
4605 11.7080 121(11) 109.0927 103.1969
4606 11.7100 116(11) 108.9825 103.1880
4607 11.7120 104(10) 108.8808 103.1791
4608 11.7140 116(11) 108.7871 103.1702
4609 11.7160 117(11) 108.7009 103.1613
4610 11.7180 108(10) 108.6219 103.1524
4611 11.7200 113(11) 108.5497 103.1435
4612 11.7220 122(11) 108.4840 103.1347
4613 11.7240 115(11) 108.4246 103.1258
4614 11.7260 115(11) 108.3713 103.1170
4615 11.7280 120(11) 108.3240 103.1081
4616 11.7300 119(11) 108.2827 103.0993
4617 11.7320 119(11) 108.2473 103.0904
4618 11.7340 113(11) 108.2179 103.0816
4619 11.7360 122(11) 108.1946 103.0728
4620 11.7380 120(11) 108.1774 103.0640
4621 11.7400 118(11) 108.1666 103.0552
4622 11.7420 116(11) 108.1625 103.0464
4623 11.7440 121(11) 108.1655 103.0376
4624 11.7460 119(11) 108.1758 103.0288
4625 11.7480 119(11) 108.1942 103.0200
4626 11.7500 115(11) 108.2212 103.0113
4627 11.7520 118(11) 108.2576 103.0025
4628 11.7540 118(11) 108.3043 102.9938
4629 11.7560 116(11) 108.3625 102.9850
4630 11.7580 117(11) 108.4333 102.9763
4631 11.7600 123(11) 108.4514 102.9675
4632 11.7620 113(11) 108.5529 102.9588
4633 11.7640 117(11) 108.6725 102.9501
4634 11.7660 119(11) 108.8123 102.9414
4635 11.7680 116(11) 108.9749 102.9327
4636 11.7700 119(11) 109.1627 102.9240
4637 11.7720 119(11) 109.3784 102.9153
4638 11.7740 119(11) 109.6237 102.9066
4639 11.7760 124(11) 109.8995 102.8979
4640 11.7780 116(11) 110.2043 102.8893
4641 11.7800 123(11) 110.5331 102.8806
4642 11.7820 118(11) 110.8761 102.8719
4643 11.7840 118(11) 111.2172 102.8633
4644 11.7860 116(11) 111.5348 102.8546
4645 11.7880 117(11) 111.8034 102.8460
4646 11.7900 124(11) 111.9999 102.8374
4647 11.7920 111(11) 112.1091 102.8287
4648 11.7940 120(11) 112.1299 102.8201
4649 11.7960 126(11) 112.0750 102.8115
4650 11.7980 111(11) 111.9673 102.8029
4651 11.8000 116(11) 111.8328 102.7943
4652 11.8020 123(11) 111.6954 102.7857
4653 11.8040 118(11) 111.5730 102.7771
4654 11.8060 116(11) 111.4778 102.7686
4655 11.8080 119(11) 111.4162 102.7600
4656 11.8100 126(11) 111.3909 102.7514
4657 11.8120 136(12) 111.4020 102.7429
4658 11.8140 127(11) 111.5112 102.7343
4659 11.8160 116(11) 111.5910 102.7258
4660 11.8180 119(11) 111.7014 102.7172
4661 11.8200 126(11) 111.8400 102.7087
4662 11.8220 131(11) 112.0043 102.7001
4663 11.8240 128(11) 112.1918 102.6916
4664 11.8260 124(11) 112.4001 102.6831
4665 11.8280 121(11) 112.6266 102.6746
4666 11.8300 125(11) 112.8691 102.6661
4667 11.8320 125(11) 113.1246 102.6576
4668 11.8340 122(11) 113.3901 102.6491
4669 11.8360 118(11) 113.6626 102.6406
4670 11.8380 131(11) 113.9385 102.6322
4671 11.8400 128(11) 114.2140 102.6237
4672 11.8420 128(11) 114.4851 102.6152
4673 11.8440 125(11) 114.7475 102.6068
4674 11.8460 130(11) 114.9965 102.5983
4675 11.8480 139(12) 115.2278 102.5899
4676 11.8500 132(11) 115.3915 102.5814
4677 11.8520 132(11) 115.5755 102.5730
4678 11.8540 122(11) 115.7304 102.5646
4679 11.8560 134(12) 115.8538 102.5561
4680 11.8580 131(11) 115.9634 102.5477
4681 11.8600 132(11) 116.0210 102.5393
4682 11.8620 124(11) 116.0466 102.5309
4683 11.8640 142(12) 116.0425 102.5225
4684 11.8660 129(11) 116.0123 102.5141
4685 11.8680 128(11) 115.9606 102.5057
4686 11.8700 121(11) 115.8929 102.4973
4687 11.8720 112(11) 115.8150 102.4890
4688 11.8740 124(11) 115.7334 102.4806
4689 11.8760 124(11) 115.6540 102.4722
4690 11.8780 118(11) 115.5823 102.4639
4691 11.8800 118(11) 115.5223 102.4555
4692 11.8820 116(11) 115.4759 102.4472
4693 11.8840 126(11) 115.4416 102.4388
4694 11.8860 120(11) 115.4137 102.4305
4695 11.8880 128(11) 115.3820 102.4221
4696 11.8900 120(11) 115.3326 102.4138
4697 11.8920 119(11) 115.2502 102.4055
4698 11.8940 137(12) 115.1229 102.3972
4699 11.8960 130(11) 114.9454 102.3889
4700 11.8980 128(11) 114.7221 102.3806
4701 11.9000 119(11) 114.4640 102.3723
4702 11.9020 127(11) 114.1853 102.3640
4703 11.9040 120(11) 113.8988 102.3557
4704 11.9060 125(11) 113.6128 102.3474
4705 11.9080 126(11) 113.3313 102.3392
4706 11.9100 120(11) 113.0552 102.3309
4707 11.9120 120(11) 112.7855 102.3226
4708 11.9140 117(11) 112.5241 102.3144
4709 11.9160 129(11) 112.2748 102.3061
4710 11.9180 118(11) 112.0424 102.2979
4711 11.9200 123(11) 111.8316 102.2896
4712 11.9220 112(11) 111.6458 102.2814
4713 11.9240 121(11) 111.4414 102.2732
4714 11.9260 123(11) 111.3113 102.2649
4715 11.9280 114(11) 111.1930 102.2567
4716 11.9300 122(11) 111.1173 102.2485
4717 11.9320 115(11) 111.0670 102.2403
4718 11.9340 118(11) 111.0408 102.2321
4719 11.9360 116(11) 111.0372 102.2239
4720 11.9380 121(11) 111.0549 102.2157
4721 11.9400 119(11) 111.0929 102.2075
4722 11.9420 119(11) 111.1502 102.1993
4723 11.9440 118(11) 111.2257 102.1911
4724 11.9460 123(11) 111.3188 102.1830
4725 11.9480 109(10) 111.4288 102.1748
4726 11.9500 120(11) 111.5550 102.1666
4727 11.9520 115(11) 111.6969 102.1585
4728 11.9540 115(11) 111.8540 102.1503
4729 11.9560 113(11) 112.1643 102.1422
4730 11.9580 110(11) 112.3511 102.1340
4731 11.9600 124(11) 112.5519 102.1259
4732 11.9620 128(11) 112.7663 102.1178
4733 11.9640 113(11) 112.7841 102.1096
4734 11.9660 126(11) 113.0259 102.1015
4735 11.9680 109(10) 113.2805 102.0934
4736 11.9700 124(11) 113.5478 102.0853
4737 11.9720 118(11) 113.8282 102.0772
4738 11.9740 119(11) 114.1220 102.0691
4739 11.9760 122(11) 114.4301 102.0610
4740 11.9780 117(11) 114.7532 102.0529
4741 11.9800 120(11) 115.0928 102.0448
4742 11.9820 119(11) 115.4507 102.0367
4743 11.9840 113(11) 115.8287 102.0286
4744 11.9860 123(11) 116.2292 102.0206
4745 11.9880 116(11) 116.6550 102.0125
4746 11.9900 118(11) 117.1083 102.0044
4747 11.9920 116(11) 117.5922 101.9964
4748 11.9940 124(11) 118.1097 101.9883
4749 11.9960 124(11) 118.6637 101.9803
4750 11.9980 124(11) 119.2571 101.9722
4751 12.0000 125(11) 119.8926 101.9642
4752 12.0020 111(11) 120.5735 101.9562
4753 12.0040 123(11) 121.3153 101.9481
4754 12.0060 131(11) 122.0933 101.9401
4755 12.0080 126(11) 122.9231 101.9321
4756 12.0100 119(11) 123.8068 101.9241
4757 12.0120 125(11) 124.7764 101.9160
4758 12.0140 122(11) 125.7728 101.9080
4759 12.0160 127(11) 126.8262 101.9000
4760 12.0180 123(11) 127.9372 101.8920
4761 12.0200 121(11) 129.1056 101.8840
4762 12.0220 123(11) 130.3305 101.8761
4763 12.0240 121(11) 131.6102 101.8681
4764 12.0260 124(11) 132.9419 101.8601
4765 12.0280 133(12) 134.3226 101.8521
4766 12.0300 133(12) 135.7459 101.8441
4767 12.0320 131(11) 137.2060 101.8362
4768 12.0340 131(11) 138.6946 101.8282
4769 12.0360 144(12) 140.2017 101.8202
4770 12.0380 139(12) 141.7153 101.8123
4771 12.0400 135(12) 143.2217 101.8043
4772 12.0420 150(12) 144.7033 101.7964
4773 12.0440 138(12) 146.1422 101.7884
4774 12.0460 139(12) 147.5263 101.7805
4775 12.0480 166(13) 148.8179 101.7726
4776 12.0500 143(12) 150.0022 101.7646
4777 12.0520 164(13) 151.0566 101.7567
4778 12.0540 173(13) 151.9599 101.7488
4779 12.0560 167(13) 152.6961 101.7409
4780 12.0580 150(12) 153.2395 101.7330
4781 12.0600 177(13) 153.5820 101.7251
4782 12.0620 182(14) 153.7157 101.7172
4783 12.0640 187(14) 153.6380 101.7093
4784 12.0660 166(13) 153.3519 101.7014
4785 12.0680 175(13) 152.8651 101.6935
4786 12.0700 170(13) 152.1914 101.6856
4787 12.0720 157(13) 151.3476 101.6777
4788 12.0740 149(12) 150.3387 101.6698
4789 12.0760 152(12) 149.2167 101.6620
4790 12.0780 147(12) 147.9882 101.6541
4791 12.0800 145(12) 146.6774 101.6462
4792 12.0820 137(12) 145.3063 101.6384
4793 12.0840 130(11) 143.8949 101.6305
4794 12.0860 137(12) 142.4617 101.6227
4795 12.0880 133(12) 141.0233 101.6148
4796 12.0900 145(12) 139.5943 101.6070
4797 12.0920 134(12) 138.1870 101.5991
4798 12.0940 127(11) 136.8113 101.5913
4799 12.0960 134(12) 135.4772 101.5834
4800 12.0980 134(12) 134.1912 101.5756
4801 12.1000 132(11) 132.9593 101.5678
4802 12.1020 120(11) 131.7861 101.5600
4803 12.1040 132(11) 130.6754 101.5521
4804 12.1060 123(11) 129.6301 101.5443
4805 12.1080 121(11) 128.6535 101.5365
4806 12.1100 121(11) 127.7475 101.5287
4807 12.1120 133(12) 126.9141 101.5209
4808 12.1140 125(11) 126.1550 101.5131
4809 12.1160 121(11) 125.4722 101.5053
4810 12.1180 126(11) 124.8676 101.4975
4811 12.1200 119(11) 124.3426 101.4897
4812 12.1220 113(11) 123.8998 101.4819
4813 12.1240 129(11) 123.5404 101.4742
4814 12.1260 128(11) 123.2651 101.4664
4815 12.1280 126(11) 123.0733 101.4586
4816 12.1300 129(11) 123.0205 101.4508
4817 12.1320 119(11) 122.9827 101.4431
4818 12.1340 110(11) 123.0053 101.4353
4819 12.1360 122(11) 123.0681 101.4276
4820 12.1380 122(11) 123.1440 101.4198
4821 12.1400 126(11) 123.2010 101.4120
4822 12.1420 125(11) 123.1370 101.4043
4823 12.1440 122(11) 123.0722 101.3966
4824 12.1460 134(12) 122.9276 101.3888
4825 12.1480 127(11) 122.7554 101.3811
4826 12.1500 121(11) 122.4958 101.3733
4827 12.1520 117(11) 122.2198 101.3656
4828 12.1540 122(11) 121.9563 101.3579
4829 12.1560 120(11) 121.7281 101.3502
4830 12.1580 123(11) 121.5507 101.3424
4831 12.1600 115(11) 121.4326 101.3347
4832 12.1620 133(12) 121.3773 101.3270
4833 12.1640 123(11) 121.3844 101.3193
4834 12.1660 120(11) 121.4514 101.3116
4835 12.1680 117(11) 121.5744 101.3039
4836 12.1700 126(11) 121.7487 101.2962
4837 12.1720 113(11) 121.9695 101.2885
4838 12.1740 123(11) 122.2313 101.2808
4839 12.1760 132(11) 122.5290 101.2731
4840 12.1780 122(11) 122.8467 101.2654
4841 12.1800 131(11) 123.1994 101.2577
4842 12.1820 127(11) 123.4711 101.2501
4843 12.1840 127(11) 123.8559 101.2424
4844 12.1860 127(11) 124.2468 101.2347
4845 12.1880 137(12) 124.6372 101.2270
4846 12.1900 135(12) 125.0208 101.2194
4847 12.1920 126(11) 125.3914 101.2117
4848 12.1940 121(11) 125.7393 101.2040
4849 12.1960 139(12) 126.0670 101.1964
4850 12.1980 137(12) 126.3665 101.1887
4851 12.2000 141(12) 126.6344 101.1811
4852 12.2020 138(12) 126.8691 101.1734
4853 12.2040 139(12) 127.0705 101.1658
4854 12.2060 140(12) 127.2398 101.1581
4855 12.2080 146(12) 127.3797 101.1505
4856 12.2100 144(12) 127.4945 101.1429
4857 12.2120 133(12) 127.5892 101.1352
4858 12.2140 151(12) 127.7360 101.1276
4859 12.2160 134(12) 127.8102 101.1200
4860 12.2180 143(12) 127.9920 101.1124
4861 12.2200 135(12) 128.0726 101.1047
4862 12.2220 137(12) 128.1663 101.0971
4863 12.2240 131(11) 128.2793 101.0895
4864 12.2260 142(12) 128.4171 101.0819
4865 12.2280 135(12) 128.5850 101.0743
4866 12.2300 136(12) 128.7873 101.0667
4867 12.2320 124(11) 129.0277 101.0591
4868 12.2340 123(11) 129.3093 101.0515
4869 12.2360 134(12) 129.6344 101.0439
4870 12.2380 121(11) 130.0046 101.0363
4871 12.2400 136(12) 130.4205 101.0287
4872 12.2420 126(11) 130.8825 101.0211
4873 12.2440 140(12) 131.3902 101.0135
4874 12.2460 130(11) 131.9422 101.0060
4875 12.2480 125(11) 132.5370 100.9984
4876 12.2500 127(11) 133.1721 100.9908
4877 12.2520 135(12) 133.8448 100.9832
4878 12.2540 132(12) 134.5514 100.9756
4879 12.2560 124(11) 135.3316 100.9681
4880 12.2580 125(11) 136.0952 100.9605
4881 12.2600 131(11) 136.8815 100.9529
4882 12.2620 128(11) 137.6871 100.9454
4883 12.2640 133(12) 138.5095 100.9378
4884 12.2660 136(12) 139.3460 100.9303
4885 12.2680 125(11) 140.1965 100.9227
4886 12.2700 128(11) 141.0618 100.9152
4887 12.2720 132(11) 141.9445 100.9076
4888 12.2740 122(11) 142.9775 100.9001
4889 12.2760 138(12) 143.9100 100.8926
4890 12.2780 130(11) 144.8756 100.8850
4891 12.2800 127(11) 145.8782 100.8775
4892 12.2820 133(12) 146.9195 100.8699
4893 12.2840 141(12) 147.9952 100.8624
4894 12.2860 137(12) 149.1041 100.8549
4895 12.2880 149(12) 150.1996 100.8474
4896 12.2900 139(12) 151.2609 100.8398
4897 12.2920 140(12) 152.2461 100.8323
4898 12.2940 137(12) 153.1125 100.8248
4899 12.2960 154(12) 153.8212 100.8173
4900 12.2980 135(12) 154.3446 100.8098
4901 12.3000 135(12) 154.6740 100.8023
4902 12.3020 147(12) 154.8241 100.7948
4903 12.3040 140(12) 154.8318 100.7873
4904 12.3060 140(12) 154.7482 100.7797
4905 12.3080 142(12) 154.6278 100.7723
4906 12.3100 147(12) 154.5181 100.7648
4907 12.3120 151(12) 154.4540 100.7573
4908 12.3140 158(13) 154.4566 100.7498
4909 12.3160 159(13) 154.5346 100.7423
4910 12.3180 146(12) 154.6875 100.7348
4911 12.3200 154(12) 154.9080 100.7273
4912 12.3220 162(13) 155.1841 100.7198
4913 12.3240 150(12) 155.5001 100.7123
4914 12.3260 155(12) 155.8389 100.7049
4915 12.3280 163(13) 156.1751 100.6974
4916 12.3300 152(12) 156.4877 100.6899
4917 12.3320 150(12) 156.7538 100.6825
4918 12.3340 158(13) 156.9546 100.6750
4919 12.3360 171(13) 157.0776 100.6675
4920 12.3380 170(13) 157.1171 100.6601
4921 12.3400 166(13) 157.0737 100.6526
4922 12.3420 180(13) 156.9509 100.6451
4923 12.3440 159(13) 156.7522 100.6377
4924 12.3460 163(13) 156.4794 100.6302
4925 12.3480 161(13) 156.1316 100.6228
4926 12.3500 169(13) 155.7058 100.6153
4927 12.3520 159(13) 155.1978 100.6079
4928 12.3540 159(13) 154.6034 100.6004
4929 12.3560 164(13) 153.9189 100.5930
4930 12.3580 167(13) 153.1436 100.5855
4931 12.3600 149(12) 152.2779 100.5781
4932 12.3620 144(12) 151.3251 100.5707
4933 12.3640 150(12) 150.2911 100.5632
4934 12.3660 157(13) 149.1839 100.5558
4935 12.3680 157(13) 148.0138 100.5484
4936 12.3700 141(12) 146.7915 100.5409
4937 12.3720 149(12) 145.5309 100.5335
4938 12.3740 146(12) 144.2705 100.5261
4939 12.3760 142(12) 142.9702 100.5187
4940 12.3780 136(12) 141.6687 100.5113
4941 12.3800 144(12) 140.3774 100.5038
4942 12.3820 138(12) 139.1062 100.4964
4943 12.3840 125(11) 137.8657 100.4890
4944 12.3860 135(12) 136.6637 100.4816
4945 12.3880 136(12) 135.5124 100.4742
4946 12.3900 130(11) 134.4080 100.4668
4947 12.3920 122(11) 133.3610 100.4594
4948 12.3940 128(11) 132.5128 100.4520
4949 12.3960 133(12) 131.6354 100.4446
4950 12.3980 120(11) 130.7878 100.4372
4951 12.4000 124(11) 130.0135 100.4298
4952 12.4020 125(11) 129.3158 100.4224
4953 12.4040 125(11) 128.6981 100.4150
4954 12.4060 129(11) 128.1638 100.4076
4955 12.4080 122(11) 127.7167 100.4002
4956 12.4100 136(12) 127.3613 100.3928
4957 12.4120 132(11) 127.1021 100.3854
4958 12.4140 134(12) 126.9440 100.3780
4959 12.4160 126(11) 126.9195 100.3707
4960 12.4180 128(11) 126.9798 100.3633
4961 12.4200 124(11) 127.1562 100.3559
4962 12.4220 131(11) 127.4512 100.3485
4963 12.4240 124(11) 127.8628 100.3412
4964 12.4260 128(11) 128.3830 100.3338
4965 12.4280 125(11) 128.9938 100.3264
4966 12.4300 115(11) 129.6638 100.3190
4967 12.4320 125(11) 130.3273 100.3117
4968 12.4340 128(11) 130.9626 100.3043
4969 12.4360 127(11) 131.4850 100.2970
4970 12.4380 123(11) 131.8359 100.2896
4971 12.4400 132(11) 131.9817 100.2822
4972 12.4420 131(11) 131.9224 100.2749
4973 12.4440 126(11) 131.7017 100.2675
4974 12.4460 127(11) 131.3585 100.2602
4975 12.4480 133(12) 130.9669 100.2528
4976 12.4500 122(11) 130.5860 100.2455
4977 12.4520 134(12) 130.2609 100.2381
4978 12.4540 127(11) 130.0214 100.2308
4979 12.4560 121(11) 129.8841 100.2234
4980 12.4580 118(11) 129.8555 100.2161
4981 12.4600 123(11) 130.0756 100.2087
4982 12.4620 135(12) 130.2607 100.2014
4983 12.4640 137(12) 130.5438 100.1941
4984 12.4660 129(11) 130.9225 100.1867
4985 12.4680 130(11) 131.3790 100.1794
4986 12.4700 130(11) 131.9107 100.1721
4987 12.4720 142(12) 132.5107 100.1647
4988 12.4740 136(12) 133.1730 100.1574
4989 12.4760 137(12) 133.9229 100.1501
4990 12.4780 133(12) 134.6943 100.1427
4991 12.4800 135(12) 135.5154 100.1354
4992 12.4820 138(12) 136.3845 100.1281
4993 12.4840 141(12) 137.3006 100.1208
4994 12.4860 151(12) 138.2624 100.1134
4995 12.4880 144(12) 139.2673 100.1061
4996 12.4900 136(12) 140.3064 100.0988
4997 12.4920 150(12) 141.3638 100.0915
4998 12.4940 144(12) 142.4095 100.0842
4999 12.4960 146(12) 143.3945 100.0769
5000 12.4980 153(12) 144.2488 100.0696
5001 12.5000 139(12) 144.8837 100.0622
5002 12.5020 141(12) 145.1762 100.0549
5003 12.5040 138(12) 145.1016 100.0476
5004 12.5060 143(12) 144.5899 100.0403
5005 12.5080 135(12) 143.6526 100.0330
5006 12.5100 154(12) 142.3536 100.0257
5007 12.5120 130(11) 140.7912 100.0184
5008 12.5140 138(12) 139.0730 100.0111
5009 12.5160 128(11) 137.2990 100.0038
5010 12.5180 143(12) 135.5446 99.9965
5011 12.5200 139(12) 133.8620 99.9892
5012 12.5220 140(12) 132.2820 99.9819
5013 12.5240 139(12) 130.8208 99.9747
5014 12.5260 122(11) 129.4831 99.9674
5015 12.5280 133(12) 128.2666 99.9601
5016 12.5300 120(11) 127.1675 99.9528
5017 12.5320 131(11) 126.1785 99.9455
5018 12.5340 125(11) 125.2927 99.9382
5019 12.5360 124(11) 124.5032 99.9309
5020 12.5380 119(11) 123.8040 99.9237
5021 12.5400 133(12) 123.1895 99.9164
5022 12.5420 134(12) 122.6635 99.9091
5023 12.5440 123(11) 122.2065 99.9018
5024 12.5460 128(11) 121.8548 99.8945
5025 12.5480 118(11) 121.5439 99.8873
5026 12.5500 133(12) 121.3033 99.8800
5027 12.5520 128(11) 121.1321 99.8727
5028 12.5540 134(12) 121.0300 99.8655
5029 12.5560 123(11) 120.9970 99.8582
5030 12.5580 122(11) 121.0334 99.8509
5031 12.5600 122(11) 121.1392 99.8437
5032 12.5620 125(11) 121.3141 99.8364
5033 12.5640 127(11) 121.5567 99.8291
5034 12.5660 123(11) 121.8639 99.8219
5035 12.5680 130(11) 122.2297 99.8146
5036 12.5700 119(11) 122.6450 99.8073
5037 12.5720 119(11) 123.0966 99.8001
5038 12.5740 128(11) 123.5684 99.7928
5039 12.5760 118(11) 124.0433 99.7856
5040 12.5780 124(11) 124.5384 99.7783
5041 12.5800 134(12) 124.9855 99.7711
5042 12.5820 134(12) 125.4035 99.7638
5043 12.5840 120(11) 125.8318 99.7566
5044 12.5860 124(11) 126.2739 99.7493
5045 12.5880 128(11) 126.7482 99.7421
5046 12.5900 122(11) 127.2414 99.7348
5047 12.5920 129(11) 127.8263 99.7276
5048 12.5940 135(12) 128.4810 99.7203
5049 12.5960 122(11) 129.2094 99.7131
5050 12.5980 139(12) 130.0132 99.7058
5051 12.6000 131(11) 130.8920 99.6986
5052 12.6020 131(11) 131.8436 99.6914
5053 12.6040 128(11) 132.8643 99.6841
5054 12.6060 132(11) 133.9502 99.6769
5055 12.6080 126(11) 135.0942 99.6696
5056 12.6100 131(11) 136.2892 99.6624
5057 12.6120 135(12) 137.5263 99.6552
5058 12.6140 136(12) 138.7949 99.6479
5059 12.6160 131(11) 140.0834 99.6407
5060 12.6180 132(11) 141.3796 99.6335
5061 12.6200 125(11) 142.6888 99.6263
5062 12.6220 127(11) 143.9634 99.6190
5063 12.6240 128(11) 145.2006 99.6118
5064 12.6260 141(12) 146.4031 99.6046
5065 12.6280 131(11) 147.5425 99.5974
5066 12.6300 135(12) 148.6159 99.5901
5067 12.6320 141(12) 149.6011 99.5829
5068 12.6340 150(12) 150.4808 99.5757
5069 12.6360 140(12) 151.2394 99.5685
5070 12.6380 128(11) 151.8627 99.5612
5071 12.6400 130(11) 152.3389 99.5540
5072 12.6420 136(12) 152.6595 99.5468
5073 12.6440 148(12) 152.8199 99.5396
5074 12.6460 133(12) 152.8199 99.5324
5075 12.6480 143(12) 152.6636 99.5252
5076 12.6500 146(12) 152.3949 99.5180
5077 12.6520 137(12) 151.9567 99.5107
5078 12.6540 142(12) 151.3999 99.5035
5079 12.6560 145(12) 150.7438 99.4963
5080 12.6580 141(12) 150.0092 99.4891
5081 12.6600 129(11) 149.2235 99.4819
5082 12.6620 136(12) 148.4019 99.4747
5083 12.6640 132(11) 147.5719 99.4675
5084 12.6660 140(12) 146.7568 99.4603
5085 12.6680 138(12) 145.9784 99.4531
5086 12.6700 133(12) 145.2572 99.4459
5087 12.6720 133(12) 144.6101 99.4387
5088 12.6740 136(12) 144.0510 99.4315
5089 12.6760 132(11) 143.5859 99.4243
5090 12.6780 138(12) 143.2122 99.4171
5091 12.6800 142(12) 142.9150 99.4099
5092 12.6820 137(12) 142.7765 99.4027
5093 12.6840 133(12) 142.5306 99.3955
5094 12.6860 144(12) 142.2339 99.3883
5095 12.6880 141(12) 141.8343 99.3811
5096 12.6900 136(12) 141.2936 99.3739
5097 12.6920 136(12) 140.6010 99.3667
5098 12.6940 134(12) 139.7757 99.3596
5099 12.6960 136(12) 138.8599 99.3524
5100 12.6980 136(12) 137.9027 99.3452
5101 12.7000 133(12) 136.9464 99.3380
5102 12.7020 141(12) 136.0127 99.3308
5103 12.7040 128(11) 135.1012 99.3236
5104 12.7060 127(11) 134.1937 99.3164
5105 12.7080 127(11) 133.2651 99.3093
5106 12.7100 134(12) 132.2951 99.3021
5107 12.7120 130(11) 131.2788 99.2949
5108 12.7140 126(11) 130.2399 99.2877
5109 12.7160 129(11) 129.1883 99.2805
5110 12.7180 135(12) 128.0191 99.2734
5111 12.7200 119(11) 127.0612 99.2662
5112 12.7220 129(11) 126.1902 99.2590
5113 12.7240 130(11) 125.4207 99.2518
5114 12.7260 131(11) 124.7592 99.2447
5115 12.7280 120(11) 124.2032 99.2375
5116 12.7300 122(11) 123.7021 99.2303
5117 12.7320 125(11) 123.3805 99.2231
5118 12.7340 137(12) 123.0700 99.2160
5119 12.7360 127(11) 122.8040 99.2088
5120 12.7380 125(11) 122.5639 99.2016
5121 12.7400 125(11) 122.3359 99.1945
5122 12.7420 123(11) 122.1132 99.1873
5123 12.7440 128(11) 121.8970 99.1801
5124 12.7460 130(11) 121.7064 99.1730
5125 12.7480 125(11) 121.5256 99.1658
5126 12.7500 133(12) 121.3743 99.1586
5127 12.7520 122(11) 121.2567 99.1515
5128 12.7540 129(11) 121.1721 99.1443
5129 12.7560 125(11) 121.1165 99.1372
5130 12.7580 127(11) 121.0838 99.1300
5131 12.7600 126(11) 121.0685 99.1228
5132 12.7620 128(11) 121.0672 99.1157
5133 12.7640 111(11) 121.0819 99.1085
5134 12.7660 127(11) 121.1165 99.1014
5135 12.7680 128(11) 121.1769 99.0942
5136 12.7700 117(11) 121.2704 99.0871
5137 12.7720 128(11) 121.4025 99.0799
5138 12.7740 126(11) 121.5772 99.0728
5139 12.7760 127(11) 121.7973 99.0656
5140 12.7780 119(11) 122.0641 99.0585
5141 12.7800 127(11) 122.3778 99.0513
5142 12.7820 127(11) 122.7383 99.0442
5143 12.7840 133(12) 123.1448 99.0370
5144 12.7860 128(11) 123.5966 99.0299
5145 12.7880 124(11) 124.0925 99.0227
5146 12.7900 127(11) 124.6318 99.0156
5147 12.7920 134(12) 125.2126 99.0084
5148 12.7940 131(11) 125.8339 99.0013
5149 12.7960 123(11) 126.4941 98.9942
5150 12.7980 126(11) 127.1265 98.9870
5151 12.8000 129(11) 127.8601 98.9799
5152 12.8020 134(12) 128.6268 98.9727
5153 12.8040 129(11) 129.4248 98.9656
5154 12.8060 129(11) 130.2508 98.9585
5155 12.8080 133(12) 131.1027 98.9513
5156 12.8100 144(12) 131.9779 98.9442
5157 12.8120 130(11) 132.8743 98.9370
5158 12.8140 141(12) 133.7898 98.9299
5159 12.8160 142(12) 134.7234 98.9228
5160 12.8180 149(12) 135.6731 98.9156
5161 12.8200 142(12) 136.6387 98.9085
5162 12.8220 141(12) 137.6195 98.9014
5163 12.8240 163(13) 138.6136 98.8943
5164 12.8260 151(12) 139.6167 98.8871
5165 12.8280 156(13) 140.6196 98.8800
5166 12.8300 148(12) 141.6063 98.8729
5167 12.8320 166(13) 142.5494 98.8657
5168 12.8340 162(13) 143.4122 98.8586
5169 12.8360 173(13) 144.1497 98.8515
5170 12.8380 147(12) 144.7160 98.8444
5171 12.8400 159(13) 145.0758 98.8372
5172 12.8420 139(12) 145.2162 98.8301
5173 12.8440 150(12) 145.1536 98.8230
5174 12.8460 148(12) 144.9324 98.8159
5175 12.8480 147(12) 144.6149 98.8088
5176 12.8500 134(12) 144.2829 98.8017
5177 12.8520 150(12) 143.9705 98.7945
5178 12.8540 147(12) 143.7415 98.7874
5179 12.8560 140(12) 143.6312 98.7803
5180 12.8580 142(12) 143.6616 98.7732
5181 12.8600 143(12) 143.8415 98.7661
5182 12.8620 138(12) 144.1675 98.7590
5183 12.8640 143(12) 144.6251 98.7518
5184 12.8660 141(12) 145.1461 98.7447
5185 12.8680 140(12) 145.7741 98.7376
5186 12.8700 141(12) 146.4227 98.7305
5187 12.8720 145(12) 147.0340 98.7234
5188 12.8740 137(12) 147.5976 98.7163
5189 12.8760 135(12) 148.0869 98.7092
5190 12.8780 133(12) 148.5114 98.7021
5191 12.8800 142(12) 148.9566 98.6950
5192 12.8820 143(12) 149.3680 98.6879
5193 12.8840 141(12) 149.8138 98.6808
5194 12.8860 136(12) 150.3439 98.6737
5195 12.8880 142(12) 150.9841 98.6666
5196 12.8900 132(12) 151.7497 98.6595
5197 12.8920 144(12) 152.6472 98.6524
5198 12.8940 153(12) 153.6766 98.6452
5199 12.8960 142(12) 154.8512 98.6381
5200 12.8980 147(12) 156.1265 98.6311
5201 12.9000 153(12) 157.5092 98.6240
5202 12.9020 147(12) 158.9851 98.6169
5203 12.9040 147(12) 160.5369 98.6098
5204 12.9060 156(13) 162.1429 98.6027
5205 12.9080 161(13) 163.7774 98.5956
5206 12.9100 151(12) 165.4070 98.5885
5207 12.9120 165(13) 166.9944 98.5814
5208 12.9140 168(13) 168.5055 98.5743
5209 12.9160 162(13) 169.9045 98.5672
5210 12.9180 174(13) 171.1672 98.5601
5211 12.9200 187(14) 172.2844 98.5530
5212 12.9220 187(14) 173.2629 98.5459
5213 12.9240 177(13) 174.1214 98.5389
5214 12.9260 187(14) 174.8870 98.5318
5215 12.9280 179(13) 175.5819 98.5247
5216 12.9300 174(13) 176.2455 98.5176
5217 12.9320 185(14) 176.8943 98.5105
5218 12.9340 164(13) 177.5482 98.5034
5219 12.9360 171(13) 178.2225 98.4964
5220 12.9380 165(13) 178.9312 98.4893
5221 12.9400 162(13) 179.6730 98.4822
5222 12.9420 160(13) 180.4462 98.4751
5223 12.9440 159(13) 181.3237 98.4681
5224 12.9460 167(13) 182.2752 98.4610
5225 12.9480 155(12) 183.3578 98.4539
5226 12.9500 165(13) 184.4790 98.4468
5227 12.9520 173(13) 185.6945 98.4398
5228 12.9540 168(13) 187.0100 98.4327
5229 12.9560 156(12) 188.4301 98.4256
5230 12.9580 173(13) 189.9584 98.4185
5231 12.9600 176(13) 191.5954 98.4115
5232 12.9620 173(13) 193.3374 98.4044
5233 12.9640 176(13) 195.1691 98.3973
5234 12.9660 188(14) 197.0628 98.3903
5235 12.9680 169(13) 198.9685 98.3832
5236 12.9700 170(13) 200.8066 98.3761
5237 12.9720 176(13) 202.4635 98.3691
5238 12.9740 182(14) 203.7943 98.3620
5239 12.9760 188(14) 204.6355 98.3549
5240 12.9780 174(13) 204.8374 98.3479
5241 12.9800 194(14) 204.2986 98.3408
5242 12.9820 180(13) 203.1221 98.3338
5243 12.9840 188(14) 201.1234 98.3267
5244 12.9860 189(14) 198.5221 98.3197
5245 12.9880 195(14) 195.5400 98.3126
5246 12.9900 180(13) 192.3673 98.3055
5247 12.9920 172(13) 189.1199 98.2985
5248 12.9940 179(13) 185.9097 98.2914
5249 12.9960 179(13) 182.8147 98.2844
5250 12.9980 169(13) 179.8857 98.2773
5251 13.0000 156(13) 177.1524 98.2703
5252 13.0020 165(13) 174.6356 98.2632
5253 13.0040 168(13) 172.3116 98.2562
5254 13.0060 161(13) 170.2253 98.2491
5255 13.0080 151(12) 168.4009 98.2421
5256 13.0100 161(13) 166.8134 98.2351
5257 13.0120 155(12) 165.4627 98.2280
5258 13.0140 149(12) 164.3452 98.2210
5259 13.0160 159(13) 163.4532 98.2139
5260 13.0180 147(12) 162.7687 98.2069
5261 13.0200 138(12) 162.2617 98.1998
5262 13.0220 143(12) 161.8862 98.1928
5263 13.0240 156(12) 161.5791 98.1858
5264 13.0260 151(12) 161.2640 98.1787
5265 13.0280 150(12) 160.8623 98.1717
5266 13.0300 135(12) 160.2352 98.1647
5267 13.0320 159(13) 159.4763 98.1576
5268 13.0340 145(12) 158.5549 98.1506
5269 13.0360 155(12) 157.4866 98.1436
5270 13.0380 141(12) 156.3580 98.1365
5271 13.0400 148(12) 155.2337 98.1295
5272 13.0420 144(12) 154.1817 98.1225
5273 13.0440 141(12) 153.2527 98.1154
5274 13.0460 133(12) 152.4802 98.1084
5275 13.0480 142(12) 151.8828 98.1014
5276 13.0500 143(12) 151.4672 98.0944
5277 13.0520 132(11) 151.2328 98.0874
5278 13.0540 145(12) 151.1737 98.0803
5279 13.0560 131(11) 151.2762 98.0733
5280 13.0580 146(12) 151.5408 98.0663
5281 13.0600 138(12) 151.9516 98.0593
5282 13.0620 137(12) 152.4978 98.0523
5283 13.0640 139(12) 153.1689 98.0452
5284 13.0660 132(11) 153.9543 98.0382
5285 13.0680 153(12) 154.8425 98.0312
5286 13.0700 138(12) 155.8229 98.0242
5287 13.0720 141(12) 156.8854 98.0172
5288 13.0740 128(11) 158.0159 98.0102
5289 13.0760 138(12) 159.2035 98.0032
5290 13.0780 151(12) 160.4355 97.9962
5291 13.0800 137(12) 161.6991 97.9892
5292 13.0820 149(12) 162.9792 97.9822
5293 13.0840 147(12) 164.2620 97.9752
5294 13.0860 143(12) 165.5326 97.9682
5295 13.0880 146(12) 166.7757 97.9612
5296 13.0900 142(12) 167.9758 97.9542
5297 13.0920 142(12) 169.1180 97.9472
5298 13.0940 151(12) 170.1865 97.9402
5299 13.0960 148(12) 171.1674 97.9332
5300 13.0980 157(13) 172.0480 97.9262
5301 13.1000 152(12) 172.8170 97.9192
5302 13.1020 158(13) 173.4655 97.9122
5303 13.1040 146(12) 173.9873 97.9052
5304 13.1060 161(13) 174.3795 97.8982
5305 13.1080 159(13) 174.6421 97.8912
5306 13.1100 143(12) 174.7870 97.8842
5307 13.1120 153(12) 174.8062 97.8773
5308 13.1140 158(13) 174.7247 97.8703
5309 13.1160 145(12) 174.5432 97.8633
5310 13.1180 151(12) 174.2838 97.8563
5311 13.1200 139(12) 173.9702 97.8493
5312 13.1220 150(12) 173.6093 97.8423
5313 13.1240 150(12) 173.2262 97.8354
5314 13.1260 137(12) 172.8439 97.8284
5315 13.1280 141(12) 172.4720 97.8214
5316 13.1300 154(12) 172.1321 97.8144
5317 13.1320 145(12) 171.8398 97.8075
5318 13.1340 148(12) 171.6094 97.8005
5319 13.1360 145(12) 171.4453 97.7935
5320 13.1380 138(12) 171.3740 97.7866
5321 13.1400 148(12) 171.3658 97.7796
5322 13.1420 155(12) 171.4945 97.7726
5323 13.1440 146(12) 171.7242 97.7657
5324 13.1460 143(12) 172.0641 97.7587
5325 13.1480 149(12) 172.5161 97.7518
5326 13.1500 143(12) 173.0813 97.7448
5327 13.1520 151(12) 173.7591 97.7378
5328 13.1540 157(13) 174.5475 97.7309
5329 13.1560 154(12) 175.4432 97.7239
5330 13.1580 145(12) 176.4418 97.7170
5331 13.1600 170(13) 177.5354 97.7100
5332 13.1620 152(12) 178.7147 97.7031
5333 13.1640 144(12) 179.9655 97.6961
5334 13.1660 150(12) 181.2673 97.6892
5335 13.1680 174(13) 182.5901 97.6822
5336 13.1700 154(12) 183.8903 97.6753
5337 13.1720 171(13) 185.0142 97.6683
5338 13.1740 153(12) 186.0671 97.6614
5339 13.1760 163(13) 186.8584 97.6545
5340 13.1780 168(13) 187.2831 97.6475
5341 13.1800 165(13) 187.2471 97.6406
5342 13.1820 176(13) 186.6872 97.6337
5343 13.1840 177(13) 185.5878 97.6267
5344 13.1860 165(13) 183.9874 97.6198
5345 13.1880 166(13) 181.9653 97.6129
5346 13.1900 162(13) 179.6486 97.6059
5347 13.1920 169(13) 177.0898 97.5990
5348 13.1940 154(12) 174.4049 97.5921
5349 13.1960 155(12) 171.6647 97.5852
5350 13.1980 151(12) 168.9190 97.5782
5351 13.2000 164(13) 166.2048 97.5713
5352 13.2020 168(13) 163.5500 97.5644
5353 13.2040 148(12) 160.9531 97.5575
5354 13.2060 147(12) 158.4293 97.5506
5355 13.2080 138(12) 155.9832 97.5437
5356 13.2100 146(12) 153.6173 97.5368
5357 13.2120 142(12) 151.3320 97.5298
5358 13.2140 146(12) 149.1303 97.5229
5359 13.2160 138(12) 146.9943 97.5160
5360 13.2180 129(11) 144.9584 97.5091
5361 13.2200 141(12) 143.0050 97.5022
5362 13.2220 132(11) 141.1336 97.4953
5363 13.2240 139(12) 139.3428 97.4884
5364 13.2260 124(11) 137.6546 97.4815
5365 13.2280 133(12) 136.0246 97.4746
5366 13.2300 125(11) 134.4727 97.4677
5367 13.2320 139(12) 132.9973 97.4608
5368 13.2340 128(11) 131.5971 97.4539
5369 13.2360 125(11) 130.2704 97.4471
5370 13.2380 124(11) 129.0149 97.4402
5371 13.2400 123(11) 127.8303 97.4333
5372 13.2420 118(11) 126.7142 97.4264
5373 13.2440 126(11) 125.6652 97.4195
5374 13.2460 128(11) 124.6816 97.4127
5375 13.2480 118(11) 123.7621 97.4058
5376 13.2500 126(11) 122.9052 97.3989
5377 13.2520 112(11) 122.1105 97.3920
5378 13.2540 131(11) 121.3768 97.3852
5379 13.2560 128(11) 120.7034 97.3783
5380 13.2580 123(11) 120.0900 97.3714
5381 13.2600 124(11) 119.5362 97.3646
5382 13.2620 120(11) 119.0418 97.3577
5383 13.2640 118(11) 118.6062 97.3508
5384 13.2660 127(11) 118.2293 97.3440
5385 13.2680 117(11) 117.9090 97.3371
5386 13.2700 123(11) 117.6422 97.3303
5387 13.2720 118(11) 117.4233 97.3234
5388 13.2740 121(11) 117.2431 97.3166
5389 13.2760 121(11) 117.0882 97.3097
5390 13.2780 112(11) 116.9413 97.3029
5391 13.2800 114(11) 116.6717 97.2960
5392 13.2820 121(11) 116.4801 97.2892
5393 13.2840 114(11) 116.2388 97.2823
5394 13.2860 123(11) 115.9400 97.2755
5395 13.2880 115(11) 115.5862 97.2687
5396 13.2900 115(11) 115.1894 97.2618
5397 13.2920 118(11) 114.7677 97.2550
5398 13.2940 118(11) 114.3401 97.2482
5399 13.2960 118(11) 113.9235 97.2413
5400 13.2980 122(11) 113.5308 97.2345
5401 13.3000 123(11) 113.1704 97.2277
5402 13.3020 113(11) 112.8472 97.2209
5403 13.3040 111(11) 112.5630 97.2141
5404 13.3060 121(11) 112.3181 97.2072
5405 13.3080 121(11) 112.1250 97.2004
5406 13.3100 116(11) 111.9548 97.1936
5407 13.3120 115(11) 111.8191 97.1868
5408 13.3140 119(11) 111.7162 97.1800
5409 13.3160 106(10) 111.6441 97.1732
5410 13.3180 122(11) 111.6013 97.1664
5411 13.3200 119(11) 111.5863 97.1596
5412 13.3220 110(10) 111.5978 97.1528
5413 13.3240 109(10) 111.6348 97.1460
5414 13.3260 118(11) 111.6962 97.1392
5415 13.3280 122(11) 111.7812 97.1324
5416 13.3300 120(11) 111.8889 97.1256
5417 13.3320 110(10) 111.8864 97.1188
5418 13.3340 127(11) 112.0396 97.1121
5419 13.3360 118(11) 112.2132 97.1053
5420 13.3380 116(11) 112.4065 97.0985
5421 13.3400 124(11) 112.6186 97.0917
5422 13.3420 117(11) 112.8487 97.0849
5423 13.3440 124(11) 113.0953 97.0782
5424 13.3460 118(11) 113.3574 97.0714
5425 13.3480 119(11) 113.6334 97.0647
5426 13.3500 117(11) 113.9215 97.0579
5427 13.3520 122(11) 114.2198 97.0511
5428 13.3540 114(11) 114.5259 97.0444
5429 13.3560 118(11) 114.8372 97.0376
5430 13.3580 124(11) 115.1506 97.0309
5431 13.3600 123(11) 115.4624 97.0241
5432 13.3620 114(11) 115.7690 97.0174
5433 13.3640 122(11) 116.0660 97.0106
5434 13.3660 117(11) 116.3484 97.0039
5435 13.3680 121(11) 116.6115 96.9971
5436 13.3700 124(11) 116.8496 96.9904
5437 13.3720 134(12) 117.0579 96.9837
5438 13.3740 123(11) 117.2321 96.9769
5439 13.3760 110(10) 117.3691 96.9702
5440 13.3780 123(11) 117.4674 96.9635
5441 13.3800 131(11) 117.5270 96.9567
5442 13.3820 116(11) 117.5536 96.9500
5443 13.3840 124(11) 117.5419 96.9433
5444 13.3860 127(11) 117.4996 96.9366
5445 13.3880 130(11) 117.4307 96.9299
5446 13.3900 121(11) 117.3401 96.9232
5447 13.3920 123(11) 117.2328 96.9165
5448 13.3940 111(11) 117.1385 96.9098
5449 13.3960 124(11) 117.0250 96.9031
5450 13.3980 121(11) 116.9007 96.8964
5451 13.4000 113(11) 116.7813 96.8897
5452 13.4020 109(10) 116.6715 96.8830
5453 13.4040 132(12) 116.5748 96.8763
5454 13.4060 115(11) 116.4929 96.8696
5455 13.4080 124(11) 116.4255 96.8629
5456 13.4100 118(11) 116.3688 96.8562
5457 13.4120 125(11) 116.3160 96.8496
5458 13.4140 122(11) 116.2569 96.8429
5459 13.4160 128(11) 116.1790 96.8362
5460 13.4180 114(11) 116.0700 96.8295
5461 13.4200 127(11) 115.9197 96.8229
5462 13.4220 116(11) 115.7227 96.8162
5463 13.4240 120(11) 115.4799 96.8096
5464 13.4260 129(11) 115.1976 96.8029
5465 13.4280 118(11) 114.8870 96.7962
5466 13.4300 117(11) 114.6678 96.7896
5467 13.4320 111(11) 114.3400 96.7830
5468 13.4340 114(11) 114.0203 96.7763
5469 13.4360 120(11) 113.7170 96.7697
5470 13.4380 112(11) 113.4346 96.7630
5471 13.4400 118(11) 113.1754 96.7564
5472 13.4420 122(11) 112.9398 96.7498
5473 13.4440 115(11) 112.7261 96.7431
5474 13.4460 119(11) 112.5283 96.7365
5475 13.4480 118(11) 112.3534 96.7299
5476 13.4500 112(11) 112.1948 96.7233
5477 13.4520 127(11) 112.0502 96.7167
5478 13.4540 129(11) 111.9178 96.7100
5479 13.4560 124(11) 111.7957 96.7034
5480 13.4580 114(11) 111.6823 96.6968
5481 13.4600 110(11) 111.5761 96.6902
5482 13.4620 114(11) 111.6398 96.6836
5483 13.4640 118(11) 111.5452 96.6770
5484 13.4660 112(11) 111.4541 96.6705
5485 13.4680 115(11) 111.3655 96.6639
5486 13.4700 116(11) 111.2785 96.6573
5487 13.4720 107(10) 111.1922 96.6507
5488 13.4740 124(11) 111.1060 96.6441
5489 13.4760 114(11) 111.0194 96.6376
5490 13.4780 115(11) 110.9322 96.6310
5491 13.4800 111(11) 110.8444 96.6244
5492 13.4820 119(11) 110.7564 96.6179
5493 13.4840 104(10) 110.6142 96.6113
5494 13.4860 122(11) 110.5146 96.6047
5495 13.4880 117(11) 110.4326 96.5982
5496 13.4900 125(11) 110.3553 96.5916
5497 13.4920 112(11) 110.2846 96.5851
5498 13.4940 118(11) 110.2228 96.5786
5499 13.4960 119(11) 110.1726 96.5720
5500 13.4980 112(11) 110.1366 96.5655
5501 13.5000 118(11) 110.1181 96.5590
5502 13.5020 121(11) 110.1203 96.5524
5503 13.5040 123(11) 110.1469 96.5459
5504 13.5060 113(11) 110.2016 96.5394
5505 13.5080 116(11) 110.2882 96.5329
5506 13.5100 120(11) 110.4101 96.5264
5507 13.5120 120(11) 110.5704 96.5199
5508 13.5140 124(11) 110.7710 96.5134
5509 13.5160 123(11) 111.0202 96.5069
5510 13.5180 117(11) 111.2981 96.5004
5511 13.5200 103(10) 111.6331 96.4939
5512 13.5220 107(10) 111.9580 96.4874
5513 13.5240 110(10) 112.2806 96.4809
5514 13.5260 121(11) 112.5179 96.4744
5515 13.5280 111(11) 112.7583 96.4679
5516 13.5300 131(11) 112.9178 96.4615
5517 13.5320 127(11) 112.9789 96.4550
5518 13.5340 124(11) 112.9374 96.4485
5519 13.5360 107(10) 112.8038 96.4421
5520 13.5380 122(11) 112.5999 96.4356
5521 13.5400 125(11) 112.3535 96.4292
5522 13.5420 119(11) 112.0924 96.4227
5523 13.5440 116(11) 111.8400 96.4163
5524 13.5460 119(11) 111.6133 96.4098
5525 13.5480 122(11) 111.4235 96.4034
5526 13.5500 125(11) 111.2766 96.3970
5527 13.5520 125(11) 111.1750 96.3905
5528 13.5540 116(11) 111.1189 96.3841
5529 13.5560 118(11) 111.1065 96.3777
5530 13.5580 116(11) 111.1357 96.3713
5531 13.5600 117(11) 111.2040 96.3649
5532 13.5620 113(11) 111.3085 96.3585
5533 13.5640 132(12) 111.4470 96.3521
5534 13.5660 115(11) 111.6169 96.3457
5535 13.5680 126(11) 111.8162 96.3393
5536 13.5700 114(11) 112.0470 96.3329
5537 13.5720 116(11) 112.2996 96.3265
5538 13.5740 114(11) 112.5766 96.3202
5539 13.5760 125(11) 112.8872 96.3138
5540 13.5780 117(11) 113.2104 96.3074
5541 13.5800 114(11) 113.5562 96.3010
5542 13.5820 123(11) 113.9243 96.2947
5543 13.5840 130(11) 114.3155 96.2883
5544 13.5860 111(11) 114.7310 96.2820
5545 13.5880 113(11) 115.1583 96.2756
5546 13.5900 110(10) 115.6289 96.2693
5547 13.5920 125(11) 116.1315 96.2629
5548 13.5940 121(11) 116.6693 96.2566
5549 13.5960 121(11) 117.2465 96.2503
5550 13.5980 120(11) 117.8674 96.2440
5551 13.6000 122(11) 118.5356 96.2377
5552 13.6020 128(11) 119.2835 96.2313
5553 13.6040 115(11) 120.0524 96.2250
5554 13.6060 120(11) 120.8701 96.2187
5555 13.6080 118(11) 121.7301 96.2124
5556 13.6100 121(11) 122.6244 96.2061
5557 13.6120 120(11) 123.5426 96.1998
5558 13.6140 125(11) 124.4760 96.1936
5559 13.6160 126(11) 125.4203 96.1873
5560 13.6180 126(11) 126.3794 96.1810
5561 13.6200 129(11) 127.3626 96.1747
5562 13.6220 125(11) 128.3846 96.1685
5563 13.6240 125(11) 129.4554 96.1622
5564 13.6260 125(11) 130.4747 96.1559
5565 13.6280 127(11) 131.6402 96.1497
5566 13.6300 129(11) 132.8111 96.1435
5567 13.6320 121(11) 133.9339 96.1372
5568 13.6340 136(12) 134.9374 96.1310
5569 13.6360 128(11) 135.7486 96.1248
5570 13.6380 126(11) 136.3062 96.1185
5571 13.6400 129(11) 136.5785 96.1123
5572 13.6420 135(12) 136.5727 96.1061
5573 13.6440 127(11) 136.3333 96.0999
5574 13.6460 132(11) 135.9291 96.0937
5575 13.6480 128(11) 135.4379 96.0875
5576 13.6500 132(11) 134.9309 96.0813
5577 13.6520 128(11) 134.4649 96.0751
5578 13.6540 136(12) 134.0800 96.0689
5579 13.6560 136(12) 133.8010 96.0627
5580 13.6580 116(11) 133.6409 96.0566
5581 13.6600 115(11) 133.6044 96.0504
5582 13.6620 123(11) 133.6904 96.0442
5583 13.6640 123(11) 133.8949 96.0381
5584 13.6660 130(11) 134.2123 96.0319
5585 13.6680 135(12) 134.5929 96.0258
5586 13.6700 137(12) 135.1296 96.0197
5587 13.6720 126(11) 135.7466 96.0135
5588 13.6740 134(12) 136.4501 96.0074
5589 13.6760 116(11) 137.2343 96.0013
5590 13.6780 133(12) 138.0936 95.9951
5591 13.6800 131(11) 139.0208 95.9890
5592 13.6820 133(12) 140.0138 95.9829
5593 13.6840 132(12) 141.0632 95.9768
5594 13.6860 139(12) 142.1614 95.9707
5595 13.6880 136(12) 143.1719 95.9646
5596 13.6900 147(12) 144.3371 95.9586
5597 13.6920 134(12) 145.5111 95.9525
5598 13.6940 145(12) 146.6700 95.9464
5599 13.6960 156(12) 147.7838 95.9404
5600 13.6980 148(12) 148.8347 95.9343
5601 13.7000 149(12) 149.7542 95.9282
5602 13.7020 138(12) 150.5482 95.9222
5603 13.7040 149(12) 151.1495 95.9162
5604 13.7060 146(12) 151.5788 95.9101
5605 13.7080 152(12) 151.8473 95.9041
5606 13.7100 136(12) 151.9765 95.8981
5607 13.7120 141(12) 151.9920 95.8920
5608 13.7140 144(12) 151.9171 95.8860
5609 13.7160 144(12) 151.7691 95.8800
5610 13.7180 140(12) 151.5582 95.8740
5611 13.7200 144(12) 151.2880 95.8680
5612 13.7220 129(11) 150.9573 95.8620
5613 13.7240 138(12) 150.5552 95.8561
5614 13.7260 142(12) 150.0897 95.8501
5615 13.7280 141(12) 149.5484 95.8441
5616 13.7300 151(12) 148.9212 95.8382
5617 13.7320 142(12) 148.2169 95.8322
5618 13.7340 140(12) 147.4289 95.8262
5619 13.7360 148(12) 146.5586 95.8203
5620 13.7380 136(12) 145.6093 95.8144
5621 13.7400 148(12) 144.5873 95.8084
5622 13.7420 139(12) 143.4996 95.8025
5623 13.7440 137(12) 142.3548 95.7966
5624 13.7460 126(11) 141.1624 95.7907
5625 13.7480 140(12) 139.9323 95.7848
5626 13.7500 132(11) 138.6740 95.7789
5627 13.7520 129(11) 137.3988 95.7730
5628 13.7540 129(11) 136.1156 95.7671
5629 13.7560 134(12) 134.8333 95.7612
5630 13.7580 126(11) 133.5601 95.7553
5631 13.7600 119(11) 132.3033 95.7495
5632 13.7620 132(11) 131.0695 95.7436
5633 13.7640 122(11) 129.8636 95.7378
5634 13.7660 141(12) 128.6916 95.7319
5635 13.7680 119(11) 127.5572 95.7261
5636 13.7700 128(11) 126.4636 95.7203
5637 13.7720 128(11) 125.4138 95.7144
5638 13.7740 116(11) 124.4101 95.7086
5639 13.7760 124(11) 123.4540 95.7028
5640 13.7780 124(11) 122.5479 95.6970
5641 13.7800 122(11) 121.6928 95.6912
5642 13.7820 129(11) 120.8899 95.6854
5643 13.7840 117(11) 120.1400 95.6796
5644 13.7860 126(11) 119.4444 95.6739
5645 13.7880 125(11) 118.8040 95.6681
5646 13.7900 120(11) 118.2197 95.6623
5647 13.7920 117(11) 117.6934 95.6566
5648 13.7940 127(11) 117.2263 95.6508
5649 13.7960 118(11) 116.8202 95.6451
5650 13.7980 116(11) 116.4772 95.6393
5651 13.8000 128(11) 116.1997 95.6336
5652 13.8020 117(11) 115.9640 95.6279
5653 13.8040 120(11) 115.8260 95.6222
5654 13.8060 113(11) 115.7617 95.6165
5655 13.8080 120(11) 115.7738 95.6108
5656 13.8100 126(11) 115.8632 95.6051
5657 13.8120 107(10) 116.0293 95.5994
5658 13.8140 122(11) 116.2677 95.5937
5659 13.8160 115(11) 116.5643 95.5881
5660 13.8180 121(11) 116.9129 95.5824
5661 13.8200 113(11) 117.2845 95.5767
5662 13.8220 113(11) 117.6104 95.5711
5663 13.8240 118(11) 117.9256 95.5655
5664 13.8260 119(11) 118.1518 95.5598
5665 13.8280 111(11) 118.2525 95.5542
5666 13.8300 118(11) 118.2032 95.5486
5667 13.8320 121(11) 117.9990 95.5430
5668 13.8340 114(11) 117.6490 95.5374
5669 13.8360 109(10) 117.1845 95.5318
5670 13.8380 119(11) 116.6448 95.5262
5671 13.8400 119(11) 116.0493 95.5206
5672 13.8420 127(11) 115.4758 95.5150
5673 13.8440 112(11) 114.9309 95.5095
5674 13.8460 110(10) 114.4439 95.5039
5675 13.8480 120(11) 114.0097 95.4984
5676 13.8500 113(11) 113.6301 95.4929
5677 13.8520 118(11) 113.3122 95.4873
5678 13.8540 107(10) 113.0539 95.4818
5679 13.8560 121(11) 112.8515 95.4763
5680 13.8580 114(11) 112.7011 95.4708
5681 13.8600 115(11) 112.5984 95.4653
5682 13.8620 124(11) 112.5395 95.4598
5683 13.8640 115(11) 112.5205 95.4543
5684 13.8660 113(11) 112.5379 95.4488
5685 13.8680 107(10) 112.5882 95.4434
5686 13.8700 109(10) 112.6677 95.4379
5687 13.8720 118(11) 112.7723 95.4325
5688 13.8740 114(11) 112.8975 95.4270
5689 13.8760 114(11) 113.0381 95.4216
5690 13.8780 118(11) 113.1894 95.4162
5691 13.8800 116(11) 113.3477 95.4108
5692 13.8820 125(11) 113.5115 95.4053
5693 13.8840 112(11) 113.7048 95.3999
5694 13.8860 117(11) 113.8874 95.3945
5695 13.8880 121(11) 114.0889 95.3892
5696 13.8900 124(11) 114.3175 95.3838
5697 13.8920 120(11) 114.5817 95.3784
5698 13.8940 114(11) 114.8889 95.3731
5699 13.8960 116(11) 115.2437 95.3677
5700 13.8980 112(11) 115.5087 95.3624
5701 13.9000 116(11) 115.9605 95.3571
5702 13.9020 109(10) 116.4505 95.3517
5703 13.9040 121(11) 116.9630 95.3464
5704 13.9060 112(11) 117.4736 95.3411
5705 13.9080 121(11) 117.9503 95.3358
5706 13.9100 123(11) 118.3553 95.3305
5707 13.9120 124(11) 118.6522 95.3253
5708 13.9140 124(11) 118.8131 95.3200
5709 13.9160 116(11) 118.7950 95.3147
5710 13.9180 122(11) 118.6671 95.3095
5711 13.9200 119(11) 118.4222 95.3042
5712 13.9220 120(11) 118.0945 95.2990
5713 13.9240 104(10) 117.7069 95.2938
5714 13.9260 121(11) 117.3193 95.2886
5715 13.9280 109(10) 116.9422 95.2834
5716 13.9300 120(11) 116.5918 95.2782
5717 13.9320 114(11) 116.2766 95.2730
5718 13.9340 129(11) 115.9991 95.2678
5719 13.9360 107(10) 115.7582 95.2626
5720 13.9380 116(11) 115.5498 95.2575
5721 13.9400 121(11) 115.3684 95.2523
5722 13.9420 130(11) 115.2079 95.2472
5723 13.9440 112(11) 115.0795 95.2421
5724 13.9460 115(11) 114.9426 95.2369
5725 13.9480 110(10) 114.7505 95.2318
5726 13.9500 121(11) 114.6160 95.2267
5727 13.9520 126(11) 114.4761 95.2216
5728 13.9540 121(11) 114.3274 95.2165
5729 13.9560 113(11) 114.1677 95.2115
5730 13.9580 118(11) 113.9956 95.2064
5731 13.9600 113(11) 113.8103 95.2013
5732 13.9620 122(11) 113.6122 95.1963
5733 13.9640 122(11) 113.4021 95.1913
5734 13.9660 123(11) 113.1815 95.1862
5735 13.9680 117(11) 112.9527 95.1812
5736 13.9700 115(11) 112.7180 95.1762
5737 13.9720 122(11) 112.4806 95.1712
5738 13.9740 109(10) 112.2440 95.1662
5739 13.9760 122(11) 112.0110 95.1613
5740 13.9780 117(11) 111.7855 95.1563
5741 13.9800 113(11) 111.5714 95.1513
5742 13.9820 118(11) 111.3725 95.1464
5743 13.9840 116(11) 111.1927 95.1414
5744 13.9860 116(11) 111.0355 95.1365
5745 13.9880 128(11) 110.9045 95.1316
5746 13.9900 110(11) 110.8025 95.1267
5747 13.9920 115(11) 110.7313 95.1218
5748 13.9940 115(11) 110.6912 95.1169
5749 13.9960 113(11) 110.6802 95.1120
5750 13.9980 112(11) 110.6930 95.1072
5751 14.0000 123(11) 110.7203 95.1023
5752 14.0020 116(11) 110.7478 95.0975
5753 14.0040 115(11) 110.7571 95.0926
5754 14.0060 110(11) 110.7277 95.0878
5755 14.0080 104(10) 110.6400 95.0830
5756 14.0100 112(11) 110.4801 95.0782
5757 14.0120 119(11) 110.2438 95.0734
5758 14.0140 115(11) 109.9131 95.0686
5759 14.0160 118(11) 109.5514 95.0639
5760 14.0180 104(10) 109.1545 95.0591
5761 14.0200 114(11) 108.7429 95.0544
5762 14.0220 121(11) 108.3346 95.0496
5763 14.0240 115(11) 107.9430 95.0449
5764 14.0260 96(10) 107.5772 95.0402
5765 14.0280 108(10) 107.2426 95.0355
5766 14.0300 117(11) 106.9413 95.0308
5767 14.0320 112(11) 106.6734 95.0261
5768 14.0340 103(10) 106.4381 95.0214
5769 14.0360 109(10) 106.2335 95.0167
5770 14.0380 115(11) 106.0577 95.0121
5771 14.0400 115(11) 105.9085 95.0075
5772 14.0420 114(11) 105.7841 95.0028
5773 14.0440 114(11) 105.6825 94.9982
5774 14.0460 111(11) 105.6021 94.9936
5775 14.0480 120(11) 105.5415 94.9890
5776 14.0500 119(11) 105.4993 94.9844
5777 14.0520 104(10) 105.4744 94.9799
5778 14.0540 118(11) 105.4660 94.9753
5779 14.0560 108(10) 105.4732 94.9707
5780 14.0580 103(10) 105.4954 94.9662
5781 14.0600 114(11) 105.5321 94.9617
5782 14.0620 104(10) 105.5828 94.9572
5783 14.0640 105(10) 105.6474 94.9527
5784 14.0660 113(11) 105.7301 94.9482
5785 14.0680 123(11) 105.8217 94.9437
5786 14.0700 107(10) 105.9267 94.9392
5787 14.0720 108(10) 106.0452 94.9347
5788 14.0740 114(11) 106.1772 94.9303
5789 14.0760 110(10) 106.3230 94.9259
5790 14.0780 112(11) 106.4829 94.9214
5791 14.0800 111(11) 106.6571 94.9170
5792 14.0820 111(11) 106.8460 94.9126
5793 14.0840 113(11) 107.0502 94.9082
5794 14.0860 117(11) 107.2700 94.9039
5795 14.0880 111(11) 107.5062 94.8995
5796 14.0900 117(11) 107.7595 94.8952
5797 14.0920 124(11) 108.0306 94.8908
5798 14.0940 120(11) 108.3201 94.8865
5799 14.0960 112(11) 108.6291 94.8822
5800 14.0980 122(11) 108.9586 94.8779
5801 14.1000 113(11) 109.3095 94.8736
5802 14.1020 111(11) 109.6831 94.8693
5803 14.1040 112(11) 110.0805 94.8650
5804 14.1060 124(11) 110.5033 94.8608
5805 14.1080 109(10) 110.9525 94.8565
5806 14.1100 105(10) 111.3949 94.8523
5807 14.1120 103(10) 111.9021 94.8481
5808 14.1140 121(11) 112.4408 94.8439
5809 14.1160 116(11) 113.0128 94.8397
5810 14.1180 107(10) 113.6205 94.8355
5811 14.1200 114(11) 114.2684 94.8313
5812 14.1220 112(11) 114.9491 94.8272
5813 14.1240 112(11) 115.6761 94.8231
5814 14.1260 116(11) 116.4479 94.8189
5815 14.1280 121(11) 117.2673 94.8148
5816 14.1300 113(11) 118.1374 94.8107
5817 14.1320 118(11) 119.0617 94.8066
5818 14.1340 120(11) 120.0426 94.8025
5819 14.1360 124(11) 121.0837 94.7985
5820 14.1380 122(11) 122.1799 94.7944
5821 14.1400 116(11) 123.3508 94.7904
5822 14.1420 120(11) 124.5629 94.7864
5823 14.1440 120(11) 125.8723 94.7823
5824 14.1460 128(11) 127.2489 94.7783
5825 14.1480 122(11) 128.6892 94.7744
5826 14.1500 121(11) 130.1849 94.7704
5827 14.1520 119(11) 131.7233 94.7664
5828 14.1540 128(11) 133.2873 94.7625
5829 14.1560 128(11) 134.8684 94.7585
5830 14.1580 125(11) 136.4293 94.7546
5831 14.1600 130(11) 137.9538 94.7507
5832 14.1620 134(12) 139.4409 94.7468
5833 14.1640 125(11) 140.8939 94.7429
5834 14.1660 136(12) 142.3260 94.7391
5835 14.1680 145(12) 143.7574 94.7352
5836 14.1700 135(12) 145.2113 94.7314
5837 14.1720 125(11) 146.7071 94.7276
5838 14.1740 140(12) 148.2622 94.7237
5839 14.1760 142(12) 149.8882 94.7199
5840 14.1780 127(11) 151.5914 94.7162
5841 14.1800 142(12) 153.3732 94.7124
5842 14.1820 133(12) 155.2214 94.7086
5843 14.1840 146(12) 157.1570 94.7049
5844 14.1860 128(11) 159.1360 94.7012
5845 14.1880 139(12) 161.1505 94.6974
5846 14.1900 138(12) 163.1748 94.6937
5847 14.1920 151(12) 165.1767 94.6900
5848 14.1940 133(12) 167.1147 94.6864
5849 14.1960 153(12) 168.9580 94.6827
5850 14.1980 155(12) 170.6674 94.6791
5851 14.2000 143(12) 172.2152 94.6754
5852 14.2020 147(12) 173.5895 94.6718
5853 14.2040 139(12) 174.7920 94.6682
5854 14.2060 160(13) 175.8353 94.6646
5855 14.2080 147(12) 176.7376 94.6611
5856 14.2100 145(12) 177.5178 94.6575
5857 14.2120 151(12) 178.1904 94.6540
5858 14.2140 147(12) 178.7659 94.6504
5859 14.2160 147(12) 179.2493 94.6469
5860 14.2180 153(12) 179.6657 94.6434
5861 14.2200 148(12) 179.9640 94.6399
5862 14.2220 155(12) 180.1631 94.6365
5863 14.2240 153(12) 180.2565 94.6330
5864 14.2260 160(13) 180.2368 94.6296
5865 14.2280 149(12) 180.0668 94.6261
5866 14.2300 150(12) 179.7988 94.6227
5867 14.2320 152(12) 179.3958 94.6193
5868 14.2340 153(12) 178.8522 94.6160
5869 14.2360 159(13) 178.1633 94.6126
5870 14.2380 142(12) 177.3275 94.6092
5871 14.2400 144(12) 176.3441 94.6059
5872 14.2420 146(12) 175.2154 94.6026
5873 14.2440 152(12) 173.9480 94.5993
5874 14.2460 148(12) 172.5464 94.5960
5875 14.2480 142(12) 171.0188 94.5927
5876 14.2500 136(12) 169.3772 94.5894
5877 14.2520 141(12) 167.6361 94.5862
5878 14.2540 144(12) 165.8087 94.5830
5879 14.2560 125(11) 163.9099 94.5797
5880 14.2580 133(12) 161.9546 94.5766
5881 14.2600 128(11) 159.9579 94.5734
5882 14.2620 129(11) 157.9342 94.5702
5883 14.2640 132(11) 155.8962 94.5670
5884 14.2660 128(11) 153.8587 94.5639
5885 14.2680 126(11) 151.8321 94.5608
5886 14.2700 122(11) 149.8269 94.5577
5887 14.2720 130(11) 147.8522 94.5546
5888 14.2740 124(11) 145.9156 94.5515
5889 14.2760 133(12) 144.0230 94.5485
5890 14.2780 133(12) 142.1812 94.5454
5891 14.2800 128(11) 140.4369 94.5424
5892 14.2820 128(11) 138.7068 94.5394
5893 14.2840 114(11) 137.0359 94.5364
5894 14.2860 128(11) 135.4255 94.5334
5895 14.2880 128(11) 133.8761 94.5304
5896 14.2900 126(11) 132.3871 94.5275
5897 14.2920 112(11) 130.9598 94.5246
5898 14.2940 135(12) 129.5939 94.5217
5899 14.2960 119(11) 128.2884 94.5188
5900 14.2980 120(11) 127.0964 94.5159
5901 14.3000 123(11) 125.9126 94.5130
5902 14.3020 123(11) 124.7880 94.5102
5903 14.3040 113(11) 123.7230 94.5074
5904 14.3060 111(11) 122.7159 94.5045
5905 14.3080 115(11) 121.7653 94.5017
5906 14.3100 122(11) 120.8696 94.4990
5907 14.3120 128(11) 120.0271 94.4962
5908 14.3140 116(11) 119.2358 94.4934
5909 14.3160 115(11) 118.4935 94.4907
5910 14.3180 129(11) 117.7989 94.4880
5911 14.3200 120(11) 117.1495 94.4853
5912 14.3220 122(11) 116.5435 94.4826
5913 14.3240 116(11) 115.9619 94.4800
5914 14.3260 114(11) 115.4364 94.4773
5915 14.3280 114(11) 114.9478 94.4747
5916 14.3300 117(11) 114.4945 94.4721
5917 14.3320 108(10) 114.0742 94.4695
5918 14.3340 119(11) 113.6710 94.4669
5919 14.3360 104(10) 113.3106 94.4644
5920 14.3380 114(11) 112.9771 94.4618
5921 14.3400 105(10) 112.6686 94.4593
5922 14.3420 114(11) 112.3829 94.4568
5923 14.3440 116(11) 112.1185 94.4543
5924 14.3460 124(11) 111.8818 94.4518
5925 14.3480 114(11) 111.6544 94.4494
5926 14.3500 118(11) 111.4431 94.4469
5927 14.3520 118(11) 111.2551 94.4445
5928 14.3540 114(11) 111.0721 94.4421
5929 14.3560 116(11) 110.9016 94.4397
5930 14.3580 118(11) 110.7431 94.4374
5931 14.3600 120(11) 110.5959 94.4350
5932 14.3620 116(11) 110.4596 94.4327
5933 14.3640 117(11) 110.3341 94.4304
5934 14.3660 113(11) 110.2190 94.4281
5935 14.3680 117(11) 110.1139 94.4258
5936 14.3700 124(11) 110.0179 94.4235
5937 14.3720 122(11) 109.9294 94.4213
5938 14.3740 118(11) 109.8458 94.4191
5939 14.3760 118(11) 109.7636 94.4169
5940 14.3780 123(11) 109.6783 94.4147
5941 14.3800 109(10) 109.5852 94.4125
5942 14.3820 116(11) 109.4803 94.4104
5943 14.3840 115(11) 109.3613 94.4082
5944 14.3860 122(11) 109.2110 94.4061
5945 14.3880 110(11) 109.0674 94.4040
5946 14.3900 109(10) 108.9178 94.4020
5947 14.3920 116(11) 108.7681 94.3999
5948 14.3940 112(11) 108.6242 94.3979
5949 14.3960 97(10) 108.4912 94.3959
5950 14.3980 116(11) 108.3728 94.3939
5951 14.4000 107(10) 108.2718 94.3919
5952 14.4020 120(11) 108.1897 94.3899
5953 14.4040 111(11) 108.1274 94.3880
5954 14.4060 116(11) 108.0854 94.3861
5955 14.4080 112(11) 108.0651 94.3842
5956 14.4100 114(11) 108.0633 94.3823
5957 14.4120 107(10) 108.0813 94.3804
5958 14.4140 127(11) 108.1834 94.3786
5959 14.4160 107(10) 108.2402 94.3767
5960 14.4180 108(10) 108.3154 94.3749
5961 14.4200 108(10) 108.4087 94.3731
5962 14.4220 116(11) 108.5196 94.3714
5963 14.4240 112(11) 108.6476 94.3696
5964 14.4260 108(10) 108.7922 94.3679
5965 14.4280 126(11) 108.9527 94.3662
5966 14.4300 108(10) 109.1287 94.3645
5967 14.4320 119(11) 109.3193 94.3628
5968 14.4340 115(11) 109.5238 94.3612
5969 14.4360 109(10) 109.7413 94.3595
5970 14.4380 121(11) 109.9708 94.3579
5971 14.4400 112(11) 110.2165 94.3563
5972 14.4420 123(11) 110.4669 94.3548
5973 14.4440 112(11) 110.6770 94.3532
5974 14.4460 114(11) 110.9438 94.3517
5975 14.4480 114(11) 111.2170 94.3502
5976 14.4500 118(11) 111.4950 94.3487
5977 14.4520 127(11) 111.7766 94.3472
5978 14.4540 106(10) 112.0608 94.3458
5979 14.4560 104(10) 112.3464 94.3443
5980 14.4580 118(11) 112.6325 94.3429
5981 14.4600 112(11) 112.9184 94.3415
5982 14.4620 132(11) 113.2031 94.3401
5983 14.4640 113(11) 113.4862 94.3388
5984 14.4660 113(11) 113.7674 94.3375
5985 14.4680 116(11) 114.0465 94.3362
5986 14.4700 117(11) 114.3234 94.3349
5987 14.4720 114(11) 114.5983 94.3336
5988 14.4740 118(11) 114.8715 94.3324
5989 14.4760 124(11) 115.1319 94.3311
5990 14.4780 119(11) 115.3957 94.3299
5991 14.4800 118(11) 115.6658 94.3288
5992 14.4820 117(11) 115.8258 94.3276
5993 14.4840 113(11) 116.0962 94.3265
5994 14.4860 119(11) 116.3665 94.3253
5995 14.4880 118(11) 116.6357 94.3242
5996 14.4900 122(11) 116.9018 94.3232
5997 14.4920 121(11) 117.1612 94.3221
5998 14.4940 117(11) 117.4086 94.3211
5999 14.4960 118(11) 117.6367 94.3201
6000 14.4980 111(11) 117.8369 94.3191
6001 14.5000 114(11) 118.0012 94.3181
6002 14.5020 118(11) 118.1238 94.3171
6003 14.5040 116(11) 118.2039 94.3162
6004 14.5060 117(11) 118.2469 94.3153
6005 14.5080 109(10) 118.2645 94.3144
6006 14.5100 128(11) 118.2730 94.3136
6007 14.5120 124(11) 118.2907 94.3127
6008 14.5140 112(11) 118.3358 94.3119
6009 14.5160 118(11) 118.4020 94.3111
6010 14.5180 124(11) 118.5475 94.3103
6011 14.5200 119(11) 118.7588 94.3096
6012 14.5220 122(11) 119.0404 94.3089
6013 14.5240 121(11) 119.3916 94.3081
6014 14.5260 123(11) 119.8051 94.3075
6015 14.5280 117(11) 120.2645 94.3068
6016 14.5300 127(11) 120.7846 94.3062
6017 14.5320 112(11) 121.2608 94.3055
6018 14.5340 120(11) 121.6742 94.3049
6019 14.5360 128(11) 121.9922 94.3044
6020 14.5380 112(11) 122.1811 94.3038
6021 14.5400 119(11) 122.2230 94.3033
6022 14.5420 127(11) 122.1212 94.3028
6023 14.5440 106(10) 121.8991 94.3023
6024 14.5460 118(11) 121.5943 94.3018
6025 14.5480 117(11) 121.2503 94.3014
6026 14.5500 127(11) 120.9083 94.3010
6027 14.5520 109(10) 120.6022 94.3006
6028 14.5540 117(11) 120.3568 94.3002
6029 14.5560 127(11) 120.1880 94.2999
6030 14.5580 126(11) 120.1040 94.2996
6031 14.5600 126(11) 120.1077 94.2993
6032 14.5620 122(11) 120.1985 94.2990
6033 14.5640 116(11) 120.3737 94.2987
6034 14.5660 120(11) 120.6303 94.2985
6035 14.5680 121(11) 120.9655 94.2983
6036 14.5700 120(11) 121.3774 94.2981
6037 14.5720 122(11) 121.8653 94.2980
6038 14.5740 117(11) 122.4290 94.2978
6039 14.5760 111(11) 123.0690 94.2977
6040 14.5780 120(11) 123.7861 94.2976
6041 14.5800 126(11) 124.5800 94.2976
6042 14.5820 128(11) 125.4509 94.2975
6043 14.5840 118(11) 126.3985 94.2975
6044 14.5860 123(11) 127.4256 94.2975
6045 14.5880 120(11) 128.5211 94.2975
6046 14.5900 134(12) 129.6854 94.2976
6047 14.5920 130(11) 130.9456 94.2977
6048 14.5940 122(11) 132.2288 94.2978
6049 14.5960 114(11) 133.5583 94.2979
6050 14.5980 131(11) 134.9241 94.2980
6051 14.6000 140(12) 136.3152 94.2982
6052 14.6020 123(11) 137.7199 94.2984
6053 14.6040 135(12) 139.1243 94.2987
6054 14.6060 143(12) 140.5066 94.2989
6055 14.6080 139(12) 141.8376 94.2992
6056 14.6100 132(11) 143.0745 94.2995
6057 14.6120 148(12) 144.1637 94.2998
6058 14.6140 132(12) 145.0418 94.3001
6059 14.6160 136(12) 145.6470 94.3005
6060 14.6180 140(12) 145.9309 94.3009
6061 14.6200 148(12) 145.8699 94.3013
6062 14.6220 142(12) 145.4713 94.3018
6063 14.6240 142(12) 144.7711 94.3023
6064 14.6260 137(12) 143.8163 94.3028
6065 14.6280 141(12) 142.6846 94.3033
6066 14.6300 141(12) 141.4270 94.3038
6067 14.6320 146(12) 140.0923 94.3044
6068 14.6340 139(12) 138.7193 94.3050
6069 14.6360 145(12) 137.3342 94.3056
6070 14.6380 140(12) 135.9549 94.3063
6071 14.6400 147(12) 134.5930 94.3069
6072 14.6420 139(12) 133.2557 94.3076
6073 14.6440 128(11) 131.9426 94.3084
6074 14.6460 136(12) 130.6663 94.3091
6075 14.6480 138(12) 129.4240 94.3099
6076 14.6500 142(12) 128.2170 94.3107
6077 14.6520 121(11) 127.0466 94.3115
6078 14.6540 121(11) 125.9138 94.3124
6079 14.6560 125(11) 124.8195 94.3133
6080 14.6580 117(11) 123.7639 94.3142
6081 14.6600 114(11) 122.7488 94.3151
6082 14.6620 121(11) 121.7691 94.3161
6083 14.6640 122(11) 120.8355 94.3171
6084 14.6660 109(10) 119.9432 94.3181
6085 14.6680 130(11) 119.0923 94.3191
6086 14.6700 123(11) 118.2827 94.3202
6087 14.6720 129(11) 117.5150 94.3213
6088 14.6740 112(11) 116.7942 94.3224
6089 14.6760 123(11) 116.1097 94.3235
6090 14.6780 126(11) 115.4666 94.3247
6091 14.6800 119(11) 114.8647 94.3259
6092 14.6820 101(10) 114.3070 94.3271
6093 14.6840 125(11) 113.7870 94.3284
6094 14.6860 111(11) 113.3082 94.3297
6095 14.6880 113(11) 112.8701 94.3310
6096 14.6900 109(10) 112.4731 94.3323
6097 14.6920 128(11) 112.1171 94.3337
6098 14.6940 120(11) 111.8026 94.3350
6099 14.6960 123(11) 111.5297 94.3365
6100 14.6980 121(11) 111.2995 94.3379
6101 14.7000 115(11) 111.1125 94.3394
6102 14.7020 117(11) 110.9698 94.3409
6103 14.7040 115(11) 110.8796 94.3424
6104 14.7060 119(11) 110.8298 94.3439
6105 14.7080 111(11) 110.8287 94.3455
6106 14.7100 101(10) 110.8781 94.3471
6107 14.7120 113(11) 110.9796 94.3488
6108 14.7140 110(10) 111.1428 94.3504
6109 14.7160 119(11) 111.3263 94.3521
6110 14.7180 109(10) 111.5887 94.3538
6111 14.7200 120(11) 111.9011 94.3556
6112 14.7220 110(10) 112.2567 94.3574
6113 14.7240 127(11) 112.6441 94.3592
6114 14.7260 117(11) 113.0455 94.3610
6115 14.7280 113(11) 113.4373 94.3628
6116 14.7300 104(10) 113.7825 94.3647
6117 14.7320 118(11) 114.0640 94.3667
6118 14.7340 109(10) 114.2445 94.3686
6119 14.7360 116(11) 114.3022 94.3706
6120 14.7380 118(11) 114.2286 94.3726
6121 14.7400 112(11) 114.0304 94.3746
6122 14.7420 118(11) 113.7272 94.3767
6123 14.7440 111(11) 113.3466 94.3788
6124 14.7460 109(10) 112.9179 94.3809
6125 14.7480 116(11) 112.4670 94.3830
6126 14.7500 118(11) 112.0131 94.3852
6127 14.7520 104(10) 111.5690 94.3874
6128 14.7540 119(11) 111.1398 94.3896
6129 14.7560 113(11) 110.7251 94.3919
6130 14.7580 113(11) 110.3210 94.3942
6131 14.7600 119(11) 109.9220 94.3965
6132 14.7620 110(11) 109.5225 94.3988
6133 14.7640 117(11) 109.1316 94.4012
6134 14.7660 116(11) 108.7247 94.4036
6135 14.7680 122(11) 108.3159 94.4061
6136 14.7700 113(11) 107.9090 94.4085
6137 14.7720 111(11) 107.5090 94.4110
6138 14.7740 114(11) 107.1204 94.4136
6139 14.7760 116(11) 106.7465 94.4161
6140 14.7780 111(11) 106.3905 94.4187
6141 14.7800 114(11) 106.0537 94.4213
6142 14.7820 119(11) 105.7371 94.4240
6143 14.7840 124(11) 105.4409 94.4266
6144 14.7860 119(11) 105.1658 94.4294
6145 14.7880 114(11) 104.9101 94.4321
6146 14.7900 103(10) 104.6741 94.4349
6147 14.7920 119(11) 104.4577 94.4377
6148 14.7940 106(10) 104.2606 94.4405
6149 14.7960 117(11) 104.0825 94.4433
6150 14.7980 108(10) 103.9234 94.4462
6151 14.8000 115(11) 103.7834 94.4492
6152 14.8020 101(10) 103.6627 94.4521
6153 14.8040 105(10) 103.5618 94.4551
6154 14.8060 112(11) 103.4812 94.4581
6155 14.8080 114(11) 103.4217 94.4611
6156 14.8100 113(11) 103.3841 94.4642
6157 14.8120 120(11) 103.3698 94.4673
6158 14.8140 105(10) 103.3802 94.4705
6159 14.8160 117(11) 103.4172 94.4736
6160 14.8180 115(11) 103.4828 94.4768
6161 14.8200 112(11) 103.5794 94.4800
6162 14.8220 106(10) 103.7099 94.4833
6163 14.8240 111(11) 103.8763 94.4866
6164 14.8260 109(10) 104.0847 94.4899
6165 14.8280 118(11) 104.3378 94.4933
6166 14.8300 116(11) 104.6391 94.4967
6167 14.8320 113(11) 104.9924 94.5001
6168 14.8340 103(10) 105.4006 94.5035
6169 14.8360 107(10) 105.8652 94.5070
6170 14.8380 111(11) 106.3847 94.5106
6171 14.8400 107(10) 106.9536 94.5141
6172 14.8420 111(11) 107.5607 94.5177
6173 14.8440 120(11) 108.1858 94.5213
6174 14.8460 106(10) 108.8004 94.5249
6175 14.8480 119(11) 109.3672 94.5286
6176 14.8500 112(11) 109.8428 94.5323
6177 14.8520 112(11) 110.1844 94.5361
6178 14.8540 111(11) 110.3579 94.5398
6179 14.8560 116(11) 110.3461 94.5436
6180 14.8580 112(11) 110.1534 94.5475
6181 14.8600 100(10) 109.7682 94.5513
6182 14.8620 116(11) 109.3035 94.5552
6183 14.8640 114(11) 108.7667 94.5592
6184 14.8660 116(11) 108.2009 94.5631
6185 14.8680 113(11) 107.6404 94.5672
6186 14.8700 114(11) 107.1124 94.5712
6187 14.8720 110(10) 106.6342 94.5753
6188 14.8740 110(11) 106.2163 94.5794
6189 14.8760 121(11) 105.8639 94.5835
6190 14.8780 111(11) 105.5789 94.5877
6191 14.8800 108(10) 105.3612 94.5919
6192 14.8820 107(10) 105.2125 94.5961
6193 14.8840 111(11) 105.1257 94.6004
6194 14.8860 111(11) 105.1024 94.6047
6195 14.8880 113(11) 105.1404 94.6090
6196 14.8900 106(10) 105.2463 94.6134
6197 14.8920 111(11) 105.4105 94.6178
6198 14.8940 111(11) 105.6373 94.6222
6199 14.8960 105(10) 105.9263 94.6267
6200 14.8980 107(10) 106.2762 94.6312
6201 14.9000 121(11) 106.6840 94.6357
6202 14.9020 107(10) 107.1430 94.6403
6203 14.9040 115(11) 107.6420 94.6449
6204 14.9060 112(11) 108.1633 94.6496
6205 14.9080 108(10) 108.6823 94.6542
6206 14.9100 101(10) 109.1668 94.6590
6207 14.9120 104(10) 109.5962 94.6637
6208 14.9140 110(10) 109.9051 94.6685
6209 14.9160 118(11) 110.1005 94.6733
6210 14.9180 110(10) 110.1298 94.6781
6211 14.9200 108(10) 110.0160 94.6830
6212 14.9220 110(10) 109.7726 94.6879
6213 14.9240 113(11) 109.4434 94.6929
6214 14.9260 110(10) 109.0569 94.6979
6215 14.9280 122(11) 108.6458 94.7029
6216 14.9300 120(11) 108.2369 94.7080
6217 14.9320 119(11) 107.8455 94.7131
6218 14.9340 117(11) 107.4920 94.7182
6219 14.9360 110(10) 107.1787 94.7234
6220 14.9380 101(10) 106.9088 94.7286
6221 14.9400 106(10) 106.6812 94.7338
6222 14.9420 115(11) 106.4417 94.7391
6223 14.9440 116(11) 106.2914 94.7444
6224 14.9460 111(11) 106.1634 94.7497
6225 14.9480 106(10) 106.0752 94.7551
6226 14.9500 119(11) 106.0123 94.7605
6227 14.9520 113(11) 105.9710 94.7660
6228 14.9540 115(11) 105.9480 94.7715
6229 14.9560 116(11) 105.9402 94.7770
6230 14.9580 114(11) 105.9445 94.7826
6231 14.9600 108(10) 105.9584 94.7882
6232 14.9620 111(11) 105.9841 94.7938
6233 14.9640 106(10) 106.0098 94.7995
6234 14.9660 116(11) 106.0382 94.8052
6235 14.9680 109(10) 106.0677 94.8109
6236 14.9700 114(11) 106.0967 94.8167
6237 14.9720 105(10) 106.1239 94.8225
6238 14.9740 107(10) 106.1486 94.8284
6239 14.9760 122(11) 106.1702 94.8343
6240 14.9780 124(11) 106.1884 94.8402
6241 14.9800 109(10) 106.2035 94.8461
6242 14.9820 109(10) 106.2159 94.8521
6243 14.9840 108(10) 106.2266 94.8582
6244 14.9860 109(10) 106.1303 94.8643
6245 14.9880 110(10) 106.1418 94.8704
6246 14.9900 106(10) 106.1557 94.8765
6247 14.9920 113(11) 106.1737 94.8827
6248 14.9940 117(11) 106.1972 94.8889
6249 14.9960 117(11) 106.2275 94.8952
6250 14.9980 111(11) 106.2654 94.9015
6251 15.0000 105(10) 106.3109 94.9079
6252 15.0020 112(11) 106.3640 94.9142
6253 15.0040 104(10) 106.4236 94.9206
6254 15.0060 116(11) 106.5131 94.9271
6255 15.0080 107(10) 106.5834 94.9336
6256 15.0100 110(10) 106.6591 94.9401
6257 15.0120 112(11) 106.7418 94.9467
6258 15.0140 110(10) 106.8338 94.9533
6259 15.0160 115(11) 106.9475 94.9599
6260 15.0180 116(11) 107.0650 94.9666
6261 15.0200 114(11) 107.0321 94.9733
6262 15.0220 108(10) 107.1725 94.9801
6263 15.0240 101(10) 107.3152 94.9869
6264 15.0260 116(11) 107.4505 94.9937
6265 15.0280 109(10) 107.5672 95.0006
6266 15.0300 106(10) 107.6554 95.0075
6267 15.0320 103(10) 107.7084 95.0145
6268 15.0340 108(10) 107.7251 95.0215
6269 15.0360 102(10) 107.7102 95.0285
6270 15.0380 110(10) 107.6732 95.0356
6271 15.0400 113(11) 107.6261 95.0427
6272 15.0420 108(10) 107.5813 95.0499
6273 15.0440 112(11) 107.5495 95.0570
6274 15.0460 106(10) 107.5391 95.0643
6275 15.0480 109(10) 107.5561 95.0715
6276 15.0500 93(10) 107.6040 95.0789
6277 15.0520 106(10) 107.6849 95.0862
6278 15.0540 110(10) 107.7994 95.0936
6279 15.0560 103(10) 107.9461 95.1010
6280 15.0580 107(10) 108.1275 95.1085
6281 15.0600 112(11) 108.3153 95.1160
6282 15.0620 104(10) 108.5616 95.1236
6283 15.0640 103(10) 108.8393 95.1311
6284 15.0660 119(11) 109.1478 95.1388
6285 15.0680 114(11) 109.4860 95.1464
6286 15.0700 113(11) 109.8531 95.1542
6287 15.0720 104(10) 110.2479 95.1619
6288 15.0740 106(10) 110.6679 95.1697
6289 15.0760 116(11) 111.1099 95.1776
6290 15.0780 116(11) 111.5688 95.1854
6291 15.0800 112(11) 112.0380 95.1933
6292 15.0820 118(11) 112.5045 95.2013
6293 15.0840 106(10) 112.9567 95.2093
6294 15.0860 121(11) 113.3796 95.2173
6295 15.0880 110(10) 113.7526 95.2254
6296 15.0900 116(11) 114.0728 95.2335
6297 15.0920 116(11) 114.3264 95.2417
6298 15.0940 110(10) 114.5102 95.2499
6299 15.0960 114(11) 114.6281 95.2582
6300 15.0980 123(11) 114.6881 95.2664
6301 15.1000 122(11) 114.7006 95.2748
6302 15.1020 117(11) 114.6759 95.2831
6303 15.1040 118(11) 114.6237 95.2916
6304 15.1060 120(11) 114.5486 95.3000
6305 15.1080 114(11) 114.4556 95.3085
6306 15.1100 114(11) 114.3469 95.3171
6307 15.1120 117(11) 114.2239 95.3256
6308 15.1140 108(10) 114.0874 95.3343
6309 15.1160 124(11) 113.9384 95.3429
6310 15.1180 115(11) 113.7780 95.3516
6311 15.1200 118(11) 113.6083 95.3604
6312 15.1220 120(11) 113.4312 95.3692
6313 15.1240 126(11) 113.2492 95.3780
6314 15.1260 113(11) 113.0646 95.3869
6315 15.1280 117(11) 112.8798 95.3958
6316 15.1300 118(11) 112.6970 95.4048
6317 15.1320 117(11) 112.5290 95.4138
6318 15.1340 114(11) 112.3566 95.4229
6319 15.1360 110(10) 112.1921 95.4320
6320 15.1380 115(11) 112.0370 95.4411
6321 15.1400 101(10) 111.8926 95.4503
6322 15.1420 108(10) 111.7601 95.4595
6323 15.1440 114(11) 111.6403 95.4688
6324 15.1460 116(11) 111.5342 95.4781
6325 15.1480 110(10) 111.4320 95.4875
6326 15.1500 114(11) 111.3544 95.4969
6327 15.1520 111(11) 111.2912 95.5063
6328 15.1540 110(10) 111.2428 95.5158
6329 15.1560 115(11) 111.2084 95.5253
6330 15.1580 110(10) 111.1896 95.5349
6331 15.1600 109(10) 111.1824 95.5445
6332 15.1620 115(11) 111.2014 95.5542
6333 15.1640 112(11) 111.2192 95.5639
6334 15.1660 110(10) 111.2483 95.5737
6335 15.1680 116(11) 111.2881 95.5835
6336 15.1700 113(11) 111.3381 95.5933
6337 15.1720 119(11) 111.3973 95.6032
6338 15.1740 101(10) 111.4656 95.6131
6339 15.1760 114(11) 111.5424 95.6231
6340 15.1780 118(11) 111.6277 95.6331
6341 15.1800 112(11) 111.6820 95.6432
6342 15.1820 113(11) 111.7851 95.6533
6343 15.1840 113(11) 111.8974 95.6635
6344 15.1860 110(10) 112.0196 95.6737
6345 15.1880 114(11) 112.1598 95.6839
6346 15.1900 107(10) 112.3044 95.6942
6347 15.1920 107(10) 112.4618 95.7046
6348 15.1940 113(11) 112.6332 95.7150
6349 15.1960 110(10) 112.8197 95.7254
6350 15.1980 111(11) 113.0226 95.7359
6351 15.2000 108(10) 113.2427 95.7464
6352 15.2020 111(11) 113.4807 95.7570
6353 15.2040 111(11) 113.7368 95.7676
6354 15.2060 111(11) 114.0105 95.7783
6355 15.2080 110(10) 114.3017 95.7890
6356 15.2100 112(11) 114.6105 95.7997
6357 15.2120 114(11) 114.9387 95.8105
6358 15.2140 110(10) 115.2866 95.8214
6359 15.2160 109(10) 115.6591 95.8323
6360 15.2180 120(11) 116.0636 95.8432
6361 15.2200 112(11) 116.4997 95.8542
6362 15.2220 112(11) 116.9741 95.8652
6363 15.2240 120(11) 117.4881 95.8763
6364 15.2260 123(11) 118.0404 95.8875
6365 15.2280 115(11) 118.6251 95.8986
6366 15.2300 112(11) 119.2307 95.9099
6367 15.2320 120(11) 119.8388 95.9211
6368 15.2340 121(11) 120.4243 95.9324
6369 15.2360 121(11) 120.9557 95.9438
6370 15.2380 112(11) 121.3972 95.9552
6371 15.2400 121(11) 121.7141 95.9667
6372 15.2420 119(11) 121.8775 95.9782
6373 15.2440 115(11) 121.8377 95.9898
6374 15.2460 120(11) 121.6589 96.0014
6375 15.2480 121(11) 121.3133 96.0130
6376 15.2500 123(11) 120.8280 96.0247
6377 15.2520 123(11) 120.2348 96.0365
6378 15.2540 110(10) 119.5532 96.0483
6379 15.2560 111(11) 118.8396 96.0601
6380 15.2580 122(11) 118.1056 96.0720
6381 15.2600 122(11) 117.3696 96.0840
6382 15.2620 116(11) 116.6437 96.0960
6383 15.2640 132(11) 115.9366 96.1080
6384 15.2660 123(11) 115.2523 96.1201
6385 15.2680 109(10) 114.5916 96.1322
6386 15.2700 113(11) 113.9576 96.1444
6387 15.2720 118(11) 113.3487 96.1567
6388 15.2740 115(11) 112.7645 96.1689
6389 15.2760 114(11) 112.2037 96.1813
6390 15.2780 115(11) 111.6662 96.1937
6391 15.2800 115(11) 111.1509 96.2061
6392 15.2820 117(11) 110.6573 96.2186
6393 15.2840 112(11) 110.1846 96.2311
6394 15.2860 98(10) 109.7324 96.2437
6395 15.2880 107(10) 109.2975 96.2563
6396 15.2900 111(11) 108.8601 96.2690
6397 15.2920 95(10) 108.4669 96.2818
6398 15.2940 107(10) 108.0925 96.2945
6399 15.2960 123(11) 107.7367 96.3074
6400 15.2980 112(11) 107.3989 96.3203
6401 15.3000 108(10) 107.0789 96.3332
6402 15.3020 116(11) 106.7762 96.3462
6403 15.3040 120(11) 106.4906 96.3592
6404 15.3060 111(11) 106.2217 96.3723
6405 15.3080 101(10) 105.9691 96.3854
6406 15.3100 109(10) 105.7324 96.3986
6407 15.3120 118(11) 105.5112 96.4119
6408 15.3140 104(10) 105.3049 96.4252
6409 15.3160 103(10) 105.1136 96.4385
6410 15.3180 112(11) 104.9365 96.4519
6411 15.3200 100(10) 104.7734 96.4653
6412 15.3220 109(10) 104.6237 96.4788
6413 15.3240 105(10) 104.5014 96.4924
6414 15.3260 103(10) 104.3793 96.5060
6415 15.3280 113(11) 104.2677 96.5196
6416 15.3300 96(10) 104.1678 96.5333
6417 15.3320 102(10) 104.0792 96.5471
6418 15.3340 103(10) 104.0013 96.5609
6419 15.3360 104(10) 103.9337 96.5748
6420 15.3380 115(11) 103.8726 96.5887
6421 15.3400 106(10) 103.8238 96.6026
6422 15.3420 108(10) 103.7870 96.6166
6423 15.3440 103(10) 103.7545 96.6307
6424 15.3460 112(11) 103.7491 96.6448
6425 15.3480 102(10) 103.7304 96.6590
6426 15.3500 115(11) 103.7174 96.6732
6427 15.3520 101(10) 103.7093 96.6875
6428 15.3540 108(10) 103.7054 96.7018
6429 15.3560 107(10) 103.7049 96.7162
6430 15.3580 107(10) 103.7069 96.7307
6431 15.3600 111(11) 103.6993 96.7451
6432 15.3620 106(10) 103.7040 96.7597
6433 15.3640 111(11) 103.7089 96.7743
6434 15.3660 105(10) 103.7131 96.7889
6435 15.3680 109(10) 103.7161 96.8036
6436 15.3700 93(10) 103.7173 96.8184
6437 15.3720 107(10) 103.7162 96.8332
6438 15.3740 98(10) 103.7124 96.8481
6439 15.3760 111(11) 103.7058 96.8630
6440 15.3780 104(10) 103.6961 96.8780
6441 15.3800 113(11) 103.6834 96.8930
6442 15.3820 115(11) 103.6679 96.9081
6443 15.3840 105(10) 103.6497 96.9232
6444 15.3860 100(10) 103.6293 96.9384
6445 15.3880 111(11) 103.6070 96.9536
6446 15.3900 110(10) 103.5833 96.9689
6447 15.3920 114(11) 103.5588 96.9843
6448 15.3940 109(10) 103.5339 96.9997
6449 15.3960 98(10) 103.5094 97.0152
6450 15.3980 118(11) 103.4858 97.0307
6451 15.4000 110(11) 103.4635 97.0462
6452 15.4020 104(10) 103.4432 97.0619
6453 15.4040 108(10) 103.4254 97.0776
6454 15.4060 107(10) 103.4106 97.0933
6455 15.4080 114(11) 103.3991 97.1091
6456 15.4100 116(11) 103.3914 97.1249
6457 15.4120 112(11) 103.3879 97.1409
6458 15.4140 109(10) 103.3904 97.1568
6459 15.4160 103(10) 103.3963 97.1728
6460 15.4180 93(10) 103.4073 97.1889
6461 15.4200 106(10) 103.4118 97.2050
6462 15.4220 111(11) 103.4346 97.2212
6463 15.4240 98(10) 103.3627 97.2375
6464 15.4260 98(10) 103.3964 97.2538
6465 15.4280 107(10) 103.4390 97.2701
6466 15.4300 110(10) 103.4836 97.2865
6467 15.4320 109(10) 103.5337 97.3030
6468 15.4340 105(10) 103.5892 97.3195
6469 15.4360 118(11) 103.6507 97.3361
6470 15.4380 110(10) 103.7231 97.3527
6471 15.4400 114(11) 103.7999 97.3694
6472 15.4420 100(10) 103.8858 97.3862
6473 15.4440 120(11) 103.9839 97.4030
6474 15.4460 101(10) 104.0947 97.4199
6475 15.4480 107(10) 104.2173 97.4368
6476 15.4500 101(10) 104.3506 97.4538
6477 15.4520 118(11) 104.4910 97.4708
6478 15.4540 101(10) 104.6391 97.4879
6479 15.4560 106(10) 104.7737 97.5051
6480 15.4580 102(10) 104.8916 97.5222
6481 15.4600 109(10) 104.9822 97.5395
6482 15.4620 108(10) 105.0368 97.5569
6483 15.4640 103(10) 105.0499 97.5742
6484 15.4660 110(10) 105.0212 97.5917
6485 15.4680 109(10) 104.9553 97.6092
6486 15.4700 113(11) 104.8609 97.6267
6487 15.4720 107(10) 104.7485 97.6444
6488 15.4740 104(10) 104.6287 97.6620
6489 15.4760 103(10) 104.5104 97.6798
6490 15.4780 115(11) 104.4004 97.6976
6491 15.4800 102(10) 104.3023 97.7154
6492 15.4820 115(11) 104.2176 97.7333
6493 15.4840 108(10) 104.1459 97.7513
6494 15.4860 117(11) 104.0854 97.7694
6495 15.4880 113(11) 104.0337 97.7875
6496 15.4900 112(11) 103.9885 97.8056
6497 15.4920 115(11) 103.9481 97.8238
6498 15.4940 115(11) 103.9120 97.8421
6499 15.4960 118(11) 103.8802 97.8604
6500 15.4980 106(10) 103.8538 97.8788
6501 15.5000 104(10) 103.8338 97.8973
6502 15.5020 107(10) 103.8214 97.9158
6503 15.5040 100(10) 103.8173 97.9343
6504 15.5060 116(11) 103.8220 97.9530
6505 15.5080 110(10) 103.8356 97.9717
6506 15.5100 109(10) 103.8578 97.9904
6507 15.5120 112(11) 103.8881 98.0092
6508 15.5140 119(11) 103.9260 98.0281
6509 15.5160 115(11) 103.9708 98.0470
6510 15.5180 103(10) 104.0219 98.0660
6511 15.5200 110(10) 104.0788 98.0851
6512 15.5220 101(10) 104.1409 98.1042
6513 15.5240 112(11) 104.2078 98.1234
6514 15.5260 106(10) 104.2789 98.1426
6515 15.5280 105(10) 104.3546 98.1619
6516 15.5300 107(10) 104.4342 98.1813
6517 15.5320 113(11) 104.5177 98.2007
6518 15.5340 110(10) 104.6046 98.2202
6519 15.5360 113(11) 104.6945 98.2397
6520 15.5380 110(11) 104.7868 98.2594
6521 15.5400 117(11) 104.8802 98.2791
6522 15.5420 103(10) 104.9699 98.2988
6523 15.5440 115(11) 105.0601 98.3186
6524 15.5460 121(11) 105.1449 98.3384
6525 15.5480 116(11) 105.2217 98.3583
6526 15.5500 112(11) 105.2881 98.3783
6527 15.5520 103(10) 105.3425 98.3984
6528 15.5540 114(11) 105.3844 98.4185
6529 15.5560 109(10) 105.4148 98.4386
6530 15.5580 106(10) 105.4355 98.4589
6531 15.5600 109(10) 105.4522 98.4792
6532 15.5620 105(10) 105.4437 98.4995
6533 15.5640 121(11) 105.4497 98.5200
6534 15.5660 101(10) 105.4538 98.5405
6535 15.5680 115(11) 105.4560 98.5610
6536 15.5700 106(10) 105.4553 98.5816
6537 15.5720 114(11) 105.4347 98.6023
6538 15.5740 102(10) 105.4217 98.6230
6539 15.5760 110(10) 105.3791 98.6439
6540 15.5780 109(10) 105.3438 98.6647
6541 15.5800 103(10) 105.2951 98.6857
6542 15.5820 111(11) 105.2334 98.7067
6543 15.5840 115(11) 105.1605 98.7277
6544 15.5860 124(11) 105.0795 98.7489
6545 15.5880 99(10) 104.9939 98.7700
6546 15.5900 91(10) 104.9073 98.7913
6547 15.5920 99(10) 104.8228 98.8126
6548 15.5940 113(11) 104.7430 98.8340
6549 15.5960 106(10) 104.6698 98.8555
6550 15.5980 97(10) 104.6046 98.8770
6551 15.6000 103(10) 104.5483 98.8986
6552 15.6020 114(11) 104.5016 98.9202
6553 15.6040 106(10) 104.4650 98.9419
6554 15.6060 108(10) 104.4390 98.9637
6555 15.6080 115(11) 104.4237 98.9855
6556 15.6100 110(10) 104.4196 99.0074
6557 15.6120 110(10) 104.4270 99.0294
6558 15.6140 106(10) 104.4465 99.0515
6559 15.6160 121(11) 104.4784 99.0736
6560 15.6180 109(10) 104.5235 99.0957
6561 15.6200 101(10) 104.5823 99.1180
6562 15.6220 100(10) 104.6559 99.1403
6563 15.6240 116(11) 104.7451 99.1627
6564 15.6260 113(11) 104.8509 99.1851
6565 15.6280 106(10) 104.9747 99.2076
6566 15.6300 113(11) 105.1177 99.2302
6567 15.6320 113(11) 105.2811 99.2528
6568 15.6340 109(10) 105.4663 99.2755
6569 15.6360 108(10) 105.6743 99.2983
6570 15.6380 111(11) 105.9057 99.3212
6571 15.6400 108(10) 106.1604 99.3440
6572 15.6420 105(10) 106.4369 99.3670
6573 15.6440 98(10) 106.7321 99.3901
6574 15.6460 109(10) 107.0399 99.4132
6575 15.6480 108(10) 107.3516 99.4363
6576 15.6500 100(10) 107.6551 99.4596
6577 15.6520 101(10) 107.9355 99.4829
6578 15.6540 100(10) 108.1764 99.5063
6579 15.6560 111(11) 108.3626 99.5298
6580 15.6580 95(10) 108.4825 99.5533
6581 15.6600 107(10) 108.5312 99.5769
6582 15.6620 99(10) 108.5113 99.6005
6583 15.6640 112(11) 108.4323 99.6242
6584 15.6660 103(10) 108.3079 99.6480
6585 15.6680 94(10) 108.1535 99.6719
6586 15.6700 112(11) 107.9835 99.6958
6587 15.6720 111(11) 107.8097 99.7198
6588 15.6740 106(10) 107.6406 99.7439
6589 15.6760 100(10) 107.4822 99.7680
6590 15.6780 113(11) 107.3367 99.7922
6591 15.6800 108(10) 107.2056 99.8165
6592 15.6820 110(10) 107.0888 99.8409
6593 15.6840 103(10) 106.9855 99.8653
6594 15.6860 115(11) 106.8945 99.8898
6595 15.6880 104(10) 106.8176 99.9143
6596 15.6900 103(10) 106.7472 99.9389
6597 15.6920 111(11) 106.6852 99.9636
6598 15.6940 114(11) 106.6308 99.9884
6599 15.6960 106(10) 106.5831 100.0133
6600 15.6980 99(10) 106.5416 100.0382
6601 15.7000 106(10) 106.5157 100.0631
6602 15.7020 110(10) 106.4857 100.0882
6603 15.7040 106(10) 106.4614 100.1133
6604 15.7060 104(10) 106.4427 100.1385
6605 15.7080 106(10) 106.4299 100.1638
6606 15.7100 114(11) 106.4231 100.1891
6607 15.7120 110(10) 106.4227 100.2145
6608 15.7140 106(10) 106.4290 100.2400
6609 15.7160 110(10) 106.4425 100.2655
6610 15.7180 112(11) 106.4636 100.2911
6611 15.7200 108(10) 106.4928 100.3168
6612 15.7220 108(10) 106.5306 100.3426
6613 15.7240 108(10) 106.5776 100.3684
6614 15.7260 119(11) 106.6341 100.3943
6615 15.7280 104(10) 106.7009 100.4203
6616 15.7300 104(10) 106.7784 100.4464
6617 15.7320 102(10) 106.8672 100.4725
6618 15.7340 99(10) 106.9677 100.4987
6619 15.7360 103(10) 107.0803 100.5250
6620 15.7380 101(10) 107.2049 100.5513
6621 15.7400 112(11) 107.3414 100.5777
6622 15.7420 113(11) 107.4893 100.6042
6623 15.7440 106(10) 107.6479 100.6308
6624 15.7460 107(10) 107.8159 100.6574
6625 15.7480 109(10) 107.9924 100.6841
6626 15.7500 108(10) 108.1758 100.7109
6627 15.7520 103(10) 108.3651 100.7378
6628 15.7540 104(10) 108.5590 100.7647
6629 15.7560 109(10) 108.7560 100.7917
6630 15.7580 115(11) 108.9541 100.8188
6631 15.7600 107(10) 109.1478 100.8459
6632 15.7620 111(11) 109.3727 100.8731
6633 15.7640 113(11) 109.5565 100.9004
6634 15.7660 96(10) 109.7283 100.9278
6635 15.7680 109(10) 109.8844 100.9553
6636 15.7700 101(10) 110.0214 100.9828
6637 15.7720 120(11) 110.1390 101.0104
6638 15.7740 111(11) 110.2359 101.0380
6639 15.7760 103(10) 110.3131 101.0658
6640 15.7780 107(10) 110.3726 101.0936
6641 15.7800 114(11) 110.4172 101.1215
6642 15.7820 107(10) 110.4494 101.1495
6643 15.7840 105(10) 110.4701 101.1775
6644 15.7860 106(10) 110.4795 101.2057
6645 15.7880 118(11) 110.4763 101.2339
6646 15.7900 108(10) 110.4600 101.2621
6647 15.7920 104(10) 110.4310 101.2905
6648 15.7940 106(10) 110.3921 101.3189
6649 15.7960 108(10) 110.3477 101.3474
6650 15.7980 117(11) 110.2995 101.3760
6651 15.8000 106(10) 110.2498 101.4046
6652 15.8020 99(10) 110.2177 101.4334
6653 15.8040 102(10) 110.2061 101.4622
6654 15.8060 103(10) 110.2125 101.4911
6655 15.8080 112(11) 110.2382 101.5200
6656 15.8100 108(10) 110.2836 101.5491
6657 15.8120 107(10) 110.3487 101.5782
6658 15.8140 105(10) 110.4325 101.6074
6659 15.8160 113(11) 110.5341 101.6366
6660 15.8180 103(10) 110.6523 101.6660
6661 15.8200 106(10) 110.7858 101.6954
6662 15.8220 109(10) 110.9331 101.7249
6663 15.8240 101(10) 111.0936 101.7545
6664 15.8260 103(10) 111.2640 101.7842
6665 15.8280 113(11) 111.4471 101.8139
6666 15.8300 115(11) 111.6397 101.8437
6667 15.8320 108(10) 111.8412 101.8736
6668 15.8340 108(10) 112.0505 101.9036
6669 15.8360 112(11) 112.2668 101.9336
6670 15.8380 116(11) 112.4894 101.9638
6671 15.8400 111(11) 112.7175 101.9940
6672 15.8420 116(11) 112.9501 102.0243
6673 15.8440 116(11) 113.1863 102.0546
6674 15.8460 111(11) 113.4255 102.0851
6675 15.8480 106(10) 113.6665 102.1156
6676 15.8500 120(11) 113.9083 102.1462
6677 15.8520 112(11) 114.1497 102.1769
6678 15.8540 115(11) 114.3897 102.2076
6679 15.8560 101(10) 114.6265 102.2385
6680 15.8580 118(11) 114.8589 102.2694
6681 15.8600 117(11) 115.0852 102.3004
6682 15.8620 101(10) 115.3039 102.3315
6683 15.8640 108(10) 115.5345 102.3626
6684 15.8660 111(11) 115.7332 102.3939
6685 15.8680 111(11) 115.9192 102.4252
6686 15.8700 97(10) 116.0910 102.4566
6687 15.8720 104(10) 116.2471 102.4881
6688 15.8740 107(10) 116.3864 102.5197
6689 15.8760 117(11) 116.5076 102.5513
6690 15.8780 117(11) 116.6099 102.5830
6691 15.8800 115(11) 116.6926 102.6148
6692 15.8820 123(11) 116.7549 102.6467
6693 15.8840 123(11) 116.7963 102.6787
6694 15.8860 115(11) 116.8159 102.7107
6695 15.8880 115(11) 116.8103 102.7429
6696 15.8900 117(11) 116.7835 102.7751
6697 15.8920 109(10) 116.7312 102.8074
6698 15.8940 104(10) 116.6517 102.8398
6699 15.8960 117(11) 116.5437 102.8722
6700 15.8980 116(11) 116.4045 102.9048
6701 15.9000 111(11) 116.2388 102.9374
6702 15.9020 118(11) 116.0467 102.9701
6703 15.9040 100(10) 115.8318 103.0029
6704 15.9060 120(11) 115.5985 103.0358
6705 15.9080 108(10) 115.3522 103.0687
6706 15.9100 104(10) 115.0977 103.1018
6707 15.9120 113(11) 114.8394 103.1349
6708 15.9140 122(11) 114.5778 103.1681
6709 15.9160 108(10) 114.3221 103.2014
6710 15.9180 103(10) 114.0714 103.2347
6711 15.9200 120(11) 113.8272 103.2682
6712 15.9220 110(10) 113.5910 103.3017
6713 15.9240 105(10) 113.3636 103.3354
6714 15.9260 99(10) 113.1456 103.3691
6715 15.9280 114(11) 112.9374 103.4028
6716 15.9300 114(11) 112.7393 103.4367
6717 15.9320 108(10) 112.5516 103.4707
6718 15.9340 99(10) 112.3745 103.5047
6719 15.9360 118(11) 112.2079 103.5389
6720 15.9380 112(11) 112.0154 103.5731
6721 15.9400 113(11) 111.8702 103.6074
6722 15.9420 105(10) 111.7355 103.6418
6723 15.9440 107(10) 111.6112 103.6762
6724 15.9460 107(10) 111.4972 103.7108
6725 15.9480 120(11) 111.3936 103.7454
6726 15.9500 111(11) 111.3002 103.7801
6727 15.9520 113(11) 111.2169 103.8150
6728 15.9540 103(10) 111.1437 103.8499
6729 15.9560 106(10) 111.0804 103.8848
6730 15.9580 109(10) 111.0271 103.9199
6731 15.9600 107(10) 110.9836 103.9550
6732 15.9620 92(10) 110.9501 103.9903
6733 15.9640 109(10) 110.9266 104.0256
6734 15.9660 107(10) 110.9130 104.0610
6735 15.9680 102(10) 110.9096 104.0965
6736 15.9700 108(10) 110.9163 104.1321
6737 15.9720 99(10) 110.9333 104.1678
6738 15.9740 130(11) 110.9607 104.2035
6739 15.9760 107(10) 110.9988 104.2394
6740 15.9780 103(10) 111.0476 104.2753
6741 15.9800 101(10) 111.1076 104.3113
6742 15.9820 103(10) 111.1788 104.3474
6743 15.9840 111(11) 111.2616 104.3836
6744 15.9860 112(11) 111.3563 104.4199
6745 15.9880 106(10) 111.4632 104.4563
6746 15.9900 105(10) 111.5828 104.4928
6747 15.9920 107(10) 111.7153 104.5293
6748 15.9940 106(10) 111.8472 104.5659
6749 15.9960 98(10) 112.0057 104.6027
6750 15.9980 109(10) 112.1803 104.6395
6751 16.0000 107(10) 112.3697 104.6764
loop_
_refln_index_h
_refln_index_k
_refln_index_l
_refln_mult
_pd_refln_phase_id
_refln_observed_status
_refln_F_squared_meas
_refln_F_squared_calc
_refln_phase_calc
_refln_d_spacing
2 0 0 2 1 o 289.8709 290.1185 180.06 7.76432
0 2 0 2 2 o 1384.8674 1211.3446 40.71 7.64535
0 0 1 2 2 o 90.1861 96.9138 359.95 5.84231
0 1 0 2 1 o 646.6232 820.2051 0.05 5.66896
2 0 1 4 1 o 3232.6274 3331.5149 160.16 5.54303
0 1 1 4 2 o 925.7691 903.7148 117.20 5.45752
1 1 0 4 1 o 1173.6165 1303.4310 180.00 5.32520
0 2 1 4 2 o 336.0080 329.6022 134.23 4.64210
2 1 0 4 1 o 1500.4872 1472.0989 180.03 4.57846
1 1 1 8 1 o 3574.1067 3060.2686 153.85 4.41845
1 0 0 2 2 o 314.8645 223.0140 180.03 3.96866
2 1 1 8 1 o 738.5160 681.1375 241.13 3.96329
0 0 2 2 1 o 6659.1953 6212.1846 155.00 3.95796
4 0 0 2 1 o 3031.2473 2772.5679 0.01 3.88216
1 1 0 4 2 o 1147.2932 1171.6793 345.33 3.84138
0 3 1 4 2 o 79.0845 80.6660 38.57 3.84073
0 4 0 2 2 o 755.5137 683.5103 286.29 3.82268
3 1 0 4 1 o 123.7905 111.4236 359.98 3.82249
2 0 2 4 1 o 5638.7749 5780.2793 68.16 3.52623
1 2 0 4 2 o 1482.1431 1468.0609 171.97 3.52237
4 0 1 4 1 o 205.5587 209.4350 278.64 3.48556
3 1 1 8 1 o 189.0964 192.5589 115.76 3.44218
1 0 1 2 2 o 1116.9183 1156.2009 0.02 3.40177
1 1 1 4 2 o 3470.0190 3725.2207 271.66 3.32058
0 1 2 4 1 o 12115.6748 11988.7305 238.60 3.24526
4 1 0 4 1 o 28.3673 30.1004 359.99 3.20308
0 4 1 4 2 o 37.9360 39.5453 18.83 3.19879
1 1 2 8 1 o 2334.0786 2341.2935 335.68 3.17663
-1 0 1 2 2 o 84.6658 85.4642 0.03 3.17562
1 3 0 4 2 o 368.2274 364.2584 32.21 3.13136
-1 1 1 4 2 o 86.6289 84.2117 36.93 3.10928
1 2 1 4 2 o 1818.4210 1769.0182 123.82 3.10799
2 1 2 8 1 o 2762.7534 2751.3672 137.03 2.99424
4 1 1 8 1 o 41.3703 43.8555 254.27 2.96921
-1 2 1 4 2 o 171.4497 199.0466 65.09 2.93270
0 0 2 2 2 o 360.6574 409.2171 0.04 2.92116
0 1 2 4 2 o 482.7281 545.8527 312.11 2.86927
0 2 0 2 1 o 2328.9304 2229.0085 0.03 2.83448
1 3 1 4 2 o 191.5725 180.4482 269.63 2.82946
1 2 0 4 1 o 888.0734 943.6358 0.03 2.78841
4 0 2 4 1 o 15.1020 17.7050 261.35 2.77151
1 4 0 4 2 o 34.8096 38.6588 244.70 2.75320
3 1 2 8 1 o 291.0149 325.2745 118.84 2.74955
0 2 2 4 2 o 390.8118 406.2203 339.43 2.72876
5 1 0 4 1 o 142.9950 146.9406 0.03 2.72376
0 5 1 4 2 o 31.6899 35.4096 195.11 2.70940
-1 3 1 4 2 o 381.2612 415.2334 52.74 2.69528
2 2 0 4 1 o 9.3610 14.8917 180.12 2.66260
1 2 1 8 1 o 361.4868 359.0351 215.55 2.63001
6 0 0 2 1 o 366.4380 301.2949 180.00 2.58811
5 1 1 8 1 o 49.8029 54.2916 324.57 2.57556
0 6 0 2 2 o 774.1953 721.2866 180.93 2.54845
1 4 1 4 2 o 90.5111 83.0196 50.60 2.54125
0 3 2 4 2 o 149.9938 141.2077 5.28 2.53442
2 2 1 8 1 o 975.4220 1009.1915 172.44 2.52366
2 0 3 4 1 o 359.3999 337.0901 14.24 2.49831
4 1 2 8 1 o 300.6379 303.6295 263.17 2.48988
3 2 0 4 1 o 846.3265 853.5414 180.03 2.48613
6 0 1 4 1 o 1586.5435 1585.2190 10.41 2.45996
-1 4 1 4 2 o 110.6691 102.8554 22.20 2.44270
1 0 2 2 2 o 19.2263 17.9786 0.03 2.44022
1 5 0 4 2 o 146.3725 149.7608 306.41 2.42238
1 1 2 4 2 o 87.0886 87.8486 110.56 2.40973
3 2 1 8 1 o 295.4770 268.7796 124.38 2.37190
1 1 3 8 1 o 813.0626 800.8463 264.07 2.36431
6 1 0 4 1 o 234.2864 222.2723 0.03 2.35435
0 6 1 4 2 o 68.4680 68.8339 287.79 2.33589
1 2 2 4 2 o 4.2817 4.0500 300.56 2.32468
0 4 2 4 2 o 61.4284 56.8102 307.31 2.32105
0 2 2 4 1 o 745.1553 720.0067 296.09 2.30448
4 2 0 4 1 o 106.9425 114.6495 359.98 2.28923
2 1 3 8 1 o 1683.9803 1828.9076 40.20 2.28615
1 2 2 8 1 o 38.7206 39.7697 33.45 2.27952
1 5 1 4 2 o 370.2979 359.3102 128.58 2.27424
-1 0 2 2 2 o 0.9061 0.8776 359.97 2.27375
6 1 1 8 1 o 538.1156 534.3753 47.13 2.25666
-1 1 2 4 2 o 7.3478 6.4749 146.05 2.24902
5 1 2 8 1 o 474.4754 403.4483 48.53 2.24379
2 2 2 8 1 o 390.6924 350.4686 67.73 2.20923
-1 5 1 4 2 o 46.5779 41.3373 203.24 2.20279
1 3 2 4 2 o 46.0098 40.9736 35.18 2.20098
4 2 1 8 1 o 376.6344 346.3995 55.24 2.19912
4 0 3 4 1 o 47.2204 40.7423 121.10 2.18228
-1 2 2 4 2 o 154.4461 130.8709 146.90 2.17940
3 1 3 8 1 o 118.2940 101.1209 14.06 2.17151
6 0 2 4 1 o 59.1582 44.3904 232.90 2.16611
1 6 0 4 2 o 8.3520 4.9491 213.52 2.14440
0 5 2 4 2 o 232.5872 203.2213 247.38 2.11234
3 2 2 8 1 o 65.4049 59.1349 53.55 2.10527
5 2 0 4 1 o 47.6296 44.8405 179.98 2.09362
-1 3 2 4 2 o 675.7266 668.9885 134.46 2.07649
7 1 0 4 1 o 827.9483 882.9646 0.02 2.06584
1 4 2 4 2 o 3.5662 3.4715 294.86 2.05687
0 7 1 4 2 o 256.3895 236.6469 275.22 2.04605
1 6 1 4 2 o 379.1798 336.5490 110.47 2.03959
4 1 3 8 1 o 594.5185 525.9290 266.92 2.03659
5 2 1 8 1 o 645.8036 542.0613 262.00 2.02403
6 1 2 8 1 o 226.0191 187.6641 150.16 2.02343
7 1 1 8 1 o 261.3073 182.0010 99.80 1.99889
-1 6 1 4 2 o 138.7506 101.6017 33.13 1.98757
2 0 0 2 2 o 4.3152 3.2326 360.00 1.98433
4 2 2 8 1 o 171.5514 129.3955 39.06 1.98164
0 0 4 2 1 o 252.7563 190.2768 152.41 1.97898
2 1 0 4 2 o 27.7066 23.7311 11.48 1.96783
-1 4 2 4 2 o 601.3353 570.1386 226.12 1.95419
0 0 3 2 2 o 4.1032 3.9927 359.91 1.94744
8 0 0 2 1 o 1026.3101 1008.5033 0.02 1.94108
0 1 3 4 2 o 174.0843 162.7406 39.35 1.93183
2 0 1 2 2 o 51.0221 51.5070 0.03 1.92267
2 2 0 4 2 o 52.3670 53.5822 123.31 1.92069
0 6 2 4 2 o 151.4604 155.2034 106.78 1.92037
2 0 4 4 1 o 348.8907 375.7818 36.80 1.91767
1 2 3 8 1 o 385.4659 411.4234 358.25 1.91656
1 7 0 4 2 o 115.6395 117.1148 204.48 1.91366
0 8 0 2 2 o 268.0330 268.6340 210.79 1.91134
6 2 0 4 1 o 220.3967 218.6939 0.05 1.91124
2 1 1 4 2 o 304.4284 303.5545 27.08 1.90765
1 5 2 4 2 o 77.3181 77.1168 201.14 1.90741
5 1 3 8 1 o 568.0620 589.0981 169.72 1.89518
0 3 0 2 1 o 13.6513 13.6135 0.12 1.88965
0 2 3 4 2 o 268.6318 267.4540 77.92 1.88718
8 0 1 4 1 o 1875.3290 1863.4299 259.57 1.88523
1 3 0 4 1 o 8.2226 8.0038 0.19 1.87582
2 2 3 8 1 o 172.2705 170.5032 87.81 1.87422
0 1 4 4 1 o 51.0226 54.8196 6.63 1.86841
2 2 1 4 2 o 578.5529 613.3359 244.04 1.86461
6 2 1 8 1 o 579.1319 604.2086 139.97 1.85786
1 1 4 8 1 o 392.9937 397.7468 178.71 1.85503
5 2 2 8 1 o 146.8645 140.1726 314.10 1.85066
2 3 0 4 2 o 21.5840 20.9483 257.84 1.84914
6 0 3 4 1 o 162.0675 153.1398 354.72 1.84768
1 7 1 4 2 o 272.2168 264.2650 112.88 1.83806
-2 0 1 2 2 o 11.0543 10.7337 0.02 1.83801
8 1 0 4 1 o 249.1901 237.6441 0.02 1.83641
2 3 0 4 1 o 983.6912 944.0815 180.02 1.83606
7 1 2 8 1 o 450.8245 469.9054 136.15 1.83139
1 3 1 8 1 o 254.4701 264.8063 171.61 1.82527
-2 1 1 4 2 o 7.5628 7.9319 13.35 1.82488
-1 5 2 4 2 o 479.7865 503.5683 128.01 1.82467
0 3 3 4 2 o 192.3120 206.4219 112.05 1.81917
0 8 1 4 2 o 568.2698 614.0571 310.62 1.81659
2 1 4 8 1 o 1590.0311 1739.2594 299.11 1.81655
3 2 3 8 1 o 767.5321 854.5248 309.96 1.80948
1 0 3 2 2 o 230.5957 261.2304 180.03 1.80173
-1 7 1 4 2 o 21.9882 24.9960 309.52 1.79972
2 3 1 4 2 o 593.0303 674.6300 95.47 1.79893
1 1 3 4 2 o 643.0740 703.6800 281.86 1.78935
8 1 1 8 1 o 808.9637 902.0358 182.62 1.78890
2 3 1 8 1 o 212.6421 236.1842 207.88 1.78858
-2 2 1 4 2 o 146.8219 157.6012 179.06 1.78710
3 3 0 4 1 o 512.7450 482.6775 180.04 1.77507
4 0 4 4 1 o 43.7641 39.0555 246.58 1.76312
1 6 2 4 2 o 204.4484 184.1936 185.45 1.76252
2 4 0 4 2 o 23.1433 20.8473 66.01 1.76118
3 1 4 8 1 o 123.8143 110.6480 87.80 1.75742
6 1 3 8 1 o 112.8669 100.7056 345.54 1.75672
1 2 3 4 2 o 53.3476 47.3011 240.17 1.75369
0 7 2 4 2 o 76.8148 67.2111 300.22 1.74937
7 2 0 4 1 o 3.6249 3.0649 180.08 1.74696
8 0 2 4 1 o 876.2220 745.5812 182.98 1.74278
0 4 3 4 2 o 82.8204 76.9498 34.91 1.73524
3 3 1 8 1 o 247.4334 245.1629 38.50 1.73205
4 2 3 8 1 o 1015.5091 1051.1562 216.12 1.72917
-2 3 1 4 2 o 97.5873 97.7347 325.22 1.72903
1 8 0 4 2 o 270.9488 278.2063 354.05 1.72203
6 2 2 8 1 o 419.0651 438.3495 194.81 1.72109
2 4 1 4 2 o 616.2111 629.0677 284.91 1.71764
7 2 1 8 1 o 160.3839 157.5453 37.66 1.70591
0 3 2 4 1 o 1031.6915 1012.4550 223.98 1.70527
2 0 2 2 2 o 94.4579 90.5737 180.05 1.70088
-1 0 3 2 2 o 0.0584 0.0558 359.82 1.69935
4 3 0 4 1 o 163.8531 155.2766 180.06 1.69906
1 3 3 4 2 o 26.5976 25.3895 195.18 1.69872
-1 6 2 4 2 o 32.2249 30.6524 320.21 1.69662
1 3 2 8 1 o 586.9832 564.6757 293.84 1.69508
2 1 2 4 2 o 166.3336 153.9059 344.12 1.69046
-1 1 3 4 2 o 49.0748 44.9900 3.25 1.68895
4 1 4 8 1 o 364.3235 323.7870 249.67 1.68357
1 8 1 4 2 o 24.6044 25.3250 252.61 1.66633
8 1 2 8 1 o 206.6584 222.1658 226.07 1.66584
2 3 2 8 1 o 126.2242 136.2960 322.36 1.66557
2 5 0 4 2 o 63.3699 66.8082 333.42 1.66461
4 3 1 8 1 o 389.8705 448.9330 7.02 1.66123
2 2 2 4 2 o 616.5214 676.9089 161.36 1.66029
-1 2 3 4 2 o 1.9990 2.2084 126.90 1.65886
-2 4 1 4 2 o 943.0945 1043.5962 225.19 1.65648
9 1 0 4 1 o 23.3155 25.4582 180.04 1.65064
0 5 3 4 2 o 70.8948 65.9426 169.12 1.64265
5 2 3 8 1 o 106.5361 94.1322 164.76 1.64007
-1 8 1 4 2 o 0.9784 0.8913 275.04 1.63760
0 9 1 4 2 o 94.5489 88.3425 303.16 1.63139
1 4 3 4 2 o 8.2620 7.8116 182.99 1.62978
2 5 1 4 2 o 18.2886 17.5559 122.81 1.62770
1 7 2 4 2 o 175.0316 168.1928 232.47 1.62755
7 1 3 8 1 o 214.4173 210.6854 0.83 1.62661
0 2 4 4 1 o 1548.6140 1559.0405 105.66 1.62263
3 3 2 8 1 o 32.4394 32.8613 26.12 1.61964
9 1 1 8 1 o 135.2228 138.4106 199.81 1.61589
5 3 0 4 1 o 20.5055 20.7208 179.97 1.61432
1 2 4 8 1 o 1121.8204 1127.3337 231.07 1.61384
2 3 2 4 2 o 705.9943 690.9033 11.13 1.61342
-1 3 3 4 2 o 14.3605 13.9330 231.10 1.61211
8 2 0 4 1 o 70.9686 65.2231 0.03 1.60154
5 1 4 8 1 o 631.7565 578.3651 201.86 1.60101
0 8 2 4 2 o 141.4322 123.6662 146.33 1.59939
7 2 2 8 1 o 134.5197 114.6973 239.77 1.59820
2 2 4 8 1 o 1038.8707 887.2471 18.32 1.58832
-2 0 2 2 2 o 0.0008 0.0007 178.56 1.58781
5 3 1 8 1 o 826.8614 726.1812 183.27 1.58176
-2 1 2 4 2 o 25.8057 22.2715 295.62 1.57932
-2 5 1 4 2 o 100.2620 87.1110 284.77 1.57537
-1 7 2 4 2 o 45.2673 39.3582 88.11 1.57524
6 0 4 4 1 o 162.0366 142.8597 66.88 1.57207
8 2 1 8 1 o 281.0908 262.5095 237.25 1.56974
2 6 0 4 2 o 16.6563 15.6663 72.88 1.56568
8 0 3 4 1 o 583.8346 558.1700 75.73 1.56358
1 9 0 4 2 o 296.2634 280.4042 208.02 1.56187
4 3 2 8 1 o 18.8241 17.8136 207.73 1.56129
-2 2 2 4 2 o 66.3015 64.2395 87.86 1.55464
2 4 2 4 2 o 68.0378 66.0584 0.66 1.55400
10 0 0 2 1 o 32.7614 33.1452 180.07 1.55286
-1 4 3 4 2 o 0.3993 0.3887 25.57 1.55283
1 5 3 4 2 o 0.3080 0.3000 123.74 1.55235
2 0 5 4 1 o 143.4833 146.0686 296.71 1.55126
3 2 4 8 1 o 363.2885 361.5795 114.42 1.54834
6 2 3 8 1 o 475.4146 470.1135 291.88 1.54786
0 6 3 4 2 o 316.2439 301.4310 11.57 1.54737
2 6 1 4 2 o 84.0485 70.4500 191.43 1.53485
0 10 0 2 2 o 87.1862 70.5122 114.31 1.52907
1 3 3 8 1 o 25.9636 20.7201 17.64 1.52886
6 3 0 4 1 o 654.7489 520.6749 0.05 1.52615
10 0 1 4 1 o 23.6741 17.6950 48.10 1.52382
9 1 2 8 1 o 63.2739 47.0345 61.05 1.52347
1 9 1 4 2 o 55.0625 43.1964 58.24 1.51994
1 1 5 8 1 o 87.0878 67.1264 47.10 1.51754
-2 3 2 4 2 o 84.2077 68.3854 248.33 1.51595
6 1 4 8 1 o 94.5985 77.3540 47.09 1.51490
8 1 3 8 1 o 363.1949 364.9007 150.32 1.50730
2 3 3 8 1 o 42.9725 43.3742 113.10 1.50710
1 8 2 4 2 o 77.6342 74.5175 248.84 1.50471
6 3 1 8 1 o 38.0510 39.7500 304.26 1.49856
-1 9 1 4 2 o 34.9862 36.1881 150.58 1.49805
10 1 0 4 1 o 40.4523 42.9153 180.08 1.49769
4 2 4 8 1 o 82.5488 88.5436 230.16 1.49712
2 1 5 8 1 o 144.4729 157.5706 263.56 1.49626
5 3 2 8 1 o 149.9314 169.1009 317.19 1.49477
-2 6 1 4 2 o 38.0865 42.7410 246.66 1.49074
2 5 2 4 2 o 187.3946 216.4854 19.47 1.48644
-1 5 3 4 2 o 75.3889 87.8490 319.91 1.48542
8 2 2 8 1 o 71.6532 85.0235 214.37 1.48461
0 10 1 4 2 o 11.0368 14.0205 310.92 1.47925
