#------------------------------------------------------------------------------
#$Date: 2017-07-20 09:10:07 +0300 (Thu, 20 Jul 2017) $
#$Revision: 198841 $
#$URL: file:///home/coder/svn-repositories/cod/cif/1/54/65/1546555.cif $
#------------------------------------------------------------------------------
#
# This file is available in the Crystallography Open Database (COD),
# http://www.crystallography.net/. The original data for this entry
# were provided by IUCr Journals, http://journals.iucr.org/.
#
# The file may be used within the scientific community so long as
# proper attribution is given to the journal article from which the
# data were obtained.
#
data_1546555
loop_
_publ_author_name
'Eyer, Lukas N.'
'McAdam, C. John'
'Simpson, Jim'
_publ_section_title
;
 2-(Ethoxycarbonothioylthio)propanoic acid
;
_journal_coeditor_code           HG4023
_journal_issue                   7
_journal_name_full               IUCrData
_journal_page_first              x171035
_journal_paper_doi               10.1107/S2414314617010355
_journal_volume                  2
_journal_year                    2017
_chemical_formula_iupac          'C6 H10 O3 S2'
_chemical_formula_moiety         'C6 H10 O3 S2'
_chemical_formula_sum            'C6 H10 O3 S2'
_chemical_formula_weight         194.26
_chemical_name_systematic
;
2-(Ethoxycarbonothioylthio)propanoic acid
;
_space_group_crystal_system      triclinic
_space_group_IT_number           2
_space_group_name_Hall           '-P 1'
_space_group_name_H-M_alt        'P -1'
_symmetry_space_group_name_Hall  '-P 1'
_symmetry_space_group_name_H-M   'P -1'
_atom_sites_solution_hydrogens   mixed
_audit_creation_method           SHELXL-2014/7
_cell_angle_alpha                67.300(4)
_cell_angle_beta                 85.900(4)
_cell_angle_gamma                74.068(4)
_cell_formula_units_Z            2
_cell_length_a                   7.4093(4)
_cell_length_b                   7.9779(3)
_cell_length_c                   8.6250(3)
_cell_measurement_reflns_used    4826
_cell_measurement_temperature    100(2)
_cell_measurement_theta_max      75.2900
_cell_measurement_theta_min      5.5370
_cell_volume                     451.93(4)
_computing_cell_refinement
;
CrysAlis PRO (Agilent, 2014)
;
_computing_data_collection
;
CrysAlis PRO (Agilent, 2014)
;
_computing_data_reduction
;
CrysAlis PRO (Agilent, 2014)
;
_computing_molecular_graphics
;
Mercury (Macrae <i>et al.</i>, 2008)
;
_computing_publication_material
;
SHELXL2014 (Sheldrick, 2015b), enCIFer (Allen <i>et al.</i>,
2004),
PLATON (Spek, 2009), publCIF (Westrip, 2010) and WinGX
(Farrugia, 2012)
;
_computing_structure_refinement
;
SHELXL2014 (Sheldrick, 2015b) and TITAN (Hunter & Simpson, 1999)
;
_computing_structure_solution
;
SHELXT (Sheldrick, 2015a)
;
_diffrn_ambient_temperature      100(2)
_diffrn_detector_area_resol_mean 5.1725
_diffrn_measured_fraction_theta_full 1.000
_diffrn_measured_fraction_theta_max 0.989
_diffrn_measurement_device_type
'Agilent SuperNova Dual Source diffractometer with an Atlas detector'
_diffrn_measurement_method       '\w scans'
_diffrn_radiation_source         'SuperNova (Cu) X-ray Source'
_diffrn_radiation_type           CuK\a
_diffrn_radiation_wavelength     1.54184
_diffrn_reflns_av_R_equivalents  0.0639
_diffrn_reflns_limit_h_max       9
_diffrn_reflns_limit_h_min       -9
_diffrn_reflns_limit_k_max       10
_diffrn_reflns_limit_k_min       -9
_diffrn_reflns_limit_l_max       10
_diffrn_reflns_limit_l_min       -10
_diffrn_reflns_number            6643
_diffrn_reflns_theta_full        67.684
_diffrn_reflns_theta_max         76.284
_diffrn_reflns_theta_min         5.564
_diffrn_standards_number         0
_exptl_absorpt_coefficient_mu    5.044
_exptl_absorpt_correction_T_max  1.00000
_exptl_absorpt_correction_T_min  0.63712
_exptl_absorpt_correction_type   multi-scan
_exptl_absorpt_process_details
;
(CrysAlis PRO; Agilent, 2014)
;
_exptl_crystal_colour            colourless
_exptl_crystal_density_diffrn    1.428
_exptl_crystal_density_method    'not measured'
_exptl_crystal_description       'rectangular block'
_exptl_crystal_F_000             204
_exptl_crystal_size_max          0.30
_exptl_crystal_size_mid          0.13
_exptl_crystal_size_min          0.10
_refine_diff_density_max         0.619
_refine_diff_density_min         -0.604
_refine_ls_extinction_method     none
_refine_ls_goodness_of_fit_ref   1.064
_refine_ls_hydrogen_treatment    mixed
_refine_ls_matrix_type           full
_refine_ls_number_parameters     115
_refine_ls_number_reflns         1875
_refine_ls_number_restraints     7
_refine_ls_restrained_S_all      1.097
_refine_ls_R_factor_all          0.0485
_refine_ls_R_factor_gt           0.0467
_refine_ls_shift/su_max          0.000
_refine_ls_shift/su_mean         0.000
_refine_ls_structure_factor_coef Fsqd
_refine_ls_weighting_details
'w=1/[\s^2^(Fo^2^)+(0.0828P)^2^+0.2987P] where P=(Fo^2^+2Fc^2^)/3'
_refine_ls_weighting_scheme      calc
_refine_ls_wR_factor_gt          0.1253
_refine_ls_wR_factor_ref         0.1280
_reflns_number_gt                1766
_reflns_number_total             1875
_reflns_threshold_expression     'I > 2\s(I)'
_cod_data_source_file            hg4023sup1.cif
_cod_data_source_block           I
_cod_database_code               1546555
_shelx_space_group_comment
;
The symmetry employed for this shelxl refinement is uniquely defined
by the following loop, which should always be used as a source of
symmetry information in preference to the above space-group names.
They are only intended as comments.
;
_shelx_estimated_absorpt_t_min   0.313
_shelx_estimated_absorpt_t_max   0.632
_shelx_hkl_file
;
   0   0  -1 2177.36 68.5112  29
   0   0   1 2271.30 87.0212  26
   0   0  -1 2346.57 176.470   2
   0   0   1 2075.04 69.2387  30
   0   0   1 1947.11 95.2909  27
   0   0  -1 1929.51 100.107   1
   0   0   2 190212. 931.404  30
   0   0  -2 197249. 1471.49   1
   0   0  -2 189923. 810.666  31
   0   0  -2 203066. 1010.07  29
   0   0   2 199175. 1306.50  27
   0   0  -3 76955.3 1191.81   1
   0   0   3 79390.3 739.604  30
   0   0  -3 78209.1 706.293  31
   0   0  -3 83700.7 935.133  29
   0   0   3 81611.4 1000.14  27
   0   0  -4 28.3188 64.7808   1
   0   0  -4 65.5242 48.7666  29
   0   0   4 45.4347 44.0438  26
   0   0   4 37.3243 49.1142  27
   0   0  -5 74295.5 1462.09  29
   0   0   5 72658.0 1193.49  26
   0   0   5 69686.5 1157.95  27
   0   0   6 83812.0 1504.38  26
   0   0  -6 80198.5 1914.83   1
   0   0  -6 80768.9 1607.56  13
   0   0   6 83746.9 1363.42  27
   0   0  -7 9527.25 496.863  32
   0   0  -7 9640.36 567.178  13
   0   0  -8 20499.2 670.320  32
   0   0  -8 20039.7 745.604  13
   0   0  -9 9083.25 396.790  13
   0   0  -9 8519.82 985.207   9
   0   0 -10 222.091 113.169   9
   0  -1   9 456.722 72.4269  33
   0   1  -9 615.601 89.9569  13
   0   1  -9 790.712 278.173   9
   0   1  -9 621.544 85.5777  14
   0   1  -8 150.896 65.0792  13
   0   1  -8-194.823 259.709   9
   0   1  -7 1224.74 178.062  32
   0   1  -7 1293.98 210.268  13
   0   1  -6 1214.83 212.144  13
   0  -1   6 1242.38 183.618  27
   0   1  -6 1195.51 242.012   1
   0  -1   6 1073.21 165.795  26
   0   1  -6 1099.99 168.270  32
   0  -1   5 237162. 2295.60  27
   0   1  -5 233913. 2996.77   1
   0  -1   4 1412.16 172.845  27
   0   1  -4 1215.13 193.441   1
   0  -1   4 1196.16 157.189  26
   0   1  -3 16722.8 585.712   1
   0  -1   3 17010.6 444.801  26
   0   1  -2 411560. 3570.61   2
   0  -1   2 417151. 1656.17  26
   0   1  -1 11711.6 270.895   1
   0   1  -1 11013.0 468.278   2
   0   1   0 245364. 1250.12   2
   0   1   1 85950.3 635.557  30
   0  -1  -1 84959.0 458.457  29
   0   1   1 84525.8 426.051  27
   0   1   2 172.184 41.9246  30
   0   1   2 182.358 44.4761  26
   0  -1  -2 203.018 62.2222   1
   0  -1  -2 198.507 37.4863  31
   0  -1  -2 218.565 33.7101  29
   0   1   2 252.893 37.9147  27
   0  -1  -3 299467. 2289.75   1
   0  -1  -3 313998. 1457.05  29
   0   1   3 293114. 1690.72  30
   0  -1  -3 293507. 1226.48  31
   0   1   3 303100. 1586.14  27
   0   1   3 319821. 1859.60  26
   0  -1  -4 93183.1 1047.84  29
   0  -1  -4 92350.0 1527.77   1
   0  -1  -4 101660. 883.047  31
   0   1   4 101241. 1239.86  26
   0   1   4 100662. 1101.72  27
   0  -1  -5 2828.24 315.575   1
   0  -1  -5 2652.87 232.581  29
   0   1   5 3134.03 218.922  27
   0  -1  -6 103.245 68.5961  29
   0   1   6 501.573 127.950  26
   0   1   6 363.522 92.8885  27
   0  -1  -6 345.626 150.987   1
   0  -1  -7 273.093 115.075  13
   0   1   7-57.5539 57.7353  26
   0   1   7 131.705 63.1660  23
   0   1   7 293.371 86.8501  27
   0  -1  -7 281.475 94.2666  32
   0   1   7 298.782 118.107  20
   0  -1  -7 114.377 103.626  21
   0  -1  -7 70.4024 97.1702   1
   0   1   8 19448.8 752.046  20
   0  -1  -8 19249.1 693.723  32
   0  -1  -8 17802.4 986.547  21
   0  -1  -8 19519.8 751.609  13
   0   1   8 18456.2 599.111  23
   0  -1  -9 50386.8 958.791  32
   0  -1  -9 48127.0 969.121  13
   0  -1 -10 1224.36 122.661  14
   0  -1 -10 1360.96 104.850  13
   0  -1 -10 1022.60 283.681   9
   0   2  -8 421.667 253.899   9
   0   2  -8 602.618 105.575  13
   0   2  -8 554.775 91.9092  14
   0   2  -7 62804.6 1187.21  14
   0   2  -7 65366.3 1334.75  13
   0   2  -7 63300.9 3229.71   9
   0   2  -6 237.967 341.432   9
   0   2  -6 296.936 180.617   8
   0   2  -6 168.812 81.9609  32
   0   2  -6 124.831 100.239  13
   0  -2   5 35276.2 897.067  26
   0  -2   5 34724.3 951.121  27
   0   2  -5 42492.5 1164.78  13
   0   2  -5 37337.6 1201.52   1
   0   2  -5 39641.7 2007.05  18
   0  -2   4 3211.45 266.578  26
   0   2  -4 3717.37 340.242   1
   0  -2   4 3423.64 290.468  27
   0  -2   3 120607. 1201.64  26
   0   2  -3 113440. 1600.68   1
   0   2  -2 152258. 1511.35   1
   0  -2   2 154986. 1222.06  26
   0  -2   2 150633. 893.898  31
   0  -2   1 43585.9 631.015  26
   0   2  -1 39586.9 2246.85   3
   0   2  -1 41360.9 579.489   1
   0   2  -1 16813.8 1327.13   4
   0   2  -1 24494.2 1690.77   5
   0   2  -1 39102.8 1037.45   2
   0  -2   0 19904.4 259.393  29
   0   2   0 19996.2 559.119   2
   0  -2  -1 1706.05 121.913  31
   0   2   1 1754.35 116.714  30
   0  -2  -1 1560.86 79.7616  29
   0  -2  -1 1482.94 59.5244   1
   0   2   2 40293.0 637.550  30
   0  -2  -2 39137.1 636.847   1
   0  -2  -2 37289.8 443.294  29
   0   2   2 36543.1 460.379  27
   0  -2  -2 37213.3 562.601  31
   0   2   3 2100.00 171.631  30
   0  -2  -3 2278.37 138.743  31
   0  -2  -3 2346.26 130.962  29
   0   2   3 2341.76 128.183  27
   0   2   3 2212.38 193.521  26
   0  -2  -3 2160.60 199.805   1
   0   2   4 188816. 1354.82  27
   0  -2  -4 185824. 1379.90  29
   0  -2  -4 181762. 1256.69  31
   0  -2  -4 184998. 2140.00   1
   0   2   4 183531. 1704.63  30
   0   2   5 4432.20 245.469  27
   0  -2  -5 4272.02 384.261   1
   0  -2  -5 4381.51 221.779  31
   0  -2  -5 4254.25 263.266  29
   0   2   5 4635.77 358.777  26
   0  -2  -6 68561.6 1730.68   1
   0   2   6 69796.3 1560.98  26
   0  -2  -6 70706.4 1345.06  29
   0   2   7 12825.4 538.566  23
   0   2   7 12550.2 638.520  20
   0  -2  -7 10591.4 556.864  13
   0   2   7 12122.4 519.131  27
   0  -2  -7 12415.9 792.658  21
   0  -2  -7 11715.5 783.924   1
   0   2   7 11101.4 683.325  26
   0   2   7 12182.5 492.670  11
   0  -2  -7 12089.1 568.264  32
   0  -2  -7 11372.8 683.611  29
   0  -2  -8 4238.82 337.932  13
   0  -2  -8 3602.21 436.885  21
   0  -2  -8 4148.68 333.307  32
   0   2   8 4363.09 388.890  20
   0   2   8 4101.94 303.818  23
   0  -2  -9 5267.03 320.816  13
   0   2   9 4748.12 359.542  20
   0  -2  -9 5543.67 345.599  32
   0   2   9 4889.24 287.471  23
   0   2  10 4779.79 252.311  20
   0  -2 -10 5761.47 268.662  32
   0   3  -8 6645.18 238.748  13
   0   3  -8 6964.38 633.371   9
   0   3  -7 24249.5 676.561  13
   0   3  -7 24496.8 1733.01   9
   0   3  -6 28040.6 1491.48  18
   0   3  -6 25640.3 839.042  13
   0   3  -5 560.783 143.898  13
   0   3  -5 927.315 276.380   8
   0   3  -5 414.341 259.038  18
   0   3  -5 771.416 442.502   9
   0   3  -4 18061.8 1405.30  18
   0  -3   4 14860.5 630.894  27
   0   3  -4 20026.2 1891.47   9
   0   3  -4 22852.9 1372.35   8
   0   3  -4 19011.7 735.504  13
   0  -3   4 13046.0 564.668  26
   0  -3   3 15892.3 633.094  27
   0  -3   3 19402.1 520.981  26
   0   3  -2 80.4989 289.606   4
   0  -3   2 2584.33 178.982  26
   0   3  -1 112501. 4584.25   3
   0  -3   1 119204. 1251.66  26
   0  -3   1 121215. 1180.09  31
   0   3  -1 73195.8 3698.80   5
   0   3  -1 114471. 2017.54   2
   0   3  -1 55412.6 2949.66   4
   0  -3   0 25909.2 348.632  29
   0  -3   0 25633.4 565.924  31
   0   3   1 93423.8 1116.63   2
   0  -3  -1 93010.0 707.453  29
   0  -3  -2 154238. 1408.98  31
   0  -3  -2 153093. 1005.57  29
   0   3   3 72674.8 917.397  27
   0  -3  -3 75460.2 978.262  31
   0  -3  -3 73091.6 792.828  29
   0  -3  -3 74548.2 1104.94   1
   0  -3  -4 20110.4 709.750   1
   0   3   4 20523.7 499.606  27
   0  -3  -4 21264.5 516.781  31
   0  -3  -4 21354.8 483.710  29
   0   3   5 39905.0 780.207  27
   0  -3  -5 36458.2 695.783  31
   0  -3  -5 38145.0 1139.91   1
   0  -3  -5 37409.3 784.140  29
   0  -3  -6 18114.4 658.046  29
   0  -3  -6 19581.4 925.910   1
   0  -3  -7 25652.3 1147.12   1
   0   3   7 26817.6 794.814  23
   0   3   7 27389.2 770.489  11
   0  -3  -7 23954.7 927.577  29
   0   3   7 26612.1 963.021  20
   0  -3  -7 26637.1 837.978  32
   0  -3  -8 24422.7 1096.58  21
   0   3   8 24135.2 947.143  20
   0  -3  -8 24554.0 803.666  32
   0   3   8 23601.8 742.988  23
   0   3   9 27482.8 922.937  20
   0   3   9 27274.8 724.620  23
   0  -3  -9 26558.2 757.429  32
   0  -3 -10 14220.3 439.740  32
   0   3  10 13009.1 496.877  20
   0   4  -7 2654.16 146.614  13
   0   4  -7 3463.04 492.023   9
   0   4  -6 836.420 408.675   9
   0   4  -6 819.867 235.098  18
   0   4  -6 887.887 128.404  13
   0   4  -5 384.378 225.513  18
   0   4  -5-21.2981 308.010   9
   0   4  -5 222.908 147.740   8
   0   4  -5 215.779 83.8776  13
   0   4  -4 13842.2 1238.92  18
   0   4  -4 18906.4 2290.71  19
   0   4  -4 16437.6 1217.31   8
   0   4  -4 12769.8 571.977  13
   0   4  -4 11401.9 1473.63   9
   0   4  -3 102208. 3352.81  18
   0   4  -3 106909. 4241.65   9
   0   4  -3 112075. 3189.53   8
   0   4  -3 144211. 6010.01  19
   0   4  -3 155328. 7418.73  25
   0  -4   2 4627.92 350.600  27
   0  -4   2 5077.20 278.031  26
   0   4  -1 13259.9 1907.47   3
   0  -4   1 12475.4 439.103  26
   0   4   0 3662.68 937.947   3
   0   4   0 2500.93 821.963   5
   0  -4   0 4974.65 287.528  31
   0  -4  -1 16821.4 539.391  31
   0  -4  -1 16478.6 337.842  29
   0  -4  -2 24875.0 460.098  29
   0  -4  -2 24334.4 656.605  31
   0  -4  -3 140526. 1232.03  29
   0  -4  -3 148120. 1629.44  31
   0  -4  -4 119085. 1252.18  29
   0  -4  -4 116796. 1404.77  31
   0  -4  -5 56551.4 1326.45   1
   0  -4  -5 53356.0 957.637  29
   0  -4  -5 53669.6 961.612  31
   0  -4  -6 89979.2 1930.73   1
   0  -4  -6 82222.1 1404.42  29
   0   4   6 95801.5 1754.32  20
   0   4   6 92533.4 1394.15  11
   0   4   6 88869.8 1372.63  23
   0  -4  -6 84955.8 1301.95  31
   0   4   6 96042.5 1772.95  10
   0   4   7 338.184 132.803  20
   0   4   7 264.164 82.4325  11
   0   4   7 447.899 155.763  10
   0   4   7 336.038 96.8676  24
   0   4   7 357.631 105.145  23
   0  -4  -7 464.540 133.208  29
   0  -4  -7 233.426 75.2262  32
   0  -4  -7 612.956 169.577   1
   0   4   8 21802.3 602.254  24
   0   4   8 22390.0 928.927  20
   0  -4  -8 21510.6 737.561  32
   0  -4  -8 22698.5 1052.09  21
   0   4   8 21686.5 715.048  23
   0   4   9 253.616 103.445  20
   0   4   9 317.977 86.7239  23
   0  -4  -9 188.954 72.5280  32
   0  -4  -9 118.596 96.7891  21
   0   4  10 28252.3 598.621  23
   0   4  10 28183.3 769.258  20
   0  -4 -10 26952.2 594.302  32
   0   5  -6 2984.25 447.153   9
   0   5  -6 3347.77 291.892  18
   0   5  -5 18787.7 1087.01  18
   0   5  -5 15761.6 1362.43   9
   0   5  -4 550.620 298.742   9
   0   5  -4 1203.14 330.769   8
   0   5  -4 741.144 291.058  18
   0   5  -3-35.1460 138.080  18
   0   5  -3-9.82109 375.583   9
   0   5  -3-28.1495 323.647  22
   0   5  -3 127.512 360.545  19
   0   5  -3 133.695 164.615   8
   0   5  -2 35805.5 1955.91  18
   0   5  -2 36745.7 1835.14   8
   0   5  -2 36377.9 2259.23  22
   0   5  -2 38862.3 3362.65  19
   0   5  -2 34507.5 2386.19   9
   0   5  -1 27931.0 1530.11   8
   0   5  -1 28039.0 2013.76  22
   0   5  -1 30143.2 2068.77   9
   0   5  -1 28424.1 1647.73  18
   0   5  -1 31983.4 2902.50  19
   0   5   0 23430.1 2740.25   3
   0  -5   0 26555.9 773.256  26
   0  -5  -1 64653.4 1185.74  31
   0  -5  -2 36420.2 905.241  31
   0   5   2 23264.2 2529.23   3
   0  -5  -3 272.525 64.2800  29
   0  -5  -3 27.0240 46.7939  31
   0  -5  -4 8227.41 427.931  31
   0  -5  -4 8639.54 371.844  29
   0  -5  -5 61225.8 1174.33  31
   0  -5  -5 57361.5 1125.42  29
   0  -5  -6 87743.7 1542.29  29
   0   5   6 93836.9 1831.27  20
   0  -5  -6 90159.3 1465.30  31
   0   5   6 92512.1 1392.55  23
   0   5   6 99186.9 1483.86  11
   0   5   6 107126. 1896.22  10
   0   5   6 104073. 1603.10  24
   0  -5  -7 897.490 149.301  32
   0   5   7 942.366 153.694  24
   0   5   7 776.686 186.327  10
   0   5   7 798.169 183.442  20
   0   5   7 807.341 141.421  23
   0   5   7 957.339 161.588  11
   0   5   8 14629.7 568.870  23
   0   5   8 15534.7 531.540  24
   0   5   8 14569.6 742.236  20
   0  -5  -8 14210.0 575.191  32
   0  -5  -9 13460.5 487.852  32
   0   5   9 15245.2 699.199  20
   0  -5  -9 14350.1 741.017  21
   0   5   9 14692.5 418.346  24
   0   5   9 14791.8 517.832  23
   0   5  10 84.9983 37.6859  12
   0  -5 -10 82.3350 36.3842  32
   0  -5 -10 75.7940 66.7294  21
   0   5  10 48.9083 43.1349  20
   0   6  -5 12109.2 786.745   9
   0   6  -4 20422.7 1048.46  18
   0   6  -4 17689.3 1338.19   9
   0   6  -3 5098.09 876.560   9
   0   6  -3 7220.41 744.700   8
   0   6  -3 5960.44 708.114  18
   0   6  -3 5382.31 1025.35  22
   0   6  -2 6955.69 1503.58  19
   0   6  -2 5795.57 995.622   9
   0   6  -2 6376.37 802.896  18
   0   6  -2 6148.94 921.397  22
   0   6  -2 7513.44 800.105   8
   0   6  -1 997.442 450.792   9
   0   6  -1 242.232 304.347  22
   0   6  -1 304.345 245.022   8
   0   6  -1-216.325 476.764  19
   0   6  -1 584.663 277.649  18
   0   6   0 5331.14 1453.79   3
   0   6   0 4519.29 1174.77  19
   0   6   0 5156.15 964.700  22
   0   6   0 4359.25 516.396   6
   0   6   0 5321.26 699.344  18
   0   6   0 5283.86 649.944   8
   0   6   0 6631.01 1001.49   9
   0   6   1 89608.7 3907.50  22
   0   6   1 79612.2 2319.73   6
   0  -6  -1 70758.6 1318.78  31
   0   6   1 90844.7 4825.99  19
   0   6   1 106810. 6662.09  16
   0   6   1 93854.3 3396.90   9
   0   6   1 94650.6 2532.47  18
   0   6   2 7902.50 499.652  10
   0  -6  -2 6913.12 433.889  31
   0   6   2 9216.03 1251.81  22
   0   6   2 8015.80 784.821   6
   0   6   3 10097.2 1922.23   3
   0   6   3 26565.3 1710.08   9
   0   6   3 20060.8 1760.69  22
   0   6   3 18427.7 744.544  10
   0   6   3 17900.0 1205.66   6
   0   6   3 15577.5 605.851  24
   0  -6  -3 16061.9 669.946  31
   0  -6  -4 18136.4 713.344  31
   0   6   4 18442.8 688.218  24
   0   6   4 21714.0 815.430  10
   0   6   4 22164.0 1332.14   6
   0   6   5 1642.33 371.283   6
   0   6   5 1615.72 215.076  24
   0  -6  -5 1240.69 181.145  29
   0   6   5 1742.83 185.455  11
   0   6   5 1939.50 274.042  10
   0  -6  -5 1408.21 204.877  31
   0   6   6 3541.05 305.040  24
   0   6   6 3619.04 387.376  10
   0   6   6 4141.36 544.622   6
   0   6   6 3241.67 345.611  20
   0   6   6 3027.13 262.998  11
   0   6   7 2344.51 294.861  20
   0   6   7 2373.94 318.565  10
   0   6   7 2500.37 245.760  24
   0   6   7 2399.32 217.254  23
   0  -6  -8 3525.10 448.514  21
   0   6   8 2821.08 229.327  23
   0   6   8 3184.46 331.202  20
   0   6   8 3471.99 252.192  24
   0   6   8 2484.56 309.958  10
   0  -6  -9 42370.0 1187.23  21
   0   6   9 42514.8 785.155  23
   0   6   9 43718.9 1092.21  20
   0   6   9 43920.0 722.123  24
   0  -6 -10 21.0681 44.4451  21
   0   6  10 44.0378 25.9282  12
   0   6  10 91.2482 53.3389  20
   0   7  -3 795.625 262.733   9
   0   7  -3 972.264 218.362  18
   0   7  -2 23172.6 1567.87   9
   0   7  -2 19846.6 1504.51  22
   0   7  -1 30946.5 2044.57  22
   0   7  -1 36782.3 1558.93   8
   0   7  -1 34119.4 3047.40  19
   0   7  -1 31495.0 1976.09   9
   0   7  -1 34524.8 1602.86  18
   0   7   0 4567.23 856.837  22
   0   7   0 5659.16 604.992   8
   0   7   0 5041.54 609.838  18
   0   7   0 4096.46 771.543   9
   0   7   0 4796.18 1222.76  19
   0   7   0 3827.56 422.416   6
   0   7   1 1084.54 387.283   9
   0   7   1 412.042 400.079  19
   0   7   1 1204.04 438.502  22
   0   7   1 1438.58 320.561  18
   0   7   1 824.130 223.095   6
   0   7   2 16739.4 1121.57   6
   0   7   2 19754.6 2182.84  19
   0   7   2 19619.0 1836.10  22
   0   7   2 17012.5 713.057  10
   0   7   3-184.955 382.583   9
   0   7   3 261.775 173.101   6
   0   7   3 217.363 266.249  22
   0   7   3 19.7535 47.7167  24
   0   7   3 52.7648 173.382  10
   0   7   4 36761.6 1744.42   6
   0   7   4 33923.9 901.825  24
   0   7   4 37219.6 1072.34  10
   0   7   5 2473.21 454.109   6
   0   7   5 2612.38 336.538  10
   0   7   5 2028.62 228.512  24
   0   7   6 2169.89 345.726  10
   0   7   6 1753.08 352.876   6
   0   7   6 1904.09 219.979  24
   0   7   7 31009.2 1032.11  10
   0   7   7 32938.8 832.443  24
   0  -7  -8 4959.90 498.372  21
   0   7   8 3636.18 310.451  20
   0   7   8 4407.83 264.522  24
   0  -7  -9 8194.05 466.839  21
   0   7   9 7988.97 386.742  20
   0   7   9 8525.49 292.233  24
   0   8  -2 1108.72 226.709   9
   0   8  -1 1418.82 616.909  22
   0   8  -1 1454.86 331.767   9
   0   8   0 1446.83 846.054  22
   0   8   0 1790.96 418.075   9
   0   8   1 8062.89 565.536   6
   0   8   1 9082.87 1176.74  22
   0   8   2 53251.5 2691.16  22
   0   8   2 45704.6 1540.43   6
   0   8   3 1080.01 278.950   6
   0   8   3 1909.47 625.888  22
   0   8   4 309.485 161.649   6
   0   8   4 525.258 517.806  22
   0   8   4 276.788 186.924  10
   0   8   4 295.053 72.4964  24
   0   8   5 89.4750 49.3050  24
   0   8   5-40.8878 203.413  10
   0   8   5-48.0760 107.255   6
   0   8   6 297.562 74.7296  12
   0   8   6 468.695 176.183   6
   0   8   6 360.410 82.0989  24
   0   8   6 346.869 158.396  10
   0   8   7 31073.8 716.056  12
   0   8   7 36494.8 1045.09   6
   0   8   7 29056.6 851.961  10
   0   8   7 35337.2 729.164  24
   0   8   8 8326.04 303.876  24
   0  -8  -8 8824.69 507.923  21
   0   9   1 2684.37 504.358  22
   0   9   2 17766.7 1228.84  22
   0   9   2 13981.5 579.727   6
   0   9   3 1102.37 533.411  22
   0   9   3 1334.64 230.035   6
   0   9   4 480.691 151.433   6
   0   9   5 28397.8 976.593   6
   0   9   6 262.528 125.479   6
   0   9   6 160.454 39.0844  24
   0   9   7 261.609 45.1454  24
  -1   9   5 2480.31 261.649   6
  -1   9   4 1316.67 201.499   6
  -1   9   3 229.313 359.581  22
  -1   9   3 118.288 93.5838   6
  -1   9   2 15313.4 940.153  22
  -1   8   8 1389.87 111.040  12
  -1   8   8 1816.56 125.425  24
   1  -8  -8 1682.42 185.082  21
  -1   8   7 9434.17 449.772  10
  -1   8   7 8939.04 487.428   6
  -1   8   7 10382.5 365.842  24
  -1   8   6 133.775 59.9197  24
  -1   8   6 175.517 156.958  10
  -1   8   6 60.1923 77.5910   6
  -1   8   5 20047.1 728.711  10
  -1   8   5 17919.4 544.774  24
  -1   8   5 21162.8 1106.65   6
  -1   8   4 26194.7 632.377  24
  -1   8   4 30191.5 1745.04  22
  -1   8   4 29343.4 1350.49   6
  -1   8   4 29155.7 858.197  10
  -1   8   3 3634.34 699.859  22
  -1   8   3 3114.04 308.470  10
  -1   8   3 3328.73 453.968   6
  -1   8   2 6545.41 391.783  10
  -1   8   2 6311.47 904.011  22
  -1   8   2 6149.56 546.653   6
  -1   8   1 6170.26 847.842  22
  -1   8   1 4934.49 395.282   6
  -1   8   0 13356.3 1013.87   9
  -1   8   0 9199.72 1023.23  22
  -1   8  -1 9691.49 839.006  22
  -1   8  -1 13795.7 866.931   9
   1  -7  -9 20690.2 578.846  21
  -1   7   9 27657.6 450.342  24
  -1   7   8 471.988 127.033  10
  -1   7   8 577.972 93.1719  24
   1  -7  -8 417.537 185.204  21
  -1   7   7 8962.14 642.821   6
  -1   7   7 10105.2 445.194  24
  -1   7   7 9747.23 560.760  10
  -1   7   6 3644.45 408.605  10
  -1   7   6 3941.42 311.795  24
  -1   7   6 4362.27 567.224   6
  -1   7   5 9965.12 508.243  24
  -1   7   5 10661.5 605.763  10
  -1   7   5 10612.3 950.079   6
  -1   7   4 29002.0 859.712  24
  -1   7   4 32210.9 1677.79   6
  -1   7   4 33698.2 1056.98  10
  -1   7   4 33122.9 2239.09  22
  -1   7   3 60842.7 3263.34  22
  -1   7   3 49941.9 1069.44  24
  -1   7   3 59768.0 1409.01  10
  -1   7   3 54041.3 2143.67   6
  -1   7   3 53417.9 1104.39  17
  -1   7   2 17096.4 1776.62  22
  -1   7   2 15703.1 724.737  10
  -1   7   2 14422.8 1041.94   6
  -1   7   1 14414.8 1582.04  22
  -1   7   1 12661.4 878.394   6
  -1   7   1 13356.8 668.577  10
  -1   7   0 12641.7 1398.76  22
  -1   7   0 11513.1 587.552  10
  -1   7  -1 1367.13 431.664   9
  -1   7  -1 305.571 268.067  22
  -1   7  -2 11606.1 1117.40  22
  -1   7  -2 16074.6 1184.24   9
  -1   7  -3 506.864 191.930   9
  -1   6  10 90.4824 36.4976  20
  -1   6   9 3828.39 293.684  20
  -1   6   9 4052.65 223.824  23
   1  -6  -9 3443.59 293.848  21
   1  -6  -9 3582.90 199.833  32
  -1   6   9 3990.78 198.008  24
   1  -6  -8 11222.1 436.568  32
  -1   6   8 11632.6 585.284  20
  -1   6   8 11175.9 626.008  10
  -1   6   8 12281.7 453.850  23
  -1   6   8 12747.4 463.249  24
  -1   6   7 11958.1 526.372  24
  -1   6   7 11243.2 604.040  20
  -1   6   7 10239.1 439.649  23
  -1   6   7 12083.6 516.631  11
  -1   6   7 12533.9 665.902  10
  -1   6   6 23708.1 723.483  11
  -1   6   6 25880.7 850.255  24
  -1   6   6 27494.2 977.083  10
  -1   6   6 26801.2 1447.92   6
  -1   6   5 33221.5 1717.14   6
  -1   6   5 29580.9 768.581  11
  -1   6   5 35267.0 1081.29  10
  -1   6   5 29389.2 933.819  24
   1  -6  -4 13018.5 617.323  31
  -1   6   4 14748.6 625.116  17
  -1   6   4 13439.5 1109.83   6
  -1   6   4 13393.9 619.209  24
  -1   6   4 12129.1 545.151  15
  -1   6   3 1717.82 218.632  17
  -1   6   3 1917.75 457.475   6
   1  -6  -3 1467.86 202.632  31
  -1   6   3 1775.44 270.336  10
  -1   6   3 1334.73 196.916  24
  -1   6   3 1162.55 666.521   3
  -1   6   3 1209.23 455.967  22
  -1   6   2 2370.36 908.496   3
  -1   6   2 3273.35 545.314   6
  -1   6   2 2699.27 259.338  24
  -1   6   2 3711.79 668.768   9
   1  -6  -2 2586.26 265.622  31
  -1   6   2 2976.76 271.885  17
  -1   6   2 3014.51 338.044  10
  -1   6   2 3133.96 802.581  22
  -1   6   1 56569.6 3756.11  19
  -1   6   1 48070.0 1383.16  10
   1  -6  -1 34969.3 1117.24  26
  -1   6   1 53896.0 3240.85  22
  -1   6   1 62768.2 2049.11  18
  -1   6   1 45052.2 1842.67   6
  -1   6   1 59789.9 2778.17   9
  -1   6   1 35616.1 3830.30   3
  -1   6   0 68867.5 3543.99  22
  -1   6   0 57430.2 1866.91   6
  -1   6   0 62131.7 1615.93  10
  -1   6   0 81851.4 2495.44  18
  -1   6   0 79825.4 3339.28   9
  -1   6   0 78584.5 4722.99  19
  -1   6  -1 1326.85 364.611  18
  -1   6  -1 956.707 219.358  10
  -1   6  -1 906.215 422.959   9
  -1   6  -1 1033.57 491.579  22
  -1   6  -2 14389.8 1442.90   9
  -1   6  -2 11715.5 651.310  10
  -1   6  -2 11928.2 1265.37  22
  -1   6  -3 1137.87 434.922   9
  -1   6  -3 1639.35 588.150  22
  -1   6  -3 1909.85 380.141  18
  -1   6  -4 89.9528 168.519   9
   1  -5 -10 9137.44 290.611  32
  -1   5  10 8954.70 394.184  20
  -1   5   9 3974.11 258.113  23
   1  -5  -9 3026.02 300.065  21
  -1   5   9 3810.54 330.572  20
   1  -5  -9 3578.04 247.636  32
  -1   5   8 838.965 179.278  20
   1  -5  -8 951.946 220.940  21
  -1   5   8 1012.63 208.115  10
  -1   5   8 1136.10 164.106  11
   1  -5  -8 1013.77 157.013  32
  -1   5   8 791.634 134.283  23
  -1   5   8 1014.63 135.970  24
  -1   5   7 3145.01 351.577  10
  -1   5   7 3014.28 271.436  11
   1  -5  -7 3379.40 296.021  32
  -1   5   7 2759.99 254.609  23
  -1   5   7 3005.36 266.507  24
  -1   5   7 2650.22 317.890  20
  -1   5   6 1619.98 211.905  24
  -1   5   6 1119.44 205.614  20
  -1   5   6 1018.09 163.624  11
   1  -5  -6 1114.33 197.571  29
   1  -5  -6 1112.78 172.369  32
  -1   5   6 1104.12 160.217  23
  -1   5   6 1338.19 213.678  10
   1  -5  -6 1131.27 180.732  31
   1  -5  -5 21132.0 725.915  31
  -1   5   5 20852.6 664.715  11
  -1   5   5 24294.4 1371.20   6
  -1   5   5 23041.0 784.261  24
  -1   5   5 26950.5 894.392  10
   1  -5  -5 18617.1 756.821  29
   1  -5  -4 230.850 83.2546  29
   1  -5  -4 179.789 75.3881  31
   1  -5  -3 48279.3 1040.95  31
   1  -5  -2 18364.3 620.332  31
   1  -5  -1 1778.41 186.830  31
  -1   5   1 977.510 682.194   3
  -1   5   0 7137.51 1350.78  19
  -1   5   0 7277.52 739.396  18
  -1   5   0 5196.08 1293.36   3
  -1   5   0 7474.05 1157.76  22
   1  -5   0 4960.70 385.711  26
  -1   5   0 7835.96 1026.89   9
  -1   5  -1 4756.88 1193.14  19
  -1   5  -1 4290.01 597.379   8
   1  -5   1 2377.66 240.789  26
  -1   5  -1 3293.91 412.790  10
  -1   5  -1 3841.87 827.379  22
  -1   5  -1 4280.32 797.337   9
  -1   5  -1 3936.21 583.926  18
  -1   5  -2 7428.94 831.495  18
  -1   5  -2 6365.52 1069.02   9
  -1   5  -2 7048.85 1062.68  22
  -1   5  -2 8958.29 1707.45  19
  -1   5  -2 10162.9 928.075   8
  -1   5  -2 5706.49 537.132  10
  -1   5  -2 6801.52 844.653  21
  -1   5  -3 37460.4 1341.35  10
  -1   5  -3 39741.1 2208.79  22
  -1   5  -3 43484.5 2702.61   9
  -1   5  -4 464.098 147.269  10
  -1   5  -4 445.071 220.306  18
  -1   5  -4 153.924 249.831   9
  -1   5  -5 17379.6 889.103  18
  -1   5  -5 13396.0 1161.02   9
  -1   5  -6 3338.35 386.195   9
  -1   4  10 4138.09 217.493  23
   1  -4 -10 3925.64 219.569  32
  -1   4  10 3561.74 265.585  20
  -1   4   9 44.1987 62.5797  20
  -1   4   9 92.8477 59.5404  23
   1  -4  -9 105.578 56.4527  32
  -1   4   8 20954.3 701.787  23
  -1   4   8 19704.5 847.385  20
   1  -4  -8 20591.9 723.373  32
   1  -4  -8 21334.8 942.553  21
  -1   4   8 21216.4 691.362  11
  -1   4   7 19124.7 687.548  23
   1  -4  -7 19341.0 723.239  32
  -1   4   7 18456.1 825.593  20
  -1   4   7 19237.9 675.842  11
  -1   4   7 19630.8 641.255  24
  -1   4   7 18729.2 850.781  10
   1  -4  -6 208.008 77.0752  32
   1  -4  -6 153.043 81.9563  31
  -1   4   6 206.645 88.3095  10
  -1   4   6 265.588 88.2477  24
  -1   4   6 55.9277 38.1102  23
  -1   4   6 221.931 85.4936  11
   1  -4  -6 108.458 51.8912  29
  -1   4   6 178.126 88.0673  20
   1  -4  -5 3348.95 264.263  31
   1  -4  -5 3379.11 289.244  29
   1  -4  -4 31759.4 759.248  29
   1  -4  -4 34237.4 779.699  31
   1  -4  -3 73.5548 39.9839  29
   1  -4  -3 55.4182 42.3578  31
  -1   4   3 116.737 50.2195   2
   1  -4  -2 25249.2 648.228  31
   1  -4  -2 23636.8 491.306  29
  -1   4   2 26167.6 841.486   2
  -1   4   1 885.337 202.419   2
   1  -4  -1 912.444 121.091  31
   1  -4   0 28509.2 626.874  31
  -1   4   0 23621.8 1113.91   2
  -1   4  -1 34348.7 3190.43   3
   1  -4   1 33620.9 857.376  26
  -1   4  -1 34566.4 1462.65   2
  -1   4  -2 18684.3 2199.66  19
   1  -4   2 10103.8 447.874  26
  -1   4  -2 12347.6 938.376   2
  -1   4  -2 17039.5 1146.44   8
  -1   4  -2 15008.4 1160.61  18
  -1   4  -2 14971.1 1503.35   9
  -1   4  -3 17709.9 1238.84   8
   1  -4   3 8583.19 549.025  27
  -1   4  -3 12087.1 528.864  13
  -1   4  -3 12309.6 1274.58  22
   1  -4   3 8648.19 412.089  26
  -1   4  -3 13929.0 1151.85  18
  -1   4  -3 12083.4 1110.43  21
  -1   4  -3 11947.8 1466.74   9
  -1   4  -4 1131.69 336.634   8
  -1   4  -4 923.567 319.673  18
  -1   4  -4 640.064 416.023   9
  -1   4  -4 771.629 147.050  13
  -1   4  -4 906.178 308.157  21
  -1   4  -5 4626.38 450.761  10
  -1   4  -5 4752.13 886.674   9
  -1   4  -5 4939.46 329.229  13
  -1   4  -5 5479.26 629.397  18
  -1   4  -5 4912.81 629.746  21
  -1   4  -6 34360.6 718.389  13
  -1   4  -6 32278.6 881.788  10
  -1   4  -7 4119.72 454.244   9
  -1   3  10 32180.0 584.600  23
   1  -3 -10 31251.7 629.569  32
  -1   3  10 31085.3 758.973  20
  -1   3   9 84.2509 77.6543  20
  -1   3   9 29.0472 42.1498  23
   1  -3  -9 68.7737 56.8318  32
   1  -3  -8 2113.50 240.699  32
  -1   3   8 2223.38 219.055  11
  -1   3   8 1910.44 267.015  20
  -1   3   8 2112.80 227.095  23
  -1   3   7 6874.90 395.134  11
   1  -3  -7 7181.69 442.455  32
   1  -3  -7 5770.23 531.230  29
  -1   3   7 6903.29 495.114  20
   1  -3  -7 6966.56 594.909   1
  -1   3   7 5859.46 486.119  10
  -1   3   7 7073.66 418.173  23
   1  -3  -7 7747.41 579.196  21
   1  -3  -6 5300.16 474.031   1
   1  -3  -6 5477.72 431.320  29
  -1   3   6 5512.22 389.901  27
   1  -3  -6 5111.67 343.862  31
  -1   3   5 20996.0 707.112  27
   1  -3  -5 21606.1 609.359  31
   1  -3  -5 20535.8 832.672   1
   1  -3  -5 19499.1 665.371  29
   1  -3  -4 91753.6 1140.16  31
   1  -3  -4 88870.3 1463.90   1
  -1   3   4 91544.8 1388.88  27
   1  -3  -4 89926.3 1189.72  29
   1  -3  -3 19590.9 498.775  31
  -1   3   3 18982.0 614.040  27
   1  -3  -3 19796.6 471.159  29
   1  -3  -3 18753.4 515.056   1
   1  -3  -2 1829.82 152.661  31
   1  -3  -2 1791.33 125.782  29
   1  -3  -2 1852.85 108.139   1
  -1   3   1 1692.71 196.284   2
   1  -3  -1 1608.74 138.688  31
   1  -3  -1 2077.86 108.951  29
  -1   3   0 241.351 116.373   2
   1  -3   0 453.687 72.1904  31
  -1   3  -1 162551. 2866.99   2
  -1   3  -1 172555. 5989.29   3
   1  -3   1 169091. 1782.80  26
  -1   3  -2 54992.2 1846.99   2
   1  -3   2 55654.3 958.651  26
   1  -3   3 1833.74 177.777  26
  -1   3  -3 1926.30 404.826   2
   1  -3   4 2157.94 272.231  27
  -1   3  -4 2777.56 276.448  13
   1  -3   4 2029.81 223.855  26
  -1   3  -4 3920.30 585.904   8
  -1   3  -4 2889.01 541.409  18
  -1   3  -4 2887.06 798.749   9
  -1   3  -4 2480.33 248.083  14
  -1   3  -4 2819.59 534.716  21
  -1   3  -5 1274.69 330.958   8
  -1   3  -5 836.648 150.942  14
  -1   3  -5 797.534 276.573  18
  -1   3  -5 862.831 330.480  21
  -1   3  -5 593.634 133.122  13
  -1   3  -5 1336.36 561.801   9
  -1   3  -6 3107.31 278.120  13
  -1   3  -6 3382.87 770.998   9
  -1   3  -6 3049.78 255.283  14
  -1   3  -6 2759.41 474.636  21
  -1   3  -6 3908.21 487.695  18
  -1   3  -7 11255.4 432.586  13
  -1   3  -7 10053.7 1034.84   9
  -1   3  -7 10166.3 510.376  10
  -1   3  -8 38.0460 98.1546   9
  -1   2  10 5592.26 291.734  20
   1  -2 -10 5899.32 259.807  32
  -1   2   9 17193.9 680.444  20
   1  -2  -9 16678.0 572.174  13
  -1   2   9 17617.5 545.152  23
   1  -2  -9 17587.3 599.888  32
  -1   2   8 1877.06 193.791  11
  -1   2   8 1973.83 213.092  23
   1  -2  -8 1973.01 229.153  32
  -1   2   8 2163.09 276.629  20
   1  -2  -8 1877.82 237.869  13
  -1   2   7 37586.0 1114.43  20
  -1   2   7 36783.2 937.979  23
  -1   2   7 36669.7 873.536  11
  -1   2   7 37875.5 1005.20  27
   1  -2  -7 37093.5 1377.47   1
   1  -2  -7 38596.8 1024.58  32
  -1   2   6 12326.0 521.320  27
   1  -2  -6 12150.4 731.498   1
   1  -2  -6 12329.3 694.353  29
   1  -2  -5-107.885 59.6408  29
   1  -2  -5-128.550 53.5688  31
  -1   2   5-24.3622 30.5267  27
  -1   2   4 93093.6 1130.95  27
   1  -2  -4 87672.4 1162.86  29
   1  -2  -4 91863.9 1050.86  31
   1  -2  -4 89029.6 1545.70   1
  -1   2   3 30666.8 441.894  28
   1  -2  -3 30392.8 568.105  29
  -1   2   3 29272.8 588.860  27
   1  -2  -3 30928.4 540.553  31
   1  -2  -2 11843.1 292.982  29
  -1   2   2 12051.4 388.203  27
  -1   2   2 11329.8 159.744  28
   1  -2  -2 11798.4 350.525   1
   1  -2  -1 247909. 1375.25  31
   1  -2  -1 239943. 1008.16   1
   1  -2   0 5943.81 200.527  31
  -1   2   0 5581.62 338.541   2
   1  -2   1 15190.4 463.201  26
  -1   2  -1 14919.8 739.598   2
   1  -2   1 17068.9 302.063  31
  -1   2  -1 15030.3 1485.67   3
  -1   2  -2 69887.7 980.797   1
   1  -2   2 68847.1 933.892  26
  -1   2  -3 1652.16 203.652   1
  -1   2  -3 1425.38 317.818   2
   1  -2   3 2048.56 173.783  26
  -1   2  -4 27020.3 939.520   1
   1  -2   4 24616.4 846.990  27
   1  -2   4 26070.9 705.017  26
  -1   2  -5 64101.1 1377.45  13
  -1   2  -5 69556.3 2414.56  18
   1  -2   5 44894.0 1179.29  26
  -1   2  -5 65857.1 3494.63   9
  -1   2  -5 60174.2 2313.28  21
   1  -2   5 52482.0 1284.07  27
  -1   2  -6 1201.02 538.081   9
  -1   2  -6 1174.16 185.799  14
  -1   2  -6 1194.29 195.691  13
  -1   2  -6 559.551 227.257  21
  -1   2  -7 375.506 107.520  13
  -1   2  -7 382.904 99.9455  14
  -1   2  -7 90.7288 308.580   9
  -1   2  -7 373.567 170.832  21
  -1   2  -8 2261.80 187.287  13
   1  -2   8 1718.98 135.781  33
  -1   2  -8 2056.88 462.684   9
  -1   2  -8 1884.45 155.409  14
   1  -1 -10 927.642 84.7068  13
   1  -1 -10 798.197 250.422   9
  -1   1   9 955.274 151.296  20
   1  -1  -9 1378.78 157.694  32
  -1   1   9 1167.81 121.525  23
   1  -1  -9 1346.81 170.135  13
   1  -1  -8 177.873 89.2745  13
   1  -1  -8 188.147 86.1485  32
  -1   1   8 184.630 87.7035  20
  -1   1   8 204.039 73.8909  23
  -1   1   7 397.555 122.001  20
   1  -1  -7 187.563 97.1859   1
  -1   1   7 371.917 110.595  27
   1  -1  -7 304.466 101.106  32
  -1   1   7 130.213 69.0050  23
   1  -1  -6 101696. 2129.79   1
   1  -1  -6 98562.1 2039.25  29
   1  -1  -5 686.621 147.189  29
   1  -1  -5 912.265 186.830   1
  -1   1   5 775.100 117.812  27
  -1   1   5 691.560 142.758  26
  -1   1   4 14271.2 536.241  26
  -1   1   4 14902.5 436.007  27
   1  -1  -4 15390.2 547.817  29
   1  -1  -4 15980.4 465.909  31
   1  -1  -4 14355.0 633.990   1
   1  -1  -3 23218.6 462.130  31
   1  -1  -3 23533.2 534.972  29
  -1   1   3 24183.8 467.184  27
   1  -1  -2 868.667 80.4160  31
   1  -1  -2 785.471 81.7923  29
   1  -1  -2 774.062 108.734   1
  -1   1   2 1082.50 90.8461  28
  -1   1   2 789.595 76.9846  27
   1  -1  -1 52069.8 533.768  29
  -1   1   1 51524.2 364.268  28
   1  -1  -1 51111.6 511.587  31
  -1   1   0 275633. 1678.11   2
  -1   1   0 263352. 1252.12  28
   1  -1   0 262813. 992.341  29
   1  -1   0 272516. 1062.42  31
   1  -1   1 190711. 1345.80  26
   1  -1   1 193073. 779.409  31
   1  -1   2 37023.3 387.587  30
  -1   1  -2 38025.0 1238.10   2
   1  -1   3 7147.93 284.643  26
  -1   1  -3 6082.01 561.988   2
  -1   1  -3 6468.23 336.988   1
  -1   1  -4 29.5253 57.4470   1
   1  -1   4 46.1680 29.5595  26
   1  -1   4 48.4180 51.3528  27
  -1   1  -5 18643.0 856.240   1
   1  -1   5 16663.6 682.752  26
   1  -1   5 17472.8 691.815  27
  -1   1  -6 25705.9 1437.36  21
   1  -1   6 22775.7 795.971  27
   1  -1   6 24191.8 820.631  26
  -1   1  -6 22783.1 1040.65   1
  -1   1  -6 27569.4 817.963  32
  -1   1  -6 25843.9 899.993  13
  -1   1  -7 21330.8 1279.91  21
  -1   1  -7 21622.4 1987.88   9
  -1   1  -7 22038.3 798.562  13
  -1   1  -8 7626.57 1029.01   9
  -1   1  -8 8037.27 416.274  13
  -1   1  -8 8178.88 415.917  14
  -1   1  -8 7051.20 621.467  21
  -1   1  -9 66.2528 34.0413  13
  -1   1  -9 39.5249 139.455   9
  -1   1  -9 45.7602 29.5991  14
   1  -1   9 45.2145 30.2161  33
   1   0  -9 4447.25 242.787  32
   1   0  -9 4256.46 277.489  13
   1   0  -9 3979.11 672.654   9
  -1   0   8 3418.01 298.239  20
   1   0  -8 3391.71 319.690  13
   1   0  -8 3431.84 276.300  32
   1   0  -7 55.2250 65.1214  32
  -1   0   7 87.0648 42.7056  20
   1   0  -7-44.2892 76.2465  13
  -1   0   6 3719.93 292.973  27
   1   0  -6 3700.27 306.384  32
  -1   0   6 3404.08 333.112  26
   1   0  -6 3413.01 393.417   1
  -1   0   6 4601.87 337.831  20
  -1   0   5 71935.2 1142.52  27
   1   0  -5 68607.5 1605.35   1
  -1   0   5 70245.7 1224.90  26
   1   0  -5 67699.4 1575.88  29
  -1   0   4 13628.6 453.222  26
   1   0  -4 14268.9 616.142  29
   1   0  -4 14068.5 502.952  31
  -1   0   4 14110.8 437.436  27
   1   0  -4 13783.3 630.879   1
   1   0  -3 5284.55 321.312  29
  -1   0   3 5281.31 233.042  27
   1   0  -3 4940.24 328.619   1
  -1   0   3 4824.31 234.649  26
   1   0  -3 5156.45 257.360  31
   1   0  -2 20112.8 505.004  29
  -1   0   2 20726.5 372.587  27
  -1   0   2 20160.2 394.279  26
   1   0  -2 21383.3 555.108   1
   1   0  -2 20283.1 430.561  31
  -1   0   1 211940. 1132.25  28
  -1   0   1 212091. 930.511  27
   1   0  -1 208636. 1267.39   1
   1   0  -1 211275. 1367.19  29
   1   0   0 7208.65 194.174  31
   1   0   0 6730.60 141.624   1
  -1   0   0 6892.38 133.851  28
  -1   0  -1 18770.4 194.101  29
   1   0   1 20950.9 318.260  31
  -1   0  -1 20235.5 388.458  28
  -1   0  -1 19630.7 557.667   2
  -1   0  -2 3209.14 98.1628  29
   1   0   2 2799.43 121.546  30
  -1   0  -2 2670.99 300.733   2
   1   0   2 3455.06 155.213  26
   1   0   3 67006.1 717.298  30
  -1   0  -3 77990.6 682.551  29
  -1   0  -3 68541.2 1003.90   1
  -1   0  -3 69844.6 1734.39   2
   1   0   3 78473.5 934.881  26
  -1   0  -4 759.351 103.436  29
   1   0   4 549.829 108.037  26
   1   0   4 750.559 89.5273  30
  -1   0  -4 582.811 126.100   1
   1   0   4 692.059 123.175  27
   1   0   5 43945.5 979.977  27
  -1   0  -5 44097.1 1255.46   1
   1   0   5 45377.1 1044.65  26
  -1   0  -6 2263.08 326.357   1
  -1   0  -6 2110.81 239.310  32
   1   0   6 2288.05 252.655  26
  -1   0  -6 2040.57 255.887  13
   1   0   6 2034.19 228.832  27
  -1   0  -6 2335.87 404.233  21
  -1   0  -7 134.218 73.1845  13
  -1   0  -7 187.783 88.0001  32
  -1   0  -7 241.307 182.424  21
  -1   0  -8 404.043 114.252  13
  -1   0  -8 135.726 141.002  21
  -1   0  -8 286.376 91.4641  32
  -1   0  -9 11218.1 438.728  14
  -1   0  -9 11243.3 421.660  13
  -1   0  -9 10515.2 1039.91   9
   1   0   9 10643.4 405.361  33
   1   1  -9 75.9353 41.1449  13
   1   1  -9 54.7648 29.1689  14
   1   1  -8 8160.72 359.294  32
   1   1  -8 7636.32 440.457  13
   1   1  -7 27885.3 986.862  13
   1   1  -7 30405.7 818.671  32
   1   1  -6 56345.1 1417.38  13
  -1  -1   6 59431.2 1184.06  27
   1   1  -6 56397.5 1575.77   1
   1   1  -6 58845.1 1189.34  32
  -1  -1   5 1306.24 170.440  27
   1   1  -5 1575.62 251.196   1
  -1  -1   5 1381.25 173.452  26
   1   1  -4 44023.0 1155.14   1
  -1  -1   4 45592.8 803.083  26
  -1  -1   4 42607.5 842.036  27
  -1  -1   3 27654.8 542.952  26
  -1  -1   3 26744.4 597.653  27
   1   1  -3 26102.2 759.923   1
   1   1  -2 280067. 2053.07   1
  -1  -1   2 281265. 1461.26  26
  -1  -1   1 7767.56 213.462  27
  -1  -1   1 6953.90 160.726  26
   1   1  -1 7422.41 251.218   1
  -1  -1   0 106558. 700.506  28
  -1  -1   0 107097. 469.090  27
   1   1   1 14957.4 256.357  26
  -1  -1  -1 15700.5 229.871  28
  -1  -1  -1 16070.7 408.477   2
  -1  -1  -2 393.117 127.144   2
  -1  -1  -2 438.674 44.7811  29
  -1  -1  -2 377.472 71.4154  28
   1   1   2 443.604 58.3899  30
   1   1   2 488.378 73.6315  26
   1   1   3 65685.4 840.450  27
  -1  -1  -3 62992.5 538.360  31
   1   1   3 60526.2 773.955  30
  -1  -1  -3 68261.2 617.903  29
  -1  -1  -3 67280.4 947.915   1
   1   1   3 63822.5 927.531  26
   1   1   4 65805.1 989.080  27
  -1  -1  -4 66297.4 755.466  29
  -1  -1  -4 61488.2 1158.34   1
   1   1   4 68302.8 1056.01  26
   1   1   4 59179.4 868.128  30
   1   1   5 33713.4 837.446  26
  -1  -1  -5 31499.1 1023.30   1
   1   1   5 30586.2 728.668  27
  -1  -1  -5 33180.1 705.076  29
   1   1   5 29402.8 670.060  30
   1   1   6 43931.7 954.345  27
   1   1   6 43948.0 1099.39  26
   1   1   7 7653.06 529.460  26
   1   1   7 7392.34 393.433  23
  -1  -1  -7 7423.04 468.776  13
  -1  -1  -7 7799.48 713.127  21
   1   1   7 7364.47 411.209  27
  -1  -1  -7 7860.28 456.016  32
  -1  -1  -7 6914.83 612.578   1
  -1  -1  -8 7398.45 431.158  32
  -1  -1  -8 7609.59 443.981  13
  -1  -1  -8 6694.75 656.901  21
  -1  -1  -9 242.783 71.1266  13
  -1  -1  -9 214.410 71.8362  32
  -1  -1  -9 159.369 110.842  21
  -1  -1 -10 350.972 51.5957  13
  -1  -1 -10 303.326 147.944   9
   1   1  10 329.621 60.6642  33
  -1  -1 -10 307.933 60.6928  14
   1   2  -8 13056.2 488.759  13
   1   2  -8 12649.9 1152.59   9
   1   2  -8 11701.8 387.381  14
   1   2  -7 7701.51 1116.65   9
   1   2  -7 7527.91 471.874  13
   1   2  -6 4055.91 673.725  18
   1   2  -6 4496.36 397.166  13
   1   2  -5 36961.7 1179.70   1
   1   2  -5 39282.3 1764.65   8
  -1  -2   5 36143.7 896.755  27
   1   2  -5 35625.6 2057.94  18
   1   2  -5 37338.2 1121.31  13
   1   2  -4 62083.9 1376.46   1
  -1  -2   4 61861.4 972.744  26
  -1  -2   3 1774.74 157.447  26
   1   2  -3 2189.63 226.146   1
  -1  -2   3 2241.82 191.169  27
   1   2  -3 1548.88 466.547   5
  -1  -2   2 113917. 1234.74  27
   1   2  -2 116138. 1340.66   1
  -1  -2   1 1763.84 88.7780  26
   1   2  -1 1616.24 119.687   1
   1   2  -1 1293.88 53.3688  30
   1   2  -1 1658.83 503.941   3
  -1  -2   1 1499.08 120.863  27
   1   2   0 43317.8 323.327   1
  -1  -2   0 40602.9 562.374  28
  -1  -2   0 41589.8 468.991  27
   1   2   0 43425.4 463.738  30
  -1  -2  -1 199845. 780.317  28
   1   2   1 201697. 1196.41  30
  -1  -2  -2 38990.3 522.051  28
   1   2   2 39102.2 622.587  26
   1   2   2 38539.6 619.427  30
  -1  -2  -2 39340.9 531.702   1
  -1  -2  -3 135343. 1348.66   1
   1   2   3 126882. 1261.66  30
   1   2   3 127589. 804.907  27
   1   2   3 133118. 1280.19  26
  -1  -2  -3 129802. 945.201  29
  -1  -2  -4 62314.9 1162.26   1
   1   2   4 61091.5 743.856  27
  -1  -2  -4 62732.8 744.250  29
  -1  -2  -4 60181.8 706.428  31
   1   2   4 62596.8 1006.71  26
   1   2   5 7620.75 415.573  26
   1   2   5 6517.22 352.320  30
   1   2   5 7307.28 305.047  27
  -1  -2  -5 7368.08 302.010  29
  -1  -2  -5 7480.96 493.614   1
  -1  -2  -6 3592.33 270.192  29
  -1  -2  -6 3592.77 398.728   1
   1   2   6 3408.58 242.871  27
   1   2   6 3668.41 342.992  26
  -1  -2  -7 53116.2 1180.92  32
  -1  -2  -7 56911.4 1791.58  21
   1   2   7 51488.3 1292.17  20
  -1  -2  -7 49360.8 1131.20  13
  -1  -2  -7 50351.6 1633.73   1
   1   2   7 53899.4 1083.61  23
   1   2   7 56882.6 1560.86  26
  -1  -2  -7 48955.8 1232.12  29
   1   2   8 394.791 122.311  20
  -1  -2  -8 370.287 104.572  32
   1   2   8 458.322 103.967  23
  -1  -2  -8 190.890 146.454  21
  -1  -2  -8 405.538 102.245  13
  -1  -2  -9 19565.2 638.519  32
   1   2   9 18925.2 674.823  20
  -1  -2  -9 20148.1 593.659  13
  -1  -2  -9 19156.8 989.418  21
  -1  -2 -10 3344.83 532.919   9
  -1  -2 -10 2943.23 201.984  14
   1   2  10 3021.82 195.434  33
   1   3  -8 643.108 81.2679  13
   1   3  -8 352.215 153.711   9
   1   3  -7 10276.1 730.038  18
   1   3  -7 9470.60 439.104  13
   1   3  -7 9433.71 1077.28   9
   1   3  -6 6861.86 1077.54   9
   1   3  -6 7299.99 474.521  13
   1   3  -6 8585.64 927.914  18
   1   3  -5 1447.27 380.343   8
  -1  -3   5 1024.33 156.083  27
   1   3  -5 1568.33 584.537   9
   1   3  -5 1565.21 452.929  18
   1   3  -5 1195.76 203.391  13
   1   3  -4 1977.13 420.669   8
   1   3  -4 1597.25 501.251   9
  -1  -3   4 1919.63 211.922  27
   1   3  -4 2252.78 273.030  13
   1   3  -4 792.817 600.998   4
   1   3  -4 2088.02 529.772  18
  -1  -3   3 5241.10 320.920  27
  -1  -3   2 150113. 1589.73  27
  -1  -3   2 163184. 1155.18  26
  -1  -3   1 114896. 899.646  26
   1   3  -1 119042. 4598.13   3
  -1  -3   0 43750.3 690.034  28
  -1  -3   0 44333.5 638.485  27
  -1  -3  -1 29435.0 349.130  28
   1   3   1 30841.3 574.171  30
  -1  -3  -1 29683.6 491.857  29
  -1  -3  -2 3413.26 170.196   1
   1   3   2 3600.39 222.758  30
  -1  -3  -2 3360.12 123.301  28
  -1  -3  -2 3135.63 159.718  29
  -1  -3  -3 3469.45 233.842   1
   1   3   3 3525.45 243.665  30
  -1  -3  -3 3393.67 219.651  31
  -1  -3  -3 3367.20 168.592  29
  -1  -3  -4 114612. 1237.59  31
  -1  -3  -4 116135. 1102.21  29
   1   3   4 116790. 1511.85  30
   1   3   4 112777. 1611.86  26
   1   3   5 14811.9 586.931  30
  -1  -3  -5 14551.2 443.484  29
  -1  -3  -5 14978.2 706.679   1
  -1  -3  -5 15078.2 431.826  31
   1   3   5 14748.2 660.354  26
  -1  -3  -6 853.096 198.527   1
   1   3   6 770.679 144.119  30
   1   3   6 720.166 177.613  26
  -1  -3  -6 793.264 125.570  29
   1   3   7 30886.6 1033.15  20
   1   3   7 30681.9 836.999  23
  -1  -3  -7 30364.8 873.132  32
  -1  -3  -7 29706.0 925.874  29
  -1  -3  -7 29316.4 1249.31   1
   1   3   7 28760.4 1139.71  26
   1   3   8 1619.61 253.077  20
   1   3   8 2011.30 217.069  23
  -1  -3  -8 1761.14 216.435  32
  -1  -3  -8 1697.19 320.617  21
   1   3   9 2632.95 279.530  20
  -1  -3  -9 2541.66 235.108  32
   1   3   9 2759.92 230.645  23
  -1  -3  -9 2425.48 358.836  21
   1   3  10 16584.7 519.265  20
  -1  -3 -10 15933.1 717.930  21
  -1  -3 -10 18028.0 490.079  32
   1   3  10 17763.9 469.429  33
   1   4  -7 9335.52 795.147   9
   1   4  -7 8183.35 272.946  13
   1   4  -6 26361.1 1826.14   9
   1   4  -6 28679.6 1401.39  18
   1   4  -6 25255.2 694.014  13
   1   4  -5 16020.4 648.576  13
   1   4  -5 14619.1 1571.24   9
   1   4  -5 15777.5 1309.36  18
   1   4  -4 15206.7 1243.97   8
   1   4  -4 18848.5 2589.56  25
   1   4  -4 13782.3 628.294  13
   1   4  -4 17995.1 2055.69  19
   1   4  -4 13211.1 1317.03  18
   1   4  -4 11549.8 1460.50   9
  -1  -4   4 10973.6 517.574  27
   1   4  -3 3254.77 734.884   9
   1   4  -3 3495.99 682.759  18
   1   4  -3 1400.22 705.869   4
  -1  -4   3 3056.07 262.287  27
   1   4  -3 3808.47 976.168  19
   1   4  -3 3218.11 577.706   8
   1   4  -3 3937.68 1216.14  25
   1   4  -2 2344.94 862.506   5
   1   4  -2 1146.41 719.251   4
  -1  -4   1 40849.7 820.402  27
   1   4  -1 42775.2 3275.84   3
   1   4  -1 26654.8 2607.13   5
   1   4  -1 18089.7 2115.85   4
  -1  -4   0 17812.6 485.137  28
   1   4   0 8678.07 1453.79   5
  -1  -4   0 20476.8 461.747  29
   1   4   0 8317.94 1349.09   4
  -1  -4   0 19112.7 474.921  26
  -1  -4   0 17576.4 470.360  27
  -1  -4  -1 1482.63 125.725  29
   1   4   1 583.567 501.258   4
   1   4   1 573.483 481.901   5
   1   4   1 1492.45 141.663  30
   1   4   2 72342.9 1120.85  30
  -1  -4  -2 64470.7 797.521  29
   1   4   3 10262.4 1399.58   3
   1   4   3 17052.0 594.446  30
  -1  -4  -3 16968.0 426.302  29
   1   4   3 7680.11 1201.70   5
  -1  -4  -3 16192.0 561.461  31
   1   4   4 25204.1 789.485  30
  -1  -4  -4 24239.2 547.810  29
  -1  -4  -4 24328.8 756.082   1
  -1  -4  -4 24563.9 679.252  31
  -1  -4  -5 1191.25 147.821  31
  -1  -4  -5 848.376 167.642   1
   1   4   5 925.730 168.388  30
  -1  -4  -5 780.661 112.108  29
   1   4   6 3853.95 349.908  20
  -1  -4  -6 3493.34 392.857   1
  -1  -4  -6 3209.50 228.409  31
  -1  -4  -6 3502.65 261.105  29
   1   4   7 46498.1 1320.52  20
  -1  -4  -7 43210.6 1024.20  32
   1   4   7 46896.7 1035.86  23
  -1  -4  -7 41831.7 1040.18  29
  -1  -4  -7 43176.3 1502.73   1
   1   4   7 48141.0 958.995  24
   1   4   8 15184.0 508.973  24
  -1  -4  -8 14153.4 583.820  32
  -1  -4  -8 16125.5 930.333  21
   1   4   8 15033.8 756.703  20
   1   4   8 14266.5 577.741  23
   1   4   9 448.034 131.548  20
   1   4   9 354.630 86.9354  23
  -1  -4  -9 339.061 86.9276  32
  -1  -4  -9 320.192 148.969  21
   1   4  10 11197.3 477.822  20
  -1  -4 -10 10394.4 589.861  21
  -1  -4 -10 11760.0 387.430  32
   1   4  10 11452.3 337.169  33
   1   5  -6 3639.25 356.464  18
   1   5  -6 3582.08 485.707   9
   1   5  -5 17008.6 1424.12   9
   1   5  -5 18571.3 1194.48  18
   1   5  -4-470.182 606.712  19
   1   5  -4 261.358 264.156  18
   1   5  -4-214.724 356.336   9
   1   5  -4 179.845 200.606   8
   1   5  -3 42490.5 2331.48  18
   1   5  -3 48026.5 2191.13   8
   1   5  -3 40787.2 2625.57   9
   1   5  -3 66268.4 5183.70  25
   1   5  -3 51203.8 2500.47  22
   1   5  -3 57252.4 3920.22  19
   1   5  -2 8716.18 1541.55  19
   1   5  -2 7046.07 958.055  18
   1   5  -2 10215.3 2059.95  25
   1   5  -2 6765.36 1032.03   9
   1   5  -2 9735.21 1131.83  22
   1   5  -2 7433.80 893.796   8
   1   5  -1 3168.16 1010.40   5
   1   5  -1 3400.86 1253.29  16
   1   5  -1 2193.34 778.786  25
   1   5  -1 2893.62 889.316  19
   1   5  -1 1414.28 761.021   4
  -1  -5   0 24649.1 793.913  31
   1   5   0 14915.7 2225.27   5
   1   5   0 9688.19 1788.92   4
   1   5   0 21526.3 2533.91   3
  -1  -5  -1 16679.2 658.508  31
  -1  -5  -1 17611.0 452.098  29
   1   5   2 33972.3 3142.09   5
  -1  -5  -2 66485.9 1319.26  31
  -1  -5  -2 65702.1 892.751  29
   1   5   2 40583.9 3128.48   3
  -1  -5  -3 23405.2 779.122  31
  -1  -5  -3 22794.9 554.372  29
  -1  -5  -4 6346.69 400.531  31
  -1  -5  -4 6028.82 301.505  29
  -1  -5  -5 69941.3 1259.43  31
  -1  -5  -5 70874.1 1134.62  29
  -1  -5  -6 371.193 92.2005  31
   1   5   6 528.455 145.577  20
   1   5   6 487.658 103.699  23
   1   5   6 663.640 168.649  10
   1   5   6 461.103 113.903  24
  -1  -5  -6 362.995 98.5146  29
   1   5   7 987.023 201.666  20
   1   5   7 1088.49 224.000  10
   1   5   7 1264.79 168.818  24
   1   5   7 1359.65 176.882  23
   1   5   8 1968.24 278.448  20
   1   5   8 2108.44 199.968  24
  -1  -5  -8 1785.41 193.542  32
  -1  -5  -8 2304.20 354.517  21
   1   5   8 1892.89 208.085  23
   1   5   9 2580.32 290.682  20
  -1  -5  -9 2534.66 208.664  32
   1   5   9 2692.35 223.235  23
  -1  -5  -9 2488.72 334.752  21
   1   5  10 9532.45 448.346  20
  -1  -5 -10 8179.41 502.626  21
  -1  -5 -10 8989.75 297.994  32
   1   5  10 8472.71 277.868  12
   1   6  -5 24071.1 900.567  18
   1   6  -5 19408.6 1025.54   9
   1   6  -4 956.583 345.020   9
   1   6  -4 1090.46 290.436  18
   1   6  -4 687.775 215.686   8
   1   6  -3 8891.63 1539.32  19
   1   6  -3 8804.46 851.420   8
   1   6  -3 6817.89 826.287  18
   1   6  -3 6122.32 920.425   9
   1   6  -3 8301.98 994.391  22
   1   6  -2 6168.43 1053.70  22
   1   6  -2 7952.79 1548.28  19
   1   6  -2 6658.47 805.026   8
   1   6  -2 5629.54 947.096   9
   1   6  -2 5806.09 827.549  18
   1   6  -1-290.313 598.795  19
   1   6  -1 238.657 282.263   9
   1   6  -1 471.415 180.583   6
   1   6  -1 356.898 669.746  25
   1   6  -1 589.949 339.804  18
   1   6  -1 395.397 238.481   8
   1   6  -1-101.686 317.948  22
   1   6   0 147601. 4771.77  22
   1   6   0 125006. 6021.36  19
   1   6   0 120018. 2491.28   6
   1   6   0 130571. 4140.80   9
   1   6   0 113872. 3260.13   8
   1   6   0 110334. 6524.19   3
   1   6   0 165754. 8316.36  25
   1   6   0 160241. 8461.09  16
   1   6   0 115814. 3327.59  18
   1   6   1 82317.9 5841.94  16
  -1  -6  -1 58523.7 1339.78  31
   1   6   1 94491.8 5947.41  25
   1   6   1 78273.1 3505.78  22
   1   6   1 60633.4 4013.81  19
   1   6   1 74993.0 2922.27   9
   1   6   1 71019.3 2100.68   6
  -1  -6  -2 5523.00 419.540  31
   1   6   2 6559.70 665.260   6
   1   6   2 7140.57 851.254   9
   1   6   2 3692.03 1252.78   5
   1   6   2 7463.82 1066.53  22
   1   6   2 7866.57 1781.08  16
   1   6   3 170.948 172.603   6
  -1  -6  -3 282.009 70.8238  29
  -1  -6  -3 161.471 81.3146  31
   1   6   3 67.9498 334.806   3
   1   6   3 322.154 236.350   9
   1   6   4 9662.18 459.879  24
  -1  -6  -4 9632.83 534.249  31
  -1  -6  -4 9560.85 423.470  29
   1   6   4 11179.4 890.520   6
   1   6   5 25759.0 927.552  20
   1   6   5 28559.1 922.547  10
  -1  -6  -5 27914.4 881.415  31
  -1  -6  -5 27491.7 760.872  29
   1   6   5 28351.7 818.469  24
   1   6   6 43382.7 1234.91  10
   1   6   6 44912.4 1286.97  20
  -1  -6  -6 42043.9 1007.12  29
   1   6   6 45357.4 1040.50  24
   1   6   7 12403.3 692.860  20
   1   6   7 10504.4 653.253  10
   1   6   7 12659.0 527.529  24
   1   6   7 12042.8 486.570  23
   1   6   8 20556.9 617.198  24
   1   6   8 19446.2 610.227  23
   1   6   8 19317.0 842.825  20
   1   6   9 5559.04 272.766  24
  -1  -6  -9 5666.47 478.831  21
   1   6   9 5813.02 418.004  20
   1   6  10 19.5923 38.6601  20
   1   6  10-22.7487 23.3152  12
  -1  -6 -10 10.2832 59.7059  21
   1   7  -4 24535.3 788.413  18
   1   7  -3 101.011 126.147   9
   1   7  -3 231.612 128.351   8
   1   7  -3 297.925 150.651  18
   1   7  -3-95.1175 302.654  22
   1   7  -2 15150.4 1882.54  19
   1   7  -2 19346.9 1202.22  18
   1   7  -2 16508.7 1336.19   9
   1   7  -2 18124.4 1385.92  22
   1   7  -2 20504.1 1169.57   8
   1   7  -1 467.844 876.435  22
   1   7  -1 525.214 568.837  19
   1   7  -1 754.421 291.531  18
   1   7  -1 793.141 362.054   9
   1   7  -1 792.390 288.505   8
   1   7   0 15704.3 1092.80   8
   1   7   0 12194.0 735.229   6
   1   7   0 14335.6 1342.15   9
   1   7   0 15685.4 1129.14  18
   1   7   0 15463.0 2117.82  19
   1   7   0 16640.9 1610.62  22
   1   7   1 22876.7 2618.79  19
   1   7   1 23416.4 1171.77   6
   1   7   1 28824.0 2127.80  22
   1   7   1 28558.8 3815.69  16
   1   7   1 28755.8 1866.21   9
   1   7   2 20924.0 1562.22   9
   1   7   2 18833.2 1145.61   6
   1   7   2 16646.0 2133.16  19
   1   7   2 19511.7 2965.87  16
   1   7   2 21370.3 1880.99  22
   1   7   3 63930.3 5156.18  16
   1   7   3 61071.3 2132.94   6
   1   7   3 67053.7 3166.70  22
   1   7   4 55564.7 2041.12   6
   1   7   4 47542.3 1004.13  24
   1   7   5 5857.07 427.655  20
   1   7   5 6093.99 461.676  10
   1   7   5 5842.93 371.782  24
   1   7   5 7326.80 731.913   6
   1   7   6 4715.11 398.991  20
   1   7   6 3768.03 378.864  10
   1   7   6 4502.38 322.438  24
   1   7   7 9294.77 564.853  20
   1   7   7 9855.37 451.899  24
   1   7   8 1262.53 201.005  20
   1   7   8 1231.90 147.050  24
  -1  -7  -8 1590.84 318.248  21
   1   7   9 38059.4 789.304  12
   1   7   9 40047.0 674.003  24
   1   7   9 38175.0 931.259  20
  -1  -7  -9 39797.6 1129.07  21
   1   7  10 12191.1 297.653  12
   1   7  10 13333.7 393.925  20
   1   8  -2 5734.80 500.794   9
   1   8  -1 25997.7 1054.37  18
   1   8  -1 22987.5 1298.89   9
   1   8  -1 21571.0 1345.36  22
   1   8   0 5984.79 537.677  18
   1   8   0 4323.53 1038.08  19
   1   8   0 4912.15 412.209   6
   1   8   0 5136.82 679.101   9
   1   8   0 5033.04 1178.11  22
   1   8   1 7226.93 1325.27  22
   1   8   1 3481.84 955.263  19
   1   8   1 6171.13 788.026   9
   1   8   1 4594.48 463.668   6
   1   8   2 7577.79 937.492   9
   1   8   2 4482.78 1081.02  19
   1   8   2 4846.24 516.291   6
   1   8   2 5100.06 1126.93  22
   1   8   3 4421.61 520.503   6
   1   8   3 6597.47 1755.71  16
   1   8   3 6379.75 1205.80  22
   1   8   4 38327.2 2117.11  22
   1   8   4 33113.2 1457.58   6
   1   8   5 50107.9 1705.58   6
   1   8   5 42339.7 852.858  24
   1   8   6 1920.56 185.560  24
   1   8   6 2055.50 317.009   6
   1   8   6 2046.77 203.888  12
   1   8   7 6792.87 328.645  24
   1   8   7 6550.72 352.614  12
   1   8   7 6200.60 371.332  20
  -1  -8  -8 64.5955 103.996  21
   1   8   8 157.542 59.6012  20
   1   8   8 91.8197 39.8531  24
   1   8   8 127.695 53.9548  12
  -1  -8  -9 458.634 107.795  21
   1   8   9 598.424 80.4438  12
   1   9   0 43701.3 1456.96  22
   1   9   1-93.5418 161.385   6
   1   9   1 96.8619 388.363  22
   1   9   2 12754.3 632.119   6
   1   9   2 14419.8 1139.73  22
   1   9   3 3067.04 593.853  22
   1   9   3 3606.62 386.985   6
   1   9   4-3.03735 141.167   6
   1   9   5 8830.72 571.359   6
   1   9   6 2649.33 303.632   6
   1   9   6 2027.24 138.324  24
   1   9   7 4636.10 198.699  24
  -1  -9  -7 4935.23 383.012  21
  -1  -9  -8 15209.0 507.280  21
  -2   8   7 13758.2 468.378  10
  -2   8   7 14618.9 354.023  24
  -2   8   6 135.313 93.9088   6
  -2   8   6 300.785 64.4036  24
  -2   8   6 172.755 119.546  10
  -2   8   5 1361.12 269.221   6
  -2   8   5 1415.25 141.690  24
  -2   8   5 1777.44 265.046  10
  -2   8   4 208.866 185.031  10
  -2   8   4 60.4957 98.8337   6
  -2   8   4 58.1396 35.3991  24
  -2   8   4 138.598 189.713  22
  -2   8   3 159.274 162.490  10
  -2   8   3-9.83384 219.577  22
  -2   8   3-43.1172 102.893   6
  -2   8   2 25619.5 948.387   6
  -2   8   2 27738.7 719.318  10
  -2   8   1 5984.75 739.705  22
  -2   8   1 5550.74 292.179  10
  -2   8   0-300.028 417.909  22
  -2   7   8 143.809 67.0427  10
  -2   7   8 119.653 37.7830  24
   2  -7  -8 102.395 42.1061  21
  -2   7   7 13410.3 592.913  10
  -2   7   7 11849.1 684.655   6
  -2   7   7 13211.8 469.555  24
  -2   7   6 2116.17 324.613  10
  -2   7   6 1649.43 195.328  24
  -2   7   6 1589.17 344.473   6
  -2   7   5 1206.27 269.516  10
  -2   7   5 1030.70 307.105   6
  -2   7   5 987.098 165.569  24
  -2   7   4 43212.4 1011.00  17
  -2   7   4 39087.9 983.174  24
  -2   7   4 41061.2 1857.97   6
  -2   7   4 41259.2 2375.11  22
  -2   7   3 558.506 126.399  24
  -2   7   3 748.800 145.383  17
  -2   7   3 504.230 259.511   6
  -2   7   3 955.789 246.299  10
  -2   7   3 483.439 370.384  22
  -2   7   2 2181.99 659.783  22
  -2   7   2 2378.14 294.053  10
  -2   7   2 1719.91 197.278  17
  -2   7   2 1409.75 348.050   6
  -2   7   1 849.450 231.699   6
  -2   7   1 929.387 168.006  10
  -2   7   1 1047.33 466.394  22
  -2   7   0 132.117 77.3485  10
  -2   7   0-42.8216 209.094   9
  -2   7   0 242.025 265.754  22
  -2   7  -1 31866.4 810.725  10
  -2   7  -1 34028.5 1824.04  22
  -2   7  -2 14516.9 918.368   9
  -2   7  -2 7347.48 755.092  22
  -2   6   9 19897.0 501.549  20
  -2   6   9 24901.8 448.617  23
  -2   6   8 2965.13 249.383  20
  -2   6   8 3233.28 206.197  23
   2  -6  -8 3120.79 217.517  32
  -2   6   8 3411.85 219.614  24
  -2   6   8 3027.25 297.569  10
   2  -6  -8 3099.96 289.918  21
   2  -6  -7 424.938 100.575  32
  -2   6   7 408.866 94.1004  11
  -2   6   7 608.158 122.496  24
  -2   6   7 751.931 196.992  10
  -2   6   7 284.539 137.427   6
  -2   6   6 4371.04 609.476   6
  -2   6   6 4601.39 352.992  24
  -2   6   6 5026.15 427.571  10
  -2   6   6 4520.37 309.414  11
  -2   6   5 4517.74 416.513  10
  -2   6   5 3336.48 258.151  11
  -2   6   5 3238.68 317.725  24
  -2   6   5 2833.91 535.737   6
  -2   6   5 4219.85 342.420  17
  -2   6   4 29800.3 909.821  17
  -2   6   4 24936.8 891.077  24
  -2   6   4 25784.2 831.021  15
  -2   6   4 28778.7 2193.04  22
  -2   6   4 25769.0 1581.74   6
  -2   6   4 32354.6 1069.57  10
  -2   6   3 5551.17 1084.75  22
  -2   6   3 3924.81 348.207  24
  -2   6   3 4553.91 415.405  10
  -2   6   3 4129.06 325.737  15
  -2   6   3 3819.68 623.270   6
  -2   6   3 4120.78 346.095  17
  -2   6   2 250.267 215.461   9
  -2   6   2 184.250 121.097  10
  -2   6   2 415.983 425.120  22
  -2   6   2 38.3414 124.116   6
  -2   6   2 49.6593 70.9084  24
  -2   6   2 164.925 68.3091  17
  -2   6   1 88757.4 1581.09  17
  -2   6   1 94019.8 4352.53  22
  -2   6   1 95527.3 2005.55  10
  -2   6   0 2629.56 404.826   6
  -2   6   0 2789.53 355.560  10
  -2   6   0 2612.21 270.053  17
  -2   6   0 3048.74 645.080   9
  -2   6   0 2932.57 801.920  22
  -2   6  -1 2389.82 585.339   9
  -2   6  -1 1696.82 274.914  10
  -2   6  -1 1997.74 615.377  22
  -2   6  -2 5118.58 791.674   9
  -2   6  -2 4687.58 405.468  10
  -2   6  -2 4148.55 711.871  22
  -2   6  -3 1249.95 171.953  10
  -2   6  -3 1799.61 429.562   9
  -2   6  -3 1591.13 489.117  22
  -2   6  -4 5931.02 535.736   9
  -2   5  10 100.459 32.0303  23
  -2   5  10 131.923 41.7668  20
  -2   5   9 13469.7 549.051  20
   2  -5  -9 14090.4 455.593  32
  -2   5   9 14341.3 445.827  23
  -2   5   8 3410.71 340.214  10
  -2   5   8 4440.64 367.060  20
  -2   5   8 4767.45 269.478  24
  -2   5   8 4569.59 297.325  23
   2  -5  -8 4696.58 314.807  32
  -2   5   8 4355.29 297.890  11
   2  -5  -7 900.389 164.728  32
  -2   5   7 678.753 161.395  20
  -2   5   7 862.017 177.390  10
  -2   5   7 787.591 142.865  23
  -2   5   7 804.318 140.519  24
  -2   5   7 942.452 157.838  11
   2  -5  -6 97627.7 1620.10  32
  -2   5   6 107836. 2970.54   6
  -2   5   6 107141. 1700.33  24
  -2   5   6 111296. 1870.70  10
  -2   5   6 99574.2 1550.09  11
  -2   5   6 94631.6 1455.45  23
  -2   5   5 34918.0 972.382  17
  -2   5   5 33820.2 1006.96  24
   2  -5  -5 28960.8 954.790  31
  -2   5   5 34544.6 1772.19   6
  -2   5   5 33166.9 955.745  15
  -2   5   5 37903.5 1092.31  10
  -2   5   5 30703.1 842.655  11
   2  -5  -5 32634.8 919.609  32
  -2   5   4 9502.42 497.699  15
  -2   5   4 10747.6 586.167  10
  -2   5   4 8420.94 412.361  11
   2  -5  -4 8050.24 483.517  31
  -2   5   4 10322.5 522.467  17
  -2   5   3 313.305 108.933  10
  -2   5   3 417.759 507.557   3
   2  -5  -3 204.328 97.7565  31
  -2   5   3 208.529 94.1802  17
  -2   5   3 256.527 102.301  15
  -2   5   3 481.823 460.814  22
  -2   5   2 7337.18 1190.92  22
  -2   5   2 6199.45 729.279   6
  -2   5   2 6846.21 432.856  17
   2  -5  -2 5498.46 371.539  31
  -2   5   2 7588.90 533.751  10
  -2   5   1 31019.8 1880.96   9
  -2   5   1 27505.6 2329.30  22
  -2   5   1 25994.8 1420.31   6
  -2   5   1 27125.4 877.263  17
  -2   5   1 27553.6 1075.55  10
  -2   5   0 55566.4 1948.42   6
  -2   5   0 62311.3 1703.85  10
  -2   5   0 75714.6 3145.01   9
  -2   5   0 83251.0 2472.64  18
  -2   5   0 59457.4 1337.49  17
   2  -5   0 45938.0 1271.69  26
  -2   5   0 59897.2 3462.03  22
  -2   5   0 51680.1 4473.34   3
  -2   5  -1 7640.83 787.595  18
  -2   5  -1 5695.63 426.798  17
  -2   5  -1 8072.67 1077.16   9
  -2   5  -1 6663.04 1130.69  22
  -2   5  -1 6430.71 583.441  10
  -2   5  -2 11689.9 774.960  10
  -2   5  -2 10870.9 1351.53  22
  -2   5  -2 15943.4 1163.36  18
  -2   5  -2 12120.6 595.395  17
  -2   5  -2 15351.4 1551.55   9
  -2   5  -3 1937.50 394.649  18
  -2   5  -3 910.104 368.736  22
  -2   5  -3 850.008 215.800  10
  -2   5  -3 1570.16 525.572   9
  -2   5  -4 638.383 155.207  10
  -2   5  -4 345.756 277.218   9
  -2   5  -5 7316.41 336.653  10
  -2   5  -5 8768.15 759.455   9
  -2   4  10 18506.7 403.356  23
   2  -4 -10 17383.1 406.222  32
  -2   4  10 17064.3 505.685  20
  -2   4   9 295.285 95.6937  20
   2  -4  -9 300.820 79.3489  32
  -2   4   9 396.331 88.6140  23
  -2   4   9 273.870 74.1472  11
  -2   4   8 15154.6 716.934  20
   2  -4  -8 16032.0 622.981  32
  -2   4   8 16495.6 607.858  23
  -2   4   8 16637.4 594.353  11
  -2   4   7 606.977 129.359  11
  -2   4   7 494.359 146.681  20
  -2   4   7 463.116 101.911  24
  -2   4   7 503.705 147.567  10
  -2   4   7 392.441 107.996  23
   2  -4  -7 563.762 130.357  32
   2  -4  -6 60583.7 1283.56  32
  -2   4   6 53683.1 1361.91  20
  -2   4   6 62595.9 1247.55  24
  -2   4   6 54894.6 1168.98  23
   2  -4  -6 49506.9 1266.99  31
   2  -4  -6 48623.9 1556.25  29
  -2   4   6 43764.4 4175.09   3
  -2   4   6 63578.1 1392.11  10
  -2   4   6 58770.4 1205.97  11
  -2   4   5 73517.9 1417.02  10
  -2   4   5 68482.7 1346.79  24
   2  -4  -5 65814.6 1285.97  32
  -2   4   5 57934.5 1131.09  23
   2  -4  -5 57422.2 1263.58  31
  -2   4   5 65781.0 1294.27  15
  -2   4   5 70500.8 1295.44  17
  -2   4   5 61425.5 1168.80  11
   2  -4  -5 54593.8 1487.90  29
   2  -4  -4 44884.8 1210.49  29
   2  -4  -4 51151.8 1107.60  31
   2  -4  -3 51432.3 1050.90  31
  -2   4   3 58690.0 1464.37   2
  -2   4   2 33301.5 1176.25   2
   2  -4  -2 32567.2 805.251  31
   2  -4  -1 4537.25 294.567  31
  -2   4   1 3616.25 434.005   2
  -2   4   0 8488.63 1602.25   3
  -2   4   0 7913.22 756.927   2
  -2   4  -1 11501.2 1041.11  21
  -2   4  -1 7687.14 802.046   2
  -2   4  -1 13174.1 966.504  18
   2  -4   1 8188.86 479.252  26
  -2   4  -2 2454.61 370.906  10
   2  -4   2 1750.35 212.101  26
  -2   4  -2 3267.89 532.250  18
  -2   4  -2 3075.72 517.549   2
  -2   4  -2 2231.01 614.989   9
  -2   4  -2 2699.47 644.881  22
  -2   4  -2 3741.81 652.867  21
  -2   4  -3 76430.7 3537.84   9
  -2   4  -3 69813.5 2005.80  10
  -2   4  -3 77655.3 1344.98  13
  -2   4  -3 71689.2 3167.60  22
  -2   4  -3 73806.7 2853.74  21
  -2   4  -4 16662.7 1666.15   9
  -2   4  -4 15645.9 920.854  10
  -2   4  -4 17018.7 632.355  13
  -2   4  -4 17039.1 1312.64  21
  -2   4  -5 1175.31 233.539  10
  -2   4  -5 1368.99 165.746  13
  -2   4  -5 1185.61 424.637   9
  -2   4  -5 1366.40 346.387  21
  -2   4  -6 2155.35 431.687   9
  -2   4  -6 2229.46 227.399  10
   2  -3 -10 7571.84 280.050  32
  -2   3  10 7231.26 337.223  20
  -2   3  10 7758.59 261.237  23
  -2   3   9 21906.7 774.452  20
  -2   3   9 22847.0 622.197  23
   2  -3  -9 22432.8 654.315  32
   2  -3  -8 16739.3 655.029  32
  -2   3   8 17436.9 764.056  20
  -2   3   8 17403.8 633.647  23
  -2   3   8 16968.2 594.319  11
  -2   3   7 27765.9 975.287  20
  -2   3   7 26133.4 978.651  10
   2  -3  -7 30972.1 924.302  32
  -2   3   7 30328.5 849.664  11
  -2   3   7 29552.3 861.300  23
   2  -3  -6 4017.67 330.307  32
  -2   3   6 4063.18 353.462  10
   2  -3  -6 3798.14 383.355   1
   2  -3  -6 2969.04 386.181  29
  -2   3   6 3874.78 308.974  23
  -2   3   6 4227.59 298.836  24
  -2   3   6 4007.28 358.148  20
   2  -3  -6 3183.21 322.838  31
  -2   3   6 4095.42 408.132  27
  -2   3   6 4059.99 311.428  11
   2  -3  -5 2323.48 247.674  31
  -2   3   5 2759.51 323.907  27
   2  -3  -5 2631.86 325.670  29
   2  -3  -5 2287.52 274.820   1
  -2   3   4 2692.73 299.571  27
   2  -3  -4 3022.94 246.768  31
   2  -3  -4 2943.88 259.776   1
   2  -3  -4 2693.02 286.967  29
   2  -3  -3 13016.6 483.145  31
   2  -3  -3 11881.4 516.609  29
   2  -3  -3 12544.5 422.372   1
   2  -3  -2 84866.2 860.394   1
   2  -3  -2 87792.5 1158.00  31
   2  -3  -1 92111.1 1133.75  31
  -2   3   1 83197.9 1618.51   2
   2  -3   0 53803.3 850.737  31
  -2   3   0 49013.0 1526.91   2
   2  -3   1 14564.4 587.341  26
  -2   3  -1 13382.0 938.592   2
  -2   3  -1 14708.3 1884.27   3
  -2   3  -2 10817.4 933.598   2
   2  -3   2 10991.5 484.143  26
  -2   3  -3 1333.72 392.557  21
  -2   3  -3 1369.64 336.871  18
  -2   3  -3 1208.22 173.815  13
  -2   3  -3 1436.38 508.544   9
  -2   3  -3 565.200 176.994   2
  -2   3  -3 1861.43 391.464   8
  -2   3  -3 1200.89 175.085  14
   2  -3   3 913.552 147.107  26
  -2   3  -4 44521.9 1854.79  18
  -2   3  -4 35531.5 2483.04   9
   2  -3   4 31141.6 883.650  26
   2  -3   4 26516.0 1022.78  27
  -2   3  -4 37690.2 996.657  14
  -2   3  -4 36526.3 977.163  13
  -2   3  -4 35368.5 1969.45  21
  -2   3  -5 1521.88 576.414   9
  -2   3  -5 1569.39 203.152  14
  -2   3  -5 1615.39 206.477  13
  -2   3  -5 2152.58 397.396  18
  -2   3  -5 1001.51 339.692  21
  -2   3  -6 20558.1 1644.33   9
  -2   3  -6 23074.7 681.104  14
  -2   3  -6 23669.8 707.601  13
  -2   3  -6 22401.4 1303.00  21
  -2   3  -7 12855.8 969.543   9
  -2   3  -7 12032.4 529.308  10
  -2   3  -7 12994.1 416.240  13
  -2   3  -7 12519.0 687.758  21
  -2   2  10 2001.18 165.725  20
   2  -2 -10 2169.21 141.606  32
  -2   2  10 1939.48 111.426  23
  -2   2   9 2794.74 272.951  20
  -2   2   9 2888.89 212.102  23
   2  -2  -9 2854.28 230.654  13
   2  -2  -9 3100.45 239.061  32
  -2   2   8 1987.60 257.531  20
   2  -2  -8 1897.75 219.310  32
  -2   2   8 1967.11 208.577  23
   2  -2  -8 1462.30 205.414  13
  -2   2   8 1964.01 194.197  11
  -2   2   7 8061.17 513.028  20
   2  -2  -7 8117.35 471.293  32
  -2   2   7 7734.04 437.092  23
  -2   2   7 7851.84 418.025  11
   2  -2  -6 59819.1 1584.81   1
   2  -2  -6 66753.8 1301.05  32
  -2   2   6 57475.2 1359.26  10
  -2   2   6 62607.8 1341.52  20
  -2   2   6 63127.6 1152.48  11
   2  -2  -6 55281.9 1700.28  29
  -2   2   6 62284.0 1193.13  23
  -2   2   6 63846.1 1416.56  27
   2  -2  -5 16786.7 761.730   1
  -2   2   5 16847.6 661.291  27
   2  -2  -5 15159.0 632.200  31
   2  -2  -5 15043.5 768.457  29
   2  -2  -4 57744.1 1227.31   1
  -2   2   4 62616.6 1166.70  27
   2  -2  -4 61149.7 1065.55  31
   2  -2  -4 60726.2 1319.58  29
   2  -2  -3 26868.7 701.856   1
  -2   2   3 27753.9 773.753  27
   2  -2  -3 28009.9 644.025  31
  -2   2   3 26815.6 423.219  28
  -2   2   2 403.793 102.248  27
  -2   2   2 326.264 307.536   3
   2  -2  -2 665.408 106.208  31
   2  -2  -2 416.389 99.8339  29
   2  -2  -2 409.092 74.2986   1
  -2   2   2 548.896 59.2490  28
   2  -2  -1 36991.4 711.335  29
   2  -2  -1 36785.4 667.056  31
   2  -2  -1 37792.8 522.110   1
   2  -2   0 2071.69 149.322  31
  -2   2   0 1903.49 251.239   2
   2  -2   1 38360.9 630.522  31
  -2   2  -1 33201.4 1225.21   2
   2  -2   1 37143.1 834.966  26
  -2   2  -1 35874.1 2414.04   3
   2  -2   2 105996. 1373.04  26
  -2   2  -2 106577. 1249.91   1
  -2   2  -3 46141.3 1041.39   1
   2  -2   3 48657.3 950.846  26
  -2   2  -4 13407.5 1446.28   9
  -2   2  -4 12223.7 552.519  14
   2  -2   4 11895.1 509.834  26
  -2   2  -4 11148.4 998.223   2
  -2   2  -4 13488.5 582.439  13
  -2   2  -4 12710.7 1087.19  21
   2  -2   5 21018.7 680.670  33
  -2   2  -5 22605.2 2019.03   9
  -2   2  -5 21377.9 776.799  14
  -2   2  -5 23059.2 800.905  13
  -2   2  -5 20660.3 1460.12  21
   2  -2   6 4448.15 309.976  33
  -2   2  -6 4556.75 925.527   9
  -2   2  -6 4617.88 352.332  14
  -2   2  -6 4684.31 358.763  13
  -2   2  -6 3845.53 621.141  21
  -2   2  -7 40780.2 908.735  14
   2  -2   7 36630.4 772.150  33
  -2   2  -7 40676.5 924.810  13
  -2   2  -7 38964.6 1646.01  21
  -2   2  -7 37508.3 2169.95   9
  -2   2  -8 1740.10 192.125  10
  -2   2  -8 2306.20 166.957  13
  -2   2  -8 1708.42 330.256   9
  -2   2  -8 2158.21 150.576  14
  -2   2  -8 1720.41 230.089  21
   2  -1 -10 1425.37 262.903   9
   2  -1  -9 34546.6 810.950  13
  -2   1   9 34654.2 866.891  20
  -2   1   9 33807.9 626.826  23
   2  -1  -9 35307.4 741.150  32
  -2   1   8 17210.6 711.177  20
   2  -1  -8 18011.3 645.569  32
  -2   1   8 17283.6 576.807  23
  -2   1   7 70.8473 49.2627  11
  -2   1   7 60.1385 62.9196  20
   2  -1  -7-22.7495 65.6816  32
  -2   1   7 69.7229 39.9045  23
  -2   1   6 591.878 117.047  11
  -2   1   6 469.874 118.106  20
  -2   1   6 407.049 108.834  28
   2  -1  -6 513.380 122.073  32
   2  -1  -6 544.439 176.892   1
  -2   1   6 422.829 106.936  23
  -2   1   6 372.930 90.5690  27
   2  -1  -5 2690.96 314.827   1
  -2   1   5 2890.90 249.666  27
  -2   1   5 2509.59 252.305  28
   2  -1  -5 2266.72 251.920  31
   2  -1  -5 2351.37 332.206  29
   2  -1  -4 41132.8 925.660  31
   2  -1  -4 40395.2 1121.37  29
  -2   1   4 39044.9 844.352  28
   2  -1  -4 39646.9 1070.75   1
  -2   1   3 366127. 2259.01  27
   2  -1  -3 360536. 2889.14  29
  -2   1   3 362350. 2157.65  28
   2  -1  -3 363410. 2391.67  31
  -2   1   2 10964.5 281.638  28
   2  -1  -2 11415.5 385.790  31
   2  -1  -2 10307.1 438.601  29
  -2   1   2 10641.6 385.680  27
   2  -1  -2 9992.58 365.800   1
  -2   1   1 17047.2 318.728  28
   2  -1  -1 16408.3 366.048   1
   2  -1   0 138555. 1181.70  31
  -2   1   0 137045. 1562.10   2
  -2   1  -1 1360.52 215.493   2
  -2   1  -1 1325.37 156.615  28
   2  -1   1 1601.76 155.569  26
   2  -1   1 1940.56 140.649  31
   2  -1   2 79775.7 770.830  30
   2  -1   2 82559.9 1047.17  26
   2  -1   3 12144.4 429.489  26
  -2   1  -3 11113.2 448.802   1
  -2   1  -4 47149.2 1132.17   1
  -2   1  -4 46271.5 1918.21   2
  -2   1  -5 103230. 1642.14  13
   2  -1   5 86019.3 1648.70  27
  -2   1  -5 111655. 4254.48   9
   2  -1   5 75064.9 1567.45  26
  -2   1  -5 95326.4 1968.66   1
  -2   1  -5 99167.2 2868.19  21
  -2   1  -6 2279.52 688.212   9
  -2   1  -6 2610.78 279.862  14
  -2   1  -6 2979.78 293.709  13
  -2   1  -6 2970.30 539.415  21
   2  -1   7 352.792 100.802  33
  -2   1  -7 116.173 69.8881  14
  -2   1  -7 239.813 92.7976  13
  -2   1  -7 173.664 170.804  21
   2  -1   8 191.689 66.4561  33
  -2   1  -8 94.7634 178.133   9
  -2   1  -8 287.970 81.2774  14
  -2   1  -8 228.633 79.7822  13
  -2   1  -8 97.4023 115.752  21
  -2   1  -9 94.2454 30.1820  14
  -2   0   9 3240.21 224.638  20
   2   0  -9 3886.40 206.808  32
   2   0  -9 3879.55 258.707  13
   2   0  -9 4100.52 618.117   9
  -2   0   8 30697.1 878.972  20
   2   0  -8 31255.2 783.051  32
   2   0  -8 29436.4 932.672  13
  -2   0   7 1741.65 227.239  20
   2   0  -7 1801.55 213.158  32
  -2   0   7 1831.44 194.555  23
   2   0  -6 52240.7 1509.79   1
   2   0  -6 53802.9 1145.36  32
  -2   0   6 54640.1 1151.91  27
  -2   0   6 51591.6 1023.79  23
  -2   0   5 57534.0 1063.64  27
   2   0  -5 55242.2 1433.15   1
   2   0  -4 1791.91 221.326  31
  -2   0   4 2031.58 180.447  27
   2   0  -4 1796.46 235.912   1
  -2   0   3 7851.91 378.936  28
  -2   0   3 8694.55 326.977  27
   2   0  -3 8248.56 394.311  31
   2   0  -3 8565.48 440.927   1
   2   0  -2 1307.84 142.144   1
  -2   0   2 1589.40 130.369  27
   2   0  -2 1533.51 159.156  31
  -2   0   2 1537.00 143.210  28
   2   0  -1 165004. 1538.56  31
  -2   0   1 166644. 1102.86  28
   2   0  -1 164638. 1223.29   1
  -2   0   1 161887. 1222.85  27
  -2   0   0 970995. 3431.95  27
   2   0   0 999999. 3413.69  31
   2   0   1 131371. 1227.32  31
  -2   0  -1 130459. 1120.92  28
  -2   0  -2 14048.0 216.526  29
  -2   0  -2 14163.9 742.211   2
  -2   0  -2 14268.7 520.089  28
   2   0   2 14968.0 345.424  30
  -2   0  -3 10741.6 762.930   2
  -2   0  -3 14246.9 256.837  29
   2   0   3 14291.3 414.743  26
   2   0   3 11448.1 335.435  30
  -2   0  -4 44.2568 39.7097   1
  -2   0  -4-12.8768 135.319   2
   2   0   4 3.27047 39.1983  26
   2   0   4 154.495 45.7572  30
  -2   0  -5 81582.0 1688.75   1
   2   0   5 80119.4 1473.77  27
  -2   0  -6 34809.9 1287.13   1
   2   0   6 35547.3 1006.69  27
  -2   0  -6 39319.1 1001.23  32
   2   0   6 38551.5 1085.82  26
  -2   0  -6 39174.4 1042.65  13
  -2   0  -6 38565.1 1759.05  21
  -2   0  -7 220.507 102.430  13
  -2   0  -7 134.796 161.813  21
  -2   0  -8 36249.9 2218.42   9
   2   0   8 36340.0 879.666  33
  -2   0  -8 38677.9 972.750  14
  -2   0  -8 39103.4 931.970  13
  -2   0  -8 38263.5 1642.24  21
   2   0   9 836.349 106.672  33
  -2   0  -9 994.893 286.344   9
  -2   0  -9 1038.88 125.339  14
  -2   0  -9 986.909 114.536  13
  -2   0  -9 951.793 208.608  21
   2   1  -9 1318.98 303.068   9
   2   1  -9 1377.44 132.010  13
  -2  -1   8 957.051 136.733  20
   2   1  -8 1227.82 131.511  32
   2   1  -8 934.108 396.364   9
   2   1  -8 1161.17 176.712  13
  -2  -1   7 193.546 72.9929  20
   2   1  -7 143.850 66.6777  32
   2   1  -7 187.815 94.7315  13
  -2  -1   6 583.831 127.983  20
   2   1  -6 602.433 122.619  32
  -2  -1   6 530.902 148.366  28
  -2  -1   6 687.598 135.063  27
   2   1  -6 494.798 313.046  18
   2   1  -6 1149.42 213.163   1
  -2  -1   5 128205. 1647.13  27
   2   1  -5 128990. 2200.28   1
  -2  -1   4 22714.3 616.047  27
   2   1  -4 21558.6 799.576   1
   2   1  -3 5557.03 396.194  31
  -2  -1   3 6601.85 292.484  27
  -2  -1   3 5859.63 267.768  26
   2   1  -3 5441.95 351.161   1
   2   1  -2 105053. 1284.00   1
   2   1  -2 105072. 1514.21  31
   2   1  -1 21914.0 653.050  31
  -2  -1   1 21326.2 372.174  27
   2   1  -1 21386.3 454.886   1
  -2  -1   1 22611.7 492.562  28
   2   1   0 66448.0 386.135  26
   2   1   0 65602.2 1073.20  31
  -2  -1   0 70467.6 659.623  28
  -2  -1   0 66179.1 646.212  27
   2   1   0 70386.1 646.004   1
  -2  -1  -1 160985. 1530.78   2
  -2  -1  -1 160044. 1027.98  28
   2   1   1 163819. 862.171  26
  -2  -1  -2 1617.26 98.3408  29
  -2  -1  -2 1916.87 160.671  28
  -2  -1  -2 1606.05 235.925   2
   2   1   2 2041.76 127.758  26
   2   1   2 1569.34 119.024  30
   2   1   3 326148. 2175.05  26
  -2  -1  -3 331330. 3863.97   2
   2   1   3 336634. 1950.24  30
  -2  -1  -4 9850.77 278.166  29
   2   1   4 8894.36 404.788  27
   2   1   4 8148.45 424.249  26
  -2  -1  -4 9014.72 713.880   2
   2   1   4 8091.57 339.707  30
  -2  -1  -4 8423.58 417.434   1
  -2  -1  -5 16731.0 724.727   1
  -2  -1  -5 17499.9 455.821  29
   2   1   5 18318.3 686.616  26
   2   1   5 17519.1 625.352  27
  -2  -1  -6 16778.3 875.031   1
   2   1   6 17521.5 631.993  27
   2   1   6 17475.4 580.428  23
  -2  -1  -6 18408.9 668.981  13
  -2  -1  -6 19042.6 666.677  32
  -2  -1  -6 19077.8 1109.85  21
   2   1   6 17746.8 715.057  26
  -2  -1  -7 10568.9 528.141  13
  -2  -1  -7 10640.7 530.490  32
  -2  -1  -7 9704.10 868.203  21
  -2  -1  -8 50584.6 1088.02  32
  -2  -1  -8 50553.4 1078.91  13
  -2  -1  -8 47274.0 1852.28  21
  -2  -1  -9 31060.2 687.881  13
   2   1   9 29932.3 726.069  33
  -2  -1  -9 30316.6 761.917  14
  -2  -1  -9 30832.4 1761.17   9
  -2  -1  -9 27902.4 1208.61  21
  -2  -1 -10 1362.71 110.406  14
   2   1  10 1620.60 118.455  33
   2   2  -8 3651.84 582.650   9
   2   2  -8 4532.33 286.609  13
   2   2  -7 23529.2 1386.36  18
   2   2  -7 27268.2 1968.10   9
   2   2  -7 27480.0 905.478  13
  -2  -2   6 8731.30 450.315  20
   2   2  -6 7789.89 537.913  13
   2   2  -5 5085.65 831.374  18
   2   2  -5 4811.90 405.097   1
  -2  -2   5 5593.66 353.094  27
   2   2  -5 5458.18 699.395   8
   2   2  -4 35721.5 1025.97   1
  -2  -2   4 34342.0 787.569  27
   2   2  -3 47348.5 1020.87   1
  -2  -2   3 47006.8 816.683  27
   2   2  -2 119796. 1366.88   1
  -2  -2   2 119773. 1116.62  27
  -2  -2   1 5390.93 279.558  28
   2   2  -1 5812.88 235.178   1
  -2  -2   1 5558.97 202.412  27
   2   2   0 23012.7 361.071   1
   2   2   0 24332.9 427.277  30
  -2  -2   0 22530.1 438.995  28
  -2  -2   0 22500.6 311.065  27
   2   2   0 21158.8 1287.60   3
  -2  -2  -1 168773. 1299.48   2
   2   2   1 172278. 1218.05  30
  -2  -2  -2 56031.1 680.998  29
   2   2   2 57537.0 796.585  30
  -2  -2  -2 57545.5 711.444  28
  -2  -2  -2 58681.7 1187.45   2
   2   2   2 58526.9 671.986  26
   2   2   3 83856.4 1065.15  30
  -2  -2  -3 78080.8 1181.06  28
  -2  -2  -3 83515.3 828.098  29
   2   2   3 87357.9 838.089  27
   2   2   3 91959.9 1058.89  26
  -2  -2  -3 91929.9 1801.88   2
   2   2   4 30262.0 717.677  26
   2   2   4 27029.4 681.898  30
  -2  -2  -4 26620.5 504.385  31
   2   2   4 29283.1 578.830  27
  -2  -2  -4 27898.3 499.416  29
  -2  -2  -4 27243.0 733.565   1
  -2  -2  -5 29555.6 946.302   1
   2   2   5 31700.3 847.503  26
   2   2   5 29244.8 657.877  27
  -2  -2  -5 29839.3 589.605  29
  -2  -2  -6 89830.4 1224.19  29
   2   2   6 90517.1 1609.36  26
  -2  -2  -6 90397.5 1995.21   1
  -2  -2  -7 18609.9 686.972  32
   2   2   7 17390.5 621.904  23
   2   2   7 19011.3 852.252  26
  -2  -2  -7 17637.7 641.354  13
  -2  -2  -7 17264.9 968.356   1
  -2  -2  -7 17830.4 1091.13  21
  -2  -2  -8 121.499 72.7927  32
  -2  -2  -8 127.987 60.5201  13
  -2  -2  -8 19.5371 119.381  21
   2   2   9 117.618 64.7664  33
  -2  -2  -9 16.0437 39.5884  14
  -2  -2  -9 7.59701 33.6159  13
  -2  -2  -9 140.208 142.757  21
  -2  -2 -10 712.735 96.1895  14
  -2  -2 -10 873.520 231.228   9
   2   2  10 729.552 93.9779  33
  -2  -2 -10 553.734 147.473  21
   2   3  -8 2851.50 158.683  13
   2   3  -8 2973.83 361.681   9
   2   3  -7 17619.2 1365.24   9
   2   3  -7 17616.3 603.200  13
   2   3  -7 17245.2 994.952  18
   2   3  -6 25323.2 1294.73   8
   2   3  -6 20604.6 1784.09   9
   2   3  -6 22345.4 821.911  13
   2   3  -6 21378.8 1527.16  18
   2   3  -5 2824.51 643.997  18
   2   3  -5 2417.69 670.092   9
   2   3  -5 2722.09 517.007   8
   2   3  -5 2089.47 275.828  13
  -2  -3   4 31407.1 1085.06  28
  -2  -3   4 33668.5 823.677  27
   2   3  -4 34436.9 3348.86  25
   2   3  -4 32822.4 2140.64  18
   2   3  -4 34359.4 1888.95   8
   2   3  -4 33186.4 2305.70   9
  -2  -3   3 98.6506 53.0431  27
   2   3  -3-130.837 265.750   5
   2   3  -3 157.853 398.792   4
  -2  -3   2 4983.37 252.265  27
  -2  -3   2 5412.38 366.703  28
   2   3  -2 5357.58 270.549   1
  -2  -3   1 12799.5 476.147  28
  -2  -3   1 13855.1 350.376  27
  -2  -3   0 132064. 1265.60  28
   2   3   0 134779. 1126.60  30
   2   3   1 187226. 4360.45   3
   2   3   1 97252.7 4161.56   5
   2   3   1 113590. 3784.97   4
   2   3   2 45907.1 807.396  30
   2   3   2 14819.0 1595.33   5
   2   3   2 24832.1 1632.57   4
  -2  -3  -2 44146.7 571.476  28
  -2  -3  -2 43098.6 668.741  29
   2   3   3 102697. 1350.02  30
  -2  -3  -3 96622.1 1008.52  29
  -2  -3  -3 96839.6 1199.69  28
   2   3   3 98628.8 1243.56  26
  -2  -3  -3 103760. 1167.70   1
  -2  -3  -4 15095.1 564.226   1
   2   3   4 14972.6 558.614  26
  -2  -3  -4 14056.0 389.145  29
   2   3   4 14146.6 543.880  30
  -2  -3  -5 14868.8 435.996  31
   2   3   5 15124.0 608.603  30
  -2  -3  -5 16072.0 709.933   1
   2   3   5 16042.4 669.525  26
  -2  -3  -5 15056.0 441.244  29
  -2  -3  -6 691.947 110.356  29
   2   3   6 1045.67 203.633  26
  -2  -3  -6 925.013 213.569   1
   2   3   6 891.439 161.367  30
   2   3   7 74267.2 1605.83  20
  -2  -3  -7 71034.5 1308.22  32
   2   3   7 65906.0 1404.18  30
  -2  -3  -7 70034.3 1951.37   1
   2   3   7 75715.9 1841.37  26
   2   3   7 73085.1 1288.50  23
  -2  -3  -7 69297.6 1255.07  29
   2   3   8 2573.50 295.226  20
  -2  -3  -8 2562.12 252.082  32
  -2  -3  -8 2440.32 398.121  21
   2   3   8 2424.02 233.650  23
   2   3   9 7674.24 440.168  20
  -2  -3  -9 7904.92 390.018  32
   2   3   9 7867.93 396.752  33
  -2  -3  -9 7114.42 632.472  21
  -2  -3 -10 31889.4 623.517  14
  -2  -3 -10 31942.7 1427.92   9
   2   3  10 34598.5 640.980  33
  -2  -3 -10 31377.9 1063.64  21
   2   4  -7 2993.08 291.811  18
   2   4  -7 2916.87 401.044   9
   2   4  -7 2849.28 158.773  13
   2   4  -6 4863.75 749.485   9
   2   4  -6 5057.40 517.408   8
   2   4  -6 4249.29 288.319  13
   2   4  -6 3611.59 545.037  18
   2   4  -5 6213.99 418.929  13
   2   4  -5 5608.54 828.549  18
   2   4  -5 6656.70 1046.33   9
   2   4  -5 6840.97 762.015   8
   2   4  -4 55746.6 3423.04  19
   2   4  -4 40122.3 2575.86   9
   2   4  -4 39787.5 2067.89   8
   2   4  -4 40111.5 2361.83  18
   2   4  -4 44302.5 1165.10  13
   2   4  -4 55052.1 4427.46  25
   2   4  -3 38345.8 2922.80  19
   2   4  -3 32741.8 2150.08  18
  -2  -4   3 28978.0 1008.19  28
  -2  -4   3 30363.1 742.944  27
   2   4  -3 30165.3 2109.79   9
   2   4  -3 35669.7 3638.92  25
   2   4  -3 31686.8 1890.86   8
  -2  -4   2 33658.4 986.189  28
  -2  -4   2 35520.4 732.079  27
  -2  -4   1 48220.3 1006.73  28
  -2  -4   1 49750.3 735.237  27
   2   4   0 573.631 537.235   3
   2   4   0 568.922 495.066   4
  -2  -4   0 1418.27 141.447  28
   2   4   1 3624.89 235.767  30
  -2  -4  -1 3224.52 161.727  28
  -2  -4  -2 109716. 1203.47  29
  -2  -4  -2 107140. 873.374  28
  -2  -4  -3 36781.7 746.075   1
   2   4   3 36285.1 883.257  30
  -2  -4  -3 34045.3 659.988  29
  -2  -4  -4 11531.0 517.190   1
   2   4   4 12011.5 555.758  30
  -2  -4  -4 11200.6 386.280  29
  -2  -4  -4 11166.9 482.596  31
  -2  -4  -5 173461. 1813.27  31
  -2  -4  -5 172874. 1613.98  29
   2   4   6 18097.0 771.863  20
  -2  -4  -6 16949.6 871.059   1
   2   4   6 16815.3 746.549  30
  -2  -4  -6 17146.1 558.168  29
   2   4   6 18114.8 591.600  24
   2   4   6 16827.6 579.202  23
   2   4   7 3615.96 370.153  20
  -2  -4  -7 3222.36 420.900   1
  -2  -4  -7 3259.56 273.715  29
   2   4   7 3262.12 253.607  24
   2   4   7 3546.19 285.442  23
  -2  -4  -7 3286.28 270.578  32
  -2  -4  -7 4096.84 500.135  21
   2   4   8 14595.5 736.230  20
   2   4   8 13504.3 530.593  33
  -2  -4  -8 13539.2 549.679  32
   2   4   8 14164.4 570.224  23
  -2  -4  -8 15460.5 958.932  21
   2   4   9 267.746 107.220  20
  -2  -4  -9 215.566 65.0304  32
   2   4   9 409.163 93.7880  33
  -2  -4  -9 131.461 122.806  21
   2   4  10 21321.4 585.611  20
   2   4  10 22262.3 475.388  33
  -2  -4 -10 19280.5 437.235  14
  -2  -4 -10 20067.5 857.181  21
   2   5  -6 11602.6 773.673   9
   2   5  -6 14762.0 774.917  18
   2   5  -5 8571.01 850.335  18
   2   5  -5 10051.4 799.432   8
   2   5  -5 8975.11 977.465   9
   2   5  -4 715.956 458.714  19
   2   5  -4 605.534 372.841   9
   2   5  -4 400.241 242.444  18
   2   5  -4 567.070 486.974  25
   2   5  -4 602.308 261.567   8
   2   5  -3 863.641 471.926  19
   2   5  -3 379.318 258.190  18
   2   5  -3 759.010 359.249   9
   2   5  -3 168.232 523.516  25
   2   5  -3 1026.70 382.203   8
   2   5  -3 526.901 453.683  22
   2   5  -2 19971.5 2928.40  16
   2   5  -2 15315.3 1458.23  18
   2   5  -2 14349.6 1415.47   9
   2   5  -2 19547.5 2839.25  25
   2   5  -2 9921.53 1829.19   5
   2   5  -2 18117.5 2160.04  19
   2   5  -2 15118.8 1328.66   8
   2   5  -2 19207.5 1667.04  22
   2   5  -2 7028.21 1662.16   4
   2   5  -1 4294.70 1434.18  16
   2   5  -1 5501.45 1537.95  25
   2   5  -1 3923.97 1004.26  19
   2   5  -1 1783.27 847.818   4
  -2  -5   0 81826.2 1186.73  29
   2   5   0 39639.6 3684.85   5
   2   5   0 40892.4 3530.25   4
   2   5   0 83029.5 4809.03   3
   2   5   1 5805.30 1169.04   3
   2   5   1 3143.15 990.639   4
   2   5   2 5309.07 342.013  30
  -2  -5  -2 5002.84 280.194  29
   2   5   3 19947.1 731.443  30
  -2  -5  -3 18111.7 533.108  29
  -2  -5  -4 37.7386 43.9605  31
   2   5   4 3.12330 31.7852  30
   2   5   4 84.3014 235.651   5
  -2  -5  -4 70.0955 41.1791  29
  -2  -5  -5 87646.8 1250.91  29
  -2  -5  -5 83230.8 1466.07  31
   2   5   6 108272. 1973.32  20
   2   5   6 107291. 2025.77  30
  -2  -5  -6 97258.8 1443.56  31
  -2  -5  -6 104627. 1464.33  29
   2   5   6 106809. 1488.28  24
   2   5   6 98890.3 1398.68  23
  -2  -5  -7 48.2723 193.328  21
   2   5   7 83.4356 83.5490  20
   2   5   7 22.9549 48.1077  24
   2   5   7 102.456 46.0154  23
   2   5   8 8657.52 573.267  20
   2   5   8 8345.73 400.298  24
   2   5   8 8389.33 427.707  23
  -2  -5  -8 9766.54 742.040  21
   2   5   9 23080.1 839.729  20
   2   5   9 23661.9 653.003  12
  -2  -5  -9 21911.0 566.460  32
  -2  -5  -9 24285.7 1088.17  21
   2   5  10 2888.42 232.298  20
  -2  -5 -10 3105.34 325.637  21
   2   6  -5 14483.5 770.470  18
   2   6  -5 16588.3 742.379   8
   2   6  -4 8277.43 862.731   9
   2   6  -4 9120.10 856.038  18
   2   6  -4 11226.0 840.041   8
   2   6  -3 380.024 313.976  19
   2   6  -3 512.043 299.870  18
   2   6  -3 1156.26 454.945  22
   2   6  -3 906.775 407.008   9
   2   6  -3 667.995 610.140  25
   2   6  -3 530.454 241.445   8
   2   6  -2 33571.9 3787.78  25
   2   6  -2 27475.9 2730.38  19
   2   6  -2 20750.3 1659.20   9
   2   6  -2 31386.4 2005.74  22
   2   6  -2 25325.6 1655.65   8
   2   6  -2 24139.4 1735.88  18
   2   6  -1 8095.15 989.218  18
   2   6  -1 8982.39 1659.81  19
   2   6  -1 9000.84 620.161   6
   2   6  -1 13141.1 2472.76  16
   2   6  -1 10670.9 2194.51  25
   2   6  -1 8195.54 986.148   8
   2   6  -1 8799.56 1069.41   9
   2   6  -1 10051.7 1419.46  22
  -2  -6   0 8449.83 535.442  31
   2   6   0 18620.7 2303.75  19
   2   6   0 19283.7 1424.42  18
   2   6   0 25173.3 3272.98  16
   2   6   0 20777.6 1569.69   9
   2   6   0 25936.3 3348.21  25
   2   6   0 12005.6 2275.54   5
   2   6   0 18832.6 943.182   6
   2   6   0 18793.5 1450.37   8
   2   6   0 8988.36 1907.25   4
   2   6   0 26103.0 1983.18  22
   2   6   1 34068.0 3366.75   3
   2   6   1 34499.6 3081.09  19
  -2  -6  -1 36113.1 1144.38  31
   2   6   1 42733.6 1486.07   6
   2   6   1 44353.4 4246.95  16
   2   6   1 54655.7 4484.72  25
   2   6   1 19522.9 2838.89   5
   2   6   1 55062.5 2793.57  22
   2   6   2 9469.15 1561.58  19
  -2  -6  -2 11330.7 441.994  29
   2   6   2 13937.0 2442.12  16
   2   6   2 14595.0 919.012   6
  -2  -6  -2 12032.1 663.010  31
   2   6   2 18066.0 1564.50  22
   2   6   3 15865.3 2541.91  16
   2   6   3 17307.5 1033.89   6
  -2  -6  -3 13798.3 500.700  29
  -2  -6  -3 14404.7 716.385  31
   2   6   4 38988.7 1097.73  20
   2   6   4 35494.7 3702.83  16
  -2  -6  -4 39171.0 1137.15  31
   2   6   4 42543.1 1229.50  30
   2   6   4 40580.6 877.500  24
  -2  -6  -4 38478.3 858.673  29
  -2  -6  -5 20753.9 805.155  31
  -2  -6  -5 21343.6 674.454  29
   2   6   5 21553.1 681.591  24
   2   6   5 19951.2 835.485  20
   2   6   6 26918.6 1012.54  20
   2   6   6 26676.3 768.644  24
   2   6   7 256.230 117.484  20
   2   6   7 547.386 116.971  24
  -2  -6  -8 313.189 151.038  21
   2   6   8 268.736 120.692  20
   2   6   8 196.436 64.2601  24
   2   6   9 68065.4 1395.59  20
   2   6   9 65295.7 1090.41  12
  -2  -6  -9 65586.1 1652.93  21
   2   6  10 66.3318 45.3645  20
   2   6  10 22.9804 24.3372  12
  -2  -6 -10 93.8693 72.0506  21
   2   7  -4 1520.47 215.556  18
   2   7  -3 4801.15 506.077   8
   2   7  -3 3794.45 486.341   9
   2   7  -3 4294.60 510.158  18
   2   7  -2 26571.8 2406.93  19
   2   7  -2 26261.2 1445.94  18
   2   7  -2 25848.9 1528.96   9
   2   7  -2 26756.4 1405.65   8
   2   7  -2 26637.9 1581.42  22
   2   7  -1 39090.0 3257.88  19
   2   7  -1 35088.9 1932.57   9
   2   7  -1 36415.8 1822.35  18
   2   7  -1 34609.0 1713.27   8
   2   7  -1 35430.4 1072.58   6
   2   7  -1 38954.9 2252.05  22
   2   7   0-120.183 423.041  19
   2   7   0 421.565 269.844   9
   2   7   0 487.745 230.768  18
   2   7   0 1.06187 147.606   8
   2   7   0-413.175 798.397  16
   2   7   0 68.1630 515.624  25
   2   7   0 446.586 275.551   6
   2   7   0 672.410 1097.88  22
   2   7   1 1204.75 945.598  25
   2   7   1 823.197 353.942   9
   2   7   1 607.154 226.437   6
   2   7   1-5.14569 646.355  16
   2   7   1 379.051 978.497  22
   2   7   1 434.303 512.124  19
   2   7   2 9957.94 1032.33   9
   2   7   2 6415.88 625.539   6
   2   7   2 6924.90 1842.43  16
   2   7   2 3797.91 1031.78  19
   2   7   2 7857.52 1389.01  22
   2   7   3 7768.24 1491.85  19
   2   7   3 8184.77 2015.87  16
   2   7   3 11252.2 854.837   6
   2   7   4 59658.9 1362.71  20
   2   7   4 61483.8 5038.05  16
   2   7   4 57588.5 1029.92  24
   2   7   4 64816.9 2035.81   6
   2   7   4 56828.1 1110.40  12
   2   7   5 285.084 109.714  20
   2   7   5 143.608 65.2839  24
   2   7   5 304.873 162.150   6
   2   7   5 112.037 62.5701  12
   2   7   6 2182.63 281.897  20
   2   7   6 2329.28 223.744  24
   2   7   7 34312.0 1099.83  20
   2   7   7 32599.8 808.949  24
   2   7   8 4964.41 396.638  20
   2   7   8 4614.55 323.100  12
   2   7   8 4800.09 283.102  24
  -2  -7  -8 5176.00 485.925  21
   2   7   9 5355.90 354.641  20
   2   7   9 5088.87 279.724  12
  -2  -7  -9 4851.13 413.630  21
   2   7  10 4939.30 245.826  20
  -2  -7 -10 4111.28 290.361  21
   2   8  -2 2574.64 288.835  18
   2   8  -1 3040.79 812.292  19
   2   8  -1 3466.90 402.069  18
   2   8  -1 2961.63 431.358   9
   2   8  -1 3578.37 406.857   8
   2   8  -1 2482.30 593.805  22
   2   8   0-10.2146 354.413  19
   2   8   0-64.1654 120.385  18
   2   8   0 35.3055 147.920   9
   2   8   0 60.9527 267.155   6
   2   8   0 5.27265 120.033   8
   2   8   0 9.45539 515.938  22
   2   8   1 4321.31 1095.34  19
   2   8   1 4100.54 481.976   6
   2   8   1 4321.68 644.745   9
   2   8   1 4890.82 1086.06  22
   2   8   2 64818.0 4082.26  19
   2   8   2 82416.4 3359.49  22
   2   8   2 64354.6 1802.30   6
   2   8   2 83069.5 5954.75  16
   2   8   3 4826.79 531.598   6
   2   8   3 3907.07 1009.08  19
   2   8   3 4646.07 1407.28  16
   2   8   3 5453.14 990.382  22
   2   8   4-386.354 676.854  16
   2   8   4 232.350 168.018   6
   2   8   4 462.461 413.886  22
   2   8   5 305.405 181.107   6
   2   8   5 189.291 69.2464  24
   2   8   5 47.8359 40.4443  12
   2   8   6 154.108 80.9208  20
   2   8   6 199.497 190.740   6
   2   8   6 297.888 73.9500  24
   2   8   6 259.708 76.2300  12
   2   8   7 26442.3 828.679  20
   2   8   7 24583.4 619.187  24
   2   8   7 25143.7 706.271  12
   2   8   8 23637.0 713.450  20
   2   8   8 22415.5 604.234  12
   2   8   9 5101.12 267.635  20
   2   8   9 5115.14 230.572  12
  -2  -8  -9 4691.03 334.730  21
   2   9   1 579.077 314.758  19
   2   9   1 292.889 184.204   6
   2   9   1 823.574 548.356  22
   2   9   2 6326.93 1055.36  19
   2   9   2 6815.93 502.178   6
   2   9   2 6946.39 866.983  22
   2   9   3 11727.6 694.130   6
   2   9   3 13561.1 1134.71  22
   2   9   4 7426.90 566.900   6
   2   9   5 23753.8 920.826   6
   2   9   6 1427.90 245.526   6
  -2  -9  -7 976.975 163.321  21
   2   9   7 980.069 97.5237  12
  -2  -9  -8 1121.99 144.517  21
   2  10   4 608.598 144.231   6
  -3   8   5 16935.7 483.017  10
  -3   8   5 15500.2 643.319   6
  -3   8   4 14546.6 478.024  10
  -3   8   4 13454.3 632.411   6
  -3   8   3 994.294 168.062   6
  -3   8   3 1236.68 188.883  10
  -3   8   3 1073.75 276.466  22
  -3   8   2 2504.58 193.424  10
  -3   8   2 2535.96 404.260  22
  -3   7   7 8464.86 399.403  10
  -3   7   7 7346.95 434.015   6
  -3   7   6 3017.38 303.994  10
  -3   7   6 2865.64 218.893  24
  -3   7   6 2592.56 359.143   6
  -3   7   5 2661.82 418.086   6
  -3   7   5 2994.68 244.376  24
  -3   7   4 32662.3 1519.12   6
  -3   7   4 30520.8 786.276  24
  -3   7   4 28968.1 1770.26  22
  -3   7   3 14180.6 537.304  17
  -3   7   3 12646.9 915.725   6
  -3   7   3 11885.5 466.579  24
  -3   7   3 12381.8 1312.71  22
  -3   7   2 205.225 150.367  10
  -3   7   2 3.41871 44.7833  17
  -3   7   2-66.0365 95.0368   6
  -3   7   2 53.2324 207.304  22
  -3   7   1 29284.2 670.900  17
  -3   7   1 30647.5 1990.72  22
  -3   7   0 234.612 94.0415  10
  -3   7   0 487.156 295.440  22
  -3   7  -1 255.718 77.6351  10
  -3   7  -1 198.616 207.072  22
  -3   6   8 1706.24 187.809  10
   3  -6  -8 1469.74 126.114  32
  -3   6   8 1761.71 129.120  24
   3  -6  -7 520.809 97.5012  32
  -3   6   7 598.663 147.062  10
  -3   6   7 438.125 144.991   6
  -3   6   7 588.543 104.886  24
  -3   6   7 616.306 103.556  11
  -3   6   6 43163.1 1094.03  10
   3  -6  -6 35832.3 853.334  32
  -3   6   6 39029.6 1673.47   6
  -3   6   6 41270.9 968.567  24
  -3   6   6 36528.9 785.144  11
  -3   6   5 3461.59 356.409  10
  -3   6   5 3479.27 318.948  24
   3  -6  -5 2664.91 241.883  32
  -3   6   5 3189.21 535.024   6
  -3   6   5 3813.97 319.711  17
  -3   6   4 177.539 218.955  10
  -3   6   4 518.868 284.363   6
  -3   6   4 368.593 114.360  17
  -3   6   4 294.623 107.440  15
  -3   6   4 271.958 109.773  24
  -3   6   4 127.956 249.864  22
  -3   6   3 1472.45 211.163  17
  -3   6   3 1361.74 195.123  15
  -3   6   3 1494.00 388.232   6
  -3   6   3 1861.61 279.129  10
  -3   6   3 1654.74 634.514  22
  -3   6   2 143.312 101.736  10
  -3   6   2 161.600 94.3651  17
  -3   6   2 177.821 165.054   6
  -3   6   2 154.341 78.7200  15
  -3   6   2 116.017 266.484  22
  -3   6   1 30267.9 1100.96  10
  -3   6   1 27662.2 871.522  17
  -3   6   1 24931.7 1328.58   6
  -3   6   1 30225.6 2432.15  22
  -3   6   0 50934.1 1406.01  10
  -3   6   0 48032.2 2912.76  22
  -3   6   0 46317.8 1073.64  17
  -3   6  -1 95.5772 92.3697  10
  -3   6  -1 238.679 86.7946  17
  -3   6  -1 29.4745 160.309   9
  -3   6  -2 2592.64 264.364  10
  -3   6  -2 3464.99 501.357   9
  -3   6  -2 2233.92 461.649  22
  -3   6  -3 5071.12 275.824  10
  -3   6  -3 7362.28 565.315   9
   3  -5  -9 171.699 47.5960  32
  -3   5   9 79.4608 44.9316  20
  -3   5   9 141.732 40.2332  23
  -3   5   8 3864.69 285.177  20
  -3   5   8 3293.53 289.285  10
   3  -5  -8 5088.41 297.315  32
  -3   5   8 4366.34 220.301  24
  -3   5   8 5201.97 282.855  23
  -3   5   8 5352.47 298.473  11
  -3   5   7 10077.3 545.685  10
   3  -5  -7 9369.39 457.907  32
  -3   5   7 9446.11 430.168  24
  -3   5   7 9598.14 430.037  23
  -3   5   7 10049.4 462.927  11
  -3   5   6 4176.92 354.979  10
  -3   5   6 3783.32 571.299   6
   3  -5  -6 3973.84 327.223  32
  -3   5   6 4009.01 327.398  24
  -3   5   6 3679.72 282.490  23
  -3   5   6 3676.43 296.345  11
  -3   5   5 2608.85 308.521  10
  -3   5   5 2430.05 260.135  17
  -3   5   5 2667.30 280.023  15
  -3   5   5 2374.46 274.228  24
   3  -5  -5 2302.99 257.037  32
  -3   5   5 2248.20 232.515  11
   3  -5  -4 66.7335 62.0724  32
  -3   5   4 160.962 92.0555  17
  -3   5   4 34.2424 75.2979  15
  -3   5   4 158.333 152.390  10
  -3   5   3 36624.1 1032.79  17
  -3   5   3 37660.3 1155.79  10
   3  -5  -3 27923.0 1037.49  31
  -3   5   3 34087.5 969.366  15
  -3   5   3 31927.2 2550.35  22
   3  -5  -3 31407.7 902.735  32
  -3   5   2 27518.0 1039.47  10
  -3   5   2 24390.2 812.858  15
  -3   5   2 26460.4 909.597  17
  -3   5   2 25062.5 2363.37  22
  -3   5   1 13643.7 772.274  10
  -3   5   1 13544.7 663.755  17
  -3   5   1 10987.1 960.483   6
  -3   5   1 12963.8 581.655  15
  -3   5   1 12586.1 1683.98  22
  -3   5   0 14507.5 1015.71   6
  -3   5   0 17509.9 924.115  10
  -3   5   0 16818.4 740.337  17
  -3   5   0 16884.7 647.524  15
  -3   5   0 15487.5 1815.35  22
  -3   5  -1 2169.81 338.156  10
  -3   5  -1 2110.94 269.159  17
  -3   5  -1 2613.18 580.033   9
  -3   5  -1 2503.62 740.470  22
  -3   5  -2 240.526 147.844  10
  -3   5  -2 166.554 84.0255  17
  -3   5  -2 390.198 240.283   9
  -3   5  -2 739.793 414.646  22
  -3   5  -3 49895.2 1398.66  10
  -3   5  -3 43233.9 946.879  17
  -3   5  -3 53861.2 2278.80   9
  -3   5  -3 37459.9 1871.92  22
  -3   5  -4 1974.39 366.315   9
  -3   5  -4 1715.85 212.490  10
  -3   4   9 2744.95 188.901  23
  -3   4   9 2471.68 173.719  11
   3  -4  -9 2396.83 185.202  32
   3  -4  -8 20026.9 652.771  32
  -3   4   8 20665.6 631.195  23
  -3   4   8 20592.4 621.085  11
  -3   4   7 9346.03 541.472  20
  -3   4   7 9106.56 528.366  10
   3  -4  -7 10601.2 526.815  32
  -3   4   7 10333.2 445.164  24
  -3   4   7 10551.7 499.142  23
  -3   4   7 10644.7 500.691  11
  -3   4   6 2822.51 304.571  20
  -3   4   6 3688.30 331.298  10
  -3   4   6 3318.25 297.764  24
  -3   4   6 3295.62 290.481  23
   3  -4  -6 3349.60 312.111  32
  -3   4   6 3214.84 286.886  11
   3  -4  -5 103.917 71.4749  32
  -3   4   5 63.9654 65.7281  11
   3  -4  -5-134.209 78.2410  31
  -3   4   5 58.3354 56.6576  15
  -3   4   5 228.300 102.061  10
  -3   4   5 45.6796 60.5901  23
  -3   4   5 77.2719 63.1073  17
  -3   4   4 71.8619 49.8784  11
   3  -4  -4 158.389 91.3583  32
  -3   4   4 50.8523 116.463  10
  -3   4   4 79.7916 65.7972  17
  -3   4   4 131.218 78.9647  15
   3  -4  -4 286.434 96.5698  31
  -3   4   3 7266.47 476.819  10
  -3   4   3 6243.61 581.510   2
  -3   4   3 7050.86 420.431  15
   3  -4  -3 5865.11 433.206  31
  -3   4   3 7013.80 430.936  17
  -3   4   2 56567.8 1235.11  17
  -3   4   2 49233.6 1746.65   2
   3  -4  -2 45877.5 1188.82  31
  -3   4   2 58475.8 1414.00  10
  -3   4   2 55378.1 1154.00  15
  -3   4   1 2031.85 389.136   2
   3  -4  -1 1672.18 226.423  31
  -3   4   1 2137.77 249.237  17
  -3   4   1 2185.43 296.429  10
  -3   4   1 2342.10 505.615   9
  -3   4   1 2398.51 244.228  15
  -3   4   1 2586.56 784.423  22
  -3   4   0 11345.9 1037.17   2
  -3   4   0 15840.9 869.657  10
  -3   4   0 18775.3 1431.36   9
  -3   4   0 15521.2 707.363  17
   3  -4   0 12400.4 677.728  26
  -3   4   0 14761.0 604.939  15
  -3   4   0 15727.4 1781.79  22
  -3   4  -1 30392.0 1929.86   9
  -3   4  -1 28219.6 837.970  14
  -3   4  -1 25817.9 952.185  17
   3  -4   1 19830.0 774.505  26
  -3   4  -1 18741.7 1412.23   2
  -3   4  -1 27352.3 1206.52  10
  -3   4  -1 25568.2 802.944  15
  -3   4  -1 24980.6 2222.30  22
  -3   4  -1 30280.2 1805.95  21
  -3   4  -2 2849.91 275.037  14
  -3   4  -2 2365.49 374.991  10
  -3   4  -2 2420.26 306.710  17
  -3   4  -2 2570.60 594.462   9
  -3   4  -2 1661.17 542.211  22
  -3   4  -2 2669.01 562.851  21
  -3   4  -3 433.057 209.530  10
  -3   4  -3 395.578 134.807  17
  -3   4  -3 464.469 328.507   9
  -3   4  -3 520.321 127.532  14
  -3   4  -3-132.600 283.654  22
  -3   4  -3 288.050 210.185  21
  -3   4  -4 2943.85 286.372  17
  -3   4  -4 3214.83 403.404  10
  -3   4  -4 2629.06 560.606   9
  -3   4  -4 3629.56 270.467  14
  -3   4  -4 3820.68 623.593  21
  -3   4  -5 9907.65 573.469  10
  -3   4  -5 9285.57 847.103   9
  -3   4  -5 8574.06 361.619  17
  -3   4  -5 10822.3 854.686  21
  -3   4  -6 15213.5 439.510  10
  -3   3  10 17511.8 410.875  20
  -3   3   9 289.323 65.9923  11
  -3   3   9 293.062 89.2105  20
   3  -3  -9 267.832 72.0216  32
  -3   3   9 369.751 78.4994  23
  -3   3   8 330.040 110.979  20
   3  -3  -8 410.951 109.248  32
  -3   3   8 528.102 114.650  23
  -3   3   8 543.293 109.355  11
  -3   3   7 7850.33 508.880  20
   3  -3  -7 9007.65 490.757  32
  -3   3   7 8812.28 467.421  23
  -3   3   7 8424.21 445.098  11
  -3   3   6 435.051 117.174  10
  -3   3   6 394.902 106.372  11
  -3   3   6 397.790 126.200  20
   3  -3  -6 252.092 101.824   1
  -3   3   6 407.592 149.102  27
   3  -3  -6 624.634 164.415  31
   3  -3  -6 447.258 121.309  32
  -3   3   6 389.957 108.473  24
  -3   3   6 199.703 88.0648  23
   3  -3  -5 7371.87 511.556  31
  -3   3   5 8689.40 482.433  10
  -3   3   5 9288.21 480.385  15
   3  -3  -5 7960.67 474.229   1
  -3   3   5 8463.88 450.328  23
   3  -3  -5 8761.26 485.946  32
  -3   3   5 7438.73 457.623  20
  -3   3   5 7676.50 627.911  27
  -3   3   5 8648.88 452.796  11
  -3   3   5 8801.28 452.667  17
   3  -3  -4 54078.3 1527.89  29
  -3   3   4 59176.7 1715.00  27
   3  -3  -4 58192.1 1346.73  31
   3  -3  -4 59129.1 1170.20   1
   3  -3  -3 10719.2 554.514  31
   3  -3  -3 10749.6 421.437   1
   3  -3  -2 426.344 113.939  31
  -3   3   2 515.928 160.445   2
   3  -3  -1 430.323 115.099  31
  -3   3   1 123.500 81.9568   2
  -3   3   0 4529.56 1074.39   3
   3  -3   0 5849.47 372.182  31
  -3   3   0 4743.50 567.867   2
  -3   3  -1 42085.4 1914.73   2
   3  -3   1 41366.9 1080.63  26
  -3   3  -2 99594.1 2604.10  18
   3  -3   2 57683.3 1216.89  26
  -3   3  -2 75666.5 3038.89   9
  -3   3  -2 56618.9 2404.32   2
  -3   3  -2 79451.5 1396.87  14
  -3   3  -2 76188.8 2788.03  21
  -3   3  -2 70481.4 3405.23  22
  -3   3  -3 20630.2 751.355  14
  -3   3  -3 20546.5 1699.41   9
   3  -3   3 15406.0 623.554  26
  -3   3  -3 14970.6 1261.52   2
  -3   3  -3 19094.2 689.031  13
  -3   3  -3 17543.8 1620.96  22
  -3   3  -3 17613.7 1413.62  21
  -3   3  -4-324.645 298.392   9
  -3   3  -4 471.208 130.559  14
  -3   3  -4 380.928 108.209  13
  -3   3  -4-22.6754 205.427  21
  -3   3  -5 473.779 268.845   9
  -3   3  -5 212.189 83.8770  14
  -3   3  -5 293.213 91.3416  13
  -3   3  -5 153.151 211.024  21
  -3   3  -6 387.929 83.9694  14
  -3   3  -6 593.420 266.074   9
  -3   3  -6 366.008 138.371  10
  -3   3  -6 395.810 213.679  21
  -3   3  -7 6058.78 301.897  10
  -3   2   9 19351.9 645.320  20
   3  -2  -9 19570.7 531.239  32
  -3   2   9 20272.5 507.537  23
  -3   2   8 6036.41 421.601  20
  -3   2   8 6788.08 371.523  23
   3  -2  -8 6500.97 384.741  32
  -3   2   8 6299.42 329.334  11
  -3   2   7 18161.4 768.763  20
   3  -2  -7 17661.7 681.362  32
  -3   2   7 17631.1 655.960  23
  -3   2   7 17601.3 622.760  11
   3  -2  -6 11868.1 568.956  32
  -3   2   6 11803.6 610.146  20
  -3   2   6 10302.3 574.291  10
  -3   2   6 11648.0 711.615  27
  -3   2   6 12039.1 549.609  23
   3  -2  -6 10845.4 643.845   1
  -3   2   6 12120.6 532.852  11
   3  -2  -5 1371.90 184.631  32
   3  -2  -5 1004.97 197.965  31
   3  -2  -5 1153.30 195.796   1
  -3   2   5 983.185 200.398  27
  -3   2   5 1262.65 169.906  23
  -3   2   5 1215.06 164.732  11
   3  -2  -4 10135.8 549.860  31
  -3   2   4 10436.6 622.533  27
   3  -2  -4 10328.1 511.807   1
   3  -2  -3 47350.1 1079.98  31
  -3   2   3 48588.1 1308.54  27
   3  -2  -3 48045.9 954.152   1
  -3   2   2 81284.3 973.482  28
   3  -2  -2 78318.8 1035.23   1
  -3   2   1 21944.2 861.554   2
   3  -2  -1 22113.7 671.071  31
  -3   2   1 21785.7 622.271  28
  -3   2   0 38509.1 1301.01   2
  -3   2   0 36788.2 957.346  28
   3  -2   1 1428.89 188.015  26
  -3   2  -1 1108.84 299.590   2
  -3   2  -2 38679.5 1804.94   2
   3  -2   2 39261.3 925.180  26
   3  -2   3 3052.09 261.932  26
  -3   2  -3 2314.25 484.647   2
  -3   2  -3 3401.38 578.486  21
  -3   2  -3 2773.98 276.854   1
  -3   2  -4 33307.3 2224.51   9
   3  -2   4 31574.0 894.991  26
  -3   2  -4 37484.2 1025.65  14
  -3   2  -4 29561.9 1770.00   2
  -3   2  -4 36818.0 971.088  13
  -3   2  -4 36143.6 1973.13  21
  -3   2  -5 19716.6 1728.84   9
  -3   2  -5 21456.5 784.531  14
   3  -2   5 22656.2 722.788  33
  -3   2  -5 21521.6 759.747  13
  -3   2  -5 20183.4 1490.81  21
   3  -2   6 29.5546 47.3194  33
  -3   2  -6-15.6074 279.313   9
  -3   2  -6 33.0124 54.1762  14
  -3   2  -6 69.8837 58.8248  13
  -3   2  -6-149.343 189.007  21
  -3   2  -7 2295.33 200.379  14
  -3   2  -7 2064.21 409.689   9
  -3   2  -7 1898.98 358.051  21
  -3   1   9 28.0897 40.9025  20
   3  -1  -9 67.9329 33.6059  32
   3  -1  -9 84.5427 47.1864  13
  -3   1   9 66.2189 29.1668  23
  -3   1   8 1409.62 199.490  20
   3  -1  -8 984.790 147.492  32
  -3   1   8 947.993 133.484  23
  -3   1   7 8512.74 511.912  20
   3  -1  -7 8330.60 455.604  32
  -3   1   7 8330.01 433.993  23
  -3   1   7 8172.28 402.474  11
  -3   1   6 40544.3 1103.09  20
   3  -1  -6 39535.7 1010.87  32
  -3   1   6 38400.8 1161.05  27
   3  -1  -6 37224.9 1231.91   1
  -3   1   6 38712.6 954.083  23
  -3   1   6 37080.6 888.067  11
   3  -1  -5 12912.2 671.360   1
  -3   1   5 13207.8 534.961  28
   3  -1  -5 11552.8 677.843  31
  -3   1   5 12969.7 628.051  27
   3  -1  -4 31121.1 920.066   1
  -3   1   4 32713.7 741.481  28
   3  -1  -4 31314.6 972.756  31
  -3   1   4 33356.6 947.766  27
  -3   1   3 18407.9 478.682  28
   3  -1  -3 18928.9 624.241   1
  -3   1   3 19930.8 708.277  27
   3  -1  -3 19400.6 714.108  31
  -3   1   2 186.864 45.7542  28
   3  -1  -2 209.669 89.9354  31
  -3   1   2 182.505 74.9377  27
   3  -1  -2 197.053 66.6159   1
   3  -1  -1 1084.15 153.583  31
   3  -1  -1 1415.24 127.434   1
  -3   1   1 1505.18 129.341  28
  -3   1   0 75559.5 1490.00   2
  -3   1   0 77491.3 1102.65  28
   3  -1   0 76359.1 1207.58  31
  -3   1  -1 24758.7 759.446  28
   3  -1   1 27190.4 719.379  31
   3  -1   1 26179.1 708.045  26
  -3   1  -1 25289.0 1041.42   2
   3  -1   2 45315.2 723.004  30
  -3   1  -2 44395.8 1691.75   2
   3  -1   2 46854.5 899.873  26
   3  -1   3 286.957 81.2811  26
  -3   1  -3 282.355 208.256   2
  -3   1  -4 3051.22 312.246   1
   3  -1   4 3290.53 276.799  26
  -3   1  -4 2704.47 533.301   2
  -3   1  -4 3543.86 298.672  14
  -3   1  -4 3431.29 285.251  13
  -3   1  -4 2753.16 484.054  21
   3  -1   5 5380.47 451.568  27
  -3   1  -5 6524.78 1001.29   9
   3  -1   5 5174.56 442.805  26
   3  -1   5 7189.16 417.568  33
  -3   1  -5 6879.37 450.833  14
  -3   1  -5 6727.80 426.341  13
  -3   1  -5 7224.45 881.142   2
  -3   1  -5 5650.79 493.410   1
  -3   1  -5 6134.67 780.540  21
  -3   1  -6 18826.1 1668.81   9
   3  -1   6 21516.9 725.368  33
  -3   1  -6 21557.3 788.501  14
  -3   1  -6 21237.3 751.898  13
  -3   1  -6 21733.3 1497.57  21
   3  -1   7 16664.2 586.658  33
  -3   1  -7 15730.9 1339.37   9
  -3   1  -7 18304.3 665.309  14
  -3   1  -7 17534.3 629.072  13
  -3   1  -7 16002.7 1164.61  21
   3  -1   8 7415.43 325.917  33
  -3   1  -8 7628.57 343.102  14
  -3   1  -8 6777.22 596.803  21
  -3   0   9 5947.82 287.000  20
   3   0  -9 5852.23 201.165  32
   3   0  -9 6182.94 294.538  13
   3   0  -8 621.922 108.707  32
  -3   0   8 743.556 141.246  20
   3   0  -8 519.805 126.720  13
  -3   0   8 504.847 87.2336  23
  -3   0   7 2513.29 267.049  20
   3   0  -7 2184.88 221.957  32
  -3   0   7 2270.14 211.787  23
  -3   0   6 6514.16 441.977  20
   3   0  -6 5581.81 469.943   1
  -3   0   6 4914.75 402.961  28
  -3   0   6 6012.85 361.770  23
   3   0  -6 5983.54 386.479  32
  -3   0   6 6485.85 454.728  27
   3   0  -5 61899.6 1461.95   1
  -3   0   5 63371.8 1348.73  28
  -3   0   5 64726.3 1297.44  27
   3   0  -4 6467.98 432.541   1
  -3   0   4 6455.09 393.604  28
   3   0  -4 6049.45 477.868  31
  -3   0   4 6701.56 389.631  27
   3   0  -3 10617.7 560.995  31
  -3   0   3 11588.6 467.294  27
  -3   0   3 11948.0 460.827  28
   3   0  -3 11012.8 496.215   1
   3   0  -2 103.274 48.4930   1
  -3   0   2 101.981 47.9744  28
   3   0  -2 23.3368 67.2057  31
  -3   0   2 12.2131 33.9555  27
   3   0  -1 33753.5 634.342   1
   3   0  -1 34284.4 877.876  31
  -3   0   1 32313.9 574.397  28
  -3   0   0 30538.4 819.330   2
  -3   0   0 28836.8 555.988  28
  -3   0  -1 42260.3 1158.92   2
   3   0   1 42841.7 726.882  26
   3   0   1 44087.4 958.964  31
   3   0   2 15363.1 428.548  30
  -3   0  -2 14736.4 277.813  29
  -3   0  -2 14878.0 875.822   2
  -3   0  -2 14484.7 595.459  28
   3   0   2 15079.5 448.813  26
  -3   0  -3 22203.4 1257.50   2
   3   0   3 22116.9 548.289  30
  -3   0  -4 4494.45 625.338   2
   3   0   4 4386.20 304.012  26
  -3   0  -4 4363.54 334.045   1
  -3   0  -5 17753.2 809.745   1
   3   0   5 21322.0 691.528  33
   3   0   5 16538.3 733.508  27
   3   0   5 14953.6 721.272  26
  -3   0  -5 19963.9 722.791  14
  -3   0  -5 20801.3 706.053  13
  -3   0  -5 20769.6 1415.98   2
  -3   0  -5 19589.3 1253.30  21
   3   0   6 3046.38 279.771  33
  -3   0  -6 3444.56 319.063  14
  -3   0  -6 3126.25 286.128  13
  -3   0  -6 2685.01 514.010  21
  -3   0  -7 4729.26 827.269   9
  -3   0  -7 5793.90 403.643  14
  -3   0  -7 5676.58 376.812  13
   3   0   7 5583.00 371.853  33
  -3   0  -7 5252.50 694.900  21
   3   0   8 5369.71 321.563  33
  -3   0  -8 4342.07 635.135   9
  -3   0  -8 5443.54 343.315  14
  -3   0  -8 5223.34 314.719  13
  -3   0  -8 4776.03 587.718  21
  -3   0  -9 1462.04 130.485  14
   3   0   9 1596.14 135.572  33
  -3   0  -9 1280.91 205.583  21
   3   1  -9 517.533 72.5089  13
  -3  -1   8 8246.85 387.875  20
   3   1  -8 6818.23 796.892   9
   3   1  -8 7765.81 420.422  13
  -3  -1   7 11895.0 535.985  20
   3   1  -7 9364.17 977.006  18
  -3  -1   6 25292.6 841.282  20
   3   1  -6 24931.6 735.922  32
   3   1  -5 24593.4 927.173   1
  -3  -1   5 23327.6 882.847  28
  -3  -1   4 2354.60 266.193  28
  -3  -1   4 2387.89 223.030  27
   3   1  -4 2299.75 264.173   1
   3   1  -3 1688.76 251.119  31
   3   1  -3 1925.25 213.266   1
  -3  -1   3 1881.80 204.979  28
  -3  -1   3 2324.60 198.580  27
  -3  -1   2 65680.3 958.728  27
   3   1  -2 61855.9 1391.93  31
  -3  -1   2 67785.3 1059.56  28
   3   1  -2 63663.6 1035.79   1
  -3  -1   1 27.9699 27.8465  28
  -3  -1   1 29.4821 32.8412  27
   3   1  -1 14.0449 65.3883  31
   3   1  -1 65.3709 36.9670   1
   3   1   0 45403.1 650.004   1
   3   1   0 42071.8 1051.03  31
  -3  -1   0 44793.5 653.330  28
  -3  -1   0 41350.0 785.608  27
   3   1   0 41932.1 489.692  26
  -3  -1  -1 20702.6 697.307   2
  -3  -1  -1 20645.6 474.724  28
   3   1   1 20266.6 383.729  26
  -3  -1  -2 51007.7 652.905  29
   3   1   2 55288.1 834.374  30
  -3  -1  -2 59109.3 1040.63  28
  -3  -1  -2 53648.5 1499.88   2
   3   1   2 58815.2 756.468  26
   3   1   3 453.667 90.1652  26
   3   1   3 350.404 77.4039  30
  -3  -1  -3 630.804 230.994   2
  -3  -1  -3 439.539 59.3373  29
  -3  -1  -3 442.300 123.047  28
   3   1   4 105.449 44.4007  30
   3   1   4 230.277 104.676  26
  -3  -1  -4 194.783 155.983   2
  -3  -1  -4 53.6627 42.9773   1
  -3  -1  -5 2759.27 306.577   1
   3   1   5 2548.67 228.187  30
   3   1   5 2803.95 279.394  27
   3   1   5 2951.76 329.488  26
  -3  -1  -5 2945.16 511.646   2
  -3  -1  -6 65226.8 1724.57   1
   3   1   6 72035.8 1500.61  26
  -3  -1  -6 69231.7 1370.90  14
  -3  -1  -6 69379.5 1290.69  13
  -3  -1  -6 71093.6 2369.09  21
   3   1   7 679.000 141.783  33
  -3  -1  -7 660.973 148.591  14
  -3  -1  -7 736.155 137.013  13
  -3  -1  -7 854.433 303.195  21
   3   1   8 6057.82 374.745  33
  -3  -1  -8 6057.53 385.923  14
  -3  -1  -8 5873.15 343.577  13
  -3  -1  -8 5709.22 678.024  21
  -3  -1  -9 429.437 88.2301  14
   3   1   9 345.403 81.4785  33
  -3  -1  -9 307.688 164.652  21
   3   2  -8 2935.08 405.330   9
   3   2  -8 4460.20 263.252  13
  -3  -2   7 885.567 137.533  20
   3   2  -7 623.859 259.167  18
   3   2  -7 571.047 266.569   9
   3   2  -7 874.443 159.110  13
  -3  -2   6 1433.54 194.588  20
   3   2  -6 680.502 326.255  18
   3   2  -6 1299.74 471.135   9
  -3  -2   5 62373.5 1250.49  27
   3   2  -5 60062.3 1371.04   1
  -3  -2   5 58203.8 1473.67  28
  -3  -2   4 49345.6 1266.40  28
  -3  -2   4 52240.5 1035.17  27
   3   2  -4 49482.0 1166.89   1
  -3  -2   3 3172.88 294.649  28
   3   2  -3 3301.93 272.017   1
  -3  -2   3 3391.58 236.172  27
  -3  -2   2 31161.4 809.195  28
  -3  -2   2 31340.4 638.312  27
   3   2  -2 32112.3 726.250   1
   3   2  -1 31047.1 614.608   1
  -3  -2   1 29893.3 665.922  28
  -3  -2   1 31125.0 574.734  27
   3   2   0 4309.06 198.753   1
   3   2   0 4243.20 220.000  30
  -3  -2   0 4060.11 209.321  28
  -3  -2   0 4101.12 211.185  27
   3   2   1 361978. 2107.48  30
  -3  -2  -1 362228. 2649.67   2
  -3  -2  -1 357178. 1922.49  28
  -3  -2  -2 10756.2 385.321  28
   3   2   2 10406.9 377.916  30
  -3  -2  -2 10054.5 592.328   2
   3   2   2 10219.3 335.344  26
  -3  -2  -3 7258.01 276.001  29
  -3  -2  -3 7807.13 419.927  28
  -3  -2  -3 6510.28 562.196   2
   3   2   3 7760.82 349.690  26
   3   2   3 7765.92 361.150  30
   3   2   4 104476. 1437.99  26
  -3  -2  -4 104684. 2510.90   2
   3   2   5 22.3067 31.9594  30
  -3  -2  -5 35.0415 31.2732  29
   3   2   5 21.9529 68.2556  26
  -3  -2  -6 4890.90 467.805   1
  -3  -2  -6 5716.30 356.826  32
   3   2   6 4733.41 354.730  30
   3   2   6 5398.96 407.389  26
  -3  -2  -6 5998.00 626.893  21
  -3  -2  -7 57051.9 1184.09  32
   3   2   7 57628.3 1221.47  33
  -3  -2  -7 57490.7 1121.43  13
  -3  -2  -7 54427.3 1997.20  21
   3   2   8 1235.31 173.918  33
  -3  -2  -8 1083.44 172.439  14
  -3  -2  -8 1282.56 156.494  13
  -3  -2  -8 820.013 265.238  21
   3   2   9 5488.95 315.352  33
  -3  -2  -9 5122.93 305.364  14
  -3  -2  -9 4690.20 521.292  21
  -3  -2 -10 8812.38 266.140  14
  -3  -2 -10 7901.92 458.124  21
   3   3  -7 10185.4 768.275  18
   3   3  -7 9171.24 819.344   9
   3   3  -7 11587.3 467.703  13
  -3  -3   6 9309.24 416.763  20
   3   3  -6 9414.88 1071.78   9
   3   3  -6 9946.01 787.799   8
   3   3  -6 8460.78 501.969  13
   3   3  -6 9132.58 1022.74  18
   3   3  -5 5972.42 945.519  18
   3   3  -5 6523.00 983.956   9
   3   3  -5 6887.99 830.089   8
   3   3  -5 8728.33 1707.13  25
   3   3  -4 23633.5 1914.05  18
  -3  -3   4 29377.7 1024.70  28
  -3  -3   4 28496.5 771.916  27
   3   3  -4 24840.5 1678.12   8
   3   3  -4 23770.0 2954.71  25
  -3  -3   3 9693.75 406.631  27
  -3  -3   3 9322.94 535.931  28
   3   3  -3 9485.41 431.394   1
  -3  -3   2 12751.6 559.498  28
  -3  -3   2 13360.2 423.601  27
   3   3  -2 13733.1 463.174   1
   3   3  -1 281414. 1778.40   1
  -3  -3   1 273386. 2258.08  28
  -3  -3   1 277260. 1674.84  27
   3   3  -1 290545. 1827.67  30
  -3  -3   0 1026.36 93.3788  27
  -3  -3   0 887.694 105.713  28
   3   3   0 1061.79 123.240  30
   3   3   1 1309.05 142.200  30
  -3  -3  -1 1133.18 111.669  28
   3   3   2 1091.57 98.9892  26
   3   3   2 1253.36 151.770  30
  -3  -3  -2 1085.67 115.613  28
   3   3   3 782.411 315.111   3
   3   3   3 1230.15 156.809  30
  -3  -3  -3 1126.01 123.214  29
  -3  -3  -3 1110.69 149.212  28
   3   3   3 1319.30 137.910  26
   3   3   4 39889.4 2409.16   3
   3   3   4 46380.4 1042.09  30
  -3  -3  -4 42754.8 728.569  29
  -3  -3  -4 39555.5 1072.28  28
   3   3   4 44655.8 922.172  26
  -3  -3  -4 47392.6 1005.55   1
  -3  -3  -5 58238.3 1345.95   1
  -3  -3  -5 55650.9 871.051  29
   3   3   5 51982.5 1184.18  30
   3   3   5 54619.3 1177.18  26
   3   3   6 21856.0 827.454  20
  -3  -3  -6 21263.5 961.278   1
  -3  -3  -6 20794.8 647.186  32
   3   3   6 18960.0 762.432  30
  -3  -3  -6 21751.5 594.754  29
   3   3   6 20829.1 838.735  26
   3   3   6 21319.2 673.055  33
   3   3   7 6811.82 478.059  20
   3   3   7 6514.10 397.853  33
  -3  -3  -7 7282.56 408.582  32
  -3  -3  -7 7507.18 710.352  21
   3   3   8 15.2661 43.0973  33
  -3  -3  -8 102.417 61.7751  14
  -3  -3  -8 48.0081 113.528  21
   3   3   9 445.231 99.1430  33
  -3  -3  -9 394.353 89.6451  14
  -3  -3  -9 383.091 169.129  21
  -3  -3 -10 15722.1 365.434  14
  -3  -3 -10 15622.5 732.898  21
   3   4  -7 1439.34 197.387  18
   3   4  -6 48016.0 1926.60  18
   3   4  -6 48299.7 933.867  13
   3   4  -5 373.179 213.937   9
   3   4  -5 872.593 370.430  18
   3   4  -5 1187.55 573.775  25
   3   4  -5 746.694 149.654  13
   3   4  -5 1089.10 329.730   8
   3   4  -4 1382.45 514.915  18
   3   4  -4 1038.73 634.076  25
   3   4  -4 1251.63 206.364  13
   3   4  -4 1203.51 393.020   8
   3   4  -3 16859.3 1911.17  19
   3   4  -3 16620.1 1469.00   8
   3   4  -3 26626.1 2991.16  16
  -3  -4   3 17935.0 775.925  28
   3   4  -3 15981.1 2527.44  25
   3   4  -3 16528.9 1607.23  18
   3   4  -3 26210.4 1648.92  22
  -3  -4   2 9384.68 515.617  28
   3   4  -2 3772.33 1177.83   5
  -3  -4   1 49322.6 1007.85  28
   3   4  -1 20955.6 2514.36   4
  -3  -4   0 28993.1 650.069  28
   3   4   1 9071.85 405.078  30
  -3  -4  -1 8587.80 315.003  28
  -3  -4  -2 13777.2 479.424  29
  -3  -4  -2 14002.6 408.405  28
   3   4   2 14189.0 543.645  30
   3   4   3 5517.88 371.557  30
  -3  -4  -3 5027.26 284.544  29
  -3  -4  -3 5096.65 301.541  28
   3   4   4 80181.9 1493.92  30
  -3  -4  -4 79632.5 1358.15   1
   3   4   5 6864.13 469.237  30
  -3  -4  -5 6700.97 472.030   1
  -3  -4  -5 6321.84 371.173  31
  -3  -4  -5 6309.27 322.401  29
   3   4   5 5658.35 419.355  26
   3   4   6 1275.75 207.733  20
   3   4   6 1104.54 214.446  26
   3   4   6 1514.74 235.291  30
  -3  -4  -6 1076.48 143.642  29
  -3  -4  -6 1066.41 220.668   1
   3   4   6 1332.70 169.251  24
   3   4   6 1344.76 181.421  12
  -3  -4  -6 1503.43 304.985  21
   3   4   7 36301.2 1147.65  20
   3   4   7 36537.2 890.059  33
  -3  -4  -7 34296.0 827.563  32
   3   4   7 37307.3 944.338  12
   3   4   8 17139.8 756.733  20
   3   4   8 17945.5 618.520  33
  -3  -4  -8 17291.3 584.091  32
   3   4   8 18199.3 602.308  12
  -3  -4  -8 18963.8 1096.05  21
   3   4   9 408.271 107.322  20
   3   4   9 505.830 96.7017  33
  -3  -4  -9 491.178 186.117  21
  -3  -4 -10 19386.1 826.917  21
   3   4  10 26288.0 528.121  33
   3   5  -6 11755.1 671.492  18
   3   5  -6 14165.8 579.201   8
   3   5  -5 8142.14 828.335  18
   3   5  -5 8936.93 1354.23  25
   3   5  -5 8573.56 715.029   8
   3   5  -4-35.7190 353.167  19
   3   5  -4-1.41699 192.556  18
   3   5  -4 411.797 557.279  25
   3   5  -4 115.261 175.228   8
   3   5  -3 32916.5 2747.07  19
   3   5  -3 30723.7 2121.57  18
   3   5  -3 31842.9 3573.56  25
   3   5  -3 27461.6 1795.77   8
   3   5  -2 29267.3 2727.21  19
   3   5  -2 30109.5 2087.15  18
   3   5  -2 32165.5 3708.81  25
   3   5  -2 43540.1 4106.96  16
  -3  -5   2 25702.3 845.677  28
   3   5  -2 27676.0 1927.32   8
   3   5  -2 36863.2 1122.36   6
   3   5  -2 42827.4 2240.90  22
   3   5  -2 11950.8 2196.30   4
   3   5  -1 31657.2 2817.78  19
   3   5  -1 44861.1 1300.10   6
   3   5  -1 29755.3 1999.99  18
   3   5  -1 44659.8 4039.09  16
   3   5  -1 33867.1 3684.71  25
   3   5  -1 30979.5 2057.19   8
   3   5  -1 52398.1 2488.40  22
   3   5  -1 14340.9 2371.81   4
  -3  -5   1 29674.2 808.434  28
   3   5   0 169.620 437.125   4
   3   5   1 937.215 664.104   3
  -3  -5  -1 1180.00 158.672  29
  -3  -5  -2 14067.4 532.217  29
   3   5   2 15473.7 619.157  30
   3   5   3 46751.5 1178.03  30
  -3  -5  -3 43067.4 907.820  29
   3   5   4 1364.79 216.165  30
  -3  -5  -4 1845.61 185.316  29
   3   5   5 106579. 1889.52  20
   3   5   5 104488. 1965.68  30
  -3  -5  -5 102401. 1396.43  29
   3   5   5 105341. 1446.64  24
   3   5   6 2592.27 311.459  20
   3   5   6 2145.55 295.741  30
   3   5   6 2146.14 214.752  24
  -3  -5  -6 2091.29 210.147  29
   3   5   6 2183.43 239.728  12
  -3  -5  -6 2554.77 408.390  21
   3   5   7 2625.22 325.272  20
   3   5   7 2797.17 272.325  12
  -3  -5  -7 3247.82 452.984  21
  -3  -5  -8 926.059 251.168  21
   3   5   8 874.229 180.109  20
   3   5   8 929.666 148.731  12
   3   5   9 12609.0 575.424  20
   3   5   9 12190.9 417.872  12
  -3  -5  -9 11228.7 744.210  21
   3   5  10 21062.1 505.454  20
  -3  -5 -10 20497.6 819.674  21
   3   6  -5 7099.39 525.186  18
   3   6  -5 8732.20 510.861   8
   3   6  -4 888.830 277.828  18
   3   6  -4 560.363 569.400  25
   3   6  -4 1158.11 281.095   8
   3   6  -3 428.992 435.177  19
   3   6  -3 53.3329 167.685  18
   3   6  -3 564.450 678.342  25
   3   6  -3-100.826 189.493   8
   3   6  -2 22333.8 2393.37  19
   3   6  -2 18183.3 1521.76  18
   3   6  -2 25198.9 3288.30  25
   3   6  -2 17430.6 1413.21   8
   3   6  -2 26104.5 1746.26  22
   3   6  -1 1616.80 493.175  18
   3   6  -1 3181.40 1271.96  16
   3   6  -1 1792.19 368.842   6
   3   6  -1 1452.11 777.410  19
   3   6  -1 1504.08 940.980  25
   3   6  -1 2452.57 696.927  22
   3   6  -1 1437.16 408.735   8
   3   6   0 79693.1 4806.30  19
   3   6   0 106388. 2156.30   6
   3   6   0 112895. 6885.05  16
   3   6   0 103603. 6618.75  25
   3   6   0 44671.2 4393.66   5
   3   6   0 81589.4 3261.01   8
   3   6   0 50620.6 4450.05   4
   3   6   0 129720. 4166.59  22
   3   6   0 83195.8 3073.56  18
   3   6   1 30120.2 3633.77   5
   3   6   1 51335.9 3815.80  19
   3   6   1 76569.4 1938.23   6
  -3  -6  -1 59407.9 1156.33  29
   3   6   1 64130.9 5110.25  16
   3   6   1 63925.2 4947.06  25
   3   6   1 54059.7 2562.40   8
   3   6   1 32029.0 3434.18   4
   3   6   1 92544.8 3494.30  22
   3   6   1 68408.9 4623.55   3
   3   6   2 7444.61 1493.19  19
   3   6   2 10526.8 731.567   6
  -3  -6  -2 8161.94 429.270  29
   3   6   2 8911.94 1907.91  16
   3   6   3 5337.65 407.309  20
   3   6   3 3196.58 937.554  19
   3   6   3 6213.01 579.805   6
  -3  -6  -3 4825.01 322.969  29
   3   6   3 3688.84 1121.15  16
   3   6   3 5302.88 418.481  30
   3   6   3 4903.62 312.691  12
   3   6   4 34155.0 1061.85  20
   3   6   4 23077.7 2431.72  19
  -3  -6  -4 33869.7 1136.37  31
   3   6   4 35430.4 1150.44  30
  -3  -6  -4 31415.3 825.508  29
   3   6   4 24919.0 3233.15  16
   3   6   4 32565.9 771.835  24
   3   6   4 32717.8 862.417  12
   3   6   4 38570.9 1380.98   6
   3   6   5 66737.6 1555.66  20
  -3  -6  -5 61659.7 1438.86  31
  -3  -6  -5 64891.2 1189.40  29
   3   6   5 64076.9 1141.27  24
   3   6   5 65992.4 1288.36  12
   3   6   6 20419.9 887.780  20
   3   6   6 19708.5 648.715  24
   3   6   6 20021.9 738.112  12
   3   6   7 33667.0 1134.48  20
   3   6   7 30658.1 812.397  24
   3   6   7 33524.5 945.110  12
   3   6   8 44638.0 1233.54  20
   3   6   8 44197.4 1009.75  12
  -3  -6  -8 46004.8 1530.33  21
  -3  -6  -9 928.400 207.651  21
   3   6   9 1164.60 178.740  20
   3   6   9 1025.21 126.405  12
   3   6  10 1207.87 126.397  20
  -3  -6 -10 1131.78 180.737  21
   3   7  -4 39290.4 1044.66  18
   3   7  -4 43848.0 1054.63   8
   3   7  -3 661.468 212.495  18
   3   7  -3 496.795 183.299   8
   3   7  -2 14767.8 1748.19  19
   3   7  -2 17954.6 2504.55  25
   3   7  -2 14081.1 1048.70   8
   3   7  -2 12876.6 1028.04  18
   3   7  -1 1677.82 760.188  19
   3   7  -1 640.868 280.981  18
   3   7  -1 1273.59 269.892   6
   3   7  -1 724.559 836.634  25
   3   7  -1 595.993 243.302   8
   3   7  -1 1157.03 594.071  22
   3   7   0 28963.0 2887.85  19
   3   7   0 34205.5 1207.92   6
   3   7   0 28798.4 1599.38  18
   3   7   0 37530.8 4145.52  16
   3   7   0 38682.0 4064.58  25
   3   7   0 25819.9 1629.40   8
   3   7   0 40337.9 2325.65  22
   3   7   1 8571.25 705.381   6
   3   7   1 7860.97 1967.61  16
   3   7   1 8581.05 1925.93  25
   3   7   1 6024.44 776.446   8
   3   7   1 5052.30 1309.27  19
   3   7   1 10164.5 1256.76  22
   3   7   2 68868.6 1913.57   6
   3   7   2 63252.1 5342.31  16
   3   7   2 79221.0 5354.63  25
   3   7   2 80823.8 3300.27  22
   3   7   3 109851. 7069.88  16
   3   7   3 109896. 1447.75  12
   3   7   4 13968.7 2512.26  16
   3   7   4 14374.0 1943.57  19
   3   7   4 21220.4 1083.36   6
   3   7   4 17220.0 541.940  24
   3   7   4 18221.6 631.657  12
   3   7   5 16373.0 762.899  20
   3   7   5 11772.9 2252.93  16
   3   7   5 15643.7 548.081  24
   3   7   5 20144.0 994.095   6
   3   7   5 16059.6 626.535  12
   3   7   6 1355.98 221.823  20
   3   7   6 1230.52 162.580  24
   3   7   6 1369.92 187.622  12
   3   7   7 11435.7 633.873  20
   3   7   7 10383.6 446.200  24
   3   7   7 11271.3 524.364  12
  -3  -7  -8 495.479 152.037  21
   3   7   8 553.166 136.119  20
   3   7   8 503.902 109.184  12
   3   7   9 59451.8 1119.69  20
   3   7   9 57289.5 875.448  12
   3   8  -2 11996.2 1175.06  19
   3   8  -2 13265.8 601.846  18
   3   8  -2 14565.4 691.106   8
   3   8  -1 10114.7 1358.41  19
   3   8  -1 9756.18 644.798  18
   3   8  -1 9973.00 701.076   8
   3   8   0 11292.4 1607.36  19
   3   8   0 10644.5 781.718   8
   3   8   0 11704.8 600.232   6
   3   8   0 12833.8 1252.60  22
   3   8   1 12289.8 1815.30  19
   3   8   1 14215.4 794.880   6
   3   8   1 16257.1 2601.62  16
   3   8   1 17072.7 1464.30  22
   3   8   2 4687.51 1176.94  19
   3   8   2 7755.85 688.677   6
   3   8   2 8321.27 1913.98  16
   3   8   2 9172.13 1131.57  22
   3   8   3 4192.24 553.720   6
   3   8   3 3549.47 1381.17  16
   3   8   3 5897.23 904.529  22
   3   8   3 2290.78 837.820  19
   3   8   4 39206.3 1372.70   6
   3   8   4 40262.6 4058.46  16
   3   8   5 47558.6 4136.18  16
   3   8   5 43285.6 922.638  12
  -3  -8  -6 2314.89 371.947  21
   3   8   6 2288.87 291.862   6
   3   8   6 1813.19 192.038  12
   3   8   7 11991.0 569.873  20
   3   8   7 11145.3 457.339  12
  -3  -8  -7 11032.3 644.586  21
  -3  -8  -8 158.208 93.0727  21
   3   8   8 171.644 69.7461  20
   3   8   8 223.826 63.6134  12
  -3  -8  -9 590.200 116.968  21
   3   8   9 740.183 83.7786  12
   3   9   0 52858.4 2465.75  19
   3   9   1 283.394 291.154  19
   3   9   1 13.8188 140.757   6
   3   9   2 20707.0 1878.24  19
   3   9   2 22708.0 823.503   6
   3   9   3 1044.85 491.407  19
   3   9   3 822.907 640.646  16
   3   9   3 1186.73 343.995   6
   3   9   4 1233.11 651.001  16
   3   9   4 1251.21 332.693   6
   3   9   5 5110.01 412.623   6
   3   9   5 4545.14 1005.34  16
   3   9   6 7277.54 277.318  12
  -3  -9  -6 6465.50 386.848  21
   3   9   7 8045.74 282.238  12
  -3  -9  -7 6557.83 364.033  21
  -4   7   6 2553.97 179.513  10
  -4   7   6 2383.27 247.365   6
  -4   7   6 2589.93 148.221  24
  -4   7   5 4187.34 285.839  10
  -4   7   5 3867.32 390.187   6
  -4   7   5 3867.46 209.112  24
  -4   7   4 13841.6 778.763   6
  -4   7   4 12302.7 389.383  24
  -4   7   3 1136.77 208.405  10
  -4   7   3 972.744 215.310   6
  -4   7   3 1235.47 133.570  17
  -4   7   3 991.648 107.067  24
  -4   7   3 1103.45 310.329  22
  -4   7   2 3228.87 301.029   6
  -4   7   2 4648.60 238.034  17
  -4   7   2 4122.44 625.967  22
  -4   7   1-36.8519 116.199  10
  -4   7   1 43.6479 150.975  22
  -4   6   7 2679.79 209.801  10
   4  -6  -7 2693.88 161.148  32
  -4   6   7 2268.50 244.563   6
  -4   6   7 2974.15 173.470  24
  -4   6   6 143.274 129.851  10
  -4   6   6-53.8182 135.411   6
  -4   6   6 81.2875 54.5374  24
   4  -6  -6 40.7464 34.3874  32
   4  -6  -5 214.768 69.4262  32
  -4   6   5 438.916 180.078  10
  -4   6   5 149.078 141.385   6
  -4   6   5 225.384 76.7834  24
  -4   6   4 4910.85 392.935  10
   4  -6  -4 3614.04 260.356  32
  -4   6   4 4901.85 336.661  17
  -4   6   4 3602.31 549.901   6
  -4   6   4 4505.18 314.517  15
  -4   6   4 4706.38 341.308  24
  -4   6   4 3629.83 690.340  22
  -4   6   3 6966.97 737.578   6
  -4   6   3 8488.45 453.914  17
  -4   6   3 7334.52 401.033  15
  -4   6   3 6580.10 404.389  24
  -4   6   3 6591.00 1004.33  22
  -4   6   3 8941.80 524.743  10
  -4   6   2 353.616 147.754  10
  -4   6   2 454.198 120.473  17
  -4   6   2 332.300 92.8712  15
  -4   6   2 301.166 180.900   6
  -4   6   2 162.902 77.1433  24
  -4   6   2 99.5812 325.646  22
  -4   6   1 75875.1 1521.91  10
  -4   6   1 70941.8 1266.38  17
  -4   6   1 55706.5 1682.59   6
  -4   6   1 61757.9 1021.93  15
  -4   6   1 52048.9 945.263  24
  -4   6   1 63205.4 3195.74  22
  -4   6   0 527.124 131.799  10
  -4   6   0 547.753 111.092  17
  -4   6   0 728.318 377.633  22
  -4   6  -1 9354.32 467.142  10
  -4   6  -1 7885.52 330.756  17
  -4   6  -1 7276.73 836.013  22
  -4   6  -2 40.5138 41.1066  10
   4  -5  -8 7995.00 303.700  32
  -4   5   8 7758.32 259.518  23
  -4   5   8 8321.61 299.780  11
  -4   5   7 5.31751 36.9983  11
   4  -5  -7-6.55983 40.1971  32
  -4   5   7 23.9021 49.8467  10
  -4   5   7 1.08473 33.4647  24
  -4   5   7 7.84027 33.9702  23
  -4   5   6 47512.9 1056.92  10
   4  -5  -6 47779.1 1019.41  32
  -4   5   6 47339.6 1002.17  24
  -4   5   6 46873.4 870.337  23
  -4   5   6 45672.2 1791.47   6
  -4   5   6 47081.8 942.289  11
   4  -5  -5 17556.4 659.554  32
  -4   5   5 19261.9 713.341  10
  -4   5   5 19812.2 692.351  17
  -4   5   5 19067.2 706.301  15
  -4   5   5 19358.5 727.993  24
  -4   5   5 17602.8 592.147  11
  -4   5   4 12029.6 624.061  10
   4  -5  -4 11820.3 561.752  32
  -4   5   4 13042.5 594.492  17
  -4   5   4 12309.0 587.078  15
  -4   5   4 11849.2 1446.09  22
  -4   5   3 2032.59 289.096  10
   4  -5  -3 1899.22 231.525  32
  -4   5   3 2283.93 258.903  15
  -4   5   3 1988.76 242.027  17
  -4   5   3 1516.69 618.777  22
  -4   5   2 17239.2 790.987  10
  -4   5   2 16527.5 702.253  17
  -4   5   2 13989.6 1132.56   6
  -4   5   2 15988.4 666.328  15
  -4   5   2 13501.1 1739.21  22
  -4   5   1 37233.3 1221.23  10
  -4   5   1 37730.3 1090.89  17
  -4   5   1 37255.5 987.788  15
  -4   5   1 36416.4 2820.39  22
  -4   5   0 22569.3 973.665  10
  -4   5   0 21685.3 819.269  17
  -4   5   0 20684.6 706.134  15
  -4   5   0 21911.0 2094.86  22
  -4   5  -1 14912.0 642.966  17
  -4   5  -1 16399.7 819.265  10
  -4   5  -1 14132.9 532.921  15
  -4   5  -1 15559.4 1614.96  22
  -4   5  -2 15770.1 742.018  10
  -4   5  -2 14535.4 570.032  17
  -4   5  -3 23.3538 53.9017  10
  -4   5  -3 105.044 46.5440  17
  -4   5  -4-2.52279 33.4041  10
   4  -4  -9 60.9535 29.0620  32
  -4   4   9 18.7521 22.0063  23
   4  -4  -8 7160.54 339.088  32
  -4   4   8 7991.51 334.019  23
  -4   4   8 8188.94 342.107  11
  -4   4   7 381.342 103.616  11
   4  -4  -7 143.080 76.3312  32
  -4   4   7 185.097 80.8371  10
  -4   4   7 210.960 63.0497  24
  -4   4   7 282.361 86.7291  23
  -4   4   6 41456.7 1045.81  10
   4  -4  -6 43662.8 1064.17  32
  -4   4   6 43581.5 982.958  24
  -4   4   6 43543.7 992.129  23
  -4   4   6 43943.8 1015.97  11
  -4   4   5 22122.1 769.280  10
  -4   4   5 22361.2 746.870  17
   4  -4  -5 22802.7 791.895  32
  -4   4   5 22596.9 781.252  15
  -4   4   5 21540.5 711.375  23
  -4   4   5 22658.8 741.714  11
   4  -4  -4 66043.4 1372.40  32
  -4   4   4 70102.8 1355.74  17
  -4   4   4 71180.0 1435.59  10
  -4   4   4 70475.8 1385.77  15
  -4   4   4 61077.6 1168.05  23
  -4   4   4 60836.3 1214.87  11
  -4   4   3 64579.3 1346.99  17
  -4   4   3 61826.6 1312.61  15
  -4   4   3 65574.4 1425.06  10
  -4   4   2 4414.87 409.086  10
   4  -4  -2 3186.87 386.743  31
  -4   4   2 3661.70 573.854   2
  -4   4   2 4405.76 372.193  17
  -4   4   2 4839.34 368.987  15
  -4   4   1 14497.4 780.030  10
  -4   4   1 16076.6 723.011  17
  -4   4   1 11384.0 1094.39   2
   4  -4  -1 11423.9 707.621  26
  -4   4   1 15690.9 664.227  15
  -4   4   1 14538.1 1855.00  22
  -4   4   0 1147.39 254.932  10
  -4   4   0 1033.93 202.787  17
  -4   4   0 1148.02 188.242  15
  -4   4   0 1610.09 714.630  22
  -4   4  -1 10301.3 727.456  10
  -4   4  -1 9851.07 595.040  17
  -4   4  -1 9591.45 513.026  15
  -4   4  -1 8070.80 1301.22  22
  -4   4  -2 596.240 198.055  10
  -4   4  -2 713.491 169.409  17
  -4   4  -2 551.296 135.555  15
  -4   4  -2 694.541 138.198  14
  -4   4  -2 646.847 411.609  22
  -4   4  -2 1026.75 375.378  21
  -4   4  -3 63292.8 1698.64  10
  -4   4  -3 60310.5 1340.96  17
  -4   4  -3 57287.0 1046.84  15
  -4   4  -3 61911.9 1160.26  14
  -4   4  -3 54422.5 2528.96  22
  -4   4  -4 5272.17 434.865  10
  -4   4  -4 4523.42 309.441  17
  -4   4  -5 46.1596 44.3337  10
   4  -3  -9 16609.7 404.006  32
  -4   3   9 17566.6 400.780  23
   4  -3  -8 20908.4 611.236  32
  -4   3   8 22819.0 611.326  23
  -4   3   8 21226.8 564.574  11
  -4   3   7 5779.17 399.464  20
   4  -3  -7 6172.28 388.502  32
  -4   3   7 6555.26 385.894  23
  -4   3   7 6808.53 380.485  11
  -4   3   6 12966.1 623.144  20
  -4   3   6 12986.3 584.366  10
   4  -3  -6 14901.1 630.416  32
  -4   3   6 13561.0 533.062  24
  -4   3   6 15326.9 617.090  23
  -4   3   6 15589.1 613.287  11
  -4   3   5 7317.25 431.254  10
   4  -3  -5 7025.63 447.365  32
  -4   3   5 7231.61 409.173  17
  -4   3   5 6784.69 423.547  15
  -4   3   5 6778.05 419.715  23
  -4   3   5 6419.64 400.786  11
  -4   3   4 5880.70 403.410  10
  -4   3   4 6910.77 656.777   2
   4  -3  -4 5872.25 409.747  32
  -4   3   4 5963.25 390.471  15
  -4   3   4 4800.68 356.017  23
  -4   3   4 6301.02 387.669  17
  -4   3   4 5576.22 365.810  11
  -4   3   3 4497.98 309.694  11
  -4   3   3 5088.97 357.786  17
  -4   3   3 4657.25 364.973  10
   4  -3  -3 3941.10 413.464  31
  -4   3   3 5127.49 358.125  15
  -4   3   3 4347.17 317.625  23
  -4   3   3 4912.84 538.967   2
  -4   3   2 60740.7 1360.74  10
  -4   3   2 54295.3 1877.24   2
   4  -3  -2 51305.7 1422.38  31
  -4   3   2 62839.2 1284.73  17
  -4   3   2 57333.4 1191.10  15
  -4   3   1 24764.2 958.922  10
   4  -3  -1 19524.7 869.943  31
  -4   3   1 20529.0 1247.06   2
  -4   3   1 24135.7 782.503  15
  -4   3   1 24617.6 846.605  17
  -4   3   0 7201.99 555.333  10
  -4   3   0 7111.57 478.167  17
  -4   3   0 5344.72 729.595   2
   4  -3   0 5382.72 439.724  26
  -4   3   0 6840.88 424.122  15
  -4   3   0 7432.78 439.958  14
  -4   3   0 7911.55 838.853  21
  -4   3  -1 34868.0 1328.96  10
  -4   3  -1 34914.7 1108.54  17
  -4   3  -1 28261.5 1782.13   2
   4  -3   1 24838.5 878.423  26
  -4   3  -1 35944.9 987.238  14
  -4   3  -1 39329.1 1961.97  21
  -4   3  -2 1720.89 321.693  10
  -4   3  -2 2317.96 258.154  14
  -4   3  -2 1101.00 499.349  22
  -4   3  -2 2101.91 494.456  21
  -4   3  -3 5845.39 589.814  10
  -4   3  -3 6776.64 442.543  14
  -4   3  -3 4661.42 885.043  22
  -4   3  -3 6146.83 838.730  21
  -4   3  -4 17596.2 961.283  10
  -4   3  -4 18965.4 706.864  14
  -4   3  -4 19229.0 1389.35  21
  -4   3  -5 24.3207 79.8351  10
  -4   3  -5-14.6136 50.5189  17
  -4   3  -5 51.4494 54.7301  14
  -4   3  -6 17877.7 644.490  10
  -4   3  -6 14438.3 407.005  17
  -4   3  -6 16556.7 399.118  14
  -4   3  -6 19889.5 947.504  21
  -4   2   9 2087.99 180.078  20
   4  -2  -9 2340.31 148.057  32
  -4   2   9 2462.53 148.531  23
  -4   2   8 1220.68 177.012  20
   4  -2  -8 1252.39 152.496  32
  -4   2   8 1391.76 157.280  23
  -4   2   8 1148.26 130.586  11
  -4   2   7 3002.35 300.267  20
   4  -2  -7 2727.20 261.140  32
  -4   2   7 2890.83 260.123  23
  -4   2   7 2970.37 250.174  11
  -4   2   6 31625.9 979.898  20
   4  -2  -6 34539.1 955.691  32
  -4   2   6 33869.4 916.499  23
  -4   2   6 33733.5 888.297  11
  -4   2   5 7826.81 474.211  20
  -4   2   5 6912.07 642.671  27
   4  -2  -5 8211.92 469.770  32
  -4   2   5 7782.92 432.956  15
  -4   2   5 7361.23 433.819  23
   4  -2  -5 7054.59 474.253   1
  -4   2   5 7985.97 432.873  11
  -4   2   4 45474.2 991.628  11
   4  -2  -4 41695.9 1052.80   1
   4  -2  -4 41782.4 1325.75  31
  -4   2   4 46845.8 978.869  17
  -4   2   4 49417.7 1046.35  15
  -4   2   4 41878.5 1522.78  27
  -4   2   4 45457.3 1028.60  23
   4  -2  -4 50074.4 1115.98  32
   4  -2  -3 6033.38 483.887  31
   4  -2  -3 5214.79 336.763   1
  -4   2   2 4163.72 453.177   2
   4  -2  -2 3682.84 371.113  31
   4  -2  -1 1123.89 199.719  31
  -4   2   1 1083.59 255.269   2
   4  -2   0 2973.03 319.673  31
  -4   2   0 2959.64 445.858   2
  -4   2   0 2553.49 310.835  28
   4  -2   0 2460.04 271.134  26
  -4   2  -1 54046.2 2167.50   2
   4  -2   1 48312.6 1144.49  26
  -4   2  -2 31582.2 1850.48   2
   4  -2   2 31170.1 915.834  26
  -4   2  -2 45032.2 1081.34  14
  -4   2  -2 40855.1 1970.98  21
   4  -2   3 9620.70 496.216  26
  -4   2  -3 10396.5 1128.05   2
  -4   2  -3 13971.6 635.010  14
  -4   2  -3 10725.7 1313.71  22
  -4   2  -3 13139.6 1197.74  21
  -4   2  -4 14376.1 652.578  14
  -4   2  -4 11557.7 1153.46  21
  -4   2  -5 19586.0 730.192  14
  -4   2  -5 18580.3 1383.25  21
  -4   2  -6 2284.47 318.971  10
  -4   2  -6 2484.35 229.654  14
  -4   2  -6 2241.01 445.571  21
  -4   2  -7 31338.8 843.741  10
  -4   2  -7 33157.0 606.756  14
  -4   2  -7 34272.0 1197.28  21
   4  -1  -9 16070.1 322.881  32
   4  -1  -9 16037.1 399.689  13
  -4   1   8 7663.83 421.609  20
   4  -1  -8 7544.71 344.957  32
  -4   1   8 8035.16 342.845  23
  -4   1   8 7126.45 277.909  11
  -4   1   7 579.934 144.607  20
   4  -1  -7 619.405 125.916  32
  -4   1   7 674.686 127.557  23
  -4   1   7 667.758 117.037  11
  -4   1   6 2974.34 304.342  20
   4  -1  -6 3120.40 284.007  32
  -4   1   6 2920.83 267.974  23
  -4   1   6 2707.76 247.202  11
   4  -1  -5 547.032 133.068   1
  -4   1   5 832.107 165.988  20
   4  -1  -5 300.148 122.818  31
   4  -1  -5 674.690 145.201  32
  -4   1   5 588.458 166.122  27
  -4   1   5 602.960 129.600  23
  -4   1   5 800.474 138.953  11
  -4   1   4 68095.1 1150.22  11
  -4   1   4 65211.5 1093.55  28
   4  -1  -4 63164.4 1678.46  31
  -4   1   4 69641.0 1746.46  27
  -4   1   4 66841.4 1223.39  23
   4  -1  -4 65964.6 1352.73   1
  -4   1   3 98644.2 1279.70  28
   4  -1  -3 99437.9 1519.64   1
   4  -1  -3 97982.9 1951.93  31
  -4   1   3 94345.6 1958.41  27
   4  -1  -2 1739.18 259.408  31
  -4   1   2 1468.90 155.258  28
  -4   1   2 1547.88 260.925  27
   4  -1  -2 1636.34 174.696   1
  -4   1   1 24980.3 999.178   2
   4  -1  -1 22788.6 862.733  31
  -4   1   1 22485.9 639.797  28
  -4   1   0 53335.2 1608.19   2
   4  -1   0 49784.0 1248.28  31
  -4   1   0 54715.5 1180.16  28
   4  -1   0 46823.8 1054.93  26
  -4   1  -1 324.820 122.219  28
   4  -1   1 392.215 101.828  26
  -4   1  -1 58.8667 104.698   2
   4  -1   2 59436.6 1017.53  30
   4  -1   2 60179.9 1156.05  26
  -4   1  -2 62416.5 2328.76   2
   4  -1   3 1350.38 187.761  33
   4  -1   3 1367.30 177.152  26
  -4   1  -3 1204.18 177.055  14
  -4   1  -3 1209.40 381.279   2
  -4   1  -3 858.109 306.826  21
   4  -1   4 23349.6 783.291  33
   4  -1   4 18808.3 720.515  26
  -4   1  -4 21703.9 786.499  14
  -4   1  -4 15900.0 1361.36   2
  -4   1  -4 20425.1 725.216  13
  -4   1  -4 20614.4 1458.37  21
  -4   1  -4 17349.4 785.520   1
  -4   1  -5 88097.3 1606.15  14
  -4   1  -5 84711.2 1496.74  13
   4  -1   5 93632.0 1588.33  33
  -4   1  -5 78810.8 2919.25  21
  -4   1  -6 2110.85 243.568  14
   4  -1   6 2499.57 259.577  33
  -4   1  -6 1645.24 425.013  21
   4  -1   7 670.540 137.064  33
  -4   1  -7 581.519 109.145  14
  -4   1  -7 721.952 253.634  21
  -4   1  -8 9.90335 46.4336  10
  -4   1  -8 59.5452 31.0295  14
  -4   0   9 3960.08 194.137  20
   4   0  -9 4445.07 198.036  13
  -4   0   8 16682.1 577.370  20
   4   0  -8 15259.4 417.314  32
  -4   0   8 16122.7 410.418  23
  -4   0   7 1654.17 213.308  20
   4   0  -7 1599.36 178.206  32
  -4   0   7 1439.77 164.872  23
   4   0  -6 37624.9 927.235  32
  -4   0   6 36691.3 892.183  23
  -4   0   6 35327.9 820.147  11
   4   0  -5 32521.7 886.269  32
  -4   0   5 28273.5 839.413  28
  -4   0   5 31401.6 1075.19  27
   4   0  -5 30811.3 1015.00   1
  -4   0   5 30949.6 831.807  23
  -4   0   5 30514.6 766.564  11
   4   0  -4 1123.80 245.197  31
  -4   0   4 1390.75 224.581  27
   4   0  -4 1211.81 189.687   1
  -4   0   4 1224.89 165.885  28
   4   0  -3 6041.91 512.780  31
  -4   0   3 6091.36 443.098  27
  -4   0   3 6090.33 331.824  28
   4   0  -3 6227.49 382.922   1
   4   0  -2 109.387 56.9370   1
   4   0  -2 11.5510 73.3130  31
  -4   0   2 12.7175 58.3140  27
  -4   0   2 63.4321 35.8697  28
   4   0  -1 41338.1 1230.18  31
  -4   0   1 41716.2 804.832  28
   4   0  -1 40088.0 788.508   1
   4   0   0 376674. 3551.57  31
  -4   0   0 384250. 2512.25  28
  -4   0  -1 28370.3 1166.68   2
   4   0   1 26604.2 931.045  31
   4   0   1 26221.0 647.531  26
   4   0   2 12611.5 465.666  30
  -4   0  -2 12718.9 954.294   2
  -4   0  -2 12771.7 677.992  28
   4   0   2 11881.8 451.138  26
   4   0   3 9824.40 422.600  30
  -4   0  -3 10466.9 983.397   2
   4   0   3 11831.7 472.160  26
   4   0   4 2443.72 239.388  33
   4   0   4 2172.44 247.508  26
  -4   0  -4 2269.23 237.125  14
  -4   0  -4 2550.43 240.042  13
  -4   0  -4 1463.32 400.687   2
  -4   0  -4 2133.40 261.527   1
  -4   0  -4 2218.70 451.818  21
  -4   0  -5 52838.8 1457.76   1
   4   0   5 45302.3 1270.85  27
   4   0   5 46689.1 1348.92  26
  -4   0  -5 64109.5 1339.09  14
  -4   0  -5 64303.2 1268.09  13
  -4   0  -5 59091.2 2536.64   2
   4   0   5 68320.4 1338.41  33
  -4   0  -5 60785.5 2385.07  21
   4   0   6 28319.9 876.782  33
  -4   0  -6 27246.1 884.617  14
  -4   0  -6 27130.2 826.536  13
  -4   0  -6 25385.9 1580.21  21
   4   0   7 117.242 64.2759  33
  -4   0  -7 172.211 81.5544  14
  -4   0  -7 224.380 202.919  21
  -4   0  -8 24075.8 629.672  14
  -4   0  -8 21366.1 1112.48  21
  -4  -1   8 767.363 115.868  20
   4   1  -8 785.805 122.184  13
  -4  -1   7 192.872 72.9676  20
   4   1  -7 174.593 134.082  18
   4   1  -6-100.335 265.042  18
  -4  -1   6 130.726 59.8110  23
  -4  -1   5 81602.8 1563.94  28
   4   1  -5 79270.6 1608.54   1
  -4  -1   5 77673.0 1247.55  23
  -4  -1   4 5073.68 364.418  28
  -4  -1   4 5254.74 399.170  27
   4   1  -4 4510.75 364.509   1
  -4  -1   4 5048.45 311.649  23
   4   1  -3 775.426 199.666  31
  -4  -1   3 1019.00 150.051  28
  -4  -1   3 1211.62 182.687  27
   4   1  -3 988.634 156.682   1
   4   1  -2 86942.2 1311.69   1
  -4  -1   2 85056.8 1222.21  28
  -4  -1   2 84190.0 1456.62  27
   4   1  -1 469.140 147.036  31
  -4  -1   1 301.103 74.2545  28
  -4  -1   1 308.921 98.6010  27
   4   1  -1 363.934 79.4483   1
  -4  -1   0 64939.8 996.263  28
  -4  -1   0 68871.6 1399.54   2
  -4  -1  -1 63623.5 1564.41   2
  -4  -1  -1 66101.8 1090.56  28
   4   1   2 110.643 57.1133  30
  -4  -1  -2 53.8189 29.3719  29
  -4  -1  -2 103.231 66.0564  28
   4   1   2 26.2160 27.8640  26
  -4  -1  -2 85.8460 107.709   2
   4   1   3 109180. 1480.37  30
  -4  -1  -3 107407. 2010.94  28
  -4  -1  -3 112185. 2956.42   2
   4   1   4 22249.6 699.004  30
   4   1   4 21183.9 796.447  26
  -4  -1  -4 21949.0 1421.89   2
   4   1   5 902.901 153.374  33
  -4  -1  -5 675.971 163.950   1
   4   1   5 773.536 227.142  26
  -4  -1  -5 1080.69 166.602  14
  -4  -1  -5 707.167 133.946  13
  -4  -1  -5 783.558 299.149   2
  -4  -1  -5 1203.64 322.186  21
   4   1   6 3897.95 325.291  33
  -4  -1  -6 3750.47 325.181  14
  -4  -1  -6 3910.25 308.722  13
  -4  -1  -6 3244.32 544.530  21
   4   1   7 3653.06 308.554  33
  -4  -1  -7 3399.52 297.714  14
  -4  -1  -7 3311.65 272.907  13
  -4  -1  -7 3394.23 553.744  21
   4   1   8 40902.1 924.354  33
  -4  -1  -8 37878.4 871.902  14
  -4  -1  -9 21105.9 475.718  14
  -4  -1  -9 18692.4 843.406  21
   4   2  -8 1279.55 123.685  13
   4   2  -7 19038.3 1187.62  18
   4   2  -7 20029.1 688.192  13
  -4  -2   6 4984.50 344.449  20
   4   2  -6 3867.78 710.158  18
   4   2  -5 2430.47 647.594  18
   4   2  -5 2076.48 865.698  25
  -4  -2   4 31799.7 969.678  28
  -4  -2   4 30802.2 894.465  27
   4   2  -4 19731.8 2731.08  25
   4   2  -4 30638.8 922.990   1
   4   2  -4 23266.6 1702.58   8
  -4  -2   3 10732.3 533.274  28
  -4  -2   3 11177.6 511.223  27
   4   2  -3 11379.3 518.652   1
   4   2  -2 45305.4 933.880   1
  -4  -2   2 44203.1 947.421  28
  -4  -2   2 46634.2 1007.52  27
  -4  -2   1 31021.1 716.983  28
  -4  -2   1 31397.3 807.794  27
   4   2  -1 30923.1 685.237   1
   4   2   0 190.820 64.3637  30
  -4  -2   0 273.691 67.8632  28
  -4  -2   0 356.179 107.433  27
  -4  -2   0 234.842 91.4240   2
   4   2   1 34376.0 776.467  30
  -4  -2  -1 33524.5 1039.18   2
  -4  -2  -1 35654.3 752.013  28
  -4  -2  -2 4270.02 294.094  28
  -4  -2  -2 3631.91 430.461   2
   4   2   2 4118.68 277.254  30
  -4  -2  -3 21548.2 531.805  29
  -4  -2  -3 22244.5 838.476  28
  -4  -2  -3 20726.9 1178.11   2
   4   2   3 20803.6 639.048  26
   4   2   3 20941.9 665.489  30
   4   2   4 36999.0 945.538  30
  -4  -2  -4 37438.0 662.064  29
   4   2   4 39990.3 985.269  26
  -4  -2  -4 37990.7 1728.24   2
   4   2   5 8275.87 433.629  33
   4   2   5 6146.48 412.831  30
   4   2   5 7485.62 459.906  26
  -4  -2  -5 7254.70 401.928  14
  -4  -2  -5 7420.17 816.099   2
  -4  -2  -5 6917.25 675.250  21
  -4  -2  -5 7334.32 506.003   1
   4   2   6 61302.9 1257.94  33
  -4  -2  -6 54515.7 1565.16   1
   4   2   6 51919.7 1290.88  26
  -4  -2  -6 55391.0 1188.68  14
  -4  -2  -6 58750.4 1118.55  13
  -4  -2  -6 56934.7 2113.38  21
  -4  -2  -7 14294.9 606.046  14
  -4  -2  -7 15307.0 562.728  13
   4   2   7 15366.5 630.979  33
  -4  -2  -7 13305.0 1034.88  21
   4   2   8 171.698 75.8034  33
  -4  -2  -8 78.6687 58.3232  14
  -4  -2  -8 101.181 116.099  21
  -4  -2  -9 188.797 57.6774  14
   4   2   9 191.720 67.6219  33
  -4  -2  -9 129.548 121.761  21
  -4  -3   7 7449.30 275.341  20
   4   3  -7 8667.98 646.850  18
   4   3  -7 9156.10 369.827  13
   4   3  -6 19417.7 1420.03  18
   4   3  -6 21272.6 748.165  13
   4   3  -5 62.6226 203.003  18
   4   3  -5-163.703 383.329  25
   4   3  -5-2.14417 145.661   8
   4   3  -4 8908.37 1222.04  18
   4   3  -4 8373.36 1784.60  25
   4   3  -4 9233.16 1073.95   8
   4   3  -3 1785.83 199.720   1
  -4  -3   3 1846.63 236.085  28
  -4  -3   3 1594.07 187.513  27
   4   3  -3 1393.68 962.478  25
   4   3  -3 1778.66 522.142   8
   4   3  -2 1204.44 151.428   1
  -4  -3   2 1344.91 180.628  28
  -4  -3   2 1449.96 168.540  27
   4   3  -1 28352.9 671.721  30
  -4  -3   1 27454.0 719.917  28
   4   3  -1 10788.4 1806.28   5
   4   3  -1 10368.7 1713.10   4
   4   3  -1 28711.7 654.739   1
  -4  -3   0 16186.7 511.319  28
   4   3   0 16946.4 546.402  30
   4   3   1 84774.0 1273.01  30
  -4  -3  -1 87666.4 1187.59  28
  -4  -3  -2 41237.2 873.672  28
   4   3   2 41121.3 938.073  30
   4   3   3 27623.3 816.149  30
  -4  -3  -3 27181.0 667.259  29
  -4  -3  -3 28067.0 859.185  28
   4   3   4 17485.1 687.074  30
  -4  -3  -4 17653.9 511.381  29
  -4  -3  -4 16629.5 803.095  28
   4   3   4 16131.9 558.161  26
   4   3   5 27301.8 771.549  33
   4   3   5 22907.0 852.694  30
  -4  -3  -5 23181.0 586.727  29
   4   3   5 22386.1 773.851  26
   4   3   5 26754.1 754.898  12
  -4  -3  -5 26539.4 1234.64  21
  -4  -3  -5 24486.0 916.218   1
  -4  -3  -6 7580.38 585.609   1
   4   3   6 8297.98 448.037  33
   4   3   6 6920.93 477.174  30
   4   3   6 6599.58 480.942  26
  -4  -3  -6 8018.16 738.450  21
  -4  -3  -7 24875.0 753.171  14
   4   3   7 26900.7 825.538  33
  -4  -3  -7 24176.7 1348.76  21
   4   3   8 8588.01 441.577  33
  -4  -3  -8 7345.90 382.116  14
  -4  -3  -8 7324.46 710.035  21
  -4  -3  -9 15533.8 452.166  14
  -4  -3  -9 14092.9 853.660  21
   4   4  -6 179.434 144.547  18
   4   4  -6 174.423 56.8714  13
   4   4  -6 203.233 99.4262   8
   4   4  -5 183.332 247.042  18
   4   4  -5 491.792 468.129  25
   4   4  -5 165.409 76.9784  13
   4   4  -5 84.4953 117.540   8
   4   4  -4 15758.8 1543.50  18
   4   4  -4 16316.3 2466.41  25
   4   4  -4 17246.5 1397.41   8
   4   4  -3 25860.0 2070.79  18
  -4  -4   3 28739.7 922.035  28
   4   4  -3 23336.5 3115.16  25
   4   4  -3 26110.2 1929.73   8
   4   4  -2 12514.4 1653.10  19
   4   4  -2 14305.2 1511.68  18
  -4  -4   2 14793.7 612.855  28
   4   4  -2 12791.2 1406.33   8
  -4  -4   1 56993.6 1099.40  28
   4   4   0 143.149 70.1004  30
  -4  -4   0 167.285 58.8192  28
  -4  -4  -1 12097.2 451.090  28
   4   4   1 3907.30 1139.60   5
   4   4   1 12083.9 521.288  30
   4   4   1 3981.97 969.917   4
   4   4   2 36027.6 951.293  30
  -4  -4  -2 33919.6 776.187  28
   4   4   2 13596.4 2177.88   5
   4   4   2 13571.5 1700.51   4
   4   4   3 57448.0 1256.87  30
  -4  -4  -3 60611.3 1248.83  28
  -4  -4  -4 27618.9 718.076  29
  -4  -4  -4 27195.6 994.781  28
  -4  -4  -4 28856.4 881.602   1
   4   4   5 79951.8 1615.26  20
   4   4   5 78572.8 1668.54  30
  -4  -4  -5 75380.0 1158.03  29
  -4  -4  -5 76265.1 1641.27   1
   4   4   6 19831.3 828.256  20
  -4  -4  -6 18723.7 925.293   1
   4   4   6 18680.5 838.005  30
  -4  -4  -6 18189.2 584.818  29
   4   4   6 23628.4 749.947  33
   4   4   6 19949.4 700.427  12
  -4  -4  -6 22244.8 1158.22  21
  -4  -4  -7 646.195 211.935  21
   4   4   7 1034.15 195.393  20
   4   4   7 877.694 155.555  33
   4   4   7 935.853 148.288  12
   4   4   8 14257.8 615.587  20
  -4  -4  -8 13363.1 922.506  21
   4   4   9 299.739 75.5246  33
  -4  -4  -9 209.111 146.956  21
  -4  -4 -10 20947.8 751.222  21
   4   5  -6 14823.1 666.952  18
   4   5  -5 5811.53 666.402  18
   4   5  -5 6322.46 1078.75  25
   4   5  -5 5744.86 547.388   8
   4   5  -4-77.1708 174.475  18
   4   5  -4-654.492 598.885  25
   4   5  -4-97.9248 130.007   8
   4   5  -3-3.28829 264.125  18
   4   5  -3 253.806 475.445  25
   4   5  -3-87.9077 270.133  19
   4   5  -3 130.946 267.741   8
   4   5  -2 21010.4 2237.46  19
   4   5  -2 21541.3 1832.00  18
   4   5  -2 22608.8 3169.27  25
   4   5  -2 18573.3 1650.44   8
   4   5  -1 9004.64 1538.95  19
   4   5  -1 9650.72 1210.89  18
   4   5  -1 10611.9 1976.69  16
  -4  -5   1 10017.1 479.719  28
   4   5  -1 10992.8 2236.81  25
   4   5  -1 9139.18 1171.83   8
   4   5  -1 16512.7 1490.02  22
   4   5  -1 6022.01 1598.72   4
   4   5  -1 13556.4 742.394   6
   4   5   0 22667.4 2387.34  19
   4   5   0 42085.5 1314.70   6
   4   5   0 30759.5 3271.71  16
  -4  -5   0 27300.4 734.291  28
   4   5   0 27114.4 3318.00  25
   4   5   0 26341.0 2056.97   8
   4   5   0 46297.7 2373.46  22
   4   5   0 11852.4 2107.26   4
   4   5   1 20104.8 2253.51  19
   4   5   1 40192.5 1287.23   6
   4   5   1 24184.6 2912.49  16
  -4  -5  -1 29071.3 741.573  28
   4   5   1 44012.5 2256.01  22
   4   5   1 16489.3 2189.34   4
   4   5   2 26044.5 873.843  30
  -4  -5  -2 22074.3 730.854  29
   4   5   3 808.097 159.200  20
   4   5   3 445.563 120.289  30
  -4  -5  -3 768.732 136.134  29
   4   5   3 640.757 762.921  16
   4   5   3 821.647 134.057  12
   4   5   4 1029.35 185.256  20
   4   5   4 968.791 189.670  30
  -4  -5  -4 831.319 132.886  29
   4   5   4 1262.64 168.923  12
   4   5   5 68693.1 1561.17  20
  -4  -5  -5 61217.8 1384.29  31
   4   5   5 69076.4 1662.17  30
  -4  -5  -5 64494.1 1160.05  29
   4   5   5 72558.1 1328.49  12
   4   5   6 73170.8 1653.83  20
   4   5   6 73640.0 1376.46  12
   4   5   7 3146.20 336.833  20
   4   5   7 3410.43 286.598  12
  -4  -5  -7 3445.68 455.855  21
   4   5   8 23609.9 834.063  20
   4   5   8 23370.3 661.310  12
  -4  -5  -8 21504.6 1094.23  21
   4   5   9 2641.48 223.353  20
  -4  -5  -9 2259.16 334.371  21
  -4  -5 -10-27.1132 58.5711  21
   4   6  -5 4061.13 356.644  18
   4   6  -5 4742.35 314.369   8
   4   6  -4 18990.9 1154.29  18
   4   6  -4 20058.0 1052.30   8
   4   6  -3 8959.15 1234.14  19
   4   6  -3 7482.93 893.318  18
   4   6  -3 8940.71 1738.00  25
   4   6  -3 7449.70 814.781   8
   4   6  -2 6083.74 1234.82  19
   4   6  -2 4207.83 733.594  18
   4   6  -2 5705.21 1416.35  16
   4   6  -2 4866.87 1459.06  25
   4   6  -2 4366.31 725.781   8
   4   6  -1 3131.52 991.638  19
   4   6  -1 2886.65 606.581  18
   4   6  -1 4969.08 1492.35  16
   4   6  -1 2064.29 1009.97  25
   4   6  -1 3279.24 692.533   8
   4   6   0 7993.62 1498.63  19
   4   6   0 11006.7 736.964   6
   4   6   0 10239.7 2066.19  16
   4   6   0 8118.53 1931.44  25
   4   6   0 6951.77 1011.97   8
   4   6   0 10898.9 1255.76  22
   4   6   1 18137.9 2307.75  19
   4   6   1 29651.5 1174.83   6
  -4  -6  -1 18479.3 721.526  29
   4   6   1 18767.0 2793.24  16
   4   6   1 19148.8 2767.73  25
   4   6   1 18652.5 1676.20   8
   4   6   1 30411.5 1999.92  22
   4   6   1 8223.24 1799.57   4
   4   6   2 11303.4 1825.06  19
   4   6   2 19267.3 959.510   6
  -4  -6  -2 13844.3 604.404  29
   4   6   2 13444.4 2421.69  16
   4   6   2 21611.7 1654.67  22
   4   6   2 15376.4 543.873  12
   4   6   3 26251.6 2766.83  19
   4   6   3 50152.0 1524.71   6
  -4  -6  -3 35599.7 946.595  29
   4   6   3 29171.1 3557.56  16
   4   6   3 40435.8 1213.54  30
   4   6   3 39747.9 921.566  12
   4   6   4 8480.95 548.107  20
   4   6   4 4564.70 1140.96  19
   4   6   4 11195.7 709.005   6
   4   6   4 8015.77 570.248  30
  -4  -6  -4 6742.83 397.013  29
   4   6   4 5723.45 1679.43  16
   4   6   4 7391.07 420.082  12
   4   6   5 3440.58 358.356  20
   4   6   5 1875.47 731.616  19
   4   6   5 938.597 736.395  16
   4   6   5 3335.88 294.005  12
   4   6   6 3104.42 340.884  20
   4   6   6 3036.10 1206.50  16
   4   6   6 3325.48 295.288  12
  -4  -6  -6 3461.82 423.429  21
   4   6   7 4272.30 391.012  20
   4   6   7 3998.48 310.275  12
  -4  -6  -7 3913.38 455.107  21
   4   6   8 1731.39 228.446  20
   4   6   8 1613.70 177.261  12
  -4  -6  -8 1752.73 300.107  21
   4   6   9 39056.5 866.809  20
   4   6   9 36720.4 627.587  12
   4   7  -3 2985.93 563.210  19
   4   7  -3 3478.75 420.931  18
   4   7  -3 3652.24 884.973  25
   4   7  -3 3442.80 408.420   8
   4   7  -2 26166.3 2118.93  19
   4   7  -2 24181.8 1351.05   8
   4   7  -2 22798.9 1301.19  18
   4   7  -1 19482.4 2143.08  19
   4   7  -1 15512.9 1153.44  18
   4   7  -1 23118.6 2903.79  16
   4   7  -1 21830.9 2889.21  25
   4   7  -1 16868.1 1288.93   8
   4   7   0 951.907 699.370  16
   4   7   0 1154.70 310.116   6
   4   7   0 1340.43 921.262  25
   4   7   0 687.553 301.052   8
   4   7   0 1035.54 682.434  19
   4   7   1 1272.69 788.111  19
   4   7   1 1951.38 1032.53  16
   4   7   1 2883.55 470.506   6
   4   7   1 2173.43 971.032  25
   4   7   1 3039.30 776.484  22
   4   7   1 1907.11 480.498   8
   4   7   2 28308.3 1194.20   6
   4   7   2 28540.2 3152.65  25
   4   7   2 32764.7 2052.39  22
   4   7   3 618.705 751.486  16
   4   7   3 185.144 330.363   6
   4   7   3 109.319 492.290  19
   4   7   3 143.686 65.8956  12
   4   7   4 10266.6 1732.59  19
   4   7   4 17406.7 908.520   6
   4   7   4 10014.3 2101.83  16
   4   7   4 14693.5 571.241  12
   4   7   5 4961.98 1092.66  19
   4   7   5 5959.67 1667.77  16
   4   7   5 7354.94 418.785  12
   4   7   6 18384.7 803.620  20
   4   7   6 17713.1 652.802  12
  -4  -7  -6 18424.1 895.968  21
   4   7   7 14538.3 683.103  20
   4   7   7 14350.6 554.396  12
  -4  -7  -7 13380.4 747.596  21
   4   7   8 4389.40 340.616  20
   4   7   8 3894.00 258.496  12
  -4  -7  -8 3319.82 351.862  21
   4   7   9 4508.34 209.736  12
  -4  -7  -9 3246.75 295.673  21
   4   8  -2 160.332 157.420  19
   4   8  -2 14.8228 62.8323   8
   4   8  -1 51.8999 315.179  19
   4   8  -1 396.570 175.128   8
   4   8   0 6391.91 1152.84  19
   4   8   0 7630.78 1567.73  16
   4   8   0 8961.63 1706.63  25
   4   8   0 5957.21 582.547   8
   4   8   1 20303.0 843.902   6
   4   8   1 14681.9 1885.12  19
   4   8   1 19128.2 2633.65  16
   4   8   1 22797.5 2663.76  25
   4   8   2 35737.0 1212.49   6
   4   8   2 34300.0 3706.53  16
   4   8   3 3465.89 465.799   6
   4   8   3 2744.66 1247.06  16
   4   8   3 2133.41 791.357  19
   4   8   4-77.3115 554.134  19
   4   8   4 260.921 765.609  16
   4   8   4 1608.79 313.034   6
   4   8   4 1277.11 147.985  12
   4   8   5-145.992 677.037  16
   4   8   5 201.483 145.684   6
   4   8   5 191.258 67.1052  12
   4   8   6 711.252 591.550  16
   4   8   6 584.112 110.348  12
   4   8   7 38743.5 2844.41  16
   4   8   7 42388.9 830.968  12
  -4  -8  -7 38227.0 1042.53  21
   4   8   8 10482.9 359.952  12
  -4  -8  -8 8283.27 435.572  21
   4   9   0 3669.78 596.672  19
   4   9   1 577.345 306.047  19
   4   9   2 6067.75 1005.27  19
   4   9   2 5835.13 1271.11  16
   4   9   3 8468.83 501.826   6
   4   9   3 6272.08 1008.31  19
   4   9   3 7548.72 1452.59  16
   4   9   4 4322.80 353.681   6
   4   9   4 3281.80 727.897  19
   4   9   4 4139.52 1101.68  16
   4   9   5 42073.9 3135.20  16
   4   9   5 43899.8 1005.23   6
   4   9   6 119.725 273.013  16
   4   9   6 336.128 63.8700  12
   4   9   7 51.1538 21.8221  12
  -5   6   6 11774.0 287.759  24
  -5   6   5 2168.19 179.924  10
  -5   6   5 2203.76 302.738   6
  -5   6   5 2691.06 179.409  24
   5  -6  -4 552.669 80.3544  32
  -5   6   4 831.162 173.990  10
  -5   6   4 647.841 189.711   6
  -5   6   4 652.610 103.478  24
  -5   6   3 479.949 94.9231  17
  -5   6   3 329.835 75.0683  15
  -5   6   3 252.706 139.042   6
  -5   6   3 377.899 78.0925  24
  -5   6   3 415.043 145.427  10
  -5   6   3 154.525 208.912  22
  -5   6   2 261.322 140.388  10
  -5   6   2 183.918 67.1320  17
  -5   6   2 76.0093 37.9107  15
  -5   6   2-87.6810 81.9497   6
  -5   6   2 50.4231 41.5437  24
  -5   6   2-39.2805 202.052  22
  -5   6   1 12409.7 460.510  10
  -5   6   1 12267.9 409.312  17
  -5   6   0 21182.4 541.424  10
  -5   6   0 19229.2 436.462  17
   5  -5  -7 2090.59 143.944  32
  -5   5   7 2215.08 133.585  11
   5  -5  -6 411.999 84.0274  32
  -5   5   6 330.054 77.5517  10
  -5   5   6 326.802 131.921   6
  -5   5   6 382.926 78.6455  24
  -5   5   6 437.969 78.5410  11
  -5   5   5 412.245 80.3266  11
   5  -5  -5 438.748 99.2635  32
  -5   5   5 339.675 90.7113  10
  -5   5   5 318.441 187.814   6
  -5   5   5 323.830 85.2541  24
   5  -5  -4 311.631 97.4366  32
  -5   5   4 326.387 116.592  10
  -5   5   4 347.280 91.0328  17
  -5   5   4 361.773 105.265  15
  -5   5   4 167.779 167.853   6
   5  -5  -3 31722.5 830.562  32
  -5   5   3 32416.3 872.412  17
  -5   5   3 31209.6 1546.83   6
  -5   5   3 33706.7 880.564  15
  -5   5   2 4160.99 353.404  10
   5  -5  -2 4103.45 299.643  32
  -5   5   2 4521.99 332.554  17
  -5   5   2 3612.24 519.968   6
  -5   5   2 4326.33 319.789  15
  -5   5   2 3892.66 871.000  22
  -5   5   1 821.584 162.774  10
  -5   5   1 925.237 154.375  17
  -5   5   1 769.206 138.469  15
  -5   5   1 586.767 201.717   6
  -5   5   1 320.639 334.088  22
  -5   5   0 177.295 87.4694  10
  -5   5   0 205.322 83.3540  17
  -5   5   0 205.337 77.3827  15
  -5   5   0 407.758 368.912  22
  -5   5  -1 700.512 125.424  17
  -5   5  -1 606.522 133.397  10
  -5   5  -1 605.268 97.7635  15
  -5   5  -1 458.928 295.827  22
  -5   5  -2 902.816 137.596  10
  -5   5  -2 909.269 114.937  17
  -5   5  -2 820.133 254.649  22
   5  -4  -8 9140.33 279.191  32
  -5   4   8 8933.80 247.695  23
  -5   4   8 9839.08 272.290  11
   5  -4  -7 1314.43 145.547  32
  -5   4   7 1296.16 130.863  23
  -5   4   7 1333.59 136.507  11
  -5   4   6 362.582 88.7930  11
   5  -4  -6 292.416 84.7328  32
  -5   4   6 311.751 83.1842  24
  -5   4   6 318.697 86.4705  23
  -5   4   5 4220.71 298.176  10
   5  -4  -5 5151.62 354.373  32
  -5   4   5 5294.16 354.752  15
  -5   4   5 4987.10 309.928  23
  -5   4   5 4611.84 308.804  11
   5  -4  -4 1962.44 233.250  32
  -5   4   4 1904.34 217.137  10
  -5   4   4 2007.49 222.410  17
  -5   4   4 2131.34 240.484  15
  -5   4   4 1461.04 531.372  22
  -5   4   4 1760.91 198.512  11
  -5   4   3 57.6205 93.5144  10
  -5   4   3 67.2474 71.6788  17
  -5   4   3-16.4021 59.2155  15
  -5   4   3 67.0316 305.302  22
   5  -4  -3 28.8111 65.9066  32
  -5   4   2 10105.9 558.737  10
  -5   4   2 10250.0 542.363  17
  -5   4   2 10329.8 539.342  15
  -5   4   2 9100.05 1443.98  22
  -5   4   1 446.850 145.044  10
  -5   4   1 367.460 119.577  17
  -5   4   1 309.300 101.219  15
  -5   4   0 20579.3 896.781  10
  -5   4   0 19984.5 789.882  17
  -5   4   0 16284.6 1022.52   6
  -5   4   0 20813.6 748.994  15
  -5   4   0 17419.4 1928.24  22
  -5   4  -1 9575.91 611.173  10
  -5   4  -1 10163.8 550.340  17
  -5   4  -1 10165.9 499.551  15
  -5   4  -1 9179.35 1307.53  22
  -5   4  -2 1324.54 222.421  10
  -5   4  -2 1460.56 202.745  17
  -5   4  -2 1401.45 176.049  15
  -5   4  -3 136.547 97.0059  10
  -5   4  -3 36.5108 47.7124  17
  -5   4  -3 55.9186 38.1699  15
  -5   4  -4 127.210 58.8718  10
  -5   4  -4 139.168 45.8303  17
   5  -3  -8 1142.49 114.184  32
  -5   3   8 1362.86 121.201  23
  -5   3   8 1167.73 107.256  11
  -5   3   7 158.646 62.6244  11
   5  -3  -7 184.519 66.0447  32
  -5   3   7 275.779 76.4181  23
   5  -3  -6 4110.87 313.459  32
  -5   3   6 4222.70 300.383  23
  -5   3   6 4058.58 296.358  11
   5  -3  -5 19639.1 720.651  32
  -5   3   5 18382.2 663.831  15
  -5   3   5 19858.1 681.206  23
  -5   3   5 20577.2 695.018  11
   5  -3  -4 17258.7 687.268  32
  -5   3   4 17281.4 626.822  17
  -5   3   4 16953.4 662.739  15
  -5   3   4 17760.4 645.685  23
  -5   3   4 17770.4 646.858  11
  -5   3   3 789.997 147.692  11
  -5   3   3 801.840 154.798  17
  -5   3   3 892.058 161.909  10
  -5   3   3 897.939 165.802  15
  -5   3   3 836.998 143.535  23
  -5   3   2 2181.61 218.585  11
  -5   3   2 3285.01 313.988  10
  -5   3   2 2974.36 289.492  17
  -5   3   2 3071.81 293.613  15
  -5   3   1 707.018 166.483  10
  -5   3   1 875.693 170.219  17
  -5   3   1 902.684 167.544  15
  -5   3   0 47.9030 73.3812  10
  -5   3   0 247.950 120.164  17
  -5   3   0 178.041 85.4916  15
  -5   3  -1 55155.2 1391.83  17
  -5   3  -1 56273.8 1271.15  15
  -5   3  -1 56464.2 1568.69  10
  -5   3  -2 11996.0 758.163  10
  -5   3  -2 11903.4 645.024  17
  -5   3  -2 11716.5 568.231  15
  -5   3  -2 12909.4 600.265  14
  -5   3  -2 10747.4 1397.09  22
  -5   3  -2 14010.2 1162.09  21
  -5   3  -3 812.689 202.903  10
  -5   3  -3 851.407 179.176  17
  -5   3  -3 560.124 122.247  15
  -5   3  -3 821.214 147.356  14
  -5   3  -3 757.054 323.409  22
  -5   3  -3 683.449 291.194  21
  -5   3  -4 4559.18 405.020  10
  -5   3  -4 4403.35 336.112  17
  -5   3  -4 4066.99 267.743  15
  -5   3  -4 4751.33 307.395  14
  -5   3  -4 4533.26 595.284  21
  -5   3  -5 642.247 126.026  10
  -5   3  -5 651.550 100.475  17
  -5   2   8 370.654 82.4460  20
   5  -2  -8 417.571 73.2833  32
  -5   2   8 535.792 82.1303  23
  -5   2   8 440.596 68.5603  11
   5  -2  -7 13888.1 506.907  32
  -5   2   7 15201.6 519.358  23
  -5   2   7 14356.7 484.790  11
  -5   2   6 7284.87 430.504  20
   5  -2  -6 7154.27 416.100  32
  -5   2   6 7706.78 420.857  23
  -5   2   6 8053.16 417.747  11
  -5   2   5 197.747 73.7089  11
  -5   2   5 222.265 92.9225  20
  -5   2   5 239.426 81.1969  15
  -5   2   5 219.167 88.3953  23
   5  -2  -5 255.422 96.2815  32
  -5   2   4 11739.3 530.097  11
   5  -2  -4 12364.6 577.504  32
  -5   2   4 11904.1 490.773  17
  -5   2   4 11967.2 535.016  15
  -5   2   4 11636.2 544.984  23
  -5   2   3 7082.36 405.625  11
  -5   2   3 7386.35 697.862   2
  -5   2   3 7667.49 412.596  17
  -5   2   3 7897.42 438.745  15
  -5   2   3 7045.63 431.709  23
  -5   2   2 14638.2 564.583  11
  -5   2   2 15170.2 1022.08   2
  -5   2   2 15766.4 617.045  17
  -5   2   2 15372.0 611.700  15
  -5   2   2 14175.3 592.809  23
  -5   2   1 44322.8 950.031  11
  -5   2   1 43898.3 1885.12   2
   5  -2  -1 37792.3 1387.38  31
  -5   2   1 47857.0 1140.01  17
   5  -2  -1 35885.8 1108.69  26
  -5   2   1 48673.0 1100.29  15
  -5   2   1 43598.5 1013.15  23
  -5   2   0 3090.93 552.637   2
  -5   2   0 3591.08 343.161  17
   5  -2   0 2391.37 267.665  26
  -5   2   0 3763.50 323.848  15
  -5   2   0 3511.38 371.939  10
  -5   2  -1 1783.74 285.457  10
  -5   2  -1 1747.50 249.352  17
   5  -2   1 1257.25 195.057  26
  -5   2  -1 1847.39 236.097  14
  -5   2  -1 1030.12 342.549   2
  -5   2  -1 2046.51 455.843  21
  -5   2  -2 7377.55 601.146  10
  -5   2  -2 8602.81 502.864  14
  -5   2  -2 8116.52 905.248  21
  -5   2  -3 6872.66 597.490  10
  -5   2  -3 7404.94 468.804  14
  -5   2  -3 6814.83 1060.66  22
  -5   2  -3 7710.31 890.669  21
  -5   2  -4 22727.8 1047.59  10
  -5   2  -4 26556.1 851.541  14
  -5   2  -4 24920.8 1537.46  21
  -5   2  -5 11457.8 672.633  10
  -5   2  -5 12866.6 529.595  14
  -5   2  -5 11654.3 956.038  21
  -5   2  -6 415.271 108.317  10
  -5   2  -6 541.305 100.937  17
  -5   2  -6 501.707 74.4775  15
  -5   2  -6 635.381 94.1971  14
  -5   2  -6 393.942 175.343  21
  -5   1   8 799.042 117.348  20
   5  -1  -8 826.675 87.6027  32
  -5   1   8 992.881 100.708  23
  -5   1   7 5675.56 357.976  20
   5  -1  -7 5635.95 308.430  32
  -5   1   7 5972.11 323.383  23
  -5   1   7 5446.54 286.863  11
  -5   1   6 28981.1 877.718  20
   5  -1  -6 28508.3 811.157  32
  -5   1   6 29540.7 806.214  23
  -5   1   6 28007.2 757.578  11
  -5   1   5 1610.09 214.466  20
   5  -1  -5 1493.05 197.721  32
  -5   1   5 1358.00 189.816  23
  -5   1   5 1443.73 183.960  11
  -5   1   4 3074.04 259.323  11
   5  -1  -4 3611.11 301.335  32
   5  -1  -4 2710.41 412.264  31
   5  -1  -4 2852.82 291.465   1
  -5   1   4 3322.02 266.119  15
  -5   1   4 2736.94 416.422  27
  -5   1   4 3054.55 287.882  23
  -5   1   3 675.643 134.194  11
   5  -1  -3 372.912 114.434  31
  -5   1   3 748.894 133.899  15
  -5   1   3 772.649 143.009  23
   5  -1  -3 677.503 142.016   1
  -5   1   2 6689.70 371.035  11
   5  -1  -2 5608.06 563.848  31
  -5   1   2 6457.55 407.522  28
  -5   1   2 7125.89 386.896  15
  -5   1   2 6904.18 401.902  23
   5  -1  -2 6347.46 376.883   7
  -5   1   1 5367.10 588.729   2
   5  -1  -1 4612.05 481.577  31
  -5   1   1 4816.28 397.183  28
  -5   1   1 5569.27 348.569  15
  -5   1   0 15754.7 1095.11   2
   5  -1   0 14460.6 844.778  31
  -5   1   0 15501.2 789.708  28
   5  -1   0 13471.4 575.051  26
  -5   1  -1 12466.2 1060.66   2
  -5   1  -1 10573.8 721.789  28
   5  -1   1 9953.15 487.951  26
  -5   1  -1 14862.3 614.543  14
  -5   1  -1 12811.6 543.069  23
  -5   1  -2 16847.7 1398.76   2
  -5   1  -2 17285.5 876.090  10
   5  -1   2 13563.8 569.460  30
   5  -1   2 15068.4 614.358  26
  -5   1  -2 16394.4 1204.28  21
  -5   1  -3 12033.2 587.375  14
  -5   1  -3 10197.7 1004.99  21
  -5   1  -4 3751.00 334.198  14
  -5   1  -4 2986.43 573.928  21
  -5   1  -5 21130.9 758.517  14
  -5   1  -5 19713.2 1371.85  21
  -5   1  -6 601.693 174.081  10
  -5   1  -6 956.449 148.647  14
   5  -1   6 1267.62 220.337  33
  -5   1  -6 692.163 253.248  21
  -5   1  -7 2455.31 235.943  10
  -5   1  -7 2662.70 184.675  14
  -5   1  -7 2091.00 314.568  21
  -5   0   8 3053.72 207.323  20
   5   0  -8 2696.21 198.014  13
  -5   0   7 77.8387 55.0701  20
   5   0  -7 35.7602 36.9529  32
   5   0  -7 51.4372 142.939  18
  -5   0   7 14.6180 29.6254  23
  -5   0   6 24.6451 34.9504  11
  -5   0   6 12.3326 52.4802  20
   5   0  -6 28.9744 48.5067  32
  -5   0   6 42.2955 54.3685  23
  -5   0   5 16566.7 578.035  11
   5   0  -5 17988.8 638.710  32
  -5   0   5 17109.2 620.486  23
  -5   0   4 959.021 145.392  11
   5   0  -4 650.936 203.578  31
   5   0  -4 1078.09 163.769  32
   5   0  -4 973.930 167.742   1
  -5   0   4 708.026 132.013  28
  -5   0   4 753.222 199.632  27
  -5   0   4 897.633 154.887  23
  -5   0   3 7615.66 391.622  11
   5   0  -3 8185.08 428.185  32
   5   0  -3 6591.04 624.233  31
  -5   0   3 7234.38 418.414  28
  -5   0   3 6781.78 591.389  27
   5   0  -3 7508.67 440.066   1
  -5   0   3 7553.39 416.279  23
   5   0  -3 6780.05 402.415   7
   5   0  -2 3516.44 281.393   1
   5   0  -2 3514.07 444.071  31
  -5   0   2 3585.19 292.265  28
   5   0  -1 41564.5 1464.40  31
  -5   0   1 44639.1 1009.44  28
   5   0   0 295.124 140.690  31
  -5   0   0 123.102 86.5851  28
  -5   0   0 57.3015 86.5602   2
  -5   0  -1 39.8024 75.0229  28
   5   0   1 106.428 57.0335  26
   5   0   2 437.786 99.4442  30
  -5   0  -2 40.1172 88.6958  28
   5   0   2 302.712 81.4046  26
  -5   0  -2 393.163 105.220  14
  -5   0  -2 424.770 278.673   2
  -5   0  -3 38762.3 2120.19   2
   5   0   3 37892.4 941.551  26
  -5   0  -3 41066.0 1849.87  21
  -5   0  -4 13943.3 630.038  14
  -5   0  -4 11489.8 1045.04  21
  -5   0  -5 7436.90 459.311  14
  -5   0  -5 6319.41 799.669  21
  -5   0  -6 6756.24 415.428  14
  -5   0  -6 6554.21 782.846  21
  -5   0  -7 4867.73 300.354  14
  -5   0  -7 3604.30 507.529  21
  -5   0  -8 2039.12 137.878  14
  -5   0  -8 1571.19 229.483  21
  -5  -1   8 6764.78 262.808  20
   5   1  -8 6900.40 276.316  13
  -5  -1   7 3065.54 241.064  20
   5   1  -7 2434.08 426.806  18
  -5  -1   6 11756.1 540.150  20
  -5  -1   6 10247.9 411.819  23
  -5  -1   5 17235.5 589.233  23
  -5  -1   5 16273.2 534.006  11
  -5  -1   4 4897.30 303.159  11
   5   1  -4 5064.05 387.975   1
  -5  -1   4 4382.73 342.749  28
  -5  -1   4 4830.73 460.859  27
  -5  -1   4 4525.64 321.824  23
  -5  -1   3 131.745 60.7123  11
   5   1  -3 244.385 83.0931   7
  -5  -1   3 176.111 71.5032  28
  -5  -1   3 342.562 123.441  27
  -5  -1   3 319.165 96.5982  23
   5   1  -3 192.722 69.8112   1
  -5  -1   2 60604.3 1173.78  28
   5   1  -2 60655.6 1177.43   1
  -5  -1   1 15579.6 816.226   2
  -5  -1   1 14900.7 572.493  28
  -5  -1   0 5895.41 536.449   2
  -5  -1   0 5619.24 357.033  28
   5   1   1 43532.3 999.143  30
  -5  -1  -1 43197.4 1619.77   2
   5   1   2 33408.9 903.723  30
  -5  -1  -2 36986.5 1754.58   2
  -5  -1  -2 37901.2 1206.73  28
   5   1   3 167.371 76.5305  30
  -5  -1  -3 41.5740 58.2079  28
   5   1   3 44.0231 95.4023  26
  -5  -1  -3 147.097 59.6628  14
   5   1   3 317.189 145.939  33
  -5  -1  -3-4.69009 204.536   2
   5   1   4 390.122 104.334  30
   5   1   4 52.3057 198.308  26
   5   1   4 698.763 157.353  33
  -5  -1  -4 567.246 131.927  14
  -5  -1  -4 327.493 195.338   2
  -5  -1  -4 350.537 181.646  21
  -5  -1  -5 11557.3 563.603  14
  -5  -1  -5 9783.77 929.468  21
  -5  -1  -6 27149.1 844.803  14
  -5  -1  -6 24229.0 1448.79  21
  -5  -1  -7 5851.30 358.510  14
  -5  -1  -7 4332.10 581.540  21
  -5  -1  -8 14996.8 454.108  14
  -5  -1  -8 12763.0 817.057  21
  -5  -2   7 890.900 116.914  20
   5   2  -7 931.500 228.843  18
   5   2  -7 970.014 133.934  13
  -5  -2   6 6294.70 362.328  20
   5   2  -6 3492.98 625.924  18
   5   2  -5 18410.3 1646.83  18
   5   2  -5 15036.2 2200.50  25
   5   2  -4 45380.3 4260.52  25
   5   2  -4 50228.9 2538.70   8
  -5  -2   3 7914.46 360.970  11
  -5  -2   3 8166.44 461.511  28
  -5  -2   3 8160.56 554.406  27
   5   2  -3 7890.27 446.776   1
  -5  -2   3 7593.32 388.283  23
   5   2  -3 7445.98 413.573   7
  -5  -2   2 6031.60 380.972  28
  -5  -2   2 5976.63 470.880  27
   5   2  -2 6004.97 369.258   1
   5   2  -2 5917.86 351.205   7
   5   2  -1 11145.9 500.774  30
  -5  -2   1 11226.0 500.352  28
  -5  -2   1 9871.37 601.042  27
  -5  -2   0 1280.33 235.894   2
   5   2   0 1067.85 159.061  30
  -5  -2   0 1054.16 156.673  28
   5   2   1 79522.6 1377.39  30
  -5  -2  -1 81213.3 2048.33   2
  -5  -2  -1 82227.9 1375.66  28
   5   2   2 2150.32 233.588  30
  -5  -2  -2 2060.19 385.448   2
  -5  -2  -2 2188.71 269.200  28
   5   2   3 23738.8 808.162  30
  -5  -2  -3 25635.5 1067.11  28
  -5  -2  -3 23780.1 1454.15   2
   5   2   4 29038.8 927.320  30
  -5  -2  -4 29978.5 1695.38   2
   5   2   5 1615.87 235.783  30
  -5  -2  -5 2320.72 239.641  14
  -5  -2  -5 2143.34 430.159  21
   5   2   6 3760.85 346.072  33
  -5  -2  -6 3381.77 291.603  14
  -5  -2  -6 2983.58 496.339  21
  -5  -2  -7 37383.7 908.662  14
  -5  -2  -7 33541.2 1581.12  21
   5   2   8 443.253 118.046  33
  -5  -2  -8 244.659 72.2956  14
  -5  -2  -8 329.366 178.296  21
   5   2   9 12242.4 471.914  33
  -5  -2  -9 4853.08 381.174  21
   5   3  -7 6291.52 428.275  18
   5   3  -7 6271.35 231.812  13
  -5  -3   6 8689.93 365.937  20
   5   3  -6 7714.16 802.604  18
   5   3  -6 7526.66 393.580  13
   5   3  -5 3324.94 679.497  18
   5   3  -5 3939.94 1098.42  25
   5   3  -5 2021.13 404.436   8
   5   3  -4 19885.2 1800.22  18
   5   3  -4 15207.7 2415.06  25
   5   3  -4 17040.7 1436.13   8
  -5  -3   3 2066.58 243.233  28
   5   3  -3 2621.63 1175.33  25
   5   3  -3 1142.20 402.284   8
  -5  -3   2 13905.7 598.394  28
   5   3  -2 10669.6 2177.11  25
   5   3  -2 7401.69 1621.69   5
   5   3  -2 9013.61 1201.92   8
   5   3  -2 4342.64 1269.72   4
   5   3  -2 13096.9 522.122   7
   5   3  -1 100551. 1391.96   7
   5   3  -1 104758. 1520.20  30
  -5  -3   1 105050. 1553.07  28
   5   3  -1 82991.8 5829.16  25
   5   3  -1 40260.0 3896.71   5
   5   3  -1 29308.3 2992.34   4
   5   3   0 1233.85 173.948  30
  -5  -3   0 1469.93 181.664  28
   5   3   1 5166.96 361.444  30
  -5  -3  -1 6031.42 373.281  28
   5   3   2 5517.54 389.237  30
  -5  -3  -2 5469.78 390.331  28
   5   3   3 2750.99 289.553  30
  -5  -3  -3 2754.94 232.475  29
  -5  -3  -3 2776.19 330.567  28
  -5  -3  -4 34811.6 770.338  29
  -5  -3  -4 33876.1 1300.40  28
   5   3   5 22296.7 884.040  30
  -5  -3  -5 23217.9 1251.14  21
  -5  -3  -5 23302.6 949.208   1
   5   3   6 6440.99 465.360  33
  -5  -3  -6 4610.79 597.882  21
  -5  -3  -7 17962.0 597.525  14
  -5  -3  -7 15765.4 1049.11  21
  -5  -3  -8 2657.29 199.556  14
  -5  -3  -8 2081.52 362.542  21
   5   3   9 8476.93 441.076  33
  -5  -3  -9 2891.13 332.286  21
  -5  -4   6 25222.8 460.281  20
   5   4  -6 29827.0 1213.26  18
   5   4  -5 926.619 322.599  18
   5   4  -5 991.126 529.051  25
   5   4  -5 882.764 135.693  13
   5   4  -5 891.954 258.430   8
   5   4  -4 3401.44 714.662  18
   5   4  -4 4262.55 1264.92  25
   5   4  -4 3622.94 621.772   8
   5   4  -3 3641.13 815.121  18
   5   4  -3 3196.59 1181.08  25
   5   4  -3 3549.72 722.037   8
   5   4  -2 359.497 91.6601   7
   5   4  -2-281.834 374.320  19
   5   4  -2 70.2665 243.683  18
  -5  -4   2 191.249 74.0027  28
   5   4  -2 638.780 706.726  25
   5   4  -2 455.487 366.561   8
   5   4  -1 16897.0 1961.15  19
  -5  -4   1 26182.9 804.193  28
   5   4  -1 21376.9 3104.47  25
   5   4  -1 21520.9 1909.06   8
   5   4  -1 25814.5 698.952   7
   5   4   0 18147.8 584.482   7
   5   4   0 13447.7 1807.74  19
  -5  -4   0 18256.1 661.329  28
   5   4   0 13473.1 2384.78  25
   5   4   0 7078.24 1774.63   5
   5   4   0 19326.8 605.840  12
   5   4   0 6240.40 1387.37   4
   5   4   1 609.482 106.632   7
   5   4   1 471.098 127.018  30
  -5  -4  -1 674.013 131.939  28
   5   4   1 679.093 119.674  12
   5   4   2 60611.9 1094.06   7
   5   4   2 54527.7 1296.78  30
  -5  -4  -2 49715.8 1123.03  29
   5   4   2 44651.0 3848.44  16
  -5  -4  -2 53780.6 1175.80  28
   5   4   2 61974.1 1137.03  12
   5   4   3 2821.44 308.794  30
  -5  -4  -3 2935.41 261.935  29
  -5  -4  -3 2857.36 320.820  28
   5   4   3 3647.20 283.624  12
   5   4   4 5427.97 444.352  30
  -5  -4  -4 5295.95 333.991  29
  -5  -4  -4 5286.74 495.934  28
   5   4   4 6606.76 391.054  12
   5   4   5 1375.48 218.893  20
  -5  -4  -5 1019.27 188.457   1
   5   4   5 1190.00 213.472  30
  -5  -4  -5 1127.36 146.941  29
   5   4   5 1346.38 180.359  12
   5   4   6 441.409 129.876  20
   5   4   6 290.150 79.4594  12
  -5  -4  -6 268.757 185.626  21
   5   4   7 69332.2 1517.57  33
  -5  -4  -7 39367.5 1578.26  21
   5   4   8 32000.9 1028.13  33
  -5  -4  -8 13466.6 855.276  21
   5   4   9 159.417 43.4478   7
   5   4   9 395.429 86.1614  33
   5   4   9 70.7650 264.923  16
  -5  -4  -9 220.798 116.969  21
   5   5  -5 4725.46 523.961  18
   5   5  -5 5264.28 863.133  25
   5   5  -5 5288.41 434.978   8
   5   5  -4-101.973 146.245  18
   5   5  -4 175.174 174.711   8
   5   5  -3 29451.6 1958.36  18
   5   5  -3 30069.8 3321.38  25
   5   5  -3 30428.0 1850.37   8
   5   5  -2 10534.0 1512.58  19
   5   5  -2 10287.7 1247.55  18
   5   5  -2 10897.3 2182.46  25
   5   5  -2 9933.20 1208.51   8
   5   5  -1 5234.92 1151.97  19
   5   5  -1 5852.23 951.946  18
   5   5  -1 9360.55 1747.69  16
   5   5  -1 5569.35 1608.56  25
   5   5  -1 5651.15 966.728   8
   5   5   0 1505.25 633.732  19
  -5  -5   0 1555.12 195.950  28
   5   5   0 1097.54 705.174  16
   5   5   0 866.355 726.744  25
   5   5   0 1822.07 183.866  12
   5   5   0 28.4395 310.072   4
   5   5   0 1485.75 554.635   8
   5   5   1 2521.37 220.785   7
   5   5   1 1506.98 702.774  19
  -5  -5  -1 2497.82 250.224  28
   5   5   1 1444.49 851.918  16
   5   5   1 2454.03 1087.17  25
   5   5   1 2530.73 233.233  12
   5   5   1 1922.61 610.310   8
   5   5   2 31386.2 798.094   7
   5   5   2 23893.6 2631.69  19
   5   5   2 31995.5 1041.50  30
  -5  -5  -2 27174.4 879.592  29
   5   5   2 24836.0 3092.12  16
   5   5   2 32497.9 844.007  12
   5   5   3 14245.2 552.586   7
   5   5   3 14236.7 737.243  30
  -5  -5  -3 12493.5 569.730  29
   5   5   3 12478.7 2327.40  16
   5   5   3 14653.2 579.209  12
   5   5   4 1773.16 267.963  30
  -5  -5  -4 1770.25 203.687  29
   5   5   4 1115.83 741.491  16
   5   5   4 1924.21 216.792  12
   5   5   5 81040.3 1710.86  20
   5   5   5 82881.6 1436.31  12
   5   5   6 10.3125 43.6053  12
  -5  -5  -6-88.7770 85.8040  21
   5   5   7 143.947 92.4848  20
   5   5   7 45.0512 38.5574  12
  -5  -5  -7 16.0214 98.9445  21
   5   5   8 1275.04 131.087  12
  -5  -5  -8 947.154 218.517  21
   5   5   9 997.156 443.822  16
  -5  -5  -9 1648.22 238.985  21
   5   6  -4-9.42558 108.677  18
   5   6  -4 190.639 231.094  25
   5   6  -4 65.5176 80.3322   8
   5   6  -3 1642.44 381.309  18
   5   6  -3 2457.11 853.916  25
   5   6  -3 1858.14 389.192   8
   5   6  -2 2765.97 535.397  18
   5   6  -2 4409.84 1378.98  25
   5   6  -2 3456.16 637.600   8
   5   6  -2 3345.43 846.494  19
   5   6  -1 793.995 608.796  19
   5   6  -1 593.355 314.600  18
   5   6  -1 582.496 525.410  16
   5   6  -1-237.104 905.345  25
   5   6  -1 388.609 298.248   8
   5   6   0 83016.2 4702.59  19
   5   6   0 84676.9 5956.04  25
   5   6   0 85057.3 3631.02   8
   5   6   1 21903.8 2533.87  19
   5   6   1 36625.0 1289.21   6
   5   6   1 30106.7 3440.11  16
   5   6   1 25425.9 3189.27  25
   5   6   1 25547.8 2009.29   8
   5   6   1 31880.8 764.516  12
   5   6   2 4173.84 448.142   6
   5   6   2 1249.79 736.336  19
   5   6   2 2435.55 1090.34  16
   5   6   2 3468.13 273.669  12
   5   6   2 2099.71 600.785   8
   5   6   3 111.685 64.3058   7
   5   6   3-24.4485 495.837  19
   5   6   3 107.307 565.333  16
   5   6   3 258.591 117.842   6
   5   6   3 121.736 72.8542  12
   5   6   4 1023.24 478.532  19
   5   6   4 1518.98 993.241  16
   5   6   5 7678.48 1472.30  19
   5   6   5 6786.37 1785.29  16
   5   6   5 11840.4 536.414  12
   5   6   6 38189.0 2943.89  19
   5   6   6 40162.3 4076.15  16
   5   6   7 3077.14 1189.34  16
   5   6   7 3337.82 258.807  12
  -5  -6  -7 2743.10 335.256  21
   5   6   8 18387.5 503.615  12
  -5  -6  -8 15732.1 779.863  21
  -5  -6  -9 1753.29 209.253  21
   5   7  -3 232.307 96.8838  18
   5   7  -3 533.582 392.598  25
   5   7  -3 336.624 122.211   8
   5   7  -2 8746.69 1061.17  19
   5   7  -2 8227.84 673.405  18
   5   7  -2 9834.88 1585.81  25
   5   7  -2 7346.71 692.566   8
   5   7  -1 384.168 377.620  19
   5   7  -1 116.517 147.326  18
   5   7  -1 241.106 415.512  16
   5   7  -1 288.462 525.365  25
   5   7  -1 372.003 212.607   8
   5   7   0 7382.66 1366.93  19
   5   7   0 11593.8 2020.32  16
   5   7   0 6615.74 1555.36  25
   5   7   0 8150.44 931.110   8
   5   7   1 26647.4 2700.38  19
   5   7   1 29844.9 3232.41  25
   5   7   1 24176.6 1639.59   8
   5   7   2 20845.6 940.492   6
   5   7   2 19608.1 2842.71  16
   5   7   2 16700.7 2291.63  25
   5   7   2 18737.8 567.320  12
   5   7   3 27804.4 2818.01  19
   5   7   3 51641.5 1479.91   6
   5   7   3 31998.0 3690.33  16
   5   7   3 43707.9 940.509  12
   5   7   4 38116.2 819.280   7
   5   7   4 22086.9 2471.11  19
   5   7   4 42802.5 1284.35   6
   5   7   4 27269.3 3390.72  16
   5   7   4 35102.1 864.473  12
   5   7   5 4857.16 303.517   7
   5   7   5 2387.23 871.415  19
   5   7   5 2325.52 1082.76  16
   5   7   5 4865.52 326.430  12
   5   7   6 2312.90 1054.79  16
   5   7   6 2296.12 216.650  12
   5   7   7 8294.06 1539.71  16
   5   7   7 15003.4 511.781  12
   5   7   8 3170.00 744.058  16
   5   7   8 4986.65 248.928  12
   5   8  -1 23431.6 1604.88  19
   5   8  -1 20890.0 875.949   8
   5   8   0 476.637 403.558  19
   5   8   0 137.314 363.325  25
   5   8   0 314.038 129.398   8
   5   8   1 269.281 337.285  19
   5   8   1 181.138 410.206  16
   5   8   1 562.714 189.972   8
   5   8   2 315.363 389.764  19
   5   8   2 86.3945 465.052  16
   5   8   3 459.755 545.631  16
   5   8   3 446.934 79.0985  12
   5   8   3 654.548 506.460  19
   5   8   4 30714.5 3328.19  16
   5   8   4 31343.1 703.010  12
   5   8   5 52407.5 4157.61  16
   5   8   5 59953.0 985.861  12
   5   8   6 12036.1 1852.68  16
   5   8   6 16923.3 513.253  12
   5   8   7 37.0043 26.5404   7
   5   8   7 145.690 363.924  16
   5   8   7 161.469 52.6573  12
   5   8   8 6922.78 246.321  12
   5   9   1 1827.83 449.165  19
   5   9   2 6503.52 926.259  19
   5   9   2 7552.27 1270.60  16
   5   9   3 9892.31 1168.91  19
   5   9   3 15489.1 1901.14  16
   5   9   4 3400.48 644.194  19
   5   9   4 5731.73 1176.32  16
   5   9   5 25010.7 2273.42  16
   5   9   5 17238.7 358.953  12
   5   9   6 507.681 381.788  16
   5   9   6 353.941 56.1870  12
   6  -5  -5 5248.34 217.169  32
  -6   5   5 5502.15 419.597   6
  -6   5   5 5450.20 213.403  24
   6  -5  -4 3519.27 204.650  32
  -6   5   4 3480.45 385.902   6
  -6   5   4 3216.13 204.500  24
   6  -5  -3 166.899 55.7234  32
  -6   5   3 25.1856 80.0274  10
  -6   5   3 119.574 48.7126  17
  -6   5   3 98.0523 51.5038  15
  -6   5   3-18.1570 89.3933   6
  -6   5   3 88.3011 44.9225  24
  -6   5   3 204.312 205.060  22
  -6   5   2 2620.27 195.328  10
   6  -5  -2 2566.18 182.820  32
  -6   5   2 2940.10 204.981  17
  -6   5   2 1978.29 275.398   6
  -6   5   2 2748.06 199.689  15
  -6   5   2 2054.54 486.018  22
  -6   5   1 6590.43 297.624  10
   6  -5  -1 5596.69 250.572  32
  -6   5   1 7260.49 315.597  17
  -6   5   1 7187.67 296.949  15
  -6   5   1 5652.37 747.329  22
  -6   5   0 23772.9 503.999  10
  -6   5   0 25021.4 530.468  17
  -6   5   0 23301.4 1328.14  22
   6  -4  -6 8160.36 307.466  32
  -6   4   6 8373.44 279.046  11
   6  -4  -5 22215.3 592.884  32
  -6   4   5 21592.4 512.259  11
   6  -4  -4 14659.3 530.026  32
  -6   4   4 13432.6 452.422  17
  -6   4   4 13594.2 501.636  15
  -6   4   4 12928.1 410.123  11
  -6   4   3 7524.34 347.097  10
   6  -4  -3 8553.69 426.540  32
  -6   4   3 8406.55 394.803  17
  -6   4   3 8356.60 421.055  15
  -6   4   3 7828.66 1081.77  22
  -6   4   2 10075.0 442.363  10
   6  -4  -2 9773.26 463.831  32
  -6   4   2 10705.4 467.745  17
  -6   4   2 10769.6 483.276  15
  -6   4   2 9321.87 1262.62  22
  -6   4   1 2204.33 220.450  10
  -6   4   1 2265.20 224.497  17
  -6   4   1 1719.66 325.035   6
  -6   4   1 2303.74 229.166  15
  -6   4   1 1650.40 544.023  22
  -6   4   0 592.112 120.222  10
  -6   4   0 705.871 131.035  17
  -6   4   0 635.745 120.510  15
  -6   4   0 460.395 334.475  22
  -6   4  -1 8968.25 427.201  10
  -6   4  -1 9193.10 419.218  17
  -6   4  -1 8961.16 381.405  15
  -6   4  -2 2538.83 201.387  10
  -6   4  -2 2684.23 199.441  17
  -6   4  -2 2546.20 166.825  15
  -6   4  -2 2276.54 399.166  22
  -6   3   7 7818.11 260.711  23
  -6   3   7 7778.73 261.254  11
   6  -3  -6 1779.46 169.748  32
  -6   3   6 2087.78 173.066  23
  -6   3   6 1845.82 164.807  11
  -6   3   5 244.896 72.5422  11
   6  -3  -5 345.081 96.0478  32
  -6   3   5 249.009 74.1705  24
  -6   3   5 300.081 80.8936  23
  -6   3   4 202.459 76.2473  11
   6  -3  -4 99.1848 66.3488  32
  -6   3   4 164.916 66.8107  17
  -6   3   4 204.155 77.4357  15
  -6   3   4 235.558 78.0368  23
  -6   3   3 504.322 109.922  11
   6  -3  -3 620.767 131.452  32
  -6   3   3 713.704 124.636  17
  -6   3   3 539.550 121.559  15
  -6   3   3 441.068 99.3336  23
  -6   3   2 23571.1 733.372  17
  -6   3   2 24512.1 781.760  15
  -6   3   2 21846.8 627.214  11
  -6   3   1 21706.0 730.329  10
  -6   3   1 20587.2 728.933  17
  -6   3   1 22195.8 755.100  15
  -6   3   0 14606.2 641.061  10
  -6   3   0 16390.8 668.326  17
  -6   3   0 15997.5 635.508  15
  -6   3  -1 5542.86 396.692  10
  -6   3  -1 6233.24 409.097  17
  -6   3  -1 6125.91 384.495  15
  -6   3  -1 5232.79 1003.14  22
  -6   3  -2 12528.2 583.555  10
  -6   3  -2 12583.7 556.052  17
  -6   3  -2 12998.4 522.415  15
  -6   3  -3 118.987 67.8978  10
  -6   3  -3 70.6703 46.0573  17
  -6   3  -3 95.7988 48.2794  15
  -6   3  -4 18689.8 482.011  10
  -6   3  -4 21354.4 508.047  17
   6  -2  -7 2999.77 176.281  32
  -6   2   7 3396.91 194.660  23
  -6   2   7 3014.61 177.452  11
   6  -2  -6 10068.8 410.404  32
  -6   2   6 11224.8 431.938  23
  -6   2   6 11361.0 426.284  11
   6  -2  -5 5489.87 341.255  32
  -6   2   5 5222.09 332.709  23
  -6   2   5 5467.99 336.009  11
   6  -2  -4 11896.6 545.330  32
  -6   2   4 10829.0 476.985  15
  -6   2   4 10998.1 508.030  23
  -6   2   4 12403.0 519.546  11
  -6   2   3 18370.4 638.705  11
   6  -2  -3 18005.7 682.088  32
  -6   2   3 16253.1 569.828  17
  -6   2   3 18165.7 647.033  15
  -6   2   3 17092.2 642.268  23
  -6   2   2 3323.91 277.032  11
  -6   2   2 3601.03 289.137  17
  -6   2   2 3937.45 314.335  15
  -6   2   2 3913.81 310.340  23
  -6   2   1 15598.4 568.591  11
  -6   2   1 16713.7 649.046  17
  -6   2   1 16223.9 646.396  15
  -6   2   1 16263.5 614.600  23
  -6   2   0 1622.77 218.774  17
  -6   2   0 1879.40 230.662  15
  -6   2  -1 12499.0 636.744  10
  -6   2  -1 12465.6 615.426  17
  -6   2  -1 12537.7 587.767  15
  -6   2  -2 30866.4 1033.83  10
  -6   2  -2 30683.2 977.430  17
  -6   2  -2 28557.0 868.234  15
  -6   2  -3 2784.97 310.388  10
  -6   2  -3 3014.43 298.188  17
  -6   2  -3 2077.07 542.288  22
  -6   2  -3 2950.97 464.280  21
  -6   2  -4 15992.4 658.158  10
  -6   2  -4 16326.8 611.930  17
  -6   2  -4 16037.1 538.833  15
  -6   2  -5 1729.47 166.624  10
  -6   2  -5 2016.55 173.610  17
  -6   2  -5 2006.91 145.352  15
  -6   1   7 394.073 78.1356  20
   6  -1  -7 397.801 63.1641  32
  -6   1   7 488.336 78.0173  23
  -6   1   7 415.043 66.4050  11
  -6   1   6 32.9419 40.4532  11
  -6   1   6 52.5682 49.1095  20
   6  -1  -6 125.202 55.5006  32
  -6   1   6 38.1595 46.3264  23
  -6   1   5 1350.92 172.799  20
   6  -1  -5 1697.08 195.289  32
  -6   1   5 1840.89 201.898  23
  -6   1   5 1782.70 198.005  11
  -6   1   4 11198.3 497.760  11
   6  -1  -4 10880.4 506.707  32
  -6   1   4 9859.58 437.027  15
  -6   1   4 10704.0 513.254  23
  -6   1   3 77876.6 1315.73  11
   6  -1  -3 80454.5 1390.17  32
  -6   1   3 77624.1 1277.34  15
  -6   1   3 76649.3 1393.19  23
  -6   1   2 188.190 79.6954  11
  -6   1   2 213.221 78.5687  15
  -6   1   2 172.080 85.8558  23
  -6   1   1 6727.72 388.157  11
  -6   1   1 6917.75 395.394  17
  -6   1   1 6871.28 410.204  15
  -6   1   1 7003.25 431.140  23
  -6   1   0 17077.0 604.024  11
  -6   1   0 16465.6 649.834  17
  -6   1   0 16210.7 645.555  15
  -6   1   0 16835.3 649.791  23
  -6   1  -1 873.012 138.491  11
  -6   1  -1 942.540 182.446  17
  -6   1  -1 1098.22 164.834  23
  -6   1  -2 10085.2 564.991  17
  -6   1  -2 10980.7 559.715  14
  -6   1  -3 11413.0 660.459  10
  -6   1  -3 12441.6 586.335  14
  -6   1  -3 12084.8 965.338  21
  -6   1  -4 33961.8 1098.25  10
  -6   1  -4 34293.4 1584.86  21
  -6   1  -5 22722.7 794.114  10
  -6   1  -5 24561.5 700.028  14
  -6   1  -5 24095.4 1201.09  21
  -6   1  -6 8916.58 360.128  17
  -6   1  -6 9087.24 336.484  14
  -6   1  -6 8629.86 566.780  21
  -6   0   7 320.697 70.6893  20
   6   0  -7 152.288 133.061  18
  -6   0   7 304.661 55.8201  23
  -6   0   6 6330.66 351.688  20
   6   0  -6 5717.39 270.988  32
  -6   0   6 6685.03 322.078  23
  -6   0   6 6236.52 293.245  11
  -6   0   5 33314.2 872.985  20
   6   0  -5 29387.3 733.795  32
  -6   0   5 31877.0 802.861  23
  -6   0   5 30962.5 749.610  11
  -6   0   4 215.267 81.8900  11
   6   0  -4 208.447 81.6982  32
  -6   0   4 216.825 84.7759  23
  -6   0   3 1235.81 169.800  11
   6   0  -3 1010.19 159.417  32
  -6   0   3 1121.22 169.793  23
  -6   0   2 3887.15 291.539  11
  -6   0   2 3804.25 508.852   2
   6   0  -2 2655.27 447.448  31
  -6   0   2 2952.09 313.107  28
  -6   0   2 3990.89 323.423  23
   6   0  -2 3786.60 310.582   7
  -6   0   1 48750.9 1038.26  11
  -6   0   1 50783.9 1970.75   2
  -6   0   1 48431.3 1367.18  28
  -6   0   1 49168.9 1009.69  15
  -6   0   1 50947.2 1133.12  23
   6   0  -1 47470.7 1066.27   7
  -6   0   0 71492.0 1245.04  11
  -6   0   0 65654.5 2407.52   2
  -6   0   0 66913.3 1715.61  28
  -6   0   0 67881.0 1231.09  15
  -6   0   0 71977.9 1349.82  23
   6   0   0 68068.2 1238.76   7
  -6   0  -1 64628.5 1169.40  11
   6   0   1 57187.0 1300.34  30
  -6   0  -1 60178.0 2540.89   2
  -6   0  -1 58948.8 1800.12  28
  -6   0  -1 62884.0 1287.35  23
  -6   0  -2 3626.66 271.956  11
  -6   0  -2 3772.01 320.576  14
   6   0   3 51.6015 90.3026  33
  -6   0  -3 6.82916 47.5823  14
  -6   0  -4 180.258 76.1896  14
   6   0   4 454.933 161.119  33
  -6   0  -4 239.268 187.727  21
  -6   0  -5 32296.0 1058.96  10
  -6   0  -5 31262.3 1524.24  21
  -6   0  -6 10684.2 521.775  10
  -6   0  -6 12623.1 479.181  14
  -6   0  -6 11544.7 817.789  21
  -6   0  -7 1190.91 120.381  17
  -6   0  -7 1322.61 116.139  14
  -6  -1   7 301.960 66.4111  20
   6   1  -7 332.273 127.669  18
  -6  -1   6 1402.49 162.961  20
   6   1  -6 962.633 320.706  18
  -6  -1   6 1363.03 133.539  23
  -6  -1   5 18694.2 580.880  23
  -6  -1   5 17113.1 514.221  11
  -6  -1   4 15988.7 541.824  11
  -6  -1   4 16156.9 587.463  23
  -6  -1   3 17751.6 586.074  11
  -6  -1   3 17697.3 638.071  23
  -6  -1   2 9894.53 452.022  11
  -6  -1   2 10269.9 787.540   2
  -6  -1   2 9981.62 550.217  28
  -6  -1   2 9929.18 492.426  23
   6   1  -2 10001.9 504.743   7
  -6  -1   1 11749.8 498.083  11
  -6  -1   1 11572.8 869.748   2
  -6  -1   1 11492.7 598.032  28
  -6  -1   1 10963.8 525.552  23
   6   1  -1 11176.6 514.786   7
   6   1   0 8347.70 436.270   7
  -6  -1   0 7816.52 413.546  11
  -6  -1   0 6204.30 687.314   2
   6   1   0 7761.38 476.758  30
  -6  -1   0 7658.57 526.595  28
  -6  -1   0 7976.30 452.277  23
   6   1   1 45091.5 1013.56   7
   6   1   1 40151.8 1106.01  30
  -6  -1  -1 37286.6 1823.28   2
  -6  -1  -1 43834.9 1393.22  28
   6   1   2 50.7077 46.0395   7
   6   1   2 160.753 97.6859  30
  -6  -1  -2 330.720 135.337  28
  -6  -1  -2 99.1732 44.9181  14
   6   1   2 175.713 100.337  33
   6   1   3 64860.3 1198.42   7
  -6  -1  -3 64741.0 1279.45  14
   6   1   4 14616.3 922.289  33
  -6  -1  -4 6394.97 411.175  14
  -6  -1  -5 3110.15 281.661  14
  -6  -1  -5 2601.84 454.295  21
  -6  -1  -6 10098.7 460.282  14
  -6  -1  -6 8260.11 751.192  21
  -6  -1  -7 6997.96 312.822  14
  -6  -1  -7 6283.21 541.862  21
  -6  -2   7 4246.66 185.801  20
   6   2  -7 4252.74 192.791  13
  -6  -2   6 8358.52 362.074  20
   6   2  -6 5492.94 659.497  18
   6   2  -5 166.426 173.909  18
   6   2  -5 317.961 450.176  25
  -6  -2   4 34216.0 728.441  11
   6   2  -4 22261.3 2893.61  25
  -6  -2   4 34575.6 791.606  23
   6   2  -4 25167.0 1679.77   8
  -6  -2   3 16.9060 35.1705  11
   6   2  -3 223.859 521.062  25
  -6  -2   3 27.5086 47.3351  23
   6   2  -3-160.636 254.733   8
  -6  -2   2 8889.48 409.776  11
  -6  -2   2 8997.36 448.094  23
   6   2  -2 9306.92 475.442   7
  -6  -2   1 17907.2 588.766  11
   6   2  -1 17298.5 702.793  30
  -6  -2   1 19212.3 762.335  28
  -6  -2   1 17109.6 630.046  23
   6   2  -1 17549.1 637.116   7
   6   2   0 104.860 60.8516   7
   6   2   0 124.416 62.4772  30
  -6  -2   0 74.0773 54.1325  28
  -6  -2   0 149.410 77.0289  23
   6   2   1 35634.9 901.845   7
  -6  -2  -1 35279.2 1163.29  28
   6   2   1 34879.7 909.736  12
   6   2   2 16823.9 625.189   7
  -6  -2  -2 16787.6 894.576  28
   6   2   2 16178.5 616.754  12
   6   2   3 35630.9 914.842   7
   6   2   3 28900.2 987.598  30
  -6  -2  -3 29780.3 1323.71  28
  -6  -2  -3 35002.9 873.236  14
   6   2   3 33713.4 866.323  12
   6   2   4 4311.46 319.337   7
  -6  -2  -4 4386.06 318.232  14
   6   2   5 10611.8 482.205   7
  -6  -2  -5 11996.4 525.251  14
  -6  -2  -6 50250.5 1014.17  14
  -6  -2  -6 43716.5 1712.06  21
  -6  -2  -7 11505.7 419.716  14
  -6  -2  -7 9194.64 714.894  21
   6   2   8 29.5134 42.5434  33
  -6  -2  -8 115.301 74.1466  21
  -6  -3   6 16718.6 429.711  20
   6   3  -6 15835.1 920.281  18
   6   3  -6 16026.7 435.693  13
   6   3  -5 58.4679 213.487  18
   6   3  -5 20.1735 350.242  25
   6   3  -5 104.564 112.004   8
   6   3  -4 6584.38 981.287  18
   6   3  -4 6534.01 1500.03  25
   6   3  -4 7986.67 907.773   8
   6   3  -3 128.541 474.415  25
   6   3  -3 456.788 292.509   8
  -6  -3   2 654.240 110.299  11
   6   3  -2 554.237 114.671   7
   6   3  -2 674.092 602.498  25
  -6  -3   2 459.771 98.5001  23
   6   3  -2 351.671 301.923   8
  -6  -3   1 1459.08 167.209  11
   6   3  -1 611.058 280.888  19
  -6  -3   1 1503.42 210.453  28
   6   3  -1 537.696 705.960  25
  -6  -3   1 1528.09 182.348  23
   6   3  -1 1596.31 193.214   7
   6   3   0 16630.2 611.239   7
   6   3   0 15109.7 671.147  30
  -6  -3   0 16260.6 595.831  23
   6   3   1 58171.4 1144.81   7
  -6  -3  -1 56323.0 1362.80  28
   6   3   1 60555.8 1173.16  12
   6   3   2 23541.0 737.399   7
   6   3   2 28430.0 934.613  33
   6   3   2 20074.8 823.300  30
  -6  -3  -2 17952.6 674.659  29
  -6  -3  -2 21902.5 948.882  28
   6   3   2 24194.9 756.039  12
   6   3   3 7657.99 432.272   7
   6   3   3 6381.43 479.124  30
  -6  -3  -3 7401.03 634.770  28
   6   3   3 8060.38 438.510  12
   6   3   4 6416.44 393.664   7
   6   3   4 6391.79 382.305  12
   6   3   5 6005.98 380.706   7
   6   3   5 6390.17 357.303  12
   6   3   6 1000.35 151.183   7
  -6  -3  -6 1039.91 271.786  21
   6   3   7 23450.4 592.152   7
  -6  -3  -7 21203.6 1058.12  21
   6   3   8 3501.46 260.102  33
  -6  -3  -8 1871.25 261.114  21
  -6  -4   5 253.346 60.4312  20
   6   4  -5 226.318 165.198  18
   6   4  -5 271.135 264.977  25
   6   4  -5 441.064 135.718   8
   6   4  -4 13813.8 1237.96  18
   6   4  -4 12187.8 1832.59  25
   6   4  -4 13656.1 1039.75   8
   6   4  -3 7453.35 1025.27  18
   6   4  -3 7074.79 1675.92  25
   6   4  -3 8820.62 1046.67   8
   6   4  -2 7696.63 1112.72  18
   6   4  -2 6123.29 1719.15  25
   6   4  -2 7488.29 1095.91   8
   6   4  -2 9105.10 428.478   7
  -6  -4   1 41530.0 803.678  11
   6   4  -1 29574.1 2540.76  19
   6   4  -1 25630.8 3404.59  25
   6   4  -1 34701.2 2446.73   8
   6   4  -1 43054.0 956.662   7
   6   4   0 99.2196 69.6311   7
   6   4   0-351.031 500.313  25
  -6  -4   0-29.3431 51.7075  23
   6   4   1 3699.49 290.143   7
   6   4   1 3064.80 321.661  30
  -6  -4  -1 3136.10 310.661  28
   6   4   1 2188.07 861.491  16
   6   4   1 1901.83 915.155  25
  -6  -4  -1 3451.98 269.939  23
   6   4   1 4105.53 306.918  12
   6   4   2 33275.4 874.325   7
   6   4   2 31019.8 1051.80  30
  -6  -4  -2 25462.1 841.017  29
   6   4   2 23645.6 2899.43  16
  -6  -4  -2 30939.8 1085.56  28
   6   4   2 35907.7 925.146  12
   6   4   3 14219.3 586.675   7
   6   4   3 15024.5 620.405  12
   6   4   4 4162.84 319.625   7
   6   4   4 3768.94 309.242  12
   6   4   5 124513. 2129.95  33
   6   4   5 84095.3 1388.30  12
   6   4   6 4192.65 409.751  33
   6   4   6 2360.52 208.283  12
   6   4   7 2026.23 190.412   7
  -6  -4  -7 1460.23 266.571  21
   6   4   8 6072.77 254.027   7
  -6  -4  -8 5503.79 434.874  21
   6   5  -5 1781.80 237.322  18
   6   5  -4-11.1907 131.156  18
   6   5  -4 104.507 322.768  25
   6   5  -4-46.5947 106.149   8
   6   5  -3 34.0342 157.858  18
   6   5  -3 60.4105 442.702  25
   6   5  -3 284.843 203.982   8
   6   5  -2 3737.06 701.569  18
   6   5  -2 4093.15 1319.53  25
   6   5  -2 3855.41 713.532   8
   6   5  -1 137.733 63.0890   7
   6   5  -1-24.8592 310.072  19
   6   5  -1 360.737 315.563  18
   6   5  -1-388.903 650.408  25
   6   5  -1-79.3779 312.063   8
   6   5   0 36595.9 3025.29  19
   6   5   0 53238.8 4032.26  16
   6   5   0 36453.4 3941.19  25
   6   5   0 41338.7 2655.43   8
   6   5   0 51517.4 1004.24   7
   6   5   1 1525.87 183.179   7
   6   5   1 663.857 512.270  19
   6   5   1 2261.68 922.543  16
   6   5   1 1383.90 820.734  25
   6   5   1 1793.64 199.656  12
   6   5   1 1434.97 595.391   8
   6   5   2 4891.76 329.475   7
   6   5   2 3308.56 1021.62  19
   6   5   2 3085.90 970.196  16
   6   5   2 4924.98 338.914  12
   6   5   3 2536.00 242.606   7
   6   5   3 1970.39 1079.88  16
   6   5   3 2607.38 255.708  12
   6   5   4 768.882 140.490   7
   6   5   4 814.537 147.505  12
   6   5   5 36973.7 929.957   7
   6   5   5 35557.1 915.200  12
   6   5   6 88298.9 1438.25  33
   6   5   6 71664.9 1196.59  12
   6   5   7 27.2247 32.0071   7
   6   5   7 92.6739 57.3459  33
   6   5   7 229.177 346.672  19
   6   5   7-173.255 445.518  16
   6   5   7 62.1906 39.6813  12
   6   5   8 8265.09 316.314   7
   6   5   8 5497.37 1122.02  16
   6   6  -3 1889.87 332.881  18
   6   6  -3 2275.88 698.206  25
   6   6  -3 1731.33 315.183   8
   6   6  -2 5771.28 866.654  19
   6   6  -2 4929.56 632.226  18
   6   6  -2 6058.05 1352.68  25
   6   6  -2 5344.51 690.500   8
   6   6  -1 3876.03 899.402  19
   6   6  -1 3693.22 590.804  18
   6   6  -1 2993.23 1126.59  25
   6   6  -1 3231.70 611.363   8
   6   6   0 3996.56 1007.34  19
   6   6   0 3389.24 1213.59  25
   6   6   0 4749.75 830.544   8
   6   6   1 12429.0 458.159   7
   6   6   1 8565.62 1532.48  19
   6   6   1 12788.6 2110.27  16
   6   6   1 8554.89 1789.21  25
   6   6   1 10258.7 1263.36   8
   6   6   1 13017.5 487.875  12
   6   6   2 4060.27 280.696   7
   6   6   2 2321.40 837.882  19
   6   6   2 5019.05 1417.86  16
   6   6   2 4329.96 299.954  12
   6   6   2 2821.49 685.510   8
   6   6   3 21368.4 662.999   7
   6   6   3 22149.2 709.382  12
   6   6   4 10339.8 468.801   7
   6   6   4 6356.64 1366.89  19
   6   6   4 8162.18 1914.21  16
   6   6   4 11376.5 509.027  12
   6   6   5 8594.09 425.119   7
   6   6   5 4510.88 1072.43  19
   6   6   5 5278.73 1503.71  16
   6   6   5 8632.24 441.046  12
   6   6   6 5242.41 322.686   7
   6   6   6 3897.29 1276.87  16
   6   6   6 5167.04 318.029  12
   6   6   7 1394.92 154.185   7
   6   6   7 1326.65 734.183  16
   6   6   7 1339.71 142.645  12
   6   6   8 534.984 81.0959   7
   6   6   8-19.4052 345.612  16
   6   7  -2 20306.1 1848.27  25
   6   7  -2 14479.6 797.016   8
   6   7  -1 16374.9 1472.41  19
   6   7  -1 19520.7 2158.35  25
   6   7  -1 15599.7 1015.93   8
   6   7   0 2339.32 760.942  19
   6   7   0 1919.11 636.385  16
   6   7   0 1304.79 660.916  25
   6   7   0 1619.20 390.197   8
   6   7   1 611.305 532.005  19
   6   7   1 3.32675 537.442  16
   6   7   1-3.17413 338.034  25
   6   7   1 551.397 242.138   8
   6   7   2 1480.23 666.201  19
   6   7   2 2360.53 997.484  16
   6   7   2 2493.77 199.879  12
   6   7   2 1667.94 425.951   8
   6   7   3 5863.42 295.082   7
   6   7   3 4146.57 1063.15  19
   6   7   3 6552.71 1590.76  16
   6   7   3 5671.34 317.656  12
   6   7   4 17479.5 529.566   7
   6   7   4 11802.6 1727.43  19
   6   7   4 11926.3 2090.19  16
   6   7   4 17566.8 585.233  12
   6   7   5 2144.74 187.936   7
   6   7   5 949.151 511.965  19
   6   7   5 1941.31 898.286  16
   6   7   5 2571.42 222.998  12
   6   7   6 21911.3 574.619   7
   6   7   6 9921.46 1215.38  19
   6   7   6 14573.9 2088.32  16
   6   7   6 22322.7 610.447  12
   6   7   7 2092.32 161.639   7
   6   7   7 2239.38 722.454  16
   6   7   7 2352.21 173.401  12
   6   7   8 69.4135 28.5384   7
   6   8   0 2971.74 587.918  19
   6   8   0 2773.25 667.217  25
   6   8   0 1744.01 238.330   8
   6   8   1 11165.4 1328.88  19
   6   8   1 12972.5 1628.17  16
   6   8   1 11943.4 1357.05  25
   6   8   2 12260.7 1506.34  19
   6   8   2 19235.7 2229.73  16
   6   8   3 440.538 420.026  19
   6   8   3 745.714 547.217  16
   6   8   3 526.392 80.8772  12
   6   8   4 6219.62 1069.64  19
   6   8   4 9468.42 1636.01  16
   6   8   4 8897.88 333.590  12
   6   8   5 1533.82 494.592  19
   6   8   5 2210.90 815.263  16
   6   8   5 2392.76 175.863  12
   6   8   6 1106.23 520.325  16
   6   8   6 1527.86 133.640  12
   6   8   7 15731.0 1406.68  16
   6   8   7 18252.2 387.975  12
   6   9   2 77.2944 139.273  19
   6   9   3 20167.0 1322.72  19
   6   9   3 31346.6 2135.75  16
   6   9   4 27637.6 2046.68  16
   6   9   5 13039.8 1302.55  16
   7  -4  -4-2.87947 24.2947  32
  -7   4   4-75.5998 65.8858   6
   7  -4  -3 621.094 83.4078  32
  -7   4   3 453.334 71.0958  15
  -7   4   3 472.094 136.945   6
  -7   4   3 403.890 70.2820  24
   7  -4  -2 5261.96 240.675  32
  -7   4   2 4689.58 196.020  17
  -7   4   2 5417.01 243.960  15
   7  -4  -1 32.1346 31.1431  32
  -7   4   1 20.3432 28.3906  17
  -7   4   1 26.7943 35.4891  15
  -7   4   1 72.6879 200.052  22
  -7   4   0 7489.00 678.625  22
   7  -3  -5 5404.95 233.044  32
  -7   3   5 5170.65 206.327  11
  -7   3   4 4939.35 243.332  15
  -7   3   4 4840.35 236.035  24
  -7   3   4 4993.60 218.275  23
  -7   3   4 5022.81 229.885  11
  -7   3   3 25.9118 34.5900  11
   7  -3  -3-19.7929 40.1411  32
  -7   3   3 8.57097 39.8819  15
   7  -3  -2 7508.38 364.532  32
  -7   3   2 6862.19 296.032  17
  -7   3   2 6852.83 337.484  15
  -7   3   1 247.356 69.6574  17
  -7   3   1 386.075 90.5486  15
  -7   3   1 187.762 217.234  22
  -7   3   0 2603.03 199.337  17
  -7   3   0 2615.84 209.458  15
  -7   3   0 2378.20 575.632  22
  -7   3  -1 14684.8 452.192  17
  -7   3  -1 14956.4 465.331  15
  -7   3  -2 10169.3 326.298  17
  -7   3  -2 9966.51 317.383  15
  -7   2   6 1493.69 110.530  23
  -7   2   6 1303.50 103.438  11
   7  -2  -5 1142.64 121.737  32
  -7   2   5 1410.23 134.784  23
  -7   2   5 1404.13 133.287  11
   7  -2  -4 873.335 123.377  32
  -7   2   4 686.695 104.103  15
  -7   2   4 905.410 121.926  23
  -7   2   4 888.851 126.429  11
   7  -2  -3 10894.6 459.676  32
  -7   2   3 9952.56 408.083  15
  -7   2   3 10110.9 423.505  23
  -7   2   2 18485.2 548.109  11
   7  -2  -2 18753.7 633.283  32
  -7   2   2 18093.1 587.887  15
  -7   2   2 18666.9 573.217  23
  -7   2   1 12109.6 423.228  11
  -7   2   1 13013.5 471.626  17
  -7   2   1 12745.4 464.233  23
  -7   2   0 7058.11 369.291  17
  -7   2   0 7493.48 400.628  15
  -7   2  -1 23.4696 52.6323  17
  -7   2  -1 162.092 71.1594  15
  -7   2  -1 60.7951 202.516  22
  -7   2  -2 4275.11 274.949  17
  -7   2  -2 4012.74 269.327  15
  -7   2  -3 4692.39 256.119  17
  -7   2  -3 4831.55 257.378  15
  -7   1   6 3751.45 188.761  23
  -7   1   6 3394.91 171.758  11
  -7   1   5 6274.48 303.782  23
  -7   1   5 6691.98 301.303  11
   7  -1  -4 7372.20 353.287  32
  -7   1   4 7728.05 377.549  23
  -7   1   4 7952.08 372.572  11
  -7   1   3 67.6266 54.9264  11
   7  -1  -3 56.4283 57.2596  32
  -7   1   3 25.7323 34.3453  15
  -7   1   3 42.7374 47.1725  23
  -7   1   2 1658.18 187.810  11
   7  -1  -2 2001.47 214.509  32
  -7   1   2 1714.42 182.758  15
  -7   1   2 1611.80 191.901  23
  -7   1   1 4252.15 292.583  11
  -7   1   1 4385.67 306.637  15
  -7   1   1 4348.26 314.464  23
  -7   1   0 2049.35 195.704  11
  -7   1   0 1668.01 182.961  17
  -7   1   0 2343.01 233.557  15
  -7   1   0 2088.61 216.749  23
  -7   1  -1 920.804 143.117  17
  -7   1  -1 961.727 154.842  15
  -7   1  -1 902.363 141.150  23
  -7   1  -2 26580.1 756.484  17
  -7   1  -2 27019.7 767.025  15
  -7   1  -3 463.228 103.319  17
  -7   1  -3 496.471 107.077  15
  -7   1  -3 498.633 297.927  22
  -7   1  -4 433.764 87.2634  17
  -7   1  -4 464.429 91.4972  15
  -7   1  -5 3397.49 169.559  15
  -7   0   6 28.5872 22.9704  11
  -7   0   6 69.7352 36.4508  20
   7   0  -6-25.9062 109.665  18
  -7   0   6 87.1029 34.1430  23
  -7   0   5 5100.48 276.020  23
  -7   0   5 5016.59 256.559  11
  -7   0   4 30.6457 39.7361  11
   7   0  -4 79.1412 40.0596  32
  -7   0   4 23.1628 45.4238  23
  -7   0   3 10934.0 461.806  11
   7   0  -3 10711.1 440.925  32
  -7   0   3 11267.1 493.809  23
  -7   0   2 61.5204 49.5410  11
   7   0  -2 84.1682 53.4372  32
  -7   0   2 109.332 68.5471  23
  -7   0   1 7756.48 409.169  11
  -7   0   1 8390.34 400.618  15
  -7   0   1 8339.46 453.140  23
   7   0  -1 7567.29 418.830   7
  -7   0   0 9732.61 452.955  11
  -7   0   0 8907.32 436.462  15
  -7   0   0 9611.61 489.929  23
   7   0   0 8718.19 439.557   7
  -7   0  -1 1363.19 170.170  11
  -7   0  -1 1114.51 161.271  15
  -7   0  -1 1317.29 181.287  23
  -7   0  -2 5483.03 306.223  11
  -7   0  -2 5530.60 347.232  17
  -7   0  -2 5576.57 358.262  15
  -7   0  -2 5590.55 356.717  23
  -7   0  -3 12942.0 543.330  17
  -7   0  -3 12854.2 493.816  23
  -7   0  -4 2858.03 242.058  17
  -7   0  -5 5374.21 285.146  17
  -7  -1   6 1310.68 113.682  20
   7   1  -6 897.532 201.616  18
  -7  -1   5 19367.5 482.780  23
  -7  -1   5 19017.1 449.942  11
  -7  -1   4 149.264 57.4898  11
  -7  -1   4 58.5926 45.3015  23
  -7  -1   3 4952.21 297.945  11
  -7  -1   3 4341.24 304.572  23
  -7  -1   2 7535.88 388.489  11
  -7  -1   2 8047.48 427.004  23
   7   1  -2 7635.66 427.582   7
  -7  -1   1 79.0598 61.1803  11
   7   1  -1 138.055 73.5605   7
  -7  -1   1 68.0944 65.2774  23
  -7  -1   0 11007.6 488.295  11
  -7  -1   0 11502.6 536.892  23
   7   1   0 10016.7 488.480   7
   7   1   1 25098.2 751.546   7
  -7  -1  -1 25301.3 736.328  11
  -7  -1  -1 25488.9 711.518  15
  -7  -1  -1 24887.9 798.624  23
   7   1   2 19089.5 633.028   7
  -7  -1  -2 19086.3 624.086  11
  -7  -1  -2 19749.6 701.704  23
  -7  -1  -3 1427.66 165.323  11
   7   1   3 1857.89 251.799  33
  -7  -1  -3 1576.63 196.781  23
   7   1   4 1543.85 214.992  33
  -7  -1  -4 1227.75 166.178  17
  -7  -1  -4 1241.43 163.366  23
   7   1   5 941.362 154.563  33
  -7  -1  -5 604.624 111.113  17
  -7  -1  -5 620.171 98.8855  23
   7   1   6 31171.8 703.927  33
  -7  -1  -6 22581.0 510.353  17
  -7  -2   6 572.595 68.0091  20
   7   2  -5 14167.0 1062.80  18
   7   2  -5 10446.9 1345.90  25
   7   2  -4 16328.1 2141.55  25
  -7  -2   4 29229.5 632.340  23
   7   2  -4 17812.2 1140.25   8
  -7  -2   4 28424.8 581.448  11
  -7  -2   3 1441.50 156.729  11
   7   2  -3 591.507 718.861  25
  -7  -2   3 1506.33 173.260  23
   7   2  -3 408.187 205.314   8
  -7  -2   2 2137.75 201.765  11
  -7  -2   2 1972.15 204.998  23
   7   2  -2 2035.71 220.157   7
  -7  -2   1 8136.48 399.194  11
  -7  -2   1 7885.62 424.720  23
   7   2  -1 7800.90 430.803   7
  -7  -2   0 33.1961 57.4746  11
   7   2   0 80.7461 62.1012   7
  -7  -2   0 205.220 80.5421  23
   7   2   1 55611.4 1144.81   7
  -7  -2  -1 57154.6 1103.23  11
  -7  -2  -1 53846.3 1165.71  23
   7   2   2 152.338 76.5441   7
  -7  -2  -2 84.8974 62.0540  23
   7   2   3 4774.41 328.957   7
   7   2   3 6610.58 464.283  33
   7   2   4 42290.1 901.165   7
   7   2   4 55401.5 1339.00  33
   7   2   5 68.6484 69.5117  33
   7   2   6 9268.85 445.241  33
   7   2   7 11675.5 369.180  33
  -7  -3   5 645.297 87.2071  20
   7   3  -5 353.016 159.741  18
   7   3  -5 98.5501 196.577  25
   7   3  -4 9643.20 969.133  18
   7   3  -4 7345.90 1323.07  25
   7   3  -4 8900.03 738.680   8
  -7  -3   3 2544.76 175.368  11
   7   3  -3 1854.32 513.898  18
   7   3  -3 1103.21 661.923  25
  -7  -3   3 2602.36 189.839  23
   7   3  -3 1526.09 422.463   8
  -7  -3   2 1761.68 168.983  11
  -7  -3   2 1849.31 184.381  23
   7   3  -2 1750.10 196.434   7
  -7  -3   1 91438.4 1254.72  11
  -7  -3   1 90173.8 1350.07  23
   7   3  -1 88799.7 1431.81   7
  -7  -3   0 1865.44 195.717  11
  -7  -3   0 1807.82 206.938  23
   7   3   0 1748.87 204.525   7
   7   3   1 481.297 113.414   7
   7   3   1 233.328 471.996  25
  -7  -3  -1 576.684 121.526  23
   7   3   2 478.342 114.704   7
   7   3   3 593.603 122.752   7
   7   3   4 27811.6 779.923   7
   7   3   4 34751.6 1022.65  33
   7   3   5 19521.3 603.094   7
   7   3   5 26087.6 858.051  33
   7   3   6 4529.91 241.743   7
   7   3   6 6246.46 380.755  33
   7   3   7 5322.35 277.959  33
   7   4  -4 386.951 196.478  18
   7   4  -4 204.094 106.917   8
   7   4  -3 4538.09 680.393  18
   7   4  -3 3663.04 1073.94  25
   7   4  -3 3917.84 589.157   8
   7   4  -2 372.750 287.054  18
   7   4  -2-3.86035 505.452  25
   7   4  -2 40.9376 221.605   8
  -7  -4   1 16304.2 484.871  11
   7   4  -1 11927.8 1274.43  18
   7   4  -1 10225.6 2036.21  25
  -7  -4   1 17098.7 519.878  23
   7   4  -1 12211.5 1369.22   8
   7   4  -1 15743.7 569.376   7
  -7  -4   0 10747.0 423.225  11
   7   4   0 6049.90 1160.58  19
   7   4   0 5116.01 1468.14  25
  -7  -4   0 10696.7 449.578  23
   7   4   0 10805.1 478.314   7
   7   4   1 586.984 119.830   7
   7   4   1 296.587 381.017  19
  -7  -4  -1 665.309 128.462  23
   7   4   2 26096.3 773.809   7
  -7  -4  -2 23657.5 721.354  23
   7   4   2 25744.3 765.786  12
   7   4   3 358.830 98.3082   7
   7   4   3 232.022 446.800  16
   7   4   3 353.180 92.6081  12
   7   4   4 6439.31 380.233   7
   7   4   4 5609.71 1470.74  16
   7   4   4 6231.75 362.708  12
   7   4   5 80.5727 59.5213   7
   7   4   5 83.1421 71.4309  33
   7   4   5-5.14641 33.3603  12
   7   4   6 511.903 92.9629   7
   7   4   6 727.791 127.357  33
   7   4   7 15484.0 383.502   7
   7   4   7 9800.22 1459.05  16
   7   5  -3 21865.7 1150.44  18
   7   5  -3 23398.6 2145.74  25
   7   5  -3 20919.9 1078.70   8
   7   5  -2 3303.24 525.842  18
   7   5  -2 3754.88 1041.33  25
   7   5  -2 3637.12 603.692   8
   7   5  -1 2450.08 646.949  19
   7   5  -1 1969.73 465.559  18
   7   5  -1 2638.56 966.229  25
   7   5  -1 2764.35 612.110   8
   7   5  -1 3377.95 231.582   7
  -7  -5   0 29.5154 34.4065  11
   7   5   0 52.1297 50.9303   7
   7   5   0 603.918 406.245  19
   7   5   0-132.383 591.951  25
   7   5   0-66.9389 231.951   8
  -7  -5  -1 58.4490 46.2851  11
   7   5   1 25.2753 47.4486   7
   7   5   1-10.6599 362.655  19
   7   5   1 547.843 505.936  25
   7   5   1 384.031 328.268   8
   7   5   2 5459.64 337.316   7
   7   5   2 3606.71 964.997  19
   7   5   2 3358.60 1075.22  16
  -7  -5  -2 4890.68 299.041  23
   7   5   2 5475.48 340.621  12
   7   5   3 21274.3 670.711   7
   7   5   3 15376.7 2041.97  19
   7   5   3 15637.3 2295.46  16
   7   5   3 21816.9 682.332  12
   7   5   4 937.513 147.490   7
   7   5   4 398.178 430.414  19
   7   5   4 625.825 604.748  16
   7   5   4 1028.80 150.484  12
   7   5   5 37123.4 841.815   7
   7   5   5 20959.1 2198.37  19
   7   5   5 21061.5 2582.28  16
   7   5   5 35443.7 790.669  12
   7   5   6 884.183 121.607   7
   7   5   6 466.598 317.155  19
   7   5   6 1040.10 657.148  16
   7   5   6 880.562 107.363  12
   7   5   7 124.587 43.5185   7
   7   5   7 225.045 364.016  16
   7   6  -2 5576.85 1028.16  25
   7   6  -2 4608.56 508.747   8
   7   6  -1 458.100 308.354  19
   7   6  -1 76.1014 355.097  25
   7   6  -1 131.382 162.432   8
   7   6   0 47911.0 2818.81  19
   7   6   0 48116.7 3571.74  25
   7   6   0 46856.5 2240.45   8
   7   6   1 12982.3 1644.67  19
   7   6   1 19819.6 2135.16  16
   7   6   1 12582.4 1835.16  25
   7   6   1 14726.3 1324.30   8
   7   6   1 18252.7 522.400   7
   7   6   2 2991.54 223.146   7
   7   6   2 1126.86 488.265  19
   7   6   2 1460.74 711.159  16
   7   6   2 1502.50 461.544   8
   7   6   3 57.4883 50.0754   7
   7   6   3-191.889 507.043  19
   7   6   3 10.2037 446.293  16
   7   6   3 15.6865 38.3188  12
   7   6   3-55.7754 165.602   8
   7   6   4 4669.90 288.579   7
   7   6   4 2664.35 802.295  19
   7   6   4 2904.40 977.543  16
  -7  -6  -4 3905.11 242.824  23
   7   6   4 4504.43 289.617  12
   7   6   5 11550.2 439.172   7
   7   6   5 7177.47 1200.41  19
   7   6   5 8111.13 1554.55  16
   7   6   5 11664.6 433.539  12
   7   6   6 34006.2 690.098   7
   7   6   6 16491.1 1523.34  19
   7   6   6 22214.9 2314.92  16
   7   6   6 34022.1 646.860  12
   7   6   7 3593.88 188.332   7
   7   6   7 2061.87 620.141  16
   7   7  -1 177.028 196.740  25
   7   7  -1 314.344 108.824   8
   7   7   0 4205.06 700.103  19
   7   7   0 4626.21 888.556  25
   7   7   0 4297.58 497.339   8
   7   7   1 18014.4 1644.42  19
   7   7   1 21478.6 1855.46  25
   7   7   1 17438.8 1066.63   8
   7   7   2 9830.02 1332.73  19
   7   7   2 8183.97 722.455   8
   7   7   3 29479.9 576.278   7
   7   7   3 27729.4 2615.82  16
   7   7   4 13914.6 408.365   7
   7   7   4 12814.3 1786.15  16
   7   7   4 14197.8 444.060  12
   7   7   5 6614.66 278.189   7
   7   7   5 4294.55 825.423  19
   7   7   5 4325.97 1049.02  16
   7   7   5 6887.52 294.200  12
   7   7   6 275.112 54.9330   7
   7   7   6 122.276 148.981  19
   7   7   6 260.484 54.7283  12
   7   8   1 1103.67 311.854  19
   7   8   2 731.268 272.397  19
   7   8   2 858.192 385.093  16
   7   8   3 166.377 249.273  19
   7   8   3 128.352 209.406  16
   7   8   4 18803.1 1406.81  19
   7   8   4 28824.9 2180.88  16
   7   8   5 26637.7 1968.36  16
   8  -2  -3 3496.31 166.604  32
   8  -2  -2 879.802 96.7294  32
  -8   2   2 734.626 82.3267  15
  -8   2   2 831.396 308.823  22
   8  -2  -1 2964.57 181.412  32
  -8   2   1 2942.35 168.674  15
  -8   2   1 2503.39 511.731  22
   8  -2   0 113.396 43.2867  32
  -8   2   0 87.6018 37.3488  15
  -8   2   0-28.6321 216.825  22
   8  -2   1 7335.67 253.027  32
  -8   2  -1 7544.10 250.229  15
  -8   1   4 5226.02 212.851  23
  -8   1   4 5211.83 211.974  11
  -8   1   3 19861.0 476.189  23
  -8   1   3 21874.5 485.008  11
  -8   1   2 284.255 61.9568  11
   8  -1  -2 243.321 60.7004  32
  -8   1   2 357.553 73.2317  23
  -8   1   1 4807.93 233.654  11
   8  -1  -1 4439.42 247.775  32
  -8   1   1 4640.28 235.059  15
  -8   1   1 4651.77 247.045  23
  -8   1   0 5403.62 263.775  15
  -8   1   0 5078.53 240.787  23
  -8   1  -1 107.989 48.3068  15
  -8   1  -2 6582.05 270.937  15
  -8   1  -2 5301.74 608.467  22
  -8   0   4 60.4486 34.4705  11
   8   0  -4 154.749 236.321  25
  -8   0   4 11.1274 26.7984  23
  -8   0   3 1131.46 120.914  11
   8   0  -3 867.352 504.433  25
  -8   0   3 1145.30 128.761  23
  -8   0   2 534.976 91.2542  11
   8   0  -2 437.946 77.1843  32
  -8   0   2 508.319 98.6346  23
  -8   0   1 11293.3 409.377  11
   8   0  -1 10401.9 380.961  32
  -8   0   1 11207.0 441.663  23
  -8   0   0 43128.3 780.600  11
  -8   0   0 40861.0 732.135  15
  -8   0   0 42878.8 851.966  23
  -8   0  -1 17576.1 464.112  11
  -8   0  -1 18471.0 508.363  15
  -8   0  -1 18716.7 537.609  23
  -8   0  -2 533.167 90.7351  15
  -8   0  -2 474.854 79.6614  23
  -8   0  -3 509.687 80.6367  15
  -8   0  -4 76.7769 29.0551  15
  -8  -1   4 4099.91 198.774  23
  -8  -1   4 3925.28 185.261  11
  -8  -1   3 4398.00 230.028  11
  -8  -1   3 4351.43 244.196  23
  -8  -1   2 11385.8 406.217  11
  -8  -1   2 11590.9 436.137  23
  -8  -1   1 1389.66 162.890  11
  -8  -1   1 1488.62 172.017  23
  -8  -1   0 6704.48 334.974  11
  -8  -1   0 6375.56 354.814  23
   8   1   0 5953.51 329.560   7
  -8  -1  -1 14994.3 488.084  11
  -8  -1  -1 15481.9 541.918  23
  -8  -1  -2 43.5266 42.7686  11
  -8  -1  -2 45.0171 35.4688  15
  -8  -1  -2 138.290 62.4886  23
  -8  -1  -3 17430.9 412.486  11
  -8  -1  -3 18183.6 483.728  15
  -8  -1  -3 18434.7 519.372  23
  -8  -1  -4 7994.17 290.718  15
  -8  -1  -4 7747.21 267.606  23
   8   2  -4 4714.82 538.563  18
   8   2  -4 4168.58 777.044  25
  -8  -2   3 192.000 49.5190  11
  -8  -2   3 165.894 48.4996  20
  -8  -2   3 227.794 54.3488  23
   8   2  -3 247.459 164.305   8
  -8  -2   2 2414.81 182.639  11
   8   2  -2 1185.68 720.756  25
  -8  -2   2 2411.06 196.406  23
   8   2  -2 1013.26 378.282   8
  -8  -2   1 12688.2 446.992  11
  -8  -2   1 12702.1 476.058  23
   8   2  -1 11944.0 476.883   7
  -8  -2   0 2946.65 223.758  11
  -8  -2   0 2723.02 233.985  23
   8   2   0 2616.10 227.887   7
  -8  -2  -1 3705.10 255.563  11
  -8  -2  -1 3913.18 284.249  23
   8   2   1 3588.59 263.938   7
  -8  -2  -2 265.698 70.9314  11
   8   2   2 184.622 65.2937   7
  -8  -2  -2 255.195 82.8669  23
  -8  -2  -3 1177.16 130.732  11
  -8  -2  -3 1193.23 148.537  23
   8   2   3 1026.95 125.005   7
  -8  -2  -4 7685.07 275.933  11
  -8  -2  -4 7526.53 278.589  15
  -8  -2  -4 7796.29 337.241  23
  -8  -2  -5 304.317 53.7301  23
   8   3  -4 1451.82 259.363  18
   8   3  -4 1778.48 464.498  25
   8   3  -3-87.7789 133.432  18
   8   3  -3 109.136 243.845  25
   8   3  -3 301.609 149.193   8
  -8  -3   2 852.753 100.069  11
   8   3  -2 433.073 193.021  18
   8   3  -2 417.695 451.107  25
  -8  -3   2 915.083 107.329  23
   8   3  -2 586.450 269.638   8
  -8  -3   1 4186.47 239.822  11
   8   3  -1 1640.46 765.910  25
  -8  -3   1 3851.76 241.669  23
   8   3  -1 1636.51 489.904   8
   8   3  -1 4126.61 272.835   7
  -8  -3   0 189.860 67.1228  11
   8   3   0 122.482 63.5385   7
   8   3   0 97.5310 505.166  25
  -8  -3   0 191.059 67.0809  23
  -8  -3  -1 8664.40 377.213  11
   8   3   1 3929.11 874.832  19
   8   3   1 1355.39 647.821  25
  -8  -3  -1 8695.70 405.815  23
   8   3   1 8720.20 409.551   7
   8   3   2 29423.4 737.548   7
  -8  -3  -2 29549.0 701.205  11
  -8  -3  -2 29362.6 757.979  23
  -8  -3  -3 31.4369 46.9837  11
   8   3   3 27.5636 40.0838   7
  -8  -3  -3 6.19208 39.0140  23
   8   3   4 975.518 116.771   7
  -8  -3  -4 1003.59 117.911  11
  -8  -3  -4 1062.52 134.387  23
  -8  -3  -5 1944.80 129.712  11
  -8  -3  -5 1855.69 154.423  23
   8   3   5 1804.60 124.020   7
   8   4  -3 11582.7 698.275  18
   8   4  -3 12304.9 1326.55  25
   8   4  -3 11714.2 640.304   8
   8   4  -2-391.652 186.562  18
   8   4  -2 165.225 388.341  25
   8   4  -2 163.423 123.649   8
  -8  -4   1 8998.58 302.362  11
   8   4  -1 5326.08 626.117  18
   8   4  -1 4970.41 1132.14  25
  -8  -4   1 9401.92 315.105  23
   8   4  -1 6138.91 789.326   8
  -8  -4   0 1817.84 153.595  11
   8   4   0 1094.28 426.821  19
  -8  -4   0 1620.93 153.386  23
   8   4   0 1432.59 484.603   8
   8   4   0 1795.62 178.842   7
  -8  -4  -1 2052.74 173.606  11
   8   4   1 656.924 392.013  19
   8   4   1 957.792 624.232  25
  -8  -4  -1 1984.89 180.880  23
   8   4   1 2073.87 196.353   7
   8   4   2 8907.57 400.464   7
  -8  -4  -2 8490.39 359.341  11
  -8  -4  -2 8190.69 373.334  23
   8   4   3 18124.7 553.810   7
  -8  -4  -3 18039.3 518.483  11
  -8  -4  -3 17996.3 552.739  23
   8   4   4 10216.6 390.675   7
  -8  -4  -4 9940.83 395.963  23
   8   4   5 14480.4 405.155   7
   8   4   5 8363.00 1117.60  19
   8   4   5 8679.48 1248.74  16
  -8  -4  -5 14313.2 435.116  23
   8   4   6 2380.46 451.823  19
  -8  -4  -6 7081.13 247.237  23
   8   5  -2 1499.01 522.578  25
   8   5  -2 1380.55 259.235   8
   8   5  -1 243.809 319.379  25
   8   5  -1 274.197 184.382   8
  -8  -5   0 18485.1 389.250  11
   8   5   0 12338.4 1200.09  19
   8   5   0 11704.0 1575.00  25
   8   5   0 13715.9 1164.78   8
   8   5   0 17929.8 482.623   7
  -8  -5  -1 3109.30 185.336  11
   8   5   1 1962.99 587.280  19
  -8  -5  -1 3247.54 186.685  23
   8   5   1 1994.44 500.518   8
   8   5   1 3206.04 221.660   7
  -8  -5  -2 10079.4 351.623  11
   8   5   2 5856.59 1046.19  19
  -8  -5  -2 9818.45 356.135  23
   8   5   2 6300.25 853.656   8
   8   5   2 9918.90 394.775   7
  -8  -5  -3 75.1748 44.7872  11
   8   5   3 81.7186 47.7535   7
   8   5   3 226.815 297.860  19
   8   5   3 352.907 473.568  16
  -8  -5  -3 79.2220 42.3173  23
   8   5   3-162.006 229.941   8
   8   5   4 4452.72 251.466   7
   8   5   4 2491.91 724.302  19
   8   5   4 2271.57 617.717  16
  -8  -5  -4 3961.08 229.251  23
   8   5   5 7753.49 299.010   7
   8   5   5 3960.71 761.288  19
   8   5   5 4249.26 867.334  16
  -8  -5  -5 7167.13 286.344  23
   8   5   6 37888.8 514.935   7
  -8  -5  -6 36286.3 480.682  11
  -8  -5  -6 37797.2 541.175  23
   8   6  -1-197.268 112.564   8
   8   6   0 169.838 227.655  25
   8   6   0 132.905 140.650   8
   8   6   1 10751.5 1132.18  19
   8   6   1 10146.2 844.781   8
  -8  -6  -2 48.6887 26.1049  11
   8   6   2 45.2064 33.3969   7
   8   6   2 57.4377 135.458   8
  -8  -6  -3 10831.3 315.134  11
   8   6   3 9995.21 1239.80  16
   8   6   3 11279.6 362.907   7
   8   6   4 1863.30 145.323   7
  -8  -6  -4 1743.94 128.444  11
   8   6   4 1072.95 461.243  19
   8   6   4 1134.03 466.046  16
  -8  -6  -4 1714.22 116.359  23
   8   6   5 361.599 59.8398   7
   8   6   5 67.5921 191.161  19
   8   7   2 3764.03 587.128  19
   8   7   3 547.024 271.394  19
   8   7   4 1009.45 325.265  19
  -9  -1   2 4872.64 178.623  23
  -9  -1   1 658.050 74.8333  11
   9   1  -1 500.053 294.840  25
  -9  -1   1 793.509 82.9788  23
  -9  -1   0 3558.74 164.698  11
  -9  -1   0 4091.13 193.428  23
  -9  -1  -1 11626.6 305.785  23
  -9  -2   1 1084.04 97.4566  11
  -9  -2   1 1325.63 109.224  23
  -9  -2   0 1171.56 106.867  11
  -9  -2   0 1386.44 120.484  23
  -9  -2  -1 9432.85 284.885  11
  -9  -2  -1 9456.25 312.874  23
  -9  -2  -2 3262.61 153.775  11
  -9  -2  -2 3635.23 183.563  23
  -9  -3   1 17609.5 333.198  11
   9   3  -1 8231.77 969.456  25
  -9  -3   1 16723.2 329.464  23
   9   3  -1 10307.1 707.709   8
  -9  -3   0 745.406 80.7508  11
  -9  -3   0 594.466 77.1853  23
  -9  -3  -1 640.996 78.8668  11
  -9  -3  -1 699.707 86.3975  23
  -9  -3  -2 49.7324 35.0534  11
   9   3   2 58.1472 30.5022   7
  -9  -3  -2 76.3543 32.7652  23
  -9  -3  -3 18.2574 22.3743  11
  -9  -3  -3 67.4048 33.8480  23
  -9  -4   0 5055.94 171.438  11
   9   4   0 3243.63 428.971   8
  -9  -4  -1 16.9000 22.4089  11
  -9  -4  -1-8.49950 22.2551  23
   9   4   1-35.5541 123.278   8
  -9  -4  -2 21258.1 405.307  11
  -9  -4  -2 21250.3 420.180  23
   9   4   2 19970.8 432.755   7
  -9  -4  -3 4149.82 170.504  11
  -9  -4  -3 3923.23 175.294  23
   9   4   3 3841.40 172.555   7
   9   5   2 9588.65 265.925   7
   0   0   0    0.00    0.00   0
TITL CTAX3 in P-1
REM P-1 (#2 in standard setting)
CELL 1.54184   7.409257   7.977946   8.624985  67.2998  85.9001  74.0677
ZERR    2.00   0.000360   0.000307   0.000347   0.0037   0.0038   0.0039
LATT  1
SFAC C H O S
UNIT 12.00 20.00 6.00 4.00
TREF
HKLF 4
END
;
_shelx_hkl_checksum              24639
_shelx_res_file
;
    shelx.res created by SHELXL-2014/7
TITL CTAX3 in P-1
REM SHELXT solution in P-1
REM R1 0.108,  Rweak 0.005,  Alpha 0.038,  Orientation as input
REM Formula found by SHELXT:  C6 O3 S2
REM colourless block
CELL  1.54184   7.4093   7.9779   8.6250   67.300   85.900   74.068
ZERR    2.000   0.0004   0.0003   0.0003    0.004    0.004    0.004
LATT  1
SFAC C H O S
UNIT 12.00 20.00 6.00 4.00
TEMP -173
SIZE 0.30 0.13 0.10
L.S. 12
BOND $H
CONF
ACTA
LIST 6
FMAP 2
PLAN 5
ISOR 0.001 S2A
DFIX  S4A C4 1.8
DFIX  S2A C2 1.8
EQIV $1 1-x,1-y,-z
EQIV $2  2-x,1-y,-z
EQIV $3 x,y,1+z
HTAB O2 O1_$1
HTAB C2 O1_$2
BIND S1 O1_$3
WGHT    0.082800    0.298700
FVAR       9.86529   0.86113
O1    3    0.728217    0.476432    0.011574    11.00000    0.03336    0.02820 =
         0.02458   -0.01591   -0.00009   -0.01252
O2    3    0.493524    0.698053    0.054480    11.00000    0.03062    0.02159 =
         0.03292   -0.00995   -0.00829   -0.01076
H2O   2    0.432876    0.647075    0.042062    11.00000   -1.50000
C1    1    0.669478    0.617137    0.046765    11.00000    0.02526    0.01931 =
         0.01585   -0.00407   -0.00334   -0.00885
C2    1    0.808879    0.712285    0.073586    11.00000    0.02510    0.02151 =
         0.02065   -0.00830   -0.00349   -0.00842
AFIX  13
H2    2    0.935924    0.620103    0.098870    11.00000   -1.20000
AFIX   0
C3    1    0.816518    0.880927   -0.089046    11.00000    0.04204    0.03038 =
         0.02366   -0.00783   -0.00059   -0.02019
AFIX 137
H3A   2    0.845429    0.838327   -0.182660    11.00000   -1.50000
H3B   2    0.914312    0.936520   -0.076103    11.00000   -1.50000
H3C   2    0.694693    0.975634   -0.112239    11.00000   -1.50000
AFIX   0
PART 1
S2    4    0.754185    0.799400    0.241684    21.00000    0.01735    0.01055 =
         0.01881   -0.00578   -0.00577   -0.00189
PART 2
S2A   4    0.704178    0.829145    0.240321   -21.00000    0.01891    0.01776 =
         0.01692   -0.00704   -0.00244   -0.00702
PART 0
C4    1    0.757167    0.596812    0.418865    11.00000    0.01576    0.01466 =
         0.02071   -0.00787   -0.00401   -0.00418
S1    4    0.753971    0.598673    0.607941    11.00000    0.02383    0.01864 =
         0.01818   -0.00922   -0.00315   -0.00353
O3    3    0.761815    0.452431    0.377627    11.00000    0.02293    0.01473 =
         0.02019   -0.00800   -0.00310   -0.00553
C5    1    0.768275    0.269585    0.511881    11.00000    0.02336    0.01445 =
         0.02369   -0.00527   -0.00495   -0.00410
AFIX  23
H5A   2    0.661174    0.280864    0.586089    11.00000   -1.20000
H5B   2    0.886590    0.220759    0.580594    11.00000   -1.20000
AFIX   0
C6    1    0.757345    0.140219    0.426008    11.00000    0.02831    0.01531 =
         0.03297   -0.00952   -0.00481   -0.00388
AFIX 137
H6A   2    0.638808    0.189613    0.359846    11.00000   -1.50000
H6B   2    0.763276    0.014207    0.510813    11.00000   -1.50000
H6C   2    0.862833    0.132594    0.351444    11.00000   -1.50000
REM  CTAX3 in P-1
REM R1 =  0.1055 for    1766 Fo > 4sig(Fo)  and  0.1080 for all    1875 data
REM     45 parameters refined using      0 restraints
REM Highest difference peak  2.940,  deepest hole -2.116,  1-sigma level  0.198
REM  CTAX3 in P-1
REM R1 =  0.0520 for    1766 Fo > 4sig(Fo)  and  0.0539 for all    1875 data
REM    105 parameters refined using      0 restraints
REM Highest difference peak  1.380,  deepest hole -0.880,  1-sigma level  0.110
REM  CTAX3 in P-1
REM R1 =  0.0458 for    1766 Fo > 4sig(Fo)  and  0.0476 for all    1875 data
REM    110 parameters refined using      0 restraints
REM Highest difference peak  0.616,  deepest hole -0.628,  1-sigma level  0.102
REM  CTAX3 in P-1
REM R1 =  0.0467 for    1766 Fo > 4sig(Fo)  and  0.0485 for all    1875 data
REM    115 parameters refined using      7 restraints
REM Highest difference peak  0.619,  deepest hole -0.604,  1-sigma level  0.103
REM  CTAX3 in P-1
REM R1 =  0.0467 for    1766 Fo > 4sig(Fo)  and  0.0485 for all    1875 data
REM    115 parameters refined using      7 restraints
REM Highest difference peak  0.619,  deepest hole -0.604,  1-sigma level  0.103
REM  CTAX3 in P-1
REM R1 =  0.0467 for    1766 Fo > 4sig(Fo)  and  0.0485 for all    1875 data
REM    115 parameters refined using      7 restraints
REM Highest difference peak  0.619,  deepest hole -0.604,  1-sigma level  0.103
AFIX   0
HKLF 4
REM  CTAX3 in P-1
REM R1 =  0.0467 for    1766 Fo > 4sig(Fo)  and  0.0485 for all    1875 data
REM    115 parameters refined using      7 restraints
END
WGHT      0.0828      0.2987
REM Highest difference peak  0.619,  deepest hole -0.604,  1-sigma level  0.103
Q1    1   0.9097  0.7575 -0.0060  11.00000  0.05    0.62
Q2    1   0.6966  0.8218  0.0373  11.00000  0.05    0.55
Q3    1   0.7183  0.9369  0.1942  11.00000  0.05    0.53
Q4    1   0.7778  0.4594  0.6555  11.00000  0.05    0.52
Q5    1   0.6511  0.5862 -0.0323  11.00000  0.05    0.51
;
_shelx_res_checksum              93564
loop_
_space_group_symop_operation_xyz
'x, y, z'
'-x, -y, -z'
loop_
_atom_site_type_symbol
_atom_site_label
_atom_site_fract_x
_atom_site_fract_y
_atom_site_fract_z
_atom_site_U_iso_or_equiv
_atom_site_adp_type
_atom_site_calc_flag
_atom_site_occupancy
_atom_site_disorder_assembly
_atom_site_disorder_group
O O1 0.7282(2) 0.4764(2) 0.0116(2) 0.0259(4) Uani d 1 . .
O O2 0.4935(2) 0.6981(3) 0.0545(2) 0.0272(4) Uani d 1 . .
H H2O 0.433(5) 0.647(5) 0.042(4) 0.041 Uiso d 1 . .
C C1 0.6695(3) 0.6171(3) 0.0468(3) 0.0201(4) Uani d 1 . .
C C2 0.8089(3) 0.7123(3) 0.0736(3) 0.0216(5) Uani d 1 . .
H H2 0.9359 0.6201 0.0989 0.026 Uiso calc 1 A 1
C C3 0.8165(4) 0.8809(4) -0.0890(3) 0.0305(6) Uani d 1 . .
H H3A 0.8454 0.8383 -0.1827 0.046 Uiso calc 1 . .
H H3B 0.9143 0.9365 -0.0761 0.046 Uiso calc 1 . .
H H3C 0.6947 0.9756 -0.1122 0.046 Uiso calc 1 . .
S S2 0.7542(6) 0.7994(3) 0.24168(12) 0.0156(4) Uani d 0.861(18) B 1
S S2A 0.704(3) 0.829(2) 0.2403(9) 0.0171(18) Uani d 0.139(18) B 2
C C4 0.7572(3) 0.5968(3) 0.4189(3) 0.0164(4) Uani d 1 . .
S S1 0.75397(7) 0.59867(7) 0.60794(6) 0.0198(2) Uani d 1 . .
O O3 0.7618(2) 0.4524(2) 0.37763(18) 0.0186(3) Uani d 1 . .
C C5 0.7683(3) 0.2696(3) 0.5119(3) 0.0210(5) Uani d 1 . .
H H5A 0.6612 0.2809 0.5861 0.025 Uiso calc 1 . .
H H5B 0.8866 0.2208 0.5806 0.025 Uiso calc 1 . .
C C6 0.7573(3) 0.1402(3) 0.4260(3) 0.0255(5) Uani d 1 . .
H H6A 0.6388 0.1896 0.3598 0.038 Uiso calc 1 . .
H H6B 0.7633 0.0142 0.5108 0.038 Uiso calc 1 . .
H H6C 0.8628 0.1326 0.3514 0.038 Uiso calc 1 . .
loop_
_atom_site_aniso_label
_atom_site_aniso_U_11
_atom_site_aniso_U_22
_atom_site_aniso_U_33
_atom_site_aniso_U_12
_atom_site_aniso_U_13
_atom_site_aniso_U_23
O1 0.0334(9) 0.0282(10) 0.0246(8) -0.0125(7) -0.0001(7) -0.0159(7)
O2 0.0306(9) 0.0216(9) 0.0329(9) -0.0108(7) -0.0083(7) -0.0100(7)
C1 0.0253(10) 0.0193(11) 0.0158(9) -0.0089(8) -0.0033(8) -0.0041(8)
C2 0.0251(10) 0.0215(11) 0.0206(10) -0.0084(9) -0.0035(8) -0.0083(9)
C3 0.0420(14) 0.0304(14) 0.0237(11) -0.0202(11) -0.0006(10) -0.0078(10)
S2 0.0174(9) 0.0106(5) 0.0188(4) -0.0019(5) -0.0058(3) -0.0058(3)
S2A 0.019(2) 0.018(2) 0.0169(19) -0.0070(11) -0.0024(9) -0.0070(11)
C4 0.0158(8) 0.0147(10) 0.0207(9) -0.0042(7) -0.0040(7) -0.0079(8)
S1 0.0238(3) 0.0186(3) 0.0182(3) -0.0035(2) -0.0032(2) -0.0092(2)
O3 0.0229(7) 0.0147(8) 0.0202(7) -0.0055(6) -0.0031(6) -0.0080(6)
C5 0.0234(10) 0.0144(11) 0.0237(10) -0.0041(8) -0.0049(8) -0.0053(8)
C6 0.0283(11) 0.0153(12) 0.0330(12) -0.0039(9) -0.0048(9) -0.0095(9)
loop_
_atom_type_symbol
_atom_type_description
_atom_type_scat_dispersion_real
_atom_type_scat_dispersion_imag
_atom_type_scat_source
C C 0.0181 0.0091 'International Tables Vol C Tables 4.2.6.8 and 6.1.1.4'
H H 0.0000 0.0000 'International Tables Vol C Tables 4.2.6.8 and 6.1.1.4'
O O 0.0492 0.0322 'International Tables Vol C Tables 4.2.6.8 and 6.1.1.4'
S S 0.3331 0.5567 'International Tables Vol C Tables 4.2.6.8 and 6.1.1.4'
loop_
_geom_angle_atom_site_label_1
_geom_angle_atom_site_label_2
_geom_angle_atom_site_label_3
_geom_angle_site_symmetry_3
_geom_angle
C1 O2 H2O . 112(3)
O1 C1 O2 . 124.6(2)
O1 C1 C2 . 118.99(19)
O2 C1 C2 . 116.27(19)
C1 C2 C3 . 108.95(18)
C1 C2 S2 . 114.60(17)
C3 C2 S2 . 107.51(16)
C1 C2 S2A . 108.0(4)
C3 C2 S2A . 104.2(4)
C1 C2 H2 . 108.5
C3 C2 H2 . 108.5
S2 C2 H2 . 108.5
C2 C3 H3A . 109.5
C2 C3 H3B . 109.5
H3A C3 H3B . 109.5
C2 C3 H3C . 109.5
H3A C3 H3C . 109.5
H3B C3 H3C . 109.5
C4 S2 C2 . 103.40(14)
C4 S2A C2 . 92.4(7)
O3 C4 S1 . 127.40(17)
O3 C4 S2 . 111.49(15)
S1 C4 S2 . 121.11(13)
O3 C4 S2A . 114.6(3)
S1 C4 S2A . 116.9(3)
C4 S1 O1 1_556 162.49(9)
C4 O3 C5 . 118.71(16)
O3 C5 C6 . 106.08(17)
O3 C5 H5A . 110.5
C6 C5 H5A . 110.5
O3 C5 H5B . 110.5
C6 C5 H5B . 110.5
H5A C5 H5B . 108.7
C5 C6 H6A . 109.5
C5 C6 H6B . 109.5
H6A C6 H6B . 109.5
C5 C6 H6C . 109.5
H6A C6 H6C . 109.5
H6B C6 H6C . 109.5
loop_
_geom_bond_atom_site_label_1
_geom_bond_atom_site_label_2
_geom_bond_site_symmetry_2
_geom_bond_distance
O1 C1 . 1.232(3)
O2 C1 . 1.296(3)
O2 H2O . 0.72(4)
C1 C2 . 1.515(3)
C2 C3 . 1.535(3)
C2 S2 . 1.813(3)
C2 S2A . 2.004(13)
C2 H2 . 1.0000
C3 H3A . 0.9800
C3 H3B . 0.9800
C3 H3C . 0.9800
S2 C4 . 1.740(2)
S2A C4 . 1.856(13)
C4 O3 . 1.322(3)
C4 S1 . 1.635(2)
S1 O1 1_556 3.2394(16)
O3 C5 . 1.462(3)
C5 C6 . 1.505(3)
C5 H5A . 0.9900
C5 H5B . 0.9900
C6 H6A . 0.9800
C6 H6B . 0.9800
C6 H6C . 0.9800
loop_
_geom_hbond_atom_site_label_D
_geom_hbond_atom_site_label_H
_geom_hbond_atom_site_label_A
_geom_hbond_site_symmetry_A
_geom_hbond_distance_DH
_geom_hbond_distance_HA
_geom_hbond_distance_DA
_geom_hbond_angle_DHA
O2 H2O O1 2_665 0.72(4) 1.92(4) 2.639(2) 175(4)
C2 H2 O1 2_765 1.00 2.62 3.497(3) 146.3
C6 H6A S1 2_666 0.98 2.99 3.759(2) 136.1
loop_
_geom_torsion_atom_site_label_1
_geom_torsion_atom_site_label_2
_geom_torsion_atom_site_label_3
_geom_torsion_atom_site_label_4
_geom_torsion_site_symmetry_4
_geom_torsion
O1 C1 C2 C3 . 97.9(2)
O2 C1 C2 C3 . -78.7(2)
O1 C1 C2 S2 . -141.7(2)
O2 C1 C2 S2 . 41.8(3)
O1 C1 C2 S2A . -149.6(5)
O2 C1 C2 S2A . 33.9(5)
C1 C2 S2 C4 . 60.7(3)
C3 C2 S2 C4 . -178.06(19)
C2 S2 C4 O3 . -11.7(3)
C2 S2 C4 S1 . 168.43(15)
C2 S2A C4 O3 . -26.7(7)
C2 S2A C4 S1 . 164.1(2)
O3 C4 S1 O1 1_556 -9.5(4)
S2 C4 S1 O1 1_556 170.4(2)
S2A C4 S1 O1 1_556 158.1(6)
S1 C4 O3 C5 . -1.2(3)
S2 C4 O3 C5 . 178.92(19)
S2A C4 O3 C5 . -169.0(6)
C4 O3 C5 C6 . 175.74(17)

_cod_database_fobs_code 1546555
