#------------------------------------------------------------------------------
#$Date: 2017-05-11 08:15:53 +0300 (Thu, 11 May 2017) $
#$Revision: 196623 $
#$URL: file:///home/coder/svn-repositories/cod/cif/1/54/60/1546017.cif $
#------------------------------------------------------------------------------
#
# This file is available in the Crystallography Open Database (COD),
# http://www.crystallography.net/. The original data for this entry
# were provided by IUCr Journals, http://journals.iucr.org/.
#
# The file may be used within the scientific community so long as
# proper attribution is given to the journal article from which the
# data were obtained.
#
data_1546017
loop_
_publ_author_name
'Cavallo, Gabriella'
'Murray, Jane S.'
'Politzer, Peter'
'Pilati, Tullio'
'Ursini, Maurizio'
'Resnati, Giuseppe'
_publ_section_title
;
 Halogen bonding in hypervalent iodine and bromine derivatives: halonium
 salts
;
_journal_issue                   4
_journal_name_full               IUCrJ
_journal_page_first
;
;
_journal_paper_doi               10.1107/S2052252517004262
_journal_volume                  4
_journal_year                    2017
_chemical_formula_moiety         'C14 H12 Br O2 1+, B F4 1-'
_chemical_formula_sum            'C14 H12 B Br F4 O2'
_chemical_formula_weight         378.96
_chemical_name_systematic
; 
 ? 
;
_space_group_IT_number           2
_symmetry_cell_setting           triclinic
_symmetry_space_group_name_Hall  '-P 1'
_symmetry_space_group_name_H-M   'P -1'
_atom_sites_solution_hydrogens   geom
_atom_sites_solution_primary     direct
_atom_sites_solution_secondary   difmap
_audit_creation_method           SHELXL-97
_cell_angle_alpha                89.158(5)
_cell_angle_beta                 72.819(4)
_cell_angle_gamma                66.607(5)
_cell_formula_units_Z            2
_cell_length_a                   8.1574(11)
_cell_length_b                   10.0848(14)
_cell_length_c                   10.1570(16)
_cell_measurement_reflns_used    4088
_cell_measurement_temperature    103(2)
_cell_measurement_theta_max      32.80
_cell_measurement_theta_min      2.81
_cell_volume                     727.64(19)
_computing_cell_refinement       'Bruker SAINT'
_computing_data_collection       'Bruker APEX2'
_computing_data_reduction        'Bruker SAINT'
_computing_molecular_graphics
;
ORTEP-3 (Farrugia, L.J. (1997) Jour. Appl. Cryst. 30, 565)
Mercury (Macrae, C. F., Edgington, P. R., McCabe, P., Pidcock, E., 
Shields, G. P., Taylor, R., Towler, M. & van de Streek, J. (2006). 
J. Appl. Cryst. 39, 453-457
;
_computing_publication_material  SHELXTL
_computing_structure_refinement
'SHELXL (Sheldrick, G. M. (2008). Acta Cryst. A64, 112-122)'
_computing_structure_solution
;
SIR2002 (Burla, M. C., Camalli, M., Carrozzini, B., Cascarano, G. L., 
Giacovazzo, C., Polidori, G. & Spagna, R. (2003). 
J. Appl. Cryst. 36, 1103.)
;
_diffrn_ambient_temperature      103(2)
_diffrn_measured_fraction_theta_full 0.996
_diffrn_measured_fraction_theta_max 0.893
_diffrn_measurement_device_type  'Bruker APEX-II CCD'
_diffrn_measurement_method       '\f and \w scans'
_diffrn_radiation_monochromator  graphite
_diffrn_radiation_source         'fine-focus sealed tube'
_diffrn_radiation_type           MoK\a
_diffrn_radiation_wavelength     0.71073
_diffrn_reflns_av_R_equivalents  0.0299
_diffrn_reflns_av_sigmaI/netI    0.0523
_diffrn_reflns_limit_h_max       12
_diffrn_reflns_limit_h_min       -12
_diffrn_reflns_limit_k_max       15
_diffrn_reflns_limit_k_min       -15
_diffrn_reflns_limit_l_max       15
_diffrn_reflns_limit_l_min       -16
_diffrn_reflns_number            10971
_diffrn_reflns_theta_full        30.00
_diffrn_reflns_theta_max         34.70
_diffrn_reflns_theta_min         2.87
_diffrn_standards_decay_%        0.00
_exptl_absorpt_coefficient_mu    2.871
_exptl_absorpt_correction_T_max  0.5373
_exptl_absorpt_correction_T_min  0.4633
_exptl_absorpt_correction_type   multi-scan
_exptl_absorpt_process_details
'Bruker (2001). SADABS. Bruker AXS Inc., Madison, Wisconsin, USA.'
_exptl_crystal_colour            colourless
_exptl_crystal_density_diffrn    1.730
_exptl_crystal_density_method    'not measured'
_exptl_crystal_description       block
_exptl_crystal_F_000             376
_exptl_crystal_size_max          0.12
_exptl_crystal_size_mid          0.11
_exptl_crystal_size_min          0.05
_refine_diff_density_max         0.691
_refine_diff_density_min         -0.478
_refine_diff_density_rms         0.094
_refine_ls_extinction_method     none
_refine_ls_goodness_of_fit_ref   1.020
_refine_ls_hydrogen_treatment    noref
_refine_ls_matrix_type           full
_refine_ls_number_parameters     200
_refine_ls_number_reflns         5592
_refine_ls_number_restraints     0
_refine_ls_restrained_S_all      1.020
_refine_ls_R_factor_all          0.0496
_refine_ls_R_factor_gt           0.0338
_refine_ls_shift/su_max          0.001
_refine_ls_shift/su_mean         0.000
_refine_ls_structure_factor_coef Fsqd
_refine_ls_weighting_details
'calc w=1/[\s^2^(Fo^2^)+(0.0328P)^2^] where P=(Fo^2^+2Fc^2^)/3'
_refine_ls_weighting_scheme      calc
_refine_ls_wR_factor_gt          0.0697
_refine_ls_wR_factor_ref         0.0745
_reflns_number_gt                4528
_reflns_number_total             5592
_reflns_threshold_expression     I>2\s(I)
_iucr_refine_instructions_details
;
TITL gc162 in P-1
CELL 0.71073   8.1574  10.0848  10.1570  89.158  72.819  66.607
ZERR    2.00   0.0011   0.0014   0.0016   0.005   0.004   0.005
LATT  1
SFAC  C   H  B  O  F  Br
UNIT 28  24  2  4  8  2
LIST 4
L.S. 4
BOND $H
CONF
EQIV $1 -x, -y+1, -z+1
EQIV $2 -x+1, -y, -z+1
EQIV $3 x, y+1, z
EQIV $4 -x, 1-y, 1-z
RTAB DIST Br1 O2
RTAB DIST Br1 F1
RTAB ANGL c7  Br1 O2
RTAB ANGL c1  Br1 F1
RTAB DIST F1 C13_$4
MPLA 5 C1 C7 F1 O2 Br1
MPLA 6 C1 C2 C3 C4 C5 C6
MPLA 3 C1 BR1 C7
MPLA 6 C7 C8 C9 C10 C11 C12
HTAB C8 F4_$1
HTAB C12 F2_$2
HTAB C14 F3_$3
ACTA
FMAP 2
PLAN 20
TEMP -170.000
WGHT    0.032800
FVAR       0.23642
MOLE 1
BR1   6    0.238865    0.363833    0.398584    11.00000    0.01784    0.02044 =
         0.01280    0.00070   -0.00135   -0.01087
O1    4    0.331977    0.756810    0.459429    11.00000    0.02061    0.01835 =
         0.02177   -0.00451    0.00010   -0.00901
O2    4    0.233650    0.583472    0.541876    11.00000    0.02039    0.02103 =
         0.01329    0.00191   -0.00365   -0.00837
C1    1    0.424407    0.420176    0.270665    11.00000    0.01168    0.01870 =
         0.01273    0.00266   -0.00247   -0.00664
C2    1    0.443597    0.542916    0.312468    11.00000    0.01184    0.01548 =
         0.01425    0.00263   -0.00495   -0.00448
C3    1    0.585141    0.576727    0.223069    11.00000    0.01262    0.01840 =
         0.01992    0.00328   -0.00513   -0.00698
AFIX  43
H3    2    0.604086    0.658449    0.248766    11.00000   -1.20000
AFIX   0
C4    1    0.697808    0.492089    0.097486    11.00000    0.01463    0.02162 =
         0.01824    0.00551   -0.00349   -0.00734
AFIX  43
H4    2    0.793844    0.516030    0.038114    11.00000   -1.20000
AFIX   0
C5    1    0.672138    0.372846    0.057368    11.00000    0.01428    0.02214 =
         0.01640    0.00032   -0.00140   -0.00566
AFIX  43
H5    2    0.748839    0.316605   -0.029783    11.00000   -1.20000
AFIX   0
C6    1    0.533354    0.335380    0.145191    11.00000    0.01458    0.01806 =
         0.01830   -0.00214   -0.00224   -0.00602
AFIX  43
H6    2    0.514511    0.253711    0.119207    11.00000   -1.20000
AFIX   0
C7    1    0.234153    0.225369    0.273454    11.00000    0.01518    0.01507 =
         0.01700    0.00092   -0.00347   -0.00714
C8    1    0.131441    0.280525    0.183242    11.00000    0.01484    0.01414 =
         0.01733    0.00162   -0.00307   -0.00389
AFIX  43
H8    2    0.064017    0.382225    0.184640    11.00000   -1.20000
AFIX   0
C9    1    0.131427    0.180713    0.090843    11.00000    0.01796    0.02352 =
         0.01847   -0.00243   -0.00401   -0.00774
AFIX  43
H9    2    0.065848    0.213691    0.025305    11.00000   -1.20000
AFIX   0
C10   1    0.226891    0.032942    0.093919    11.00000    0.02511    0.02169 =
         0.02593   -0.00740    0.00078   -0.01184
AFIX  43
H10   2    0.224295   -0.034571    0.031162    11.00000   -1.20000
AFIX   0
C11   1    0.326191   -0.018078    0.187091    11.00000    0.02767    0.01212 =
         0.03789    0.00029   -0.00479   -0.00391
AFIX  43
H11   2    0.389706   -0.119828    0.188215    11.00000   -1.20000
AFIX   0
C12   1    0.333200    0.079012    0.278848    11.00000    0.02193    0.01633 =
         0.02662    0.00600   -0.00852   -0.00505
AFIX  43
H12   2    0.402610    0.046390    0.342110    11.00000   -1.20000
AFIX   0
C13   1    0.324171    0.628716    0.449774    11.00000    0.01315    0.01675 =
         0.01638    0.00139   -0.00725   -0.00499
C14   1    0.212512    0.852247    0.587435    11.00000    0.02390    0.02123 =
         0.02367   -0.00665    0.00005   -0.00858
AFIX 137
H14A  2    0.080165    0.883646    0.593313    11.00000   -1.50000
H14B  2    0.241518    0.937585    0.588589    11.00000   -1.50000
H14C  2    0.235253    0.799901    0.666766    11.00000   -1.50000
AFIX   0
MOLE 2
F1    5    0.020171    0.253930    0.612824    11.00000    0.02929    0.05285 =
         0.02718    0.01677   -0.01635   -0.02259
F2    5    0.293560    0.164417    0.664186    11.00000    0.01414    0.02363 =
         0.03616    0.00104   -0.00532   -0.00443
F3    5    0.037045    0.133814    0.803092    11.00000    0.03768    0.02164 =
         0.01733    0.00178   -0.00112   -0.01870
F4    5    0.041190    0.357839    0.801136    11.00000    0.03467    0.01791 =
         0.03273   -0.00636    0.00328   -0.01226
B1    3    0.097616    0.227067    0.721407    11.00000    0.01632    0.01591 =
         0.01659    0.00185   -0.00322   -0.00675
HKLF 4
 
REM  gc162 in P-1
REM R1 =  0.0338 for   4528 Fo > 4sig(Fo)  and  0.0496 for all   5592 data
REM    200 parameters refined using      0 restraints
 
END  
     
WGHT      0.0328      0.0000 
REM Highest difference peak  0.691,  deepest hole -0.478,  1-sigma level  0.094
Q1    1   0.1981  0.3985  0.3347  11.00000  0.05    0.69
Q2    1   0.2742  0.3407  0.4657  11.00000  0.05    0.66
Q3    1   0.2779  0.2804  0.4163  11.00000  0.05    0.57
Q4    1   0.2990  0.1599  0.2801  11.00000  0.05    0.53
Q5    1   0.1837  0.2567  0.2270  11.00000  0.05    0.52
Q6    1   0.1829  0.4446  0.3669  11.00000  0.05    0.52
Q7    1   0.2240  0.0283  0.1719  11.00000  0.05    0.50
Q8    1   0.4425  0.4799  0.3018  11.00000  0.05    0.48
Q9    1   0.1107  0.2372  0.1379  11.00000  0.05    0.45
Q10   1   0.6520  0.5195  0.1694  11.00000  0.05    0.45
Q11   1   0.4613  0.3963  0.2049  11.00000  0.05    0.42
Q12   1   0.6890  0.4283  0.1000  11.00000  0.05    0.42
Q13   1   0.0217  0.2559  0.6788  11.00000  0.05    0.41
Q14   1   0.4058  0.5691  0.3781  11.00000  0.05    0.39
Q15   1   0.1570  0.1032  0.1099  11.00000  0.05    0.38
Q16   1   0.5260  0.5432  0.2853  11.00000  0.05    0.36
Q17   1   0.0860  0.2994  0.2138  11.00000  0.05    0.36
Q18   1   0.7382  0.5014  0.0820  11.00000  0.05    0.35
Q19   1  -0.0367  0.4275  0.7595  11.00000  0.05    0.35
Q20   1   0.6160  0.3317  0.0978  11.00000  0.05    0.35
;
_cod_data_source_file            lc5079.cif
_cod_data_source_block           gc162
_cod_original_cell_volume        727.64(18)
_cod_database_code               1546017
_shelx_hkl_file
;
  -1   0   0    3.15    0.18
  -1   0   0    3.23    0.23
  -1   0   0    3.52    0.22
   1   0   0    3.06    0.19
   1   0   0    3.22    0.26
  -2   0   0  349.22   11.01
  -2   0   0  342.19   11.02
  -2   0   0  356.64   11.05
   2   0   0  337.69   10.22
   2   0   0  343.77   11.03
   2   0   0  348.66   10.85
  -3   0   0   75.33    2.51
  -3   0   0   73.43    2.51
   3   0   0   70.93    2.47
   3   0   0   74.02    2.51
   3   0   0   71.47    2.30
  -4   0   0  204.73    6.71
  -4   0   0  209.41    6.71
   4   0   0  205.21    6.21
   4   0   0  201.02    6.66
   4   0   0  204.77    6.67
  -5   0   0    2.53    0.49
   5   0   0    4.28    0.42
   5   0   0    3.47    0.53
  -6   0   0   32.87    1.53
   6   0   0   31.89    1.36
   6   0   0   35.66    1.65
  -7   0   0    2.76    0.67
   7   0   0    3.82    0.73
  -8   0   0    5.73    0.85
   8   0   0    5.27    0.82
  -9   0   0   37.72    2.02
   9   0   0   39.46    2.11
 -10   0   0    7.31    1.08
  10   0   0    7.14    1.17
  11   0   0   17.97    1.65
  10  -1   0   13.23    1.42
 -10   1   0   14.11    1.42
   9  -1   0    0.88    0.82
  -9   1   0    0.64    0.80
   8  -1   0    0.79    0.69
  -8   1   0   -0.62    0.70
   7  -1   0   27.05    1.61
  -7   1   0   28.49    1.56
   6  -1   0   62.50    2.56
  -6   1   0   62.38    2.50
   5  -1   0   38.15    1.48
   5  -1   0   36.74    1.57
   5  -1   0   38.07    1.68
  -5   1   0   36.03    1.64
   4  -1   0   25.73    1.08
   4  -1   0   25.64    1.25
   4  -1   0   26.66    1.19
  -4   1   0   27.04    1.23
   3  -1   0    2.05    0.35
   3  -1   0    0.69    0.22
  -3   1   0    0.56    0.30
   2  -1   0  200.33    6.51
  -2   1   0  204.64    6.52
  -2   1   0  197.82    6.02
   1  -1   0  419.84   13.83
   1  -1   0  456.60   12.83
  -1   1   0  442.59   13.82
  -1   1   0  435.70   13.84
  -1   1   0  421.37   12.82
  -2  -1   0   94.26    3.03
  -2  -1   0   92.46    2.97
  -2  -1   0   91.84    2.96
   2   1   0   88.83    3.02
   2   1   0   88.04    2.96
  -3  -1   0   28.01    1.02
  -3  -1   0   27.35    1.02
   3   1   0   24.77    0.91
   3   1   0   25.53    1.13
   3   1   0   28.23    0.96
   3   1   0   27.76    1.11
  -4  -1   0   73.62    2.47
  -4  -1   0   74.27    2.46
   4   1   0   69.56    2.25
   4   1   0   69.47    2.53
   4   1   0   69.89    2.38
  -5  -1   0  186.30    6.03
  -5  -1   0  182.76    6.01
   5   1   0  179.91    6.02
   5   1   0  180.76    5.55
  -6  -1   0   12.56    0.86
   6   1   0   12.73    0.74
   6   1   0   10.77    0.86
  -7  -1   0   36.94    1.67
   7   1   0   37.15    1.79
  -8  -1   0    9.14    0.89
   8   1   0    8.96    0.98
  -9  -1   0   28.70    1.63
   9   1   0   27.23    1.75
 -10  -1   0    0.42    0.76
  10   1   0    0.84    0.85
 -11  -1   0    5.31    1.03
  11   1   0    5.75    1.12
  10  -2   0    1.30    1.00
 -10   2   0    2.24    1.00
   9  -2   0    6.34    1.11
  -9   2   0    3.57    0.97
   8  -2   0    2.19    0.84
  -8   2   0    4.65    0.96
   7  -2   0   40.59    2.03
  -7   2   0   41.45    2.03
   6  -2   0   28.77    1.58
  -6   2   0   29.08    1.59
   5  -2   0   42.46    1.73
   5  -2   0   38.31    1.76
  -5   2   0   36.45    1.77
   4  -2   0   25.20    1.12
   4  -2   0   23.98    1.21
  -4   2   0   25.49    1.24
   3  -2   0   27.71    1.24
   3  -2   0   29.25    1.15
  -3   2   0   26.85    1.10
  -3   2   0   28.49    1.26
   2  -2   0   40.51    1.55
   2  -2   0   39.70    1.42
  -2   2   0   40.19    1.41
  -2   2   0   39.66    1.57
   1  -2   0  229.43    6.76
   1  -2   0  227.05    7.30
  -1   2   0  228.60    7.31
  -1   2   0  219.16    6.76
   0  -2   0   54.84    1.92
   0  -2   0   60.64    1.93
   0   2   0   57.97    1.78
   0   2   0   52.85    1.91
  -1  -2   0   58.66    1.95
  -1  -2   0   61.11    2.00
  -1  -2   0   60.36    1.96
   1   2   0   58.14    1.81
   1   2   0   59.13    2.00
  -2  -2   0    6.47    0.48
   2   2   0    6.98    0.47
   2   2   0    6.30    0.47
  -3  -2   0   67.53    2.15
  -3  -2   0   63.67    2.15
   3   2   0   65.11    2.26
   3   2   0   65.36    2.33
  -4  -2   0  105.95    3.40
  -4  -2   0  102.62    3.40
   4   2   0  101.88    3.13
   4   2   0  106.38    3.60
   4   2   0  101.18    3.49
  -5  -2   0  120.50    3.88
  -5  -2   0  115.95    3.88
   5   2   0  118.07    3.97
   5   2   0  108.52    4.03
   5   2   0  118.01    3.57
  -6  -2   0   22.29    1.11
   6   2   0   25.93    1.29
   6   2   0   25.54    1.00
  -7  -2   0   58.35    2.27
   7   2   0   60.68    2.08
   7   2   0   60.28    2.43
  -8  -2   0   16.91    1.10
   8   2   0   17.24    1.22
  -9  -2   0    5.60    0.78
   9   2   0    6.05    0.94
 -10  -2   0    6.73    0.95
  10   2   0    4.08    0.96
 -11  -2   0    6.61    1.02
  11   2   0    4.08    1.12
  10  -3   0    1.81    1.08
   9  -3   0    4.18    1.11
  -9   3   0    6.19    1.16
   8  -3   0   10.17    1.17
  -8   3   0   10.29    1.19
   7  -3   0   20.77    1.49
  -7   3   0   24.99    1.60
   6  -3   0    1.11    0.65
  -6   3   0    0.42    0.60
   5  -3   0   30.06    1.50
  -5   3   0   28.29    1.53
   4  -3   0   26.82    1.28
  -4   3   0   21.79    1.28
   3  -3   0    9.08    0.73
  -3   3   0    8.45    0.62
  -3   3   0    9.82    0.79
   2  -3   0  112.16    3.89
  -2   3   0  116.55    3.61
  -2   3   0  111.90    3.90
   1  -3   0    6.64    0.51
  -1   3   0    6.69    0.49
  -1   3   0    5.91    0.50
   0  -3   0   76.92    2.62
   0   3   0   75.47    2.42
   0   3   0   77.75    2.62
  -1  -3   0   26.11    0.98
  -1  -3   0   27.00    0.99
   1   3   0   24.45    0.96
   1   3   0   24.70    0.88
   1   3   0   25.84    1.02
  -2  -3   0    3.07    0.22
  -2  -3   0    2.89    0.22
   2   3   0    2.37    0.32
   2   3   0    3.14    0.19
   2   3   0    3.09    0.35
   3   3   0    0.63    0.27
   3   3   0    0.61    0.33
  -4  -3   0   82.00    2.60
  -4  -3   0   78.16    2.61
   4   3   0   77.96    2.85
   4   3   0   80.38    2.77
  -5  -3   0    0.14    0.23
  -5  -3   0    0.43    0.25
   5   3   0    0.34    0.17
   5   3   0    0.09    0.38
   5   3   0    0.43    0.38
  -6  -3   0   57.63    1.98
  -6  -3   0   52.82    1.97
   6   3   0   55.37    2.18
   6   3   0   55.00    2.26
   6   3   0   54.22    1.79
  -7  -3   0   10.09    0.76
   7   3   0    9.64    0.85
   7   3   0    9.09    0.62
  -8  -3   0   22.89    1.22
   8   3   0   24.42    1.43
   8   3   0   23.09    1.07
  -9  -3   0    6.90    0.76
   9   3   0    5.54    0.85
 -10  -3   0   21.33    1.38
  10   3   0   22.50    1.62
 -11  -3   0   -0.78    0.69
  11   3   0    0.46    0.84
  12   3   0   11.86    1.42
   9  -4   0    0.63    0.91
  -9   4   0    0.59    0.95
   8  -4   0    9.36    1.19
  -8   4   0    8.17    1.22
   7  -4   0    1.94    0.86
  -7   4   0    2.60    0.91
   6  -4   0   39.14    2.08
  -6   4   0   43.77    2.10
   5  -4   0    1.36    0.61
  -5   4   0    1.25    0.68
   4  -4   0   68.62    2.76
  -4   4   0   71.15    2.82
   3  -4   0   15.45    1.05
  -3   4   0   15.03    0.90
  -3   4   0   13.39    1.00
   2  -4   0   74.28    2.79
  -2   4   0   77.19    2.82
  -2   4   0   75.36    2.55
   1  -4   0    2.74    0.47
  -1   4   0    1.55    0.35
  -1   4   0    2.08    0.40
   0  -4   0  187.97    6.12
   0   4   0  188.33    6.11
   0   4   0  182.89    5.67
  -1  -4   0   23.60    0.99
  -1  -4   0   24.02    1.01
   1   4   0   23.57    0.89
   1   4   0   22.30    0.95
  -2  -4   0   40.45    1.40
  -2  -4   0   38.02    1.39
   2   4   0   38.25    1.26
   2   4   0   38.48    1.49
   2   4   0   39.06    1.33
  -3  -4   0   44.23    1.57
  -3  -4   0   51.00    1.59
   3   4   0   46.21    1.80
   3   4   0   46.62    1.75
   4   4   0  100.86    3.60
   4   4   0  106.41    3.53
  -5  -4   0   44.33    1.44
  -5  -4   0   40.74    1.43
   5   4   0   40.88    1.79
   5   4   0   41.97    1.71
  -6  -4   0   15.37    0.71
  -6  -4   0   16.14    0.73
   6   4   0   15.49    1.04
   6   4   0   14.35    0.59
   6   4   0   14.22    0.98
  -7  -4   0   28.47    1.16
   7   4   0   27.97    1.03
   7   4   0   25.21    1.46
   7   4   0   28.05    1.44
  -8  -4   0    0.44    0.42
   8   4   0    0.80    0.60
   8   4   0    0.99    0.33
  -9  -4   0   17.39    1.07
   9   4   0   15.69    1.29
 -10  -4   0    5.01    0.72
  10   4   0    4.67    0.92
 -11  -4   0   16.58    1.27
  11   4   0   17.99    1.48
 -12  -4   0    1.06    0.73
  12   4   0    1.64    0.95
   8  -5   0    1.45    0.91
  -8   5   0    0.61    0.97
   7  -5   0    1.32    0.87
  -7   5   0    1.33    0.85
  -6   5   0   17.76    1.48
  -5   5   0   14.26    1.18
   4  -5   0    1.97    0.68
  -4   5   0    3.41    0.76
   3  -5   0   38.70    1.81
  -3   5   0   39.38    1.82
  -3   5   0   38.49    1.64
   2  -5   0   55.13    2.15
  -2   5   0   48.41    2.10
  -2   5   0   52.04    1.94
   1  -5   0   84.53    3.10
  -1   5   0   85.51    3.10
  -1   5   0   86.94    2.87
   0  -5   0  105.99    3.62
   0   5   0  101.24    3.32
   0   5   0  104.59    3.59
  -1  -5   0   76.30    2.69
   1   5   0   76.73    2.48
   1   5   0   76.13    2.66
  -2  -5   0   60.04    2.15
  -2  -5   0   66.98    2.18
   2   5   0   64.07    1.99
   2   5   0   62.58    2.23
   2   5   0   54.69    2.08
  -3  -5   0   95.80    3.27
  -3  -5   0  102.61    3.28
   3   5   0   97.19    3.44
   3   5   0  100.75    3.02
  -4  -5   0   57.03    1.96
  -4  -5   0   59.35    1.96
   4   5   0   60.01    2.20
   4   5   0   59.48    2.24
   5   5   0  116.74    3.92
   5   5   0  110.74    4.02
  -6  -5   0   10.12    0.50
  -6  -5   0    9.46    0.48
   6   5   0    9.64    0.86
   6   5   0   10.00    0.80
  -7  -5   0   33.95    1.28
   7   5   0   35.06    1.64
   7   5   0   32.87    1.14
   7   5   0   37.18    1.80
  -8  -5   0    2.39    0.41
   8   5   0    1.84    0.64
   8   5   0    1.81    0.32
   8   5   0    2.56    0.75
  -9  -5   0   47.95    1.88
   9   5   0   48.18    2.24
   9   5   0   48.14    1.72
 -10  -5   0   -0.11    0.49
  10   5   0    0.42    0.70
 -11  -5   0   24.40    1.37
  11   5   0   25.73    1.80
   8  -6   0    2.03    1.00
  -8   6   0    0.07    1.03
   7  -6   0   13.37    1.37
  -7   6   0   14.88    1.52
  -6   6   0    3.46    1.00
  -5   6   0   23.61    1.65
   4  -6   0    0.39    0.70
  -4   6   0    0.46    0.65
   3  -6   0   38.16    1.83
  -3   6   0   35.75    1.81
   2  -6   0    0.78    0.54
  -2   6   0    0.56    0.58
  -2   6   0    0.89    0.45
   1  -6   0   71.75    2.78
  -1   6   0   70.08    2.71
  -1   6   0   73.68    2.55
   0  -6   0    7.71    0.73
   0   6   0   10.11    0.68
   0   6   0    9.82    0.80
  -1  -6   0   61.30    2.29
   1   6   0   61.47    2.24
   1   6   0   59.14    2.08
  -2  -6   0   83.11    2.95
  -2  -6   0   87.32    2.96
   2   6   0   82.02    2.72
   2   6   0   85.63    2.99
  -3  -6   0   65.39    2.37
  -3  -6   0   71.64    2.40
   3   6   0   67.13    2.19
   3   6   0   68.48    2.52
  -4  -6   0  137.97    4.31
  -4  -6   0  128.50    4.30
   4   6   0  126.75    4.54
   4   6   0  131.57    3.98
  -5  -6   0  185.59    6.17
  -5  -6   0  204.05    6.17
   5   6   0  189.88    6.36
   5   6   0  187.26    6.49
   6   6   0   28.08    1.45
   6   6   0   26.66    1.36
   7   6   0   52.89    2.27
   7   6   0   49.52    2.15
  -8  -6   0   22.59    0.95
   8   6   0   20.96    1.46
   8   6   0   23.91    1.42
   8   6   0   25.03    0.88
  -9  -6   0   19.95    0.97
   9   6   0   22.53    1.47
   9   6   0   22.44    0.91
   9   6   0   22.01    1.60
 -10  -6   0    7.52    0.61
  10   6   0    7.89    1.05
  11   6   0    3.00    0.96
   7  -7   0    7.40    1.23
  -7   7   0    7.44    1.37
  -6   7   0    0.01    0.93
  -5   7   0    4.17    1.02
   4  -7   0    5.84    0.99
  -4   7   0    5.22    0.98
   3  -7   0    2.50    0.80
  -3   7   0    2.59    0.78
   2  -7   0   28.01    1.64
  -2   7   0   31.09    1.49
  -2   7   0   27.39    1.53
   1  -7   0    0.72    0.62
  -1   7   0    1.48    0.59
  -1   7   0    1.04    0.51
   0  -7   0   44.32    1.99
   0   7   0   46.81    1.81
   0   7   0   45.98    1.91
  -1  -7   0   -0.17    0.41
   1   7   0   -0.18    0.36
   1   7   0    0.49    0.39
  -2  -7   0   93.67    3.43
   2   7   0  100.88    3.37
   2   7   0   96.53    3.17
   2   7   0   98.75    3.44
  -3  -7   0    0.36    0.36
  -3  -7   0   -0.12    0.37
   3   7   0   -0.16    0.28
   3   7   0    0.61    0.42
  -4  -7   0   89.99    3.21
  -4  -7   0   99.17    3.24
   4   7   0   93.51    2.97
   4   7   0   95.69    3.44
  -5  -7   0   44.53    1.58
  -5  -7   0   44.27    1.58
   5   7   0   40.91    1.89
   5   7   0   41.84    1.42
  -6  -7   0   32.98    1.23
  -6  -7   0   35.32    1.25
   6   7   0   32.90    1.65
   6   7   0   34.57    1.62
   6   7   0   34.24    1.11
   7   7   0   20.01    1.32
   7   7   0   20.41    1.26
   8   7   0   17.74    1.33
   8   7   0   18.15    1.26
   9   7   0    3.52    0.90
   9   7   0    3.36    0.78
   9   7   0    2.67    0.33
  10   7   0   16.59    0.82
  10   7   0   16.61    1.33
  11   7   0    2.27    0.89
  -7   8   0    1.07    1.12
  -6   8   0    8.84    1.38
  -5   8   0    2.20    0.95
   4  -8   0   12.77    1.30
  -4   8   0   11.89    1.23
   3  -8   0   38.93    2.08
  -3   8   0   38.94    2.05
   2  -8   0   46.71    2.23
  -2   8   0   47.07    2.24
   1  -8   0   -0.86    0.62
  -1   8   0   -0.10    0.49
  -1   8   0    0.68    0.61
   0  -8   0   79.44    3.11
   0   8   0   80.51    3.03
   0   8   0   76.58    2.83
  -1  -8   0   50.66    2.19
   1   8   0   51.16    2.06
   1   8   0   51.90    2.10
   1   8   0   53.12    1.98
  -2  -8   0    9.28    0.79
   2   8   0   10.52    0.77
   2   8   0    9.86    0.74
   2   8   0    8.70    0.72
  -3  -8   0    3.64    0.58
   3   8   0    3.42    0.55
   3   8   0    2.63    0.43
  -4  -8   0   62.76    2.35
   4   8   0   64.71    2.54
   4   8   0   63.12    2.15
  -5  -8   0   25.96    1.15
   5   8   0   25.70    1.02
   5   8   0   26.28    1.42
  -6  -8   0   13.17    0.72
   6   8   0   13.20    0.63
   6   8   0   13.93    1.05
  -7  -8   0   69.20    2.29
   7   8   0   69.04    2.87
   7   8   0   66.16    2.73
   8   8   0    0.30    0.65
   8   8   0    2.59    0.74
   9   8   0   31.36    1.77
   9   8   0   31.25    1.93
  10   8   0    1.43    0.90
  10   8   0    1.19    0.77
  11   8   0   24.48    1.70
  -6   9   0    4.52    1.30
  -5   9   0   28.90    2.11
  -4   9   0    1.28    0.88
   3  -9   0   29.27    1.96
  -3   9   0   28.39    1.89
   2  -9   0   48.05    2.39
  -2   9   0   44.13    2.23
   1  -9   0    6.48    0.92
  -1   9   0    7.71    0.84
  -1   9   0    6.19    0.87
   0  -9   0    0.69    0.64
   0   9   0    0.79    0.52
   0   9   0    1.06    0.54
  -1  -9   0   26.69    1.54
   1   9   0   25.90    1.33
   1   9   0   27.50    1.33
  -2  -9   0    3.25    0.68
   2   9   0    3.08    0.55
   2   9   0    3.07    0.58
  -3  -9   0   47.61    2.01
   3   9   0   49.10    2.02
   3   9   0   46.11    1.84
  -4  -9   0    0.58    0.49
   4   9   0    0.57    0.52
   4   9   0    0.34    0.38
  -5  -9   0  103.63    3.68
   5   9   0  107.36    3.94
   5   9   0  107.42    3.41
  -6  -9   0   58.46    2.15
   6   9   0   56.79    2.49
   6   9   0   60.43    1.98
  -7  -9   0   24.26    1.05
   7   9   0   26.88    1.55
   7   9   0   25.04    0.97
   8   9   0    0.29    0.65
   9   9   0   44.49    2.17
   9   9   0   38.48    2.19
  10   9   0    4.71    0.93
  10   9   0    4.96    1.03
  11   9   0    5.27    1.04
   3 -10   0    8.39    1.29
   2 -10   0   -0.45    0.79
   1 -10   0   14.60    1.31
   0 -10   0   32.66    1.84
   0  10   0   36.05    1.75
   0  10   0   31.74    1.59
  -1 -10   0   13.12    1.15
   1  10   0   12.85    1.00
   1  10   0   12.47    0.98
  -2 -10   0    9.23    0.99
   2  10   0   11.72    0.93
   2  10   0   12.63    0.97
  -3 -10   0   35.74    1.78
   3  10   0   37.93    1.63
   3  10   0   37.17    1.73
  -4 -10   0   38.37    1.74
   4  10   0   36.11    1.81
   4  10   0   38.76    1.57
  -5 -10   0   -0.35    0.51
   5  10   0   -1.29    0.52
   5  10   0    0.23    0.39
  -6 -10   0    9.37    0.73
   6  10   0    7.65    0.94
   6  10   0   10.16    0.71
  -7 -10   0    0.94    0.44
   7  10   0    0.58    0.68
   7  10   0    0.48    0.35
   8  10   0   13.39    1.22
   9  10   0    5.67    1.00
  10  10   0   11.53    1.40
   3 -11   0    0.71    1.05
   2 -11   0    2.74    1.06
   1 -11   0   -0.95    0.82
   0 -11   0   14.67    1.38
  -1 -11   0    0.49    0.80
   1  11   0    0.19    0.62
   1  11   0    1.18    0.53
  -2 -11   0   38.44    2.00
   2  11   0   36.72    1.81
   2  11   0   40.01    1.79
  -3 -11   0   -0.98    0.59
   3  11   0    0.50    0.53
   3  11   0    0.87    0.54
  -4 -11   0   28.22    1.57
   4  11   0   27.94    1.38
   4  11   0   29.26    1.59
  -5 -11   0    0.21    0.57
   5  11   0   -0.07    0.62
   5  11   0    0.02    0.45
  -6 -11   0   11.13    0.87
   6  11   0    8.46    0.71
   6  11   0    9.09    0.96
  -7 -11   0    0.21    0.52
   7  11   0   -0.05    0.39
   7  11   0   -0.38    0.61
  -8 -11   0   32.23    1.36
   8  11   0   31.47    1.88
   9  11   0   -0.08    0.82
  10  11   0    9.68    1.27
   2 -12   0    5.92    1.29
   1 -12   0    0.49    1.00
   0 -12   0    0.65    0.96
  -1 -12   0   23.49    1.69
   1  12   0   23.36    1.56
  -2 -12   0    1.44    0.83
   2  12   0    0.41    0.68
  -3 -12   0   16.60    1.37
   3  12   0   16.98    1.20
   3  12   0   15.54    1.18
  -4 -12   0    0.59    0.74
   4  12   0    1.73    0.65
   4  12   0    0.80    0.68
  -5 -12   0   19.59    1.36
   5  12   0   22.95    1.26
   5  12   0   21.64    1.46
  -6 -12   0    1.54    0.66
   6  12   0    2.28    0.76
   6  12   0    1.23    0.53
  -7 -12   0   28.80    1.46
   7  12   0   28.07    1.78
  -8 -12   0    2.94    0.59
   8  12   0    2.36    0.89
   9  12   0   15.29    1.41
   2 -13   0    1.60    1.15
   1 -13   0   10.74    1.52
   0 -13   0    0.26    0.92
  -1 -13   0   11.62    1.38
  -2 -13   0   -0.35    0.84
   2  13   0    0.28    0.72
  -3 -13   0    2.63    0.90
   3  13   0    3.06    0.79
  -4 -13   0    1.80    0.84
   4  13   0    1.32    0.71
   4  13   0    0.13    0.60
  -5 -13   0    8.74    1.05
   5  13   0   11.57    1.10
   5  13   0   10.05    0.92
  -6 -13   0   15.07    1.26
   6  13   0   14.05    1.27
   6  13   0   13.54    1.05
  -7 -13   0   13.40    1.07
   7  13   0   15.15    1.27
  -8 -13   0    8.92    0.83
   8  13   0    9.82    1.25
   9  13   0   21.27    1.75
   0 -14   0    9.74    1.53
  -1 -14   0   -0.13    1.01
  -2 -14   0   11.26    1.40
  -3 -14   0    9.22    1.25
   3  14   0   10.49    1.14
  -4 -14   0   11.88    1.31
   4  14   0   11.26    1.11
  -5 -14   0    2.90    0.90
   5  14   0    1.46    0.71
  -6 -14   0   13.53    1.20
   6  14   0   15.84    1.33
  -7 -14   0    3.08    0.82
   7  14   0    3.17    0.91
  -8 -14   0   13.19    1.05
   8  14   0   13.02    1.37
  -2 -15   0   21.73    1.87
  -3 -15   0    1.98    1.04
  -4 -15   0    3.67    1.06
  -5 -15   0    1.11    0.84
  -6 -15   0    8.65    1.18
  -7 -15   0    4.78    0.97
  -8 -15   0    3.06    0.83
  -8 -15   1    8.10    1.00
  -7 -15   1   -0.92    0.76
  -6 -15   1   21.19    1.62
  -5 -15   1    1.70    0.91
  -4 -15   1   14.53    1.44
  -3 -15   1    2.43    1.04
  -2 -15   1   10.57    1.44
  -8 -14   1    8.57    0.95
   7  14  -1   11.11    1.31
  -7 -14   1   12.23    1.10
   6  14  -1    7.92    1.09
  -6 -14   1    6.35    1.03
   5  14  -1    6.84    1.04
  -5 -14   1    6.15    1.04
  -4 -14   1    2.16    0.95
  -3 -14   1    6.21    1.12
  -2 -14   1    2.97    1.10
  -1 -14   1    7.85    1.35
   0 -14   1    2.23    1.16
   1 -14   1    3.26    1.25
   8  13  -1    0.99    0.91
  -8 -13   1    0.34    0.62
   7  13  -1   28.51    1.89
  -7 -13   1   29.48    1.58
   6  13  -1    0.14    0.70
  -6 -13   1    0.11    0.72
   5  13  -1    2.28    0.84
  -5 -13   1    2.04    0.80
   4  13  -1    0.71    0.73
  -4 -13   1    1.13    0.83
   3  13  -1   14.11    1.17
  -3 -13   1   15.85    1.35
  -2 -13   1    2.41    0.99
  -1 -13   1    2.77    1.05
   0 -13   1    4.65    1.19
   1 -13   1    5.66    1.21
   2 -13   1   17.68    1.79
   9  12  -1    5.71    1.15
   8  12  -1    9.89    1.23
  -8 -12   1    8.67    0.77
   7  12  -1    0.34    0.75
  -7 -12   1    0.22    0.61
   6  12  -1    3.87    0.88
  -6 -12   1    3.34    0.75
   5  12  -1    0.74    0.69
  -5 -12   1    0.15    0.63
   4  12  -1   13.75    1.17
   4  12  -1   14.28    1.06
  -4 -12   1   13.50    1.13
   3  12  -1   11.14    0.99
   3  12  -1   11.58    1.06
  -3 -12   1    9.08    1.09
   2  12  -1    7.21    0.91
   2  12  -1    7.63    0.88
  -2 -12   1    7.29    1.05
  -1 -12   1    0.41    0.78
   0 -12   1    5.41    1.15
   1 -12   1    1.14    1.01
   2 -12   1    0.89    1.00
   9  11  -1    0.56    0.82
   8  11  -1   17.51    1.48
  -8 -11   1   17.24    0.95
   7  11  -1    0.63    0.75
  -7 -11   1   -0.11    0.49
   6  11  -1   13.37    1.19
  -6 -11   1   13.53    1.04
   5  11  -1    0.80    0.48
   5  11  -1    0.62    0.67
  -5 -11   1   -0.30    0.55
   4  11  -1   21.12    1.20
   4  11  -1   20.98    1.39
  -4 -11   1   20.43    1.30
   3  11  -1    0.88    0.62
   3  11  -1    1.29    0.56
  -3 -11   1    2.54    0.71
   2  11  -1   12.29    1.01
   2  11  -1   11.29    0.97
  -2 -11   1   12.71    1.13
   1  11  -1   32.40    1.70
   1  11  -1   33.99    1.71
  -1 -11   1   29.67    1.84
   0  11  -1    7.74    0.92
   0 -11   1    7.94    1.06
   1 -11   1    4.58    1.05
   2 -11   1    4.81    1.16
   3 -11   1    1.87    1.11
  10  10  -1    8.49    1.30
   9  10  -1    2.41    0.94
   8  10  -1    7.88    1.12
  -8 -10   1    9.05    0.64
   7  10  -1   37.02    1.97
  -7 -10   1   37.11    1.55
   6  10  -1   11.17    1.08
  -6 -10   1    9.85    0.76
   5  10  -1   25.41    1.52
   5  10  -1   21.88    1.09
  -5 -10   1   24.16    1.27
   4  10  -1   29.54    1.54
   4  10  -1   29.44    1.33
  -4 -10   1   27.26    1.43
   3  10  -1   69.37    2.56
   3  10  -1   69.43    2.79
  -3 -10   1   70.25    2.79
   2  10  -1    0.94    0.60
   2  10  -1    1.21    0.54
  -2 -10   1    0.33    0.61
   1  10  -1   50.08    2.18
   1  10  -1   47.86    2.05
  -1 -10   1   48.22    2.29
   0  10  -1    0.75    0.59
   0 -10   1    1.54    0.73
   1 -10   1   13.50    1.31
   2 -10   1    2.60    0.97
   3 -10   1   27.88    2.02
  10   9  -1    1.62    0.91
  10   9  -1    1.32    0.79
   9   9  -1    9.38    1.22
   8   9  -1    7.97    1.08
  -8  -9   1    7.78    0.56
   7   9  -1   51.62    2.41
  -7  -9   1   50.10    1.87
   6   9  -1   20.74    1.39
  -6  -9   1   19.44    1.01
   5   9  -1   59.63    2.04
   5   9  -1   59.47    2.53
  -5  -9   1   56.72    2.22
   4   9  -1   16.75    0.91
   4   9  -1   15.70    1.11
  -4  -9   1   17.51    1.05
   3   9  -1  139.55    4.85
   3   9  -1  135.10    4.40
  -3  -9   1  135.42    4.76
   2   9  -1   58.73    2.19
   2   9  -1   55.91    2.36
  -2  -9   1   60.02    2.41
   1   9  -1   11.46    0.89
  -1  -9   1   13.97    1.14
   0   9  -1    1.22    0.61
   0   9  -1    0.57    0.50
   0  -9   1    1.97    0.67
  -1   9  -1   31.95    1.71
  -1   9  -1   29.83    1.55
   1  -9   1   28.76    1.76
  -2   9  -1   14.87    1.26
   2  -9   1   14.65    1.32
  -3   9  -1    7.79    1.12
   3  -9   1    8.14    1.17
  -4   9  -1   15.86    1.51
   4  -9   1   13.27    1.44
  -5   9  -1    0.50    0.98
  -6   9  -1    8.24    1.39
  10   8  -1    2.27    0.97
  10   8  -1    3.77    0.88
   9   8  -1   15.27    1.22
   9   8  -1   15.46    1.35
   8   8  -1   27.46    1.74
   8   8  -1   27.78    1.61
   7   8  -1    4.72    0.80
  -7  -8   1    4.78    0.42
   6   8  -1    3.29    0.73
  -6  -8   1    3.94    0.44
   5   8  -1   15.00    1.10
   5   8  -1   14.89    0.74
  -5  -8   1   14.60    0.87
   4   8  -1   58.36    2.34
   4   8  -1   55.64    1.96
  -4  -8   1   57.59    2.16
   3   8  -1    7.36    0.59
   3   8  -1    7.06    0.74
  -3  -8   1    6.96    0.69
   2   8  -1   32.83    1.54
   2   8  -1   32.59    1.38
   2   8  -1   33.07    1.41
  -2  -8   1   31.08    1.52
   1   8  -1    0.12    0.43
   1   8  -1    0.39    0.45
  -1  -8   1   -0.46    0.53
   0   8  -1   47.51    1.93
   0   8  -1   48.22    2.08
   0  -8   1   50.17    2.18
  -1   8  -1    4.65    0.68
  -1   8  -1    3.93    0.72
   1  -8   1    4.58    0.81
  -2   8  -1   71.32    2.99
   2  -8   1   75.79    3.10
  -3   8  -1   -0.38    0.63
   3  -8   1    0.50    0.79
  -4   8  -1   17.01    1.41
   4  -8   1   20.82    1.65
  -5   8  -1   -0.04    0.78
  -6   8  -1    1.90    1.07
  -7   8  -1    2.13    1.14
   7  -8   1    0.60    0.98
  10   7  -1   24.62    1.88
  10   7  -1   27.95    1.72
   9   7  -1    5.94    0.91
   9   7  -1    8.14    1.06
  -9  -7   1    6.01    0.50
   8   7  -1   40.40    1.88
   8   7  -1   39.23    2.08
  -8  -7   1   38.89    1.46
   7   7  -1   11.97    0.96
   7   7  -1   11.02    1.02
  -7  -7   1   11.57    0.64
   6   7  -1   65.28    2.51
   6   7  -1   63.38    2.65
  -6  -7   1   64.50    2.22
   5   7  -1   26.27    0.98
   5   7  -1   25.36    1.45
  -5  -7   1   26.65    1.11
  -5  -7   1   27.82    1.13
   4   7  -1   41.85    1.53
   4   7  -1   42.08    1.90
  -4  -7   1   45.95    1.69
  -4  -7   1   47.31    1.71
   3   7  -1   64.03    2.15
   3   7  -1   66.38    2.50
  -3  -7   1   58.43    2.34
  -3  -7   1   68.34    2.37
   2   7  -1   16.54    0.87
   2   7  -1   15.66    0.86
   2   7  -1   15.77    1.00
  -2  -7   1   15.40    1.00
   1   7  -1   10.46    0.78
   1   7  -1   10.43    0.72
  -1  -7   1   10.89    0.82
   0   7  -1   10.14    0.75
   0   7  -1    8.71    0.75
   0  -7   1    8.27    0.82
  -1   7  -1   57.08    2.35
  -1   7  -1   57.14    2.14
   1  -7   1   55.07    2.35
  -2   7  -1    0.13    0.54
  -2   7  -1   -0.18    0.49
   2  -7   1   -0.28    0.63
  -3   7  -1   42.28    2.07
   3  -7   1   40.02    2.06
  -4   7  -1    0.77    0.77
   4  -7   1    1.79    0.74
  -5   7  -1   20.05    1.63
  -6   7  -1    3.67    1.00
  -7   7  -1   16.04    1.60
   7  -7   1   12.81    1.53
  10   6  -1   -0.06    0.69
 -10  -6   1    0.13    0.49
   9   6  -1   39.67    2.19
   9   6  -1   44.20    2.08
   9   6  -1   44.16    1.58
  -9  -6   1   43.15    1.68
   8   6  -1    4.35    0.73
   8   6  -1    4.04    0.82
   8   6  -1    3.96    0.39
  -8  -6   1    4.35    0.48
   7   6  -1   81.91    3.21
   7   6  -1   79.02    3.00
  -7  -6   1   78.51    2.71
   6   6  -1    8.03    0.84
   6   6  -1    8.93    0.74
  -6  -6   1    8.04    0.53
  -6  -6   1    7.87    0.55
   5   6  -1   92.88    3.27
   5   6  -1   88.77    3.39
  -5  -6   1   96.74    3.08
  -5  -6   1   89.42    3.06
   4   6  -1    0.69    0.24
   4   6  -1    0.47    0.46
  -4  -6   1    0.81    0.31
  -4  -6   1    0.38    0.28
   3   6  -1   34.10    1.24
   3   6  -1   33.76    1.54
  -3  -6   1   36.27    1.37
  -3  -6   1   34.14    1.36
   2   6  -1    3.18    0.50
   2   6  -1    2.66    0.37
  -2  -6   1    2.85    0.41
  -2  -6   1    3.45    0.44
   1   6  -1   29.20    1.23
   1   6  -1   27.55    1.16
  -1  -6   1   27.94    1.27
   0   6  -1   80.30    2.73
   0   6  -1   78.00    2.90
   0  -6   1   84.10    2.99
  -1   6  -1   30.37    1.34
  -1   6  -1   29.81    1.42
   1  -6   1   30.30    1.46
  -2   6  -1   15.63    0.95
  -2   6  -1   15.44    1.06
   2  -6   1   14.86    1.09
  -3   6  -1   32.31    1.71
   3  -6   1   33.20    1.73
  -4   6  -1   35.23    1.84
   4  -6   1   35.00    1.82
  -5   6  -1    7.30    1.03
  -6   6  -1    9.00    1.13
  -7   6  -1    9.23    1.31
   7  -6   1    9.41    1.27
  -8   6  -1    3.45    1.13
   8  -6   1    6.01    1.19
 -11  -5   1    6.62    0.82
  10   5  -1    2.48    0.78
 -10  -5   1    2.76    0.64
   9   5  -1   28.48    1.61
  -9  -5   1   27.91    1.33
   8   5  -1    1.81    0.36
   8   5  -1    3.19    0.75
   8   5  -1    2.27    0.63
  -8  -5   1    2.05    0.46
   7   5  -1   50.42    2.03
   7   5  -1   46.26    2.14
   7   5  -1   48.52    1.60
  -7  -5   1   44.95    1.74
   6   5  -1   55.71    1.82
   6   5  -1   55.73    2.38
   6   5  -1   57.67    2.25
  -6  -5   1   60.42    2.01
  -6  -5   1   58.20    2.01
   5   5  -1   18.42    1.01
   5   5  -1   19.31    1.11
  -5  -5   1   19.02    0.81
  -5  -5   1   17.67    0.78
   4   5  -1   37.36    1.49
   4   5  -1   35.54    1.58
   4   5  -1   35.52    1.17
  -4  -5   1   35.03    1.30
  -4  -5   1   37.58    1.31
   3   5  -1  134.74    4.18
   3   5  -1  136.12    4.70
  -3  -5   1  136.48    4.53
  -3  -5   1  146.64    4.54
   2   5  -1  169.94    5.63
   2   5  -1  167.55    5.12
   2   5  -1  162.11    5.46
  -2  -5   1  175.00    5.54
  -2  -5   1  170.52    5.54
   1   5  -1   11.37    0.64
   1   5  -1   11.15    0.67
  -1  -5   1   11.59    0.73
   0   5  -1   62.70    2.24
   0   5  -1   62.09    2.09
   0  -5   1   58.46    2.26
  -1   5  -1   88.88    2.96
  -1   5  -1   92.00    3.22
   1  -5   1   87.10    3.22
  -2   5  -1   32.79    1.36
  -2   5  -1   30.05    1.50
   2  -5   1   33.18    1.56
  -3   5  -1    1.18    0.53
   3  -5   1    0.18    0.50
  -4   5  -1   39.83    1.95
   4  -5   1   40.75    1.94
  -5   5  -1    0.09    0.63
   5  -5   1    0.34    0.61
  -6   5  -1   11.50    1.20
  -7   5  -1   -0.81    0.82
   7  -5   1   -0.95    0.70
  -8   5  -1    7.77    1.28
   8  -5   1    9.67    1.31
   9  -5   1    0.19    0.97
  11   4  -1    3.23    0.97
 -11  -4   1    3.02    0.81
  10   4  -1    2.14    0.80
 -10  -4   1    1.88    0.67
   9   4  -1    9.60    1.01
  -9  -4   1   11.99    0.96
   8   4  -1   16.05    1.29
   8   4  -1   17.71    1.26
   8   4  -1   18.99    0.88
  -8  -4   1   15.53    1.00
   7   4  -1    1.36    0.60
   7   4  -1    1.78    0.33
   7   4  -1    1.99    0.55
  -7  -4   1    1.10    0.41
   6   4  -1   60.25    2.00
   6   4  -1   61.41    2.51
   6   4  -1   62.26    2.38
  -6  -4   1   64.73    2.21
  -6  -4   1   63.05    2.21
   5   4  -1    0.13    0.17
   5   4  -1    0.64    0.37
   5   4  -1   -0.10    0.42
  -5  -4   1    0.48    0.28
  -5  -4   1    0.34    0.25
   4   4  -1   87.37    2.69
   4   4  -1   90.84    3.06
   4   4  -1   85.50    3.17
  -4  -4   1   92.89    2.94
  -4  -4   1   88.53    2.94
   3   4  -1    1.76    0.34
   3   4  -1    1.27    0.37
   3   4  -1    1.49    0.18
  -3  -4   1    1.49    0.25
  -3  -4   1    1.58    0.24
   2   4  -1  313.11   10.30
   2   4  -1  318.20    9.48
   2   4  -1  315.51   10.19
  -2  -4   1  342.37   10.23
  -2  -4   1  310.58   10.22
   1   4  -1    0.36    0.23
   1   4  -1    0.20    0.24
  -1  -4   1   -0.08    0.27
  -1  -4   1    0.31    0.28
   0   4  -1  201.45    6.50
   0   4  -1  196.81    6.04
   0  -4   1  198.46    6.52
  -1   4  -1   52.92    1.84
  -1   4  -1   53.66    2.00
   1  -4   1   52.19    2.02
  -2   4  -1  198.15    6.60
  -2   4  -1  200.53    6.10
   2  -4   1  195.09    6.60
  -3   4  -1   45.14    1.86
   3  -4   1   42.13    1.84
  -4   4  -1   46.93    2.04
   4  -4   1   44.70    2.00
  -5   4  -1    0.96    0.63
   5  -4   1    0.19    0.55
  -6   4  -1   23.98    1.57
   6  -4   1   23.54    1.50
  -7   4  -1    8.95    1.12
   7  -4   1   11.40    1.19
  -8   4  -1    6.14    1.10
   8  -4   1    5.26    1.07
  -9   4  -1    1.41    0.99
   9  -4   1    0.21    0.94
  11   3  -1    0.19    0.81
 -11  -3   1   -1.41    0.71
  10   3  -1   15.33    1.32
 -10  -3   1   17.37    1.31
   9   3  -1    4.68    0.86
  -9  -3   1    4.72    0.75
   8   3  -1   22.92    1.42
  -8  -3   1   25.25    1.29
   7   3  -1   33.11    1.60
   7   3  -1   35.05    1.70
   7   3  -1   32.73    1.29
  -7  -3   1   32.83    1.45
   6   3  -1    8.63    0.80
   6   3  -1    9.64    0.74
   6   3  -1    8.51    0.56
  -6  -3   1    8.84    0.68
   5   3  -1    0.94    0.39
   5   3  -1    0.33    0.40
   5   3  -1    1.14    0.23
  -5  -3   1    0.78    0.32
  -5  -3   1    0.25    0.29
   4   3  -1    5.94    0.49
   4   3  -1    5.80    0.55
   4   3  -1    5.44    0.32
  -4  -3   1    5.95    0.45
  -4  -3   1    6.62    0.45
   3   3  -1  124.22    3.73
   3   3  -1  122.59    4.06
   3   3  -1  119.62    4.20
  -3  -3   1  130.56    4.04
  -3  -3   1  125.32    4.04
   2   3  -1    8.16    0.38
   2   3  -1    9.50    0.53
   2   3  -1    9.19    0.40
   2   3  -1    8.97    0.61
  -2  -3   1    9.18    0.49
  -2  -3   1    8.83    0.47
   1   3  -1  186.19    5.66
   1   3  -1  187.36    6.09
  -1  -3   1  190.73    6.12
  -1  -3   1  193.82    6.11
   0   3  -1    0.91    0.26
   0   3  -1    1.00    0.30
   0  -3   1    0.87    0.32
  -1   3  -1  339.61    9.74
  -1   3  -1  319.67   10.49
   1  -3   1  319.09   10.50
  -2   3  -1    9.29    0.60
  -2   3  -1   10.12    0.70
   2  -3   1   10.43    0.76
  -3   3  -1  153.57    5.22
   3  -3   1  154.40    5.22
  -4   3  -1   12.17    0.94
   4  -3   1   14.97    0.99
  -5   3  -1    6.75    0.80
   5  -3   1    6.55    0.71
  -6   3  -1    4.96    0.80
   6  -3   1    3.95    0.72
  -7   3  -1    6.76    0.88
   7  -3   1    4.81    0.87
  -8   3  -1    0.34    0.80
   8  -3   1    0.43    0.81
  -9   3  -1   -0.57    0.87
   9  -3   1    1.91    0.98
  10  -3   1    1.47    1.02
  11   2  -1    4.60    1.02
 -11  -2   1    2.03    0.93
  10   2  -1   -1.46    0.71
 -10  -2   1    0.36    0.73
   9   2  -1   20.55    1.45
  -9  -2   1   19.00    1.35
   8   2  -1    0.26    0.59
  -8  -2   1    0.61    0.55
   7   2  -1   49.15    1.79
   7   2  -1   48.39    2.10
  -7  -2   1   48.08    1.99
   6   2  -1    4.43    0.44
   6   2  -1    5.47    0.65
   6   2  -1    5.10    0.62
  -6  -2   1    4.64    0.56
   5   2  -1   16.88    1.05
   5   2  -1   16.58    0.74
   5   2  -1   16.94    0.93
  -5  -2   1   17.39    0.88
  -5  -2   1   14.85    0.85
   4   2  -1    1.70    0.35
   4   2  -1    2.07    0.40
   4   2  -1    1.69    0.23
  -4  -2   1    1.89    0.32
  -4  -2   1    1.68    0.30
   3   2  -1  382.77   12.46
   3   2  -1  385.25   12.20
   3   2  -1  376.60   11.48
  -3  -2   1  396.01   12.41
  -3  -2   1  405.91   12.39
   2   2  -1   26.65    1.12
   2   2  -1   28.01    1.04
   2   2  -1   29.42    0.97
   2   2  -1   28.20    0.90
  -2  -2   1   30.09    1.02
  -2  -2   1   27.73    1.02
  -1  -2   1   91.90    2.96
  -1  -2   1   91.41    3.02
  -1  -2   1   94.57    3.03
   0   2  -1    1.34    0.20
   0   2  -1    1.89    0.25
   0  -2   1    1.40    0.24
   0  -2   1    1.39    0.26
  -1   2  -1   95.58    3.19
   1  -2   1   93.76    3.19
   1  -2   1   96.28    2.96
  -2   2  -1   69.29    2.48
   2  -2   1   69.95    2.29
   2  -2   1   73.63    2.49
  -3   2  -1   12.47    0.78
   3  -2   1   10.73    0.72
   3  -2   1   13.31    0.68
  -4   2  -1   77.72    2.83
   4  -2   1   75.74    2.57
   4  -2   1   75.53    2.78
  -5   2  -1   18.09    1.19
   5  -2   1   20.81    1.12
   5  -2   1   20.66    1.23
  -6   2  -1   44.62    2.00
   6  -2   1   42.73    1.98
  -7   2  -1   29.09    1.66
   7  -2   1   31.25    1.71
  -8   2  -1   16.71    1.39
   8  -2   1   18.33    1.44
  -9   2  -1    9.04    1.17
   9  -2   1   11.03    1.28
 -10   2  -1    8.48    1.22
  10  -2   1    9.14    1.32
  11   1  -1   10.04    1.28
  10   1  -1   22.13    1.68
 -10  -1   1   20.52    1.59
   9   1  -1   26.41    1.70
  -9  -1   1   26.76    1.65
   8   1  -1   35.45    1.84
  -8  -1   1   35.00    1.77
   7   1  -1   26.76    1.45
  -7  -1   1   25.38    1.38
   6   1  -1   54.03    1.99
   6   1  -1   58.41    2.27
  -6  -1   1   57.97    2.23
   5   1  -1   44.58    1.62
   5   1  -1   41.42    1.78
   5   1  -1   44.45    1.57
  -5  -1   1   45.41    1.77
  -5  -1   1   44.58    1.76
   4   1  -1   97.30    3.46
   4   1  -1  101.78    3.40
   4   1  -1   98.69    3.31
   4   1  -1   95.20    3.11
  -4  -1   1  107.06    3.40
  -4  -1   1   99.20    3.39
   3   1  -1  344.45   10.97
   3   1  -1  348.49   11.12
   3   1  -1  349.14   10.32
   3   1  -1  347.99   11.19
  -3  -1   1  356.28   11.14
  -3  -1   1  347.70   11.16
   2   1  -1  721.19   21.08
   2   1  -1  697.67   22.37
   2   1  -1  621.94   22.56
   2   1  -1  726.13   22.54
  -2  -1   1  721.05   22.79
  -2  -1   1  750.20   22.53
  -2  -1   1  754.62   22.73
   1   1  -1    4.94    0.39
   1   1  -1    6.77    0.30
  -1  -1   1    4.80    0.31
  -1  -1   1    4.79    0.25
  -1  -1   1    5.07    0.32
  -1  -1   1    5.24    0.28
  -1  -1   1    4.93    0.35
   0   1  -1  153.95    4.86
   0  -1   1  150.36    4.85
   0  -1   1  148.69    4.85
  -1   1  -1   38.33    1.35
  -1   1  -1   38.96    1.35
   1  -1   1   37.10    1.34
  -2   1  -1  248.02    7.98
   2  -1   1  247.70    7.98
  -3   1  -1   86.13    3.08
   3  -1   1   91.97    3.07
   3  -1   1   92.17    2.85
  -4   1  -1   45.67    1.86
   4  -1   1   48.82    1.88
   4  -1   1   49.86    1.72
   4  -1   1   48.28    1.81
  -5   1  -1    8.43    0.72
   5  -1   1   10.12    0.77
   5  -1   1    8.80    0.72
   5  -1   1    8.72    0.62
  -6   1  -1   68.31    2.69
   6  -1   1   70.21    2.74
  -7   1  -1   13.82    1.11
   7  -1   1   12.76    1.11
  -8   1  -1   42.82    2.05
   8  -1   1   42.13    2.18
  -9   1  -1    9.19    1.11
   9  -1   1    9.47    1.14
 -10   1  -1   10.98    1.27
  10  -1   1   13.76    1.42
  11  -1   1    6.62    1.31
  11   0  -1    3.92    1.13
  10   0  -1   19.51    1.58
 -10   0   1   19.40    1.56
   9   0  -1    0.24    0.73
  -9   0   1   -1.27    0.72
   8   0  -1   41.06    2.01
  -8   0   1   36.31    1.89
   7   0  -1    2.17    0.68
  -7   0   1    2.71    0.65
   6   0  -1   29.86    1.52
  -6   0   1   30.17    1.46
   5   0  -1   12.65    0.91
   5   0  -1   11.78    0.72
  -5   0   1   13.03    0.91
   4   0  -1  287.73    9.27
   4   0  -1  288.98    8.62
   4   0  -1  283.94    9.19
  -4   0   1  287.63    9.35
   3   0  -1  104.76    3.52
   3   0  -1  103.57    3.53
   3   0  -1  104.52    3.57
   3   0  -1  110.77    3.30
  -3   0   1  102.75    3.57
  -3   0   1  110.06    3.57
   2   0  -1  144.93    4.72
   2   0  -1  143.72    4.37
   2   0  -1  143.30    4.72
  -2   0   1  143.59    4.74
  -2   0   1  143.72    4.36
  -2   0   1  144.00    4.73
  -2   0   1  152.92    4.72
   1   0  -1  105.98    3.46
   1   0  -1  117.86    3.75
   1   0  -1  119.16    3.73
  -1   0   1  115.70    3.46
  -1   0   1  118.46    3.75
  -1   0   1  119.71    3.72
  -1   0   1  111.17    3.75
  -1   0  -1   99.32    3.14
  -1   0  -1   92.99    3.14
   1   0   1   97.45    3.14
   1   0   1   98.10    3.09
  -2   0  -1  346.60   11.16
  -2   0  -1  357.47   11.15
   2   0   1  354.82   11.15
   2   0   1  342.14   10.97
  -3   0  -1   47.65    1.75
  -3   0  -1   51.27    1.77
   3   0   1   48.05    1.79
   3   0   1   48.69    1.72
  -4   0  -1   10.77    0.70
  -4   0  -1   10.51    0.68
   4   0   1   12.12    0.61
   4   0   1   12.69    0.77
   4   0   1   10.26    0.60
  -5   0  -1   14.74    0.87
  -5   0  -1   12.54    0.88
   5   0   1   12.79    0.90
   5   0   1   14.71    0.75
  -6   0  -1   30.39    1.45
   6   0   1   34.50    1.33
   6   0   1   28.49    1.56
  -7   0  -1   62.46    2.44
   7   0   1   55.54    2.49
  -8   0  -1   -0.07    0.58
   8   0   1    0.68    0.68
  -9   0  -1   33.62    1.81
   9   0   1   30.42    1.84
 -10   0  -1    1.49    0.83
  10   0   1    1.19    0.89
 -11   0  -1   18.90    1.51
  11   0   1   16.31    1.64
  10  -1  -1   -0.43    0.82
 -10   1   1    0.54    0.95
   9  -1  -1    5.93    1.04
  -9   1   1    7.74    1.06
   8  -1  -1    1.25    0.78
  -8   1   1    1.50    0.79
   7  -1  -1   24.51    1.51
  -7   1   1   22.70    1.44
   6  -1  -1    6.71    0.81
  -6   1   1    6.66    0.78
   5  -1  -1   77.17    2.47
   5  -1  -1   67.72    2.66
   5  -1  -1   72.33    2.61
  -5   1   1   62.76    2.64
   4  -1  -1   49.53    1.75
   4  -1  -1   45.54    1.91
   4  -1  -1   48.61    1.87
  -4   1   1   49.97    1.94
   3  -1  -1  233.24    7.60
  -3   1   1  240.79    7.64
  -3   1   1  225.96    7.01
   2  -1  -1    6.77    0.48
  -2   1   1    7.54    0.56
  -2   1   1    6.60    0.48
  -2   1   1    6.96    0.48
   1  -1  -1   13.27    0.65
  -1   1   1   11.80    0.63
  -1   1   1   13.43    0.53
  -1   1   1   12.37    0.57
   0  -1  -1   34.71    1.22
   0  -1  -1   34.98    1.12
   0  -1  -1   35.46    1.23
   0   1   1   36.46    1.22
   0   1   1   36.00    1.14
   0   1   1   34.29    1.23
  -1  -1  -1  158.71    5.01
  -1  -1  -1  157.33    4.99
  -1  -1  -1  153.73    5.02
   1   1   1  153.85    4.92
  -2  -1  -1   62.56    2.19
  -2  -1  -1   69.48    2.20
  -2  -1  -1   65.66    2.26
   2   1   1   68.71    2.24
   2   1   1   68.69    2.21
  -3  -1  -1    6.25    0.44
  -3  -1  -1    5.79    0.42
   3   1   1    6.04    0.47
   3   1   1    7.11    0.37
  -4  -1  -1    0.73    0.29
  -4  -1  -1    0.65    0.28
   4   1   1    0.97    0.33
   4   1   1    0.55    0.22
  -5  -1  -1  218.14    7.36
  -5  -1  -1  236.03    7.38
   5   1   1  221.14    7.37
   5   1   1  229.54    6.82
  -6  -1  -1    0.72    0.43
   6   1   1    0.96    0.46
   6   1   1   -0.10    0.30
  -7  -1  -1   30.79    1.50
   7   1   1   33.45    1.68
   7   1   1   34.09    1.37
  -8  -1  -1    1.47    0.61
   8   1   1    1.27    0.64
  -9  -1  -1    9.12    0.94
   9   1   1    7.93    1.07
 -10  -1  -1    0.38    0.72
  10   1   1    1.36    0.87
 -11  -1  -1    1.31    0.85
  11   1   1    1.13    0.93
  10  -2  -1    0.12    0.92
   9  -2  -1    7.63    1.18
  -9   2   1    8.30    1.19
   8  -2  -1    1.80    0.83
  -8   2   1    2.55    0.85
   7  -2  -1    5.41    0.85
  -7   2   1    6.25    0.93
   6  -2  -1   -0.38    0.56
  -6   2   1   -0.31    0.58
   5  -2  -1   34.37    1.63
   5  -2  -1   31.18    1.52
  -5   2   1   33.77    1.64
   4  -2  -1   39.96    1.71
   4  -2  -1   42.04    1.57
  -4   2   1   41.72    1.77
  -4   2   1   38.12    1.54
   3  -2  -1    1.90    0.40
   3  -2  -1    1.72    0.32
  -3   2   1    2.33    0.47
  -3   2   1    2.11    0.35
   2  -2  -1  106.48    3.72
   2  -2  -1  110.52    3.45
  -2   2   1  111.51    3.45
  -2   2   1  110.59    3.60
  -2   2   1  108.96    3.74
   1  -2  -1   99.92    3.11
   1  -2  -1  102.66    3.38
  -1   2   1  101.09    3.38
  -1   2   1   96.40    3.10
   0  -2  -1  291.36    9.62
   0   2   1  304.04    8.93
   0   2   1  307.56    9.63
  -1  -2  -1  129.06    4.11
  -1  -2  -1  124.89    4.10
  -1  -2  -1  132.36    4.09
   1   2   1  118.80    4.09
   1   2   1  129.43    4.09
  -2  -2  -1  188.16    6.09
  -2  -2  -1  202.89    6.16
  -2  -2  -1  181.45    6.16
   2   2   1  191.26    6.02
   2   2   1  182.99    6.10
  -3  -2  -1  112.59    3.54
  -3  -2  -1  104.94    3.54
   3   2   1  109.93    3.67
   3   2   1  108.41    3.60
  -4  -2  -1  164.93    5.42
  -4  -2  -1  176.58    5.43
   4   2   1  165.82    5.49
   4   2   1  165.23    5.58
  -5  -2  -1   81.41    2.68
  -5  -2  -1   76.80    2.67
   5   2   1   77.78    2.83
  -6  -2  -1   34.74    1.38
  -6  -2  -1   32.95    1.36
   6   2   1   33.57    1.23
   6   2   1   30.63    1.53
  -7  -2  -1   -0.28    0.43
   7   2   1   -0.04    0.53
   7   2   1    0.18    0.33
  -8  -2  -1   27.71    1.44
   8   2   1   32.27    1.65
  -9  -2  -1    0.63    0.57
   9   2   1    1.46    0.76
 -10  -2  -1    4.73    0.80
  10   2   1    5.19    1.00
 -11  -2  -1   -0.50    0.75
  11   2   1   -1.63    0.81
  12   2   1    2.27    1.08
   9  -3  -1    6.72    1.22
  -9   3   1    5.84    1.15
   8  -3  -1    8.13    1.15
  -8   3   1    7.85    1.15
   7  -3  -1    1.69    0.73
  -7   3   1    0.57    0.79
   6  -3  -1   23.60    1.47
  -6   3   1   27.28    1.62
   5  -3  -1    0.92    0.53
  -5   3   1    0.66    0.56
   4  -3  -1   21.26    1.23
  -4   3   1   21.02    1.29
   3  -3  -1   25.73    1.27
  -3   3   1   22.74    1.26
  -3   3   1   23.70    1.07
   2  -3  -1  145.76    5.08
  -2   3   1  153.78    5.10
  -2   3   1  153.24    4.71
   1  -3  -1   23.83    1.07
  -1   3   1   23.91    0.97
  -1   3   1   23.88    1.07
   0  -3  -1   56.35    2.01
   0   3   1   56.10    1.98
   0   3   1   54.38    1.83
  -1  -3  -1  120.59    3.88
  -1  -3  -1  119.02    3.88
   1   3   1  114.60    3.58
   1   3   1  116.00    3.86
   1   3   1  119.37    3.83
  -2  -3  -1   88.44    2.90
  -2  -3  -1   92.09    2.90
  -2  -3  -1   90.39    2.98
   2   3   1   87.89    2.96
   2   3   1   83.71    2.94
   3   3   1   44.65    1.70
   3   3   1   46.72    1.71
   4   3   1  102.93    3.53
   4   3   1  101.13    3.46
  -5  -3  -1   51.44    1.79
  -5  -3  -1   55.90    1.81
   5   3   1   50.23    2.01
   5   3   1   53.03    2.09
  -6  -3  -1   13.39    0.71
  -6  -3  -1   14.27    0.74
   6   3   1   13.29    0.92
  -7  -3  -1   19.08    0.96
   7   3   1   17.90    1.14
   7   3   1   18.10    0.83
  -8  -3  -1   36.19    1.58
   8   3   1   37.56    1.43
   8   3   1   37.93    1.87
  -9  -3  -1    6.61    0.72
   9   3   1    7.09    0.97
 -10  -3  -1    0.75    0.63
  10   3   1    2.24    0.86
 -11  -3  -1    0.82    0.69
  11   3   1    1.06    0.88
 -12  -3  -1    4.73    0.91
  12   3   1    5.68    1.21
   9  -4  -1    1.47    1.02
  -9   4   1   -1.25    0.96
   8  -4  -1   13.66    1.44
  -8   4   1   15.42    1.49
   7  -4  -1    3.14    0.93
  -7   4   1    4.30    1.00
   6  -4  -1   20.20    1.42
  -6   4   1   20.02    1.53
  -5   4   1    0.74    0.64
   4  -4  -1   68.32    2.74
  -4   4   1   68.14    2.75
   3  -4  -1    5.93    0.69
  -3   4   1    6.55    0.59
  -3   4   1    6.22    0.76
   2  -4  -1  137.00    4.83
  -2   4   1  140.90    4.47
  -2   4   1  144.09    4.86
   1  -4  -1   12.63    0.80
  -1   4   1   11.65    0.73
  -1   4   1   11.20    0.78
   0  -4  -1    7.86    0.59
   0   4   1    7.70    0.57
   0   4   1    8.85    0.67
  -1  -4  -1   65.03    2.35
   1   4   1   68.58    2.34
   1   4   1   68.73    2.28
   1   4   1   66.38    2.16
  -2  -4  -1  226.19    7.64
  -2  -4  -1  253.07    7.65
   2   4   1  239.15    7.09
   2   4   1  235.92    7.67
   2   4   1  235.70    7.61
  -3  -4  -1  244.99    7.48
  -3  -4  -1  231.29    7.49
   3   4   1  233.84    7.59
   3   4   1  224.88    7.49
   4   4   1    4.59    0.49
   4   4   1    3.84    0.46
   5   4   1   64.10    2.48
   5   4   1   67.62    2.46
  -6  -4  -1   31.95    1.15
  -6  -4  -1   33.77    1.16
   6   4   1   29.15    1.48
   6   4   1   29.97    1.50
  -7  -4  -1  103.07    3.47
   7   4   1  103.86    3.19
   7   4   1  103.98    3.77
  -8  -4  -1   -0.38    0.37
   8   4   1    0.35    0.58
   8   4   1    0.28    0.30
  -9  -4  -1   21.67    1.12
   9   4   1   19.77    1.37
 -10  -4  -1    0.43    0.54
  10   4   1    0.33    0.76
 -11  -4  -1   20.91    1.34
  11   4   1   21.78    1.70
  12   4   1    0.36    0.94
   8  -5  -1    2.22    1.02
  -8   5   1    3.91    1.12
   7  -5  -1    8.24    1.17
  -7   5   1    8.62    1.25
  -6   5   1   -0.13    0.81
  -5   5   1   40.65    2.13
   4  -5  -1   10.39    1.00
  -4   5   1   12.19    1.10
   3  -5  -1  124.48    4.49
  -3   5   1  124.12    4.53
   2  -5  -1    0.62    0.56
  -2   5   1    0.14    0.48
  -2   5   1    0.22    0.40
   1  -5  -1   80.20    2.93
  -1   5   1   78.00    2.93
   0  -5  -1   11.14    0.80
   0   5   1   13.02    0.71
   0   5   1   12.09    0.79
  -1  -5  -1  248.13    8.22
   1   5   1  257.25    8.21
   1   5   1  251.70    8.13
   1   5   1  253.84    7.63
  -2  -5  -1   28.24    1.15
  -2  -5  -1   28.63    1.16
   2   5   1   26.75    1.02
   2   5   1   26.24    1.12
  -3  -5  -1   76.67    2.65
  -3  -5  -1   80.72    2.66
   3   5   1   79.77    2.45
   3   5   1   78.70    2.77
  -4  -5  -1    1.87    0.23
  -4  -5  -1    1.62    0.22
   4   5   1    1.00    0.37
   4   5   1    1.30    0.42
   5   5   1   60.81    2.37
   5   5   1   60.90    2.30
   6   5   1    5.87    0.71
   6   5   1    6.00    0.65
  -7  -5  -1   31.06    1.07
  -7  -5  -1   26.18    1.04
   7   5   1   28.54    1.51
   7   5   1   27.51    1.43
  -8  -5  -1   39.54    1.51
   8   5   1   40.93    1.39
   8   5   1   43.74    1.97
  -9  -5  -1    4.95    0.53
   9   5   1    3.59    0.80
   9   5   1    5.40    0.46
 -10  -5  -1   10.19    0.85
  10   5   1   12.10    1.20
 -11  -5  -1   17.77    1.13
  11   5   1   18.70    1.51
  12   5   1   14.24    1.45
   8  -6  -1    0.76    0.97
  -8   6   1    0.51    1.06
   7  -6  -1    2.36    1.00
  -7   6   1    1.62    1.04
  -6   6   1   14.62    1.45
  -5   6   1   29.44    1.87
   4  -6  -1   24.64    1.62
  -4   6   1   24.86    1.58
   3  -6  -1   29.68    1.68
  -3   6   1   28.69    1.67
   2  -6  -1   43.83    2.02
  -2   6   1   43.60    2.00
  -2   6   1   41.92    1.76
   1  -6  -1   28.72    1.46
  -1   6   1   24.92    1.39
  -1   6   1   25.25    1.22
   0  -6  -1    9.97    0.78
   0   6   1   11.51    0.86
   0   6   1    9.78    0.76
  -1  -6  -1   76.76    2.89
   1   6   1   79.56    2.84
   1   6   1   82.40    2.66
   1   6   1   81.09    2.77
  -2  -6  -1   43.94    1.76
   2   6   1   45.25    1.71
   2   6   1   45.18    1.61
   2   6   1   46.76    1.70
  -3  -6  -1    0.33    0.30
  -3  -6  -1   -0.02    0.31
   3   6   1   -0.25    0.31
   3   6   1    0.18    0.24
  -4  -6  -1   98.63    3.16
  -4  -6  -1   92.33    3.16
   4   6   1   91.89    3.35
   4   6   1   95.12    2.91
  -5  -6  -1    0.93    0.23
  -5  -6  -1    1.03    0.24
   5   6   1    0.70    0.44
   5   6   1    0.60    0.45
   6   6   1   84.64    3.16
   6   6   1   87.63    3.27
   7   6   1    2.38    0.67
   7   6   1    3.38    0.62
   8   6   1   33.34    1.80
   8   6   1   32.45    1.71
  -9  -6  -1    0.37    0.30
   9   6   1   -0.13    0.27
   9   6   1   -0.19    0.59
  10   6   1   19.39    0.88
  10   6   1   17.91    1.46
  11   6   1    0.13    0.80
  12   6   1    3.87    1.07
   7  -7  -1   -0.02    0.93
  -7   7   1   -1.40    0.97
  -6   7   1   13.30    1.42
  -5   7   1    0.27    0.86
   4  -7  -1    6.51    1.03
  -4   7   1    4.36    0.99
   3  -7  -1   17.00    1.32
  -3   7   1   15.04    1.22
   2  -7  -1   16.27    1.26
  -2   7   1   18.69    1.31
   1  -7  -1   29.66    1.59
  -1   7   1   25.27    1.32
  -1   7   1   28.49    1.51
   0  -7  -1   32.56    1.63
   0   7   1   31.07    1.54
   0   7   1   34.91    1.44
  -1  -7  -1    8.69    0.75
   1   7   1   10.23    0.76
   1   7   1   10.85    0.81
   1   7   1    9.55    0.69
  -2  -7  -1  153.75    5.22
   2   7   1  152.40    5.13
   2   7   1  152.91    4.82
   2   7   1  156.10    5.15
  -3  -7  -1   57.99    2.34
  -3  -7  -1   70.44    2.42
   3   7   1   66.49    2.43
   3   7   1   66.29    2.26
   3   7   1   63.94    2.19
  -4  -7  -1   43.10    1.67
  -4  -7  -1   45.27    1.70
   4   7   1   44.15    1.52
   4   7   1   43.92    1.82
  -5  -7  -1   11.57    0.69
  -5  -7  -1   11.74    0.65
   5   7   1   12.10    0.56
   5   7   1   10.75    0.90
  -6  -7  -1   17.26    0.74
  -6  -7  -1   19.14    0.77
   6   7   1   18.93    1.20
   6   7   1   17.32    1.14
   7   7   1   10.48    0.96
   7   7   1   12.99    1.00
   8   7   1    5.25    0.82
   8   7   1    6.18    0.86
   9   7   1   14.42    1.16
   9   7   1   14.95    1.26
  10   7   1   11.25    1.17
  10   7   1    9.78    0.58
  11   7   1   12.46    1.28
  12   7   1   -0.85    0.90
  -6   8   1    7.06    1.35
  -5   8   1    5.22    1.18
   4  -8  -1    6.12    1.14
  -4   8   1    6.30    1.13
   3  -8  -1   15.76    1.42
  -3   8   1   18.07    1.42
   2  -8  -1    0.81    0.78
  -2   8   1    1.65    0.69
   1  -8  -1   22.20    1.50
  -1   8   1   24.09    1.32
  -1   8   1   19.47    1.36
   0  -8  -1    7.64    0.90
   0   8   1    8.02    0.77
   0   8   1    8.57    0.83
  -1  -8  -1  104.66    3.79
   1   8   1   98.61    3.47
   1   8   1  104.40    3.72
   1   8   1  104.83    3.58
  -2  -8  -1    0.07    0.50
   2   8   1    0.47    0.39
   2   8   1   -0.19    0.38
   2   8   1    0.05    0.41
  -3  -8  -1  210.04    6.86
   3   8   1  202.67    6.33
   3   8   1  202.91    6.83
  -4  -8  -1   32.85    1.45
   4   8   1   33.38    1.31
   4   8   1   36.18    1.58
  -5  -8  -1   67.31    2.38
   5   8   1   64.77    2.20
   5   8   1   69.38    2.65
  -6  -8  -1    0.34    0.32
   6   8   1    0.47    0.54
   6   8   1    0.19    0.25
   7   8   1   92.36    3.57
   7   8   1   91.91    3.51
   8   8   1    6.14    0.87
   8   8   1    6.50    0.91
   9   8   1   39.25    2.07
   9   8   1   43.98    2.19
  10   8   1    1.16    0.78
  11   8   1   10.41    1.21
  12   8   1    7.06    1.15
  -6   9   1    1.49    1.15
  -5   9   1    6.08    1.29
  -4   9   1    1.34    0.98
   3  -9  -1   15.23    1.48
  -3   9   1   13.37    1.37
   2  -9  -1    1.63    0.92
  -2   9   1   -0.06    0.76
   1  -9  -1    9.32    1.11
  -1   9   1    9.34    1.02
   0  -9  -1   -0.54    0.67
   0   9   1    1.19    0.60
   0   9   1    0.40    0.57
   0   9   1   -0.38    0.40
  -1  -9  -1   27.58    1.54
   1   9   1   29.13    1.43
   1   9   1   27.91    1.31
  -2  -9  -1   86.03    3.34
   2   9   1   88.08    3.18
   2   9   1   90.42    3.09
  -3  -9  -1    1.01    0.56
   3   9   1    2.07    0.47
   3   9   1    0.85    0.49
  -4  -9  -1   14.62    1.00
   4   9   1   14.89    1.03
   4   9   1   15.20    0.87
  -5  -9  -1   19.35    1.04
   5   9   1   16.77    1.16
   5   9   1   18.88    0.91
  -6  -9  -1   31.06    1.29
   6   9   1   29.80    1.56
   6   9   1   29.42    1.17
  -7  -9  -1   24.17    1.02
   7   9   1   24.17    1.49
   7   9   1   22.69    0.92
   8   9   1   29.04    1.69
   9   9   1   13.73    1.32
   9   9   1   12.55    1.22
  10   9   1    7.01    1.05
  10   9   1    6.55    1.05
  11   9   1    0.29    0.83
  12   9   1    9.19    1.34
   3 -10  -1    0.25    1.03
   2 -10  -1   14.48    1.41
   1 -10  -1   12.48    1.25
   0 -10  -1   41.63    2.18
   0  10   1   44.44    1.99
  -1 -10  -1    3.22    0.83
   1  10   1    4.31    0.56
   1  10   1    3.82    0.67
  -2 -10  -1   43.19    2.03
   2  10   1   39.81    1.77
   2  10   1   41.67    1.81
  -3 -10  -1    7.26    0.86
   3  10   1   10.76    0.85
   3  10   1    9.92    0.80
  -4 -10  -1    0.25    0.56
   4  10   1    0.76    0.44
   4  10   1    0.74    0.53
  -5 -10  -1    9.18    0.78
   5  10   1    9.17    0.68
   5  10   1    7.07    0.82
  -6 -10  -1   29.08    1.38
   6  10   1   30.14    1.62
   6  10   1   30.23    1.24
  -7 -10  -1    3.61    0.50
   7  10   1    1.38    0.71
   7  10   1    2.74    0.43
   8  10   1   11.68    0.64
   8  10   1   11.83    1.12
   9  10   1    4.40    0.98
  10  10   1   11.60    1.34
  11  10   1   11.23    1.26
  12  10   1    6.87    1.20
   3 -11  -1    0.88    1.02
   2 -11  -1   10.22    1.43
   1 -11  -1    4.40    1.03
   0 -11  -1    8.42    1.18
  -1 -11  -1   12.46    1.24
   1  11   1   11.46    1.01
  -2 -11  -1    5.56    0.94
   2  11   1    6.85    0.85
   2  11   1    5.89    0.66
  -3 -11  -1    2.05    0.73
   3  11   1    0.55    0.55
   3  11   1    0.57    0.54
  -4 -11  -1   17.97    1.24
   4  11   1   16.30    1.17
   4  11   1   18.46    1.10
  -5 -11  -1   19.30    1.25
   5  11   1   21.16    1.32
   5  11   1   19.41    1.11
  -6 -11  -1   26.40    1.33
   6  11   1   23.16    1.47
   6  11   1   22.97    1.16
  -7 -11  -1    7.11    0.70
   7  11   1    6.93    0.90
   7  11   1    6.31    0.59
  -8 -11  -1    2.22    0.48
   8  11   1    2.96    0.80
   8  11   1    2.07    0.44
   9  11   1    9.25    1.15
  10  11   1    0.22    0.85
   2 -12  -1   -0.08    0.97
   1 -12  -1   18.94    1.75
   0 -12  -1   -0.86    0.91
  -1 -12  -1    8.09    1.20
   1  12   1    9.31    1.10
  -2 -12  -1    0.48    0.84
   2  12   1   -0.42    0.63
  -3 -12  -1   27.38    1.71
   3  12   1   26.49    1.51
  -4 -12  -1    2.43    0.83
   4  12   1    4.10    0.71
   4  12   1    4.54    0.74
  -5 -12  -1   28.52    1.59
   5  12   1   26.77    1.58
   5  12   1   28.91    1.44
  -6 -12  -1   -0.26    0.62
   6  12   1    0.43    0.63
   6  12   1    0.88    0.53
  -7 -12  -1   13.81    1.07
   7  12   1   15.06    1.27
   7  12   1   14.14    0.93
  -8 -12  -1   15.28    0.99
   8  12   1   12.97    0.87
   8  12   1   13.48    1.23
   9  12   1    6.75    1.11
  10  12   1    4.03    1.03
   2 -13  -1    7.56    1.51
   1 -13  -1    5.25    1.31
   0 -13  -1    1.29    1.12
  -1 -13  -1    7.77    1.21
  -2 -13  -1    7.71    1.22
   2  13   1    9.96    1.11
  -3 -13  -1    5.91    1.04
   3  13   1    5.03    0.87
  -4 -13  -1    8.92    1.09
   4  13   1   10.35    1.00
  -5 -13  -1    5.26    0.92
   5  13   1    3.28    0.73
   5  13   1    4.08    0.78
  -6 -13  -1   17.95    1.31
   6  13   1   17.57    1.20
   6  13   1   18.23    1.36
  -7 -13  -1    0.96    0.66
   7  13   1    2.08    0.60
   7  13   1    0.20    0.73
  -8 -13  -1   31.75    1.54
   8  13   1   28.34    1.36
   8  13   1   28.81    1.81
   9  13   1    1.38    0.87
   0 -14  -1    5.01    1.33
  -1 -14  -1   -0.40    1.04
  -2 -14  -1   18.13    1.67
  -3 -14  -1    4.82    1.12
   3  14   1    5.09    0.97
  -4 -14  -1   11.41    1.34
   4  14   1   12.96    1.16
  -5 -14  -1    4.63    0.97
   5  14   1    2.90    0.77
  -6 -14  -1   28.88    1.70
   6  14   1   24.49    1.48
  -7 -14  -1    8.96    1.01
   7  14   1    9.96    0.93
   7  14   1   10.15    1.16
  -8 -14  -1   10.05    0.97
   8  14   1   11.78    1.25
  -3 -15  -1    4.48    1.15
   3  15   1    3.26    0.97
  -4 -15  -1    0.06    0.91
   4  15   1    0.24    0.76
  -5 -15  -1    2.29    0.99
   5  15   1    2.47    0.87
  -6 -15  -1   -0.42    0.86
   6  15   1   -0.19    0.68
  -7 -15  -1    4.56    0.96
  -8 -15  -1    0.78    0.77
  -7 -15   2    2.92    0.89
  -6 -15   2    1.21    0.92
  -5 -15   2    4.08    1.05
  -4 -15   2    7.18    1.20
  -3 -15   2    6.74    1.24
  -8 -14   2    3.03    0.79
   7  14  -2    8.10    1.23
  -7 -14   2    8.41    0.99
   6  14  -2    1.83    0.86
  -6 -14   2    2.46    0.89
   5  14  -2   25.35    1.80
  -5 -14   2   26.17    1.73
   4  14  -2    1.22    0.79
  -4 -14   2    0.98    0.92
  -3 -14   2    7.75    1.19
  -2 -14   2   -1.64    0.88
  -1 -14   2    8.42    1.37
   0 -14   2    4.73    1.25
   1 -14   2    0.73    1.18
   8  13  -2    1.34    0.96
  -8 -13   2    3.98    0.72
   7  13  -2    6.20    1.13
  -7 -13   2    6.88    0.88
   6  13  -2    9.86    1.14
  -6 -13   2    7.40    0.98
   5  13  -2   17.56    1.45
  -5 -13   2   17.33    1.40
   4  13  -2    8.27    1.06
  -4 -13   2    6.35    1.01
   3  13  -2    5.27    0.94
  -3 -13   2    4.84    0.98
   2  13  -2    4.61    0.89
  -2 -13   2    4.54    1.03
  -1 -13   2    0.52    0.92
   0 -13   2    7.35    1.21
   1 -13   2   -0.48    0.94
   2 -13   2    0.45    1.05
   8  12  -2   -0.19    0.85
  -8 -12   2    0.53    0.56
   7  12  -2   -0.30    0.78
  -7 -12   2    0.32    0.61
   6  12  -2   21.50    1.56
  -6 -12   2   20.57    1.36
   5  12  -2    5.10    0.97
  -5 -12   2    3.69    0.78
   4  12  -2    8.53    1.01
  -4 -12   2    7.68    0.96
   3  12  -2    5.58    0.89
  -3 -12   2    3.72    0.85
   2  12  -2   16.06    1.31
  -2 -12   2   17.76    1.43
   1  12  -2    5.17    0.88
  -1 -12   2    5.17    1.04
   0 -12   2    6.74    1.10
   1 -12   2    2.46    0.95
   2 -12   2    3.14    1.15
   3 -12   2    0.11    1.09
   9  11  -2    0.58    0.87
   8  11  -2   20.06    1.63
  -8 -11   2   20.23    1.08
   7  11  -2   10.68    1.21
  -7 -11   2   10.14    0.83
   6  11  -2   39.58    2.18
  -6 -11   2   42.94    1.87
   5  11  -2   17.67    1.42
  -5 -11   2   17.43    1.24
   4  11  -2    5.53    0.88
  -4 -11   2    5.72    0.79
   3  11  -2   20.20    1.34
  -3 -11   2   18.85    1.32
   2  11  -2    1.18    0.68
  -2 -11   2   -0.35    0.66
   1  11  -2   32.80    1.74
  -1 -11   2   28.36    1.80
   0 -11   2    0.27    0.82
   1 -11   2   25.44    1.84
   2 -11   2    4.80    1.05
   3 -11   2   10.66    1.38
   9  10  -2   18.39    1.61
   8  10  -2    0.36    0.81
  -8 -10   2    0.54    0.45
   7  10  -2   63.89    2.84
  -7 -10   2   61.23    2.33
   6  10  -2    3.05    0.83
  -6 -10   2    2.29    0.56
   5  10  -2   85.25    3.50
  -5 -10   2   89.74    3.24
   4  10  -2    1.22    0.67
  -4 -10   2    0.86    0.59
   3  10  -2   14.90    1.20
  -3 -10   2   17.16    1.21
   2  10  -2    0.38    0.59
  -2 -10   2    0.55    0.63
  -1 -10   2   30.58    1.73
   0 -10   2    1.60    0.80
   1 -10   2    6.56    0.98
   2 -10   2    3.41    0.98
   3 -10   2    0.55    0.92
  10   9  -2    6.15    1.15
   9   9  -2    9.32    1.19
   8   9  -2   15.38    1.38
  -8  -9   2   14.92    0.86
   7   9  -2   36.30    2.00
  -7  -9   2   36.19    1.48
   6   9  -2   61.46    2.71
  -6  -9   2   62.87    2.34
   5   9  -2   29.95    1.69
  -5  -9   2   33.34    1.47
   4   9  -2    2.33    0.62
  -4  -9   2    3.09    0.58
   3   9  -2    9.25    0.89
  -3  -9   2    7.79    0.79
   2   9  -2   32.30    1.62
  -2  -9   2   32.20    1.61
  -1  -9   2   18.24    1.28
   0   9  -2   46.28    2.02
   0  -9   2   42.50    2.07
  -1   9  -2   -0.33    0.53
   1  -9   2   -0.22    0.63
  -2   9  -2   11.61    1.16
   2  -9   2   13.05    1.19
  -3   9  -2    3.01    0.94
   3  -9   2    2.50    0.85
  -4   9  -2   37.05    2.24
   4  -9   2   35.02    2.17
  -5   9  -2    0.47    1.03
  -6   9  -2    2.87    1.23
  10   8  -2   15.06    1.52
   9   8  -2   -0.50    0.75
   9   8  -2    0.93    0.66
  -9  -8   2   -0.45    0.41
   8   8  -2   33.81    1.72
   8   8  -2   31.08    1.95
  -8  -8   2   33.96    1.37
   7   8  -2    2.54    0.74
  -7  -8   2    3.06    0.47
   6   8  -2   29.22    1.63
  -6  -8   2   29.74    1.28
   5   8  -2    1.91    0.63
  -5  -8   2    3.27    0.49
   4   8  -2    1.05    0.54
  -4  -8   2    1.57    0.49
   3   8  -2   50.80    2.12
  -3  -8   2   48.52    2.01
   2   8  -2   86.17    3.34
   2   8  -2   95.02    3.18
  -2  -8   2   85.01    3.25
   1   8  -2   73.04    2.70
  -1  -8   2   70.11    2.79
   0   8  -2   36.74    1.67
   0  -8   2   32.84    1.68
  -1   8  -2   19.68    1.28
   1  -8   2   17.97    1.27
  -2   8  -2   23.80    1.51
   2  -8   2   23.63    1.57
  -3   8  -2   10.46    1.07
   3  -8   2   14.64    1.26
  -4   8  -2   20.31    1.62
   4  -8   2   22.04    1.64
  -5   8  -2    1.56    0.85
  -6   8  -2    1.05    0.96
  -7   8  -2    1.22    1.16
   7  -8   2    0.79    1.03
  10   7  -2    0.74    0.90
 -10  -7   2    0.78    0.51
   9   7  -2   14.91    1.36
   9   7  -2   15.00    1.18
  -9  -7   2   15.45    0.93
   8   7  -2    0.68    0.61
   8   7  -2    1.55    0.80
  -8  -7   2    1.21    0.43
   7   7  -2   53.20    2.17
   7   7  -2   50.75    2.35
  -7  -7   2   48.88    1.87
   6   7  -2    0.62    0.56
  -6  -7   2    0.98    0.39
   5   7  -2   44.96    2.10
  -5  -7   2   47.74    1.78
   4   7  -2    3.70    0.67
  -4  -7   2    5.53    0.53
   3   7  -2  266.14    8.83
  -3  -7   2  265.49    8.69
   2   7  -2    1.85    0.38
   2   7  -2    1.04    0.46
  -2  -7   2    1.18    0.47
   1   7  -2  101.51    3.59
  -1  -7   2  103.17    3.67
   0   7  -2    0.21    0.44
   0  -7   2   -0.07    0.51
  -1   7  -2   45.73    2.00
   1  -7   2   48.13    2.10
  -2   7  -2    5.10    0.76
   2  -7   2    4.26    0.74
  -3   7  -2   25.11    1.54
   3  -7   2   23.52    1.48
  -4   7  -2    4.39    0.87
   4  -7   2    6.42    0.95
  -5   7  -2   11.12    1.18
  -6   7  -2    5.02    1.13
  -7   7  -2    1.78    1.03
   7  -7   2    0.73    0.95
  -8   7  -2    3.18    1.23
 -11  -6   2    0.58    0.62
 -10  -6   2    5.72    0.72
   9   6  -2   27.78    1.90
   9   6  -2   29.69    1.62
  -9  -6   2   30.50    1.40
   8   6  -2   12.36    1.22
   8   6  -2   13.45    1.05
  -8  -6   2   12.01    0.83
   7   6  -2   30.40    1.50
   7   6  -2   28.54    1.65
  -7  -6   2   30.36    1.28
   6   6  -2   -0.11    0.51
   6   6  -2    0.96    0.46
  -6  -6   2    0.31    0.36
   5   6  -2   79.40    3.05
   5   6  -2   75.56    2.79
  -5  -6   2   79.39    2.69
  -5  -6   2   76.91    2.69
   4   6  -2   47.88    2.05
  -4  -6   2   45.66    1.77
  -4  -6   2   50.84    1.80
   3   6  -2    9.13    0.79
  -3  -6   2   10.40    0.71
  -3  -6   2    9.19    0.74
   2   6  -2    2.43    0.52
   2   6  -2    0.85    0.27
  -2  -6   2    1.84    0.43
  -2  -6   2    2.28    0.43
   1   6  -2   19.63    0.96
  -1  -6   2   17.31    1.02
   0   6  -2   38.89    1.62
   0  -6   2   36.81    1.63
  -1   6  -2    1.60    0.48
   1  -6   2    1.57    0.56
  -2   6  -2   72.80    2.86
   2  -6   2   73.93    2.89
  -3   6  -2   11.28    0.95
   3  -6   2   10.34    0.93
  -4   6  -2   54.14    2.41
   4  -6   2   53.97    2.39
  -5   6  -2   10.62    1.13
   5  -6   2   11.03    1.05
  -6   6  -2    8.64    1.15
  -7   6  -2    1.56    0.89
   7  -6   2    1.05    0.83
  -8   6  -2    3.58    1.14
   8  -6   2    3.26    1.04
 -11  -5   2    4.09    0.83
 -10  -5   2   22.64    1.34
   9   5  -2   10.56    1.00
   9   5  -2   12.34    1.27
  -9  -5   2   11.50    0.95
   8   5  -2   22.95    1.52
   8   5  -2   23.18    1.33
  -8  -5   2   22.43    1.18
   7   5  -2   42.70    2.02
   7   5  -2   38.51    1.81
  -7  -5   2   42.67    1.66
   6   5  -2   61.88    2.52
   6   5  -2   60.98    2.31
  -6  -5   2   59.30    2.18
   5   5  -2   15.77    0.90
   5   5  -2   14.41    1.07
  -5  -5   2   14.59    0.79
  -5  -5   2   15.63    0.80
   4   5  -2   97.55    3.30
   4   5  -2   90.72    3.52
  -4  -5   2  102.37    3.28
  -4  -5   2   95.77    3.26
   3   5  -2    1.16    0.41
  -3  -5   2    1.91    0.34
  -3  -5   2    2.31    0.34
   2   5  -2   69.40    2.61
  -2  -5   2   72.17    2.50
  -2  -5   2   70.14    2.49
   1   5  -2  123.54    4.00
  -1  -5   2  114.28    4.03
   0   5  -2  186.22    6.12
   0  -5   2  183.08    6.15
  -1   5  -2   24.34    1.22
   1  -5   2   25.44    1.23
  -2   5  -2   23.32    1.23
   2  -5   2   23.13    1.25
  -3   5  -2   -0.07    0.52
   3  -5   2   -0.19    0.54
  -4   5  -2   60.08    2.51
   4  -5   2   59.70    2.48
  -5   5  -2   18.08    1.41
   5  -5   2   20.85    1.32
  -6   5  -2    2.47    0.78
   6  -5   2    2.44    0.84
  -7   5  -2    3.43    0.96
   7  -5   2    2.82    0.93
  -8   5  -2   12.87    1.46
   8  -5   2   14.07    1.45
  -9   5  -2    4.68    1.21
   9  -5   2    5.93    1.25
 -11  -4   2    1.65    0.78
 -10  -4   2   15.11    1.26
   9   4  -2    9.96    1.02
  -9  -4   2   10.24    0.91
   8   4  -2   24.01    1.58
   8   4  -2   24.88    1.43
  -8  -4   2   23.69    1.29
   7   4  -2    1.05    0.35
   7   4  -2    0.86    0.65
   7   4  -2    0.81    0.48
  -7  -4   2    1.09    0.47
   6   4  -2   62.73    2.60
   6   4  -2   65.01    2.13
   6   4  -2   63.65    2.42
  -6  -4   2   65.76    2.34
   5   4  -2   66.05    2.59
   5   4  -2   64.37    2.40
  -5  -4   2   69.59    2.36
  -5  -4   2   66.20    2.35
   4   4  -2   -0.06    0.38
   4   4  -2    1.37    0.34
  -4  -4   2    0.59    0.30
  -4  -4   2    0.67    0.32
   3   4  -2    0.95    0.38
   3   4  -2    0.91    0.27
  -3  -4   2    0.64    0.29
  -3  -4   2    1.10    0.28
   2   4  -2  327.83   10.78
   2   4  -2  328.41   10.65
  -2  -4   2  324.29   10.69
  -2  -4   2  353.97   10.70
   1   4  -2   62.89    2.19
  -1  -4   2   60.50    2.22
  -1  -4   2   65.06    2.24
   0   4  -2   18.44    0.91
   0  -4   2   17.26    0.92
  -1   4  -2   17.29    0.96
   1  -4   2   18.81    0.96
  -2   4  -2   28.16    1.33
   2  -4   2   30.05    1.35
  -3   4  -2   12.08    0.98
   3  -4   2   15.30    1.01
  -4   4  -2    5.74    0.76
   4  -4   2    6.70    0.74
  -5   4  -2    1.94    0.68
   5  -4   2    1.90    0.65
  -6   4  -2   -0.10    0.61
   6  -4   2   -0.04    0.63
  -7   4  -2    2.79    0.88
   7  -4   2    2.86    0.82
  -8   4  -2    0.10    0.81
   8  -4   2   -0.46    0.79
  -9   4  -2   27.55    2.01
   9  -4   2   29.76    2.09
 -11  -3   2    4.94    0.95
 -10  -3   2    0.38    0.73
   9   3  -2   23.96    1.50
  -9  -3   2   22.86    1.38
   8   3  -2    5.52    0.77
  -8  -3   2    4.68    0.68
   7   3  -2   43.90    1.92
   7   3  -2   45.95    1.67
   7   3  -2   45.49    2.08
  -7  -3   2   40.72    1.81
   6   3  -2   -0.71    0.49
   6   3  -2    0.19    0.28
   6   3  -2    0.07    0.43
  -6  -3   2    0.58    0.43
   5   3  -2   67.70    2.57
   5   3  -2   65.07    2.17
   5   3  -2   65.45    2.39
  -5  -3   2   64.76    2.38
  -5  -3   2   69.38    2.39
   4   3  -2    0.31    0.21
   4   3  -2    0.24    0.36
   4   3  -2    0.35    0.29
  -4  -3   2   -0.17    0.27
  -4  -3   2    0.43    0.31
   3   3  -2  124.31    4.41
   3   3  -2  129.13    4.21
  -3  -3   2  137.91    4.28
  -3  -3   2  128.44    4.28
   2   3  -2   42.89    1.52
   2   3  -2   43.14    1.67
  -2  -3   2   47.14    1.57
  -2  -3   2   41.54    1.56
   1   3  -2  387.53   12.50
  -1  -3   2  374.16   12.52
  -1  -3   2  415.32   12.53
   0   3  -2  112.82    3.79
   0  -3   2  115.32    3.81
  -1   3  -2   16.38    0.82
   1  -3   2   15.13    0.81
  -2   3  -2    4.86    0.50
   2  -3   2    5.68    0.55
  -3   3  -2  102.89    3.62
   3  -3   2  101.65    3.59
  -4   3  -2   10.31    0.84
   4  -3   2    9.65    0.78
  -5   3  -2    7.80    0.82
   5  -3   2    7.82    0.77
   5  -3   2    7.20    0.77
  -6   3  -2    0.37    0.62
   6  -3   2    1.03    0.57
  -7   3  -2   13.61    1.19
   7  -3   2   16.42    1.29
  -8   3  -2   24.08    1.72
   8  -3   2   29.12    1.84
  -9   3  -2    9.14    1.21
   9  -3   2    8.08    1.17
 -10   3  -2    1.43    0.99
  10  -3   2    0.78    1.02
  10   2  -2    7.56    1.09
 -10  -2   2    5.42    0.96
   9   2  -2   10.71    1.09
  -9  -2   2   10.60    1.05
   8   2  -2    8.61    0.93
  -8  -2   2    7.29    0.84
   7   2  -2   19.76    1.24
  -7  -2   2   18.00    1.15
   6   2  -2   52.27    2.19
   6   2  -2   51.51    1.84
   6   2  -2   50.96    2.04
  -6  -2   2   48.99    2.02
   5   2  -2   32.96    1.28
   5   2  -2   33.11    1.44
   5   2  -2   36.78    1.59
  -5  -2   2   35.51    1.46
  -5  -2   2   33.03    1.44
   4   2  -2  114.12    4.08
   4   2  -2  116.03    3.66
   4   2  -2  120.02    3.93
  -4  -2   2  125.75    4.00
  -4  -2   2  117.22    3.99
   3   2  -2  267.80    8.61
   3   2  -2  268.24    8.49
   3   2  -2  267.98    8.74
   3   2  -2  267.54    8.01
  -3  -2   2  265.60    8.67
  -3  -2   2  279.01    8.67
   2   2  -2  294.93    9.20
   2   2  -2  289.20    9.45
  -2  -2   2  293.09    9.42
  -2  -2   2  298.82    9.41
   1   2  -2  120.53    3.89
  -1  -2   2  116.44    3.90
  -1  -2   2  123.62    3.91
  -1  -2   2  115.24    3.75
   0   2  -2   83.56    2.84
   0  -2   2   86.60    2.86
  -1   2  -2   86.95    2.96
   1  -2   2   87.54    2.97
  -2   2  -2  276.68    8.89
   2  -2   2  269.12    8.88
   2  -2   2  277.64    8.23
  -3   2  -2    8.64    0.67
   3  -2   2   10.80    0.62
   3  -2   2    8.25    0.66
  -4   2  -2  134.56    4.56
   4  -2   2  133.46    4.52
   4  -2   2  135.70    4.21
   4  -2   2  124.99    4.49
  -5   2  -2    0.81    0.52
   5  -2   2    1.54    0.48
   5  -2   2    0.75    0.51
   5  -2   2    1.32    0.39
  -6   2  -2  118.96    4.35
   6  -2   2  123.03    4.38
  -7   2  -2    0.02    0.59
   7  -2   2   -0.34    0.58
  -8   2  -2   75.59    3.17
   8  -2   2   76.48    3.23
  -9   2  -2    2.37    0.88
   9  -2   2    2.88    0.91
 -10   2  -2   -0.95    0.86
  10  -2   2    0.34    0.90
  10   1  -2   30.46    1.98
 -10  -1   2   33.38    1.99
   9   1  -2    4.63    0.95
  -9  -1   2    4.45    0.88
   8   1  -2   36.11    1.86
  -8  -1   2   36.22    1.83
   7   1  -2   40.66    1.81
  -7  -1   2   35.16    1.77
   6   1  -2   36.52    1.64
   6   1  -2   37.20    1.49
  -6  -1   2   36.47    1.67
   5   1  -2    2.33    0.39
   5   1  -2    1.94    0.49
   5   1  -2    1.29    0.33
   5   1  -2    1.95    0.46
  -5  -1   2    2.12    0.51
   4   1  -2   52.92    2.02
   4   1  -2   50.58    1.92
   4   1  -2   53.31    1.80
  -4  -1   2   52.93    1.98
  -4  -1   2   52.87    1.97
   3   1  -2   31.98    1.16
   3   1  -2   33.15    1.31
   3   1  -2   31.76    1.23
  -3  -1   2   33.32    1.30
  -3  -1   2   32.87    1.29
   2   1  -2  231.40    7.34
   2   1  -2  224.22    7.37
   2   1  -2  228.42    7.18
   2   1  -2  231.66    6.81
  -2  -1   2  215.92    7.37
  -2  -1   2  238.32    7.37
   1   1  -2  670.56   21.38
   1   1  -2  646.68   21.25
   1   1  -2  674.66   21.26
  -1  -1   2  682.97   21.25
  -1  -1   2  677.69   21.28
   0   1  -2   45.49    1.64
   0  -1   2   48.21    1.66
   0  -1   2   48.56    1.66
  -1   1  -2 1000.00   31.86
   1  -1   2  985.16   31.85
  -2   1  -2  685.53   21.69
   2  -1   2  683.29   21.28
   2  -1   2  680.99   21.68
  -3   1  -2   10.77    0.71
   3  -1   2   12.74    0.72
   3  -1   2   11.22    0.69
  -4   1  -2  200.35    6.79
   4  -1   2  208.50    6.29
   4  -1   2  203.10    6.75
   4  -1   2  212.86    6.75
  -5   1  -2   60.54    2.32
   5  -1   2   59.77    2.27
   5  -1   2   61.83    2.15
   5  -1   2   60.53    2.37
  -6   1  -2   36.98    1.64
   6  -1   2   32.98    1.67
  -7   1  -2   36.75    1.77
   7  -1   2   36.99    1.85
  -8   1  -2    2.87    0.74
   8  -1   2    2.42    0.81
  -9   1  -2    3.01    0.88
   9  -1   2    2.93    0.93
 -10   1  -2    0.61    0.87
  10  -1   2    1.77    0.89
  11  -1   2    6.84    1.30
  10   0  -2    4.99    1.06
 -10   0   2    4.53    1.07
   9   0  -2    1.56    0.81
  -9   0   2    2.23    0.85
   8   0  -2   18.65    1.39
  -8   0   2   19.72    1.41
   7   0  -2    1.41    0.62
  -7   0   2    0.78    0.62
   6   0  -2    2.76    0.61
  -6   0   2    3.41    0.64
   5   0  -2   61.99    2.16
   5   0  -2   61.55    2.34
   5   0  -2   64.32    2.28
  -5   0   2   54.62    2.36
   4   0  -2   23.09    1.05
   4   0  -2   20.98    1.06
   4   0  -2   20.88    1.03
   4   0  -2   19.14    0.93
  -4   0   2   19.85    1.07
   3   0  -2   14.31    0.70
   3   0  -2   14.05    0.75
   3   0  -2   14.87    0.77
   3   0  -2   15.03    0.77
  -3   0   2   13.65    0.80
   2   0  -2   54.63    1.77
   2   0  -2   53.66    1.89
   2   0  -2   54.08    1.91
  -2   0   2   52.07    1.75
  -2   0   2   54.16    1.89
  -2   0   2   51.87    1.92
  -2   0   2   56.63    1.95
   1   0  -2   92.63    3.06
   1   0  -2   95.77    3.11
  -1   0   2   94.72    2.87
  -1   0   2   90.88    3.12
  -1   0   2   92.23    3.12
   0   0  -2   32.79    1.10
   0   0  -2   33.44    1.21
   0   0   2   34.08    1.24
  -1   0  -2   79.70    2.68
  -1   0  -2   76.30    2.67
   1   0   2   85.71    2.69
   1   0   2   80.79    2.60
  -2   0  -2  575.74   18.91
  -2   0  -2  618.17   18.92
   2   0   2  591.40   18.57
   2   0   2  599.37   18.92
  -3   0  -2   45.57    1.69
  -3   0  -2   50.06    1.72
   3   0   2   46.93    1.73
   3   0   2   45.83    1.67
  -4   0  -2    4.00    0.42
  -4   0  -2    4.60    0.47
   4   0   2    4.47    0.40
   4   0   2    3.70    0.47
  -5   0  -2   69.78    2.60
   5   0   2   73.11    2.70
   5   0   2   74.33    2.41
  -6   0  -2   10.89    0.87
   6   0   2   11.94    0.95
   6   0   2   12.26    0.81
  -7   0  -2   29.85    1.47
   7   0   2   29.36    1.57
  -8   0  -2    1.18    0.65
   8   0   2    1.93    0.74
  -9   0  -2   15.95    1.25
   9   0   2   15.24    1.35
 -10   0  -2   -0.17    0.76
  10   0   2    1.55    0.86
 -11   0  -2   14.93    1.39
  11   0   2   12.89    1.53
   9  -1  -2    2.84    0.97
  -9   1   2    3.61    0.98
   8  -1  -2   -0.76    0.68
  -8   1   2   -1.08    0.71
   7  -1  -2   22.85    1.45
  -7   1   2   21.24    1.44
   6  -1  -2   57.56    2.41
  -6   1   2   58.36    2.43
   5  -1  -2  172.17    5.61
   5  -1  -2  161.02    5.55
  -5   1   2  159.93    5.66
   4  -1  -2   -0.12    0.17
   4  -1  -2   -0.89    0.35
  -4   1   2   -0.06    0.41
   3  -1  -2  278.26    8.99
  -3   1   2  275.61    9.02
  -3   1   2  274.95    8.31
   2  -1  -2    0.92    0.23
   2  -1  -2    1.14    0.31
   2  -1  -2    0.88    0.26
  -2   1   2    1.04    0.36
  -2   1   2    0.93    0.24
  -2   1   2    1.10    0.26
   1  -1  -2   64.91    2.31
   1  -1  -2   67.02    2.19
   1  -1  -2   68.79    2.13
  -1   1   2   65.88    2.19
  -1   1   2   66.96    2.12
  -1   1   2   64.62    2.32
   0  -1  -2   13.97    0.70
   0   1   2   13.80    0.69
  -1  -1  -2   58.94    1.93
  -1  -1  -2   56.33    1.92
   1   1   2   53.45    1.87
   1   1   2   56.70    1.92
  -2  -1  -2    1.93    0.27
  -2  -1  -2    1.70    0.25
   2   1   2    1.39    0.30
  -3  -1  -2    2.29    0.29
  -3  -1  -2    2.27    0.29
   3   1   2    2.49    0.26
   3   1   2    1.88    0.36
  -4  -1  -2  162.03    5.12
  -4  -1  -2  148.81    5.10
   4   1   2  161.81    5.06
   4   1   2  151.52    5.13
  -5  -1  -2    5.87    0.50
  -5  -1  -2    5.66    0.49
   5   1   2    5.59    0.58
   5   1   2    5.85    0.42
  -6  -1  -2   90.72    3.24
   6   1   2   98.62    3.00
   6   1   2   86.92    3.34
  -7  -1  -2    2.16    0.54
   7   1   2    2.28    0.65
   7   1   2    2.10    0.43
  -8  -1  -2   16.55    1.14
   8   1   2   15.79    1.29
  -9  -1  -2    6.12    0.84
   9   1   2    5.62    0.92
 -10  -1  -2    9.27    1.02
  10   1   2    7.67    1.15
 -11  -1  -2    0.39    0.79
  11   1   2    0.52    0.83
   9  -2  -2    3.66    1.06
  -9   2   2    3.45    1.02
   8  -2  -2    9.69    1.15
  -8   2   2   10.90    1.25
   7  -2  -2    0.12    0.68
  -7   2   2    0.59    0.73
   6  -2  -2   45.34    2.01
  -6   2   2   42.21    2.08
   5  -2  -2   10.39    0.90
  -5   2   2   12.10    0.96
   4  -2  -2   46.11    1.94
   4  -2  -2   47.83    1.80
  -4   2   2   43.93    1.97
   3  -2  -2    0.28    0.32
   3  -2  -2   -0.19    0.39
  -3   2   2    0.39    0.31
  -3   2   2    0.35    0.45
   2  -2  -2   54.42    1.84
   2  -2  -2   53.67    2.02
  -2   2   2   52.16    1.82
  -2   2   2   52.10    2.03
  -2   2   2   51.54    1.82
   1  -2  -2    6.78    0.56
  -1   2   2    7.31    0.36
  -1   2   2    7.53    0.56
  -1   2   2    6.82    0.48
   0  -2  -2  130.56    4.35
   0   2   2  129.64    4.35
   0   2   2  134.45    4.02
  -1  -2  -2   16.45    0.76
  -1  -2  -2   15.92    0.63
  -1  -2  -2   16.88    0.75
   1   2   2   16.66    0.73
  -2  -2  -2  286.59    8.96
  -2  -2  -2  274.96    8.97
  -2  -2  -2  276.80    8.94
   2   2   2  283.91    8.86
  -3  -2  -2    3.44    0.27
  -3  -2  -2    3.29    0.29
   3   2   2    3.06    0.37
  -4  -2  -2   27.03    1.01
  -4  -2  -2   25.31    0.97
   4   2   2   24.08    1.12
  -5  -2  -2    2.60    0.37
  -5  -2  -2    3.49    0.36
   5   2   2    3.23    0.49
  -6  -2  -2   27.95    1.19
  -6  -2  -2   27.19    1.21
   6   2   2   27.64    1.37
  -7  -2  -2    1.25    0.46
   7   2   2    1.69    0.60
   7   2   2    1.43    0.37
  -8  -2  -2    6.14    0.67
   8   2   2    5.25    0.80
  -9  -2  -2    1.71    0.63
   9   2   2    0.98    0.75
 -10  -2  -2    5.86    0.84
  10   2   2    5.60    1.01
 -11  -2  -2   14.54    1.22
  11   2   2   13.67    1.45
  12   2   2    2.95    1.13
   9  -3  -2    1.59    0.96
  -9   3   2    0.40    0.97
   8  -3  -2    7.96    1.16
  -8   3   2    7.84    1.20
   7  -3  -2    1.01    0.74
  -7   3   2    0.51    0.79
   6  -3  -2   31.57    1.74
  -6   3   2   30.57    1.80
  -5   3   2    6.30    0.81
   4  -3  -2   55.23    2.25
  -4   3   2   50.32    2.25
   3  -3  -2   30.56    1.46
  -3   3   2   29.24    1.27
  -3   3   2   26.59    1.39
   2  -3  -2   28.14    1.38
  -2   3   2   33.47    1.28
  -2   3   2   32.17    1.19
  -2   3   2   33.38    1.46
   1  -3  -2   57.99    2.18
  -1   3   2   58.04    1.92
  -1   3   2   55.39    2.15
  -1   3   2   60.75    1.99
   0  -3  -2  370.56   11.59
   0   3   2  368.88   11.58
   0   3   2  340.83   10.71
  -1  -3  -2  313.43    9.77
  -1  -3  -2  293.17    9.86
   1   3   2  312.52    9.87
   1   3   2  309.65    9.77
   1   3   2  308.25    9.15
  -2  -3  -2   79.49    2.60
  -2  -3  -2   75.77    2.60
  -2  -3  -2   80.61    2.61
   2   3   2   78.70    2.60
   2   3   2   71.68    2.61
  -3  -3  -2    5.15    0.34
  -3  -3  -2    5.14    0.37
   3   3   2    4.89    0.45
   3   3   2    5.16    0.42
  -4  -3  -2   98.30    3.12
  -4  -3  -2   91.43    3.11
   4   3   2   94.96    3.29
   4   3   2   97.18    3.31
  -5  -3  -2  160.15    5.23
  -5  -3  -2  169.52    5.24
   5   3   2  154.49    5.38
  -6  -3  -2   10.09    0.65
  -6  -3  -2    9.34    0.61
   6   3   2    9.02    0.79
  -7  -3  -2   15.53    0.89
   7   3   2   17.57    1.18
  -8  -3  -2   13.86    0.93
   8   3   2   13.58    0.79
   8   3   2   13.16    1.09
  -9  -3  -2   27.02    1.37
   9   3   2   27.41    1.69
 -10  -3  -2   -0.06    0.57
  10   3   2    0.17    0.78
  11   3   2   11.84    1.33
 -12  -3  -2   -0.20    0.69
  12   3   2   -0.44    0.93
   9  -4  -2   -1.16    0.91
   8  -4  -2    6.64    1.18
  -8   4   2    8.59    1.32
   7  -4  -2    3.71    0.94
  -7   4   2    5.21    1.07
   6  -4  -2   15.94    1.33
  -6   4   2   18.46    1.50
  -5   4   2   37.32    1.93
   4  -4  -2    5.70    0.80
  -4   4   2    5.58    0.83
   3  -4  -2    1.47    0.57
  -3   4   2    2.03    0.57
   2  -4  -2   25.07    1.31
  -2   4   2   23.38    1.11
  -2   4   2   23.42    1.29
   1  -4  -2  185.30    6.46
  -1   4   2  196.66    6.48
  -1   4   2  199.56    6.00
   0  -4  -2    7.27    0.58
   0   4   2    7.99    0.63
   0   4   2    7.31    0.53
  -1  -4  -2  156.00    5.14
   1   4   2  150.08    4.74
   1   4   2  158.41    5.12
   1   4   2  156.14    4.99
  -2  -4  -2   18.35    0.80
  -2  -4  -2   17.27    0.84
  -2  -4  -2   16.69    0.82
   2   4   2   16.15    0.72
   2   4   2   16.60    0.75
  -3  -4  -2  299.76    9.67
  -3  -4  -2  319.41    9.67
   3   4   2  300.15    9.72
   3   4   2  289.18    9.62
  -4  -4  -2    0.82    0.21
  -4  -4  -2    0.87    0.21
   4   4   2    0.77    0.33
   4   4   2    0.58    0.35
  -5  -4  -2  246.11    8.18
  -5  -4  -2  265.44    8.19
   5   4   2  261.43    8.43
   5   4   2  250.83    8.30
  -6  -4  -2   19.77    0.84
  -6  -4  -2   22.63    0.87
   6   4   2   20.70    1.16
  -7  -4  -2   77.79    2.67
   7   4   2   78.86    3.01
  -8  -4  -2    0.04    0.37
   8   4   2    0.65    0.31
   8   4   2    0.59    0.60
  -9  -4  -2   55.51    2.11
   9   4   2   54.21    1.91
   9   4   2   51.51    2.41
  10   4   2   19.51    1.54
 -11  -4  -2   10.29    0.93
  11   4   2   11.24    1.30
 -12  -4  -2    1.94    0.72
  12   4   2    1.22    1.02
   8  -5  -2    0.97    0.98
  -8   5   2   -0.34    0.99
   7  -5  -2   23.21    1.75
  -7   5   2   24.46    1.89
  -6   5   2   11.26    1.30
  -5   5   2   29.68    1.79
   4  -5  -2    2.77    0.79
  -4   5   2    4.12    0.77
   3  -5  -2   19.77    1.39
  -3   5   2   20.81    1.39
   2  -5  -2    4.09    0.72
  -2   5   2    5.19    0.57
  -2   5   2    3.79    0.64
   1  -5  -2   65.32    2.60
  -1   5   2   70.78    2.41
  -1   5   2   68.92    2.61
   0  -5  -2   79.10    2.96
   0   5   2   81.65    2.72
   0   5   2   83.28    2.96
  -1  -5  -2    0.28    0.38
   1   5   2    0.99    0.36
   1   5   2    1.21    0.30
   1   5   2    0.94    0.23
  -2  -5  -2    2.84    0.42
  -2  -5  -2    2.51    0.39
   2   5   2    2.80    0.34
   2   5   2    2.16    0.31
   2   5   2    2.48    0.32
  -3  -5  -2   26.87    1.09
  -3  -5  -2   25.66    1.06
   3   5   2   23.96    1.08
   3   5   2   24.48    0.93
  -4  -5  -2  281.97    9.13
  -4  -5  -2  295.07    9.13
   4   5   2  278.20    9.18
   4   5   2  285.06    9.27
  -5  -5  -2   29.56    1.10
  -5  -5  -2   33.12    1.13
   5   5   2   30.01    1.43
   5   5   2   31.46    1.46
  -6  -5  -2   90.99    2.99
   6   5   2   95.15    3.36
   6   5   2   89.15    3.36
  -7  -5  -2   37.93    1.33
  -7  -5  -2   34.91    1.29
   7   5   2   36.57    1.74
  -8  -5  -2   48.04    1.78
   8   5   2   53.93    2.24
  -9  -5  -2   -0.16    0.37
   9   5   2   -0.08    0.30
   9   5   2   -0.35    0.59
 -10  -5  -2   17.46    0.99
  10   5   2   18.63    1.49
 -11  -5  -2    2.44    0.61
  11   5   2    4.01    1.01
  12   5   2   11.88    1.39
   7  -6  -2    0.87    0.93
  -7   6   2   -1.09    0.95
  -6   6   2   22.88    1.86
  -5   6   2   -0.56    0.74
   4  -6  -2    8.66    1.05
  -4   6   2    9.12    1.12
   3  -6  -2   11.63    1.06
  -3   6   2   11.56    1.12
   2  -6  -2   32.04    1.69
  -2   6   2   34.30    1.53
   1  -6  -2    1.48    0.62
  -1   6   2    1.32    0.53
  -1   6   2    0.95    0.48
   0  -6  -2   47.35    2.00
   0   6   2   46.39    1.66
   0   6   2   47.75    1.96
   0   6   2   45.70    1.77
  -1  -6  -2    1.46    0.46
   1   6   2    1.14    0.38
   1   6   2    1.77    0.29
   1   6   2    0.80    0.41
  -2  -6  -2   47.59    1.87
   2   6   2   47.81    1.81
   2   6   2   47.67    1.76
   2   6   2   49.32    1.71
  -3  -6  -2   23.47    1.10
  -3  -6  -2   23.87    1.07
   3   6   2   23.82    1.07
   3   6   2   23.30    0.97
   3   6   2   24.00    0.96
  -4  -6  -2   53.17    1.82
  -4  -6  -2   48.10    1.78
   4   6   2   48.17    1.93
   4   6   2   48.88    1.64
  -5  -6  -2   66.01    2.12
  -5  -6  -2   58.76    2.09
   5   6   2   57.68    2.34
   5   6   2   62.17    2.40
  -6  -6  -2   69.25    2.15
  -6  -6  -2   61.71    2.12
   6   6   2   61.88    2.52
   6   6   2   60.79    2.49
   7   6   2    0.86    0.53
   7   6   2    1.00    0.55
   8   6   2   15.35    1.16
  -9  -6  -2   21.92    0.92
   9   6   2   23.31    0.90
   9   6   2   21.97    1.53
 -10  -6  -2    7.44    0.61
  10   6   2    9.84    1.06
  10   6   2    7.24    0.53
  11   6   2    9.89    1.22
  12   6   2    5.85    1.17
   7  -7  -2    3.08    1.11
  -7   7   2    5.15    1.30
  -6   7   2    6.85    1.27
  -5   7   2    4.92    1.13
   4  -7  -2    2.15    0.83
  -4   7   2    0.41    0.85
   3  -7  -2   13.81    1.27
  -3   7   2   13.02    1.17
   2  -7  -2    4.69    0.90
  -2   7   2    3.96    0.77
   1  -7  -2  208.01    7.41
  -1   7   2  220.63    6.88
  -1   7   2  220.85    7.43
   0  -7  -2   43.77    1.94
   0   7   2   44.22    1.94
   0   7   2   43.62    1.61
   0   7   2   42.16    1.75
  -1  -7  -2  128.07    4.56
   1   7   2  125.62    4.50
   1   7   2  133.16    4.22
   1   7   2  131.67    4.30
  -2  -7  -2   30.68    1.50
   2   7   2   33.75    1.36
   2   7   2   33.15    1.34
   2   7   2   33.91    1.43
  -3  -7  -2  112.71    3.75
  -3  -7  -2  105.42    3.72
   3   7   2  107.64    3.62
   3   7   2  103.45    3.43
   3   7   2  107.42    3.69
  -4  -7  -2   17.04    0.93
  -4  -7  -2   16.28    0.90
   4   7   2   15.45    0.75
   4   7   2   15.87    0.93
  -5  -7  -2   32.12    1.29
  -5  -7  -2   33.33    1.33
   5   7   2   33.09    1.52
   5   7   2   32.44    1.17
  -6  -7  -2   11.52    0.65
  -6  -7  -2   10.04    0.57
   6   7   2   10.20    0.87
   6   7   2    8.84    0.85
   7   7   2    0.60    0.55
   7   7   2    1.08    0.54
   8   7   2   22.78    1.39
   8   7   2   22.12    1.46
   9   7   2   26.16    1.58
  10   7   2   11.36    0.61
  10   7   2   15.53    1.33
  11   7   2   25.34    1.81
  12   7   2    9.56    1.31
  -6   8   2    0.96    1.09
  -5   8   2   11.50    1.36
  -4   8   2    0.18    0.83
   3  -8  -2   24.90    1.74
  -3   8   2   27.77    1.81
   2  -8  -2    1.33    0.75
  -2   8   2    1.06    0.77
   1  -8  -2  141.93    5.31
  -1   8   2  147.59    5.29
  -1   8   2  149.10    4.92
   0  -8  -2    0.55    0.65
   0   8   2   -0.61    0.48
   0   8   2    0.07    0.31
   0   8   2    0.98    0.58
  -1  -8  -2    7.77    0.87
   1   8   2    9.32    0.64
   1   8   2    8.40    0.78
   1   8   2    9.63    0.74
  -2  -8  -2    4.08    0.69
   2   8   2    5.11    0.50
   2   8   2    4.70    0.60
   2   8   2    5.10    0.58
  -3  -8  -2   47.96    1.95
   3   8   2   45.91    1.77
   3   8   2   45.50    1.83
  -4  -8  -2   32.29    1.50
   4   8   2   36.52    1.38
   4   8   2   36.23    1.55
  -5  -8  -2   41.66    1.66
   5   8   2   40.92    1.80
   5   8   2   41.42    1.49
  -6  -8  -2   19.17    0.90
   6   8   2   18.24    0.80
   6   8   2   20.58    1.22
  -7  -8  -2   18.25    0.80
   7   8   2   18.41    1.29
   7   8   2   18.96    1.32
   7   8   2   20.10    0.75
   8   8   2   33.48    1.81
   8   8   2   30.99    1.78
   9   8   2   22.68    1.54
   9   8   2   22.68    1.54
  10   8   2   22.52    1.55
  11   8   2    3.25    0.97
  12   8   2    4.16    1.12
  -6   9   2   -0.21    1.14
  -5   9   2    2.85    1.17
  -4   9   2    2.19    1.06
   3  -9  -2    7.39    1.26
  -3   9   2    8.65    1.16
   2  -9  -2   21.76    1.63
  -2   9   2   23.23    1.64
   1  -9  -2   13.33    1.27
  -1   9   2   11.94    1.13
   0  -9  -2    4.10    0.82
   0   9   2    3.36    0.73
   0   9   2    4.34    0.70
  -1  -9  -2    1.18    0.69
   1   9   2    1.73    0.53
   1   9   2    1.14    0.38
  -2  -9  -2    9.38    0.92
   2   9   2    9.97    0.81
   2   9   2    9.95    0.77
  -3  -9  -2    6.17    0.71
   3   9   2    4.61    0.58
   3   9   2    5.09    0.59
  -4  -9  -2   62.16    2.43
   4   9   2   62.08    2.42
   4   9   2   62.77    2.23
  -5  -9  -2    0.27    0.47
   5   9   2    0.50    0.46
   5   9   2    0.13    0.36
  -6  -9  -2   26.92    1.23
   6   9   2   27.40    1.48
   6   9   2   27.17    1.11
  -7  -9  -2    6.69    0.51
   7   9   2    5.17    0.81
   7   9   2    5.58    0.44
   8   9   2   42.95    1.45
   8   9   2   45.13    2.19
   9   9   2   -0.02    0.69
   9   9   2   -0.68    0.62
  10   9   2   19.46    1.55
  11   9   2    0.68    0.82
  12   9   2    1.35    1.05
   3 -10  -2   -0.64    0.99
   2 -10  -2    7.04    1.14
   1 -10  -2    5.27    1.07
   0 -10  -2    3.94    0.88
   0  10   2    5.22    0.82
  -1 -10  -2    1.38    0.79
   1  10   2    1.68    0.66
  -2 -10  -2   36.64    1.91
   2  10   2   37.89    1.73
   2  10   2   37.90    1.59
  -3 -10  -2   11.90    1.03
   3  10   2   12.85    0.91
   3  10   2   14.33    0.99
  -4 -10  -2   41.18    1.87
   4  10   2   39.24    1.77
   4  10   2   39.60    1.66
  -5 -10  -2    3.69    0.68
   5  10   2    5.21    0.69
   5  10   2    5.81    0.60
  -6 -10  -2   23.05    1.19
   6  10   2   23.43    1.40
   6  10   2   24.29    1.10
  -7 -10  -2   13.29    0.84
   7  10   2   13.70    1.10
   7  10   2   12.33    0.75
  -8 -10  -2    5.49    0.47
   8  10   2    4.43    0.43
   8  10   2    5.63    0.90
   9  10   2   30.02    1.08
   9  10   2   31.46    1.84
  11  10   2    8.13    1.21
  12  10   2    1.56    1.02
   2 -11  -2    2.91    1.05
   1 -11  -2    7.03    1.26
   0 -11  -2    1.06    0.85
  -1 -11  -2    4.54    1.01
   1  11   2    7.02    0.91
  -2 -11  -2    3.40    0.86
   2  11   2    3.26    0.73
  -3 -11  -2   23.78    1.54
   3  11   2   24.59    1.37
  -4 -11  -2    0.21    0.66
   4  11   2    0.24    0.51
   4  11   2   -0.41    0.49
  -5 -11  -2   23.55    1.38
   5  11   2   23.35    1.21
   5  11   2   23.96    1.39
  -6 -11  -2    3.80    0.67
   6  11   2    2.18    0.54
   6  11   2    3.63    0.72
  -7 -11  -2   17.74    1.05
   7  11   2   15.61    0.92
   7  11   2   16.13    1.27
  -8 -11  -2    6.27    0.61
   8  11   2    5.96    0.54
   8  11   2    5.95    0.95
   9  11   2   15.73    0.78
   9  11   2   16.60    1.42
  10  11   2    1.40    0.90
   2 -12  -2   -0.33    1.00
   1 -12  -2   23.36    1.88
   0 -12  -2    1.10    1.00
  -1 -12  -2   10.69    1.34
  -2 -12  -2    2.74    0.96
   2  12   2    4.51    0.84
  -3 -12  -2   24.52    1.65
   3  12   2   23.24    1.45
  -4 -12  -2    7.99    0.98
   4  12   2    5.86    0.79
  -5 -12  -2   14.92    1.20
   5  12   2   17.63    1.21
   5  12   2   15.12    1.10
  -6 -12  -2   16.73    1.21
   6  12   2   18.00    1.09
   6  12   2   16.39    1.25
  -7 -12  -2    2.07    0.64
   7  12   2    1.85    0.78
   7  12   2    1.88    0.51
  -8 -12  -2   19.29    1.13
   8  12   2   15.22    1.36
   8  12   2   19.42    1.02
   9  12   2    6.29    0.58
   9  12   2    7.64    1.12
  10  12   2   21.04    1.68
   1 -13  -2   -0.04    1.17
   0 -13  -2   14.75    1.66
  -1 -13  -2    0.76    1.06
  -2 -13  -2    9.61    1.32
   2  13   2   13.81    1.26
  -3 -13  -2    1.01    0.84
   3  13   2   -0.13    0.67
  -4 -13  -2   49.39    2.47
   4  13   2   53.58    2.29
  -5 -13  -2    0.86    0.80
   5  13   2    2.93    0.72
  -6 -13  -2   15.00    1.26
   6  13   2   14.57    1.10
  -7 -13  -2    0.41    0.69
   7  13   2    1.60    0.75
   7  13   2    0.69    0.57
  -8 -13  -2   31.08    1.54
   8  13   2   31.29    1.87
   8  13   2   26.92    1.37
   9  13   2    1.58    0.53
   9  13   2    2.49    0.94
   0 -14  -2   -0.93    1.07
  -1 -14  -2    4.36    1.27
  -2 -14  -2    4.17    1.19
  -3 -14  -2   16.05    1.54
   3  14   2   18.11    1.43
  -4 -14  -2   18.51    1.56
   4  14   2   18.34    1.42
  -5 -14  -2    4.68    0.95
   5  14   2    5.31    0.85
  -6 -14  -2   -0.47    0.76
   6  14   2    0.51    0.62
  -7 -14  -2    7.59    0.98
   7  14   2    7.98    0.91
  -8 -14  -2    0.79    0.69
   8  14   2    1.13    0.62
   9  14   2    7.92    1.21
   9  14   2    6.07    0.71
  -3 -15  -2   10.91    1.44
  -4 -15  -2   -0.12    0.94
   4  15   2   -0.04    0.77
  -5 -15  -2    0.78    0.95
   5  15   2   -0.35    0.76
  -6 -15  -2    6.64    1.06
   6  15   2    3.71    0.89
  -7 -15  -2    2.67    0.89
   7  15   2    1.46    0.70
  -8 -15  -2    2.57    0.82
  -6 -15   3   -0.98    0.80
  -5 -15   3    4.28    1.04
  -4 -15   3    1.49    1.04
  -3 -15   3   11.56    1.38
  -8 -14   3    2.99    0.81
  -7 -14   3   11.05    1.15
   6  14  -3    0.90    0.89
  -6 -14   3    1.37    0.82
   5  14  -3   17.31    1.52
  -5 -14   3   18.46    1.53
   4  14  -3   -0.04    0.81
  -4 -14   3   -0.88    0.80
   3  14  -3    1.81    0.92
  -3 -14   3    4.50    1.03
  -2 -14   3    4.92    1.16
  -1 -14   3    0.93    1.07
   0 -14   3    2.50    1.18
  -8 -13   3   10.55    0.96
   7  13  -3   -0.55    0.81
  -7 -13   3   -0.11    0.71
   6  13  -3    2.75    1.01
  -6 -13   3    4.03    0.87
   5  13  -3    4.95    1.04
  -5 -13   3    5.59    0.95
   4  13  -3   15.11    1.38
  -4 -13   3   15.94    1.36
   3  13  -3    3.28    0.89
  -3 -13   3    0.88    0.84
   2  13  -3    5.92    1.01
  -2 -13   3    7.39    1.15
   1  13  -3    4.31    0.94
  -1 -13   3    3.87    1.10
   0 -13   3    1.75    1.06
   1 -13   3   -0.04    1.05
   2 -13   3    1.67    1.21
   8  12  -3   15.94    1.53
  -8 -12   3   12.22    0.97
   7  12  -3    3.07    0.97
  -7 -12   3    1.39    0.66
   6  12  -3   12.82    1.29
  -6 -12   3   12.87    1.06
   5  12  -3   14.53    1.33
  -5 -12   3   12.76    1.11
   4  12  -3    6.01    1.01
  -4 -12   3    5.90    0.88
   3  12  -3   26.22    1.73
  -3 -12   3   29.73    1.80
   2  12  -3    5.34    0.92
  -2 -12   3    3.65    0.92
   1  12  -3    6.91    1.03
  -1 -12   3    6.85    1.12
   0 -12   3    4.68    1.10
   1 -12   3   15.72    1.51
   2 -12   3    6.71    1.22
   3 -12   3    4.90    1.30
   8  11  -3    6.31    1.12
  -8 -11   3    5.25    0.69
   7  11  -3   13.30    1.29
  -7 -11   3   14.82    1.07
   6  11  -3    0.19    0.71
  -6 -11   3    0.06    0.59
   5  11  -3   39.56    2.06
  -5 -11   3   33.66    1.75
   4  11  -3    1.10    0.74
  -4 -11   3   -0.46    0.58
   3  11  -3   17.15    1.36
  -3 -11   3   16.68    1.30
   2  11  -3    1.19    0.73
  -2 -11   3    0.91    0.74
   1  11  -3   23.24    1.56
  -1 -11   3   21.26    1.58
   0 -11   3    7.21    1.10
   1 -11   3   41.21    2.26
   2 -11   3    1.95    0.95
   3 -11   3   21.31    1.81
   9  10  -3   15.74    1.57
   8  10  -3    2.68    0.94
  -8 -10   3    1.74    0.54
   7  10  -3    2.61    0.91
  -7 -10   3    3.90    0.61
   6  10  -3   28.38    1.79
  -6 -10   3   26.56    1.41
   5  10  -3   10.91    1.07
  -5 -10   3   10.35    0.87
   4  10  -3   22.31    1.53
  -4 -10   3   24.79    1.41
   3  10  -3   14.19    1.15
  -3 -10   3   12.31    1.06
   2  10  -3   34.67    1.87
  -2 -10   3   35.74    1.81
  -1 -10   3    8.14    0.96
   0 -10   3   15.30    1.29
   1 -10   3   12.90    1.26
   2 -10   3   20.10    1.66
   3 -10   3    0.73    0.95
   9   9  -3   -0.76    0.80
  -9  -9   3    0.47    0.51
   8   9  -3   24.75    1.71
  -8  -9   3   25.30    1.23
   7   9  -3   -0.20    0.69
  -7  -9   3    0.67    0.48
   6   9  -3   31.09    1.81
  -6  -9   3   33.31    1.48
   5   9  -3    2.02    0.70
  -5  -9   3    1.57    0.56
   4   9  -3   47.77    2.19
  -4  -9   3   47.46    2.01
   3   9  -3    3.54    0.73
  -3  -9   3    0.98    0.56
   2   9  -3   20.70    1.30
  -2  -9   3   18.90    1.26
  -1  -9   3    0.34    0.62
   0  -9   3   30.49    1.72
  -1   9  -3   10.17    1.01
   1  -9   3    7.00    0.93
  -2   9  -3   20.60    1.40
   2  -9   3   19.34    1.54
  -3   9  -3   18.16    1.43
   3  -9   3   18.32    1.51
  -4   9  -3    1.88    0.89
   4  -9   3    2.73    1.00
  -5   9  -3    4.90    1.21
  -6   9  -3    8.61    1.41
  10   8  -3    7.45    1.21
   9   8  -3   23.51    1.73
  -9  -8   3   23.39    1.21
   8   8  -3    9.77    1.15
  -8  -8   3    9.99    0.81
   7   8  -3   35.45    2.02
  -7  -8   3   38.50    1.59
   6   8  -3   12.14    1.06
  -6  -8   3    7.82    0.69
   5   8  -3   54.52    2.50
  -5  -8   3   59.82    2.23
   4   8  -3    4.26    0.72
  -4  -8   3    4.93    0.61
   3   8  -3   58.76    2.45
  -3  -8   3   58.06    2.31
   2   8  -3    0.15    0.52
  -2  -8   3   -0.09    0.53
   1   8  -3   37.90    1.68
  -1  -8   3   37.63    1.79
   0   8  -3    6.77    0.73
   0  -8   3    6.85    0.79
  -1   8  -3   30.65    1.62
   1  -8   3   31.60    1.71
  -2   8  -3    8.19    0.89
   2  -8   3    7.55    0.99
  -3   8  -3    4.01    0.89
   3  -8   3    3.37    0.83
  -4   8  -3    2.00    0.83
   4  -8   3    3.15    0.86
  -5   8  -3    0.69    0.87
  -6   8  -3    2.80    1.04
  -7   8  -3    1.99    1.07
   7  -8   3   -0.40    0.87
  10   7  -3   -0.91    0.87
 -10  -7   3   -0.83    0.56
   9   7  -3   19.97    1.58
  -9  -7   3   14.34    1.03
   8   7  -3    4.02    0.71
   8   7  -3    4.33    0.91
  -8  -7   3    4.51    0.60
   7   7  -3   53.51    2.15
   7   7  -3   52.54    2.43
  -7  -7   3   49.93    2.01
   6   7  -3   13.81    1.15
  -6  -7   3   12.81    0.88
   5   7  -3   60.10    2.52
  -5  -7   3   56.79    2.18
   4   7  -3    2.41    0.62
  -4  -7   3    2.01    0.47
   3   7  -3   67.04    2.68
  -3  -7   3   66.04    2.49
   2   7  -3    8.21    0.83
   2   7  -3    6.86    0.60
  -2  -7   3    8.53    0.73
   1   7  -3   74.71    2.68
  -1  -7   3   68.89    2.71
   0   7  -3    4.20    0.56
   0  -7   3    4.81    0.71
  -1   7  -3   17.17    1.16
   1  -7   3   18.91    1.26
  -2   7  -3   37.35    1.78
   2  -7   3   36.63    1.81
  -3   7  -3    5.63    0.89
   3  -7   3    6.46    0.93
  -4   7  -3    4.94    0.93
   4  -7   3    5.42    0.89
  -5   7  -3    3.72    0.98
  -6   7  -3    9.93    1.25
   6  -7   3   10.93    1.24
  -7   7  -3    0.33    1.03
   7  -7   3   -0.59    0.85
  -8   7  -3    6.30    1.36
 -11  -6   3    8.24    0.95
 -10  -6   3    3.94    0.74
   9   6  -3   20.07    1.62
  -9  -6   3   20.19    1.22
   8   6  -3   36.73    2.08
   8   6  -3   41.65    1.85
  -8  -6   3   41.71    1.75
   7   6  -3   13.60    1.14
   7   6  -3   12.73    0.96
  -7  -6   3   13.15    0.91
   6   6  -3   23.82    1.19
   6   6  -3   20.99    1.42
  -6  -6   3   21.92    1.11
   5   6  -3   10.15    0.94
  -5  -6   3   15.30    0.84
   4   6  -3   32.32    1.65
  -4  -6   3   34.64    1.44
   3   6  -3   24.69    1.33
  -3  -6   3   24.82    1.18
  -3  -6   3   28.59    1.24
   2   6  -3  116.66    3.95
   2   6  -3  117.01    4.16
  -2  -6   3  116.39    4.02
   1   6  -3    0.41    0.35
  -1  -6   3   -0.30    0.38
   0   6  -3   60.86    2.36
   0  -6   3   63.75    2.44
  -1   6  -3    0.83    0.45
   1  -6   3    0.52    0.54
  -2   6  -3  143.88    5.00
   2  -6   3  139.75    5.00
  -3   6  -3    0.62    0.56
   3  -6   3    0.51    0.57
  -4   6  -3   20.60    1.36
   4  -6   3   19.11    1.42
  -5   6  -3    0.29    0.67
  -5   6  -3    1.40    0.70
   5  -6   3    0.04    0.61
  -6   6  -3   30.90    1.88
  -6   6  -3   29.07    1.83
   6  -6   3   32.06    1.92
  -7   6  -3    1.32    0.89
   7  -6   3   -0.15    0.80
  -8   6  -3    3.99    1.18
   8  -6   3    6.31    1.24
 -11  -5   3    4.80    0.89
 -10  -5   3   15.36    1.23
   9   5  -3    2.09    0.83
  -9  -5   3    2.62    0.67
   8   5  -3   26.13    1.74
   8   5  -3   26.73    1.45
  -8  -5   3   27.60    1.38
   7   5  -3    1.50    0.52
   7   5  -3    1.50    0.68
  -7  -5   3    1.89    0.53
   6   5  -3    1.77    0.48
   6   5  -3    2.18    0.67
  -6  -5   3    2.02    0.48
   5   5  -3    2.27    0.59
   5   5  -3    3.76    0.48
  -5  -5   3    3.40    0.49
   4   5  -3  138.88    4.90
  -4  -5   3  140.33    4.70
  -4  -5   3  141.96    4.71
   3   5  -3   73.67    2.97
  -3  -5   3   87.36    2.85
  -3  -5   3   80.38    2.84
   2   5  -3   25.67    1.26
   2   5  -3   23.00    1.03
  -2  -5   3   24.36    1.14
  -2  -5   3   26.17    1.18
   1   5  -3   24.17    1.08
  -1  -5   3   23.16    1.13
   0   5  -3  135.82    4.66
   0  -5   3  140.03    4.71
  -1   5  -3   77.14    2.86
   1  -5   3   79.49    2.90
  -2   5  -3   30.99    1.49
   2  -5   3   33.75    1.54
  -3   5  -3    7.95    0.78
   3  -5   3    8.21    0.80
  -4   5  -3    5.99    0.77
   4  -5   3    6.16    0.77
  -5   5  -3   29.18    1.60
   5  -5   3   24.50    1.56
  -6   5  -3   13.45    1.18
   6  -5   3   12.16    1.19
  -7   5  -3   16.02    1.42
   7  -5   3   16.81    1.38
  -8   5  -3    1.43    0.99
   8  -5   3    0.04    0.85
  -9   5  -3    5.60    1.28
   9  -5   3    5.39    1.14
 -11  -4   3    7.53    1.02
 -10  -4   3    9.32    1.02
  -9  -4   3   26.35    1.50
   8   4  -3    0.88    0.56
   8   4  -3    0.48    0.67
  -8  -4   3   -0.01    0.56
   7   4  -3    5.63    0.87
   7   4  -3    6.21    0.68
  -7  -4   3    5.74    0.68
   6   4  -3   23.07    1.18
   6   4  -3   24.00    1.39
  -6  -4   3   25.05    1.21
   5   4  -3   31.19    1.36
   5   4  -3   33.73    1.62
  -5  -4   3   33.01    1.39
   4   4  -3   49.93    1.78
   4   4  -3   42.14    1.97
  -4  -4   3   54.24    1.88
  -4  -4   3   47.73    1.85
   3   4  -3   27.94    1.07
   3   4  -3   25.91    1.29
  -3  -4   3   26.97    1.17
  -3  -4   3   28.00    1.18
   2   4  -3   70.18    2.66
  -2  -4   3   72.54    2.55
  -2  -4   3   74.73    2.56
   1   4  -3    8.19    0.63
  -1  -4   3    7.25    0.55
   0   4  -3    0.45    0.30
   0  -4   3   -0.12    0.31
  -1   4  -3  100.10    3.49
   1  -4   3   99.83    3.50
  -2   4  -3   50.88    2.01
   2  -4   3   48.99    1.99
  -3   4  -3   17.46    1.11
   3  -4   3   17.26    1.06
  -4   4  -3    1.92    0.57
   4  -4   3    2.90    0.59
  -5   4  -3   88.69    3.39
   5  -4   3   84.91    3.30
  -6   4  -3    1.32    0.66
   6  -4   3    0.99    0.68
  -7   4  -3    6.99    1.02
   7  -4   3    6.57    1.00
  -8   4  -3    1.69    0.88
   8  -4   3    0.49    0.77
  -9   4  -3    3.98    1.10
   9  -4   3    4.96    1.15
 -10  -3   3    1.09    0.78
  -9  -3   3   11.18    1.05
   8   3  -3   11.60    0.94
  -8  -3   3   11.28    1.01
   7   3  -3   30.51    1.53
   7   3  -3   33.80    1.79
  -7  -3   3   32.07    1.54
   6   3  -3    1.02    0.59
   6   3  -3    0.98    0.45
   6   3  -3    0.81    0.37
  -6  -3   3    1.27    0.51
   5   3  -3  256.48    8.14
   5   3  -3  248.63    8.44
  -5  -3   3  256.26    8.32
   4   3  -3   99.19    3.67
   4   3  -3  101.09    3.45
  -4  -3   3  103.70    3.57
  -4  -3   3  111.03    3.58
   3   3  -3   41.73    1.46
   3   3  -3   38.78    1.41
   3   3  -3   36.28    1.60
  -3  -3   3   41.44    1.56
  -3  -3   3   38.56    1.54
   2   3  -3   86.32    3.17
   2   3  -3   88.47    3.04
  -2  -3   3   96.44    3.10
  -2  -3   3   89.82    3.10
   1   3  -3  256.33    8.12
  -1  -3   3  245.65    8.13
   0   3  -3  119.02    3.85
   0  -3   3  109.59    3.84
  -1   3  -3   10.23    0.68
   1  -3   3   11.77    0.73
  -2   3  -3   53.71    2.06
   2  -3   3   55.80    2.10
  -3   3  -3   34.24    1.56
   3  -3   3   36.53    1.57
  -4   3  -3   81.48    3.08
   4  -3   3   83.52    3.06
  -5   3  -3    1.07    0.54
   5  -3   3    1.74    0.60
   5  -3   3    1.67    0.55
  -6   3  -3   60.77    2.62
   6  -3   3   65.88    2.65
  -7   3  -3    2.20    0.75
   7  -3   3    1.57    0.76
  -8   3  -3   21.95    1.60
   8  -3   3   22.93    1.67
  -9   3  -3    1.35    0.87
   9  -3   3    1.36    0.96
 -10   3  -3    8.53    1.29
  10  -3   3    6.12    1.25
 -10  -2   3    4.61    1.01
  -9  -2   3    1.34    0.77
   8   2  -3   27.14    1.49
  -8  -2   3   26.78    1.51
   7   2  -3    2.38    0.58
  -7  -2   3    1.96    0.64
   6   2  -3  126.21    4.52
   6   2  -3  123.28    4.28
  -6  -2   3  125.79    4.40
   5   2  -3    3.82    0.50
   5   2  -3    4.09    0.59
   5   2  -3    4.45    0.47
  -5  -2   3    5.26    0.62
   4   2  -3  359.23   10.96
   4   2  -3  345.39   10.22
   4   2  -3  332.55   10.77
   4   2  -3  325.24   11.07
  -4  -2   3  360.51   11.06
  -4  -2   3  323.81   11.03
   3   2  -3   42.06    1.51
   3   2  -3   42.71    1.70
  -3  -2   3   45.55    1.67
  -3  -2   3   41.84    1.67
   2   2  -3  438.83   13.89
   2   2  -3  419.54   13.91
   2   2  -3  439.85   13.57
  -2  -2   3  439.15   13.54
  -2  -2   3  417.07   13.93
  -2  -2   3  457.25   13.94
   1   2  -3    9.49    0.61
  -1  -2   3   10.42    0.41
  -1  -2   3   10.89    0.63
   0   2  -3  178.55    5.60
   0  -2   3  163.27    5.59
   1  -2   3    9.58    0.68
  -2   2  -3   89.29    3.12
   2  -2   3   89.93    3.10
  -3   2  -3    2.46    0.41
   3  -2   3    1.10    0.40
  -4   2  -3   37.91    1.58
   4  -2   3   34.99    1.53
   4  -2   3   34.77    1.39
   4  -2   3   33.67    1.52
  -5   2  -3   52.39    2.19
   5  -2   3   50.02    2.14
   5  -2   3   52.07    2.11
   5  -2   3   57.87    2.01
  -6   2  -3    3.30    0.67
   6  -2   3    6.34    0.81
  -7   2  -3   26.79    1.55
   7  -2   3   24.06    1.50
  -8   2  -3    7.39    1.02
   8  -2   3    6.80    0.99
  -9   2  -3   12.83    1.25
   9  -2   3   15.25    1.44
 -10   2  -3    1.12    0.92
  10  -2   3    1.17    0.96
 -10  -1   3    2.93    0.97
  -9  -1   3    4.53    0.96
   8   1  -3   31.63    1.71
  -8  -1   3   34.57    1.79
   7   1  -3    2.32    0.65
  -7  -1   3    3.11    0.70
   6   1  -3   47.36    1.93
  -6  -1   3   43.77    1.99
   5   1  -3   22.43    1.04
   5   1  -3   19.62    1.19
   5   1  -3   22.17    1.09
  -5  -1   3   23.25    1.20
   4   1  -3   26.88    1.15
   4   1  -3   27.20    1.26
   4   1  -3   27.22    1.11
   4   1  -3   26.62    1.16
  -4  -1   3   24.33    1.27
   3   1  -3   55.62    1.97
   3   1  -3   52.25    1.88
   3   1  -3   56.79    1.86
   3   1  -3   54.65    2.02
  -3  -1   3   51.48    2.02
   2   1  -3    5.87    0.45
   2   1  -3    4.80    0.35
   2   1  -3    4.37    0.41
  -2  -1   3    5.33    0.40
  -2  -1   3    5.26    0.48
   1   1  -3   90.31    3.05
  -1  -1   3   89.36    3.06
   0   1  -3  139.63    4.72
   0  -1   3  142.68    4.73
   0  -1   3  147.93    4.55
  -1   1  -3  270.16    8.61
   1  -1   3  261.04    8.61
   1  -1   3  269.95    8.38
  -2   1  -3  198.24    6.36
   2  -1   3  197.82    6.22
   2  -1   3  187.96    6.35
  -3   1  -3  289.22    9.28
   3  -1   3  288.76    9.13
   3  -1   3  281.14    9.26
  -4   1  -3   28.11    1.29
   4  -1   3   30.20    1.26
   4  -1   3   27.80    1.33
  -5   1  -3   23.47    1.21
   5  -1   3   22.69    1.26
   5  -1   3   21.86    1.06
   5  -1   3   23.05    1.14
  -6   1  -3    9.54    0.82
   6  -1   3    9.32    0.84
  -7   1  -3   30.78    1.59
   7  -1   3   31.27    1.72
  -8   1  -3    1.59    0.72
   8  -1   3   -0.12    0.64
  -9   1  -3    3.87    0.86
   9  -1   3    4.80    0.93
 -10   1  -3   -0.14    0.78
  10  -1   3    1.18    0.85
 -11   1  -3    5.96    1.10
  11  -1   3    5.44    1.18
  -9   0   3   13.00    1.36
   8   0  -3    0.14    0.72
  -8   0   3    0.15    0.71
   7   0  -3   28.56    1.53
  -7   0   3   25.85    1.57
   6   0  -3    0.06    0.52
  -6   0   3   -0.11    0.57
   5   0  -3   40.48    1.71
  -5   0   3   40.59    1.81
   4   0  -3    8.64    0.66
   4   0  -3    7.30    0.62
   4   0  -3    8.16    0.66
   4   0  -3    7.18    0.59
  -4   0   3    7.84    0.70
   3   0  -3   52.59    1.85
   3   0  -3   51.84    1.91
   3   0  -3   51.09    1.80
   3   0  -3   49.46    1.93
  -3   0   3   50.98    1.99
   2   0  -3    3.31    0.41
   2   0  -3    3.55    0.37
  -2   0   3    3.65    0.34
  -2   0   3    3.35    0.46
   1   0  -3   25.36    1.04
   1   0  -3   27.00    1.14
  -1   0   3   28.44    1.14
  -1   0   3   26.87    1.01
   0   0  -3    3.30    0.21
   0   0  -3    2.82    0.38
   0   0   3    2.92    0.38
  -1   0  -3  131.92    4.36
   1   0   3  131.17    4.37
   1   0   3  133.08    4.20
  -2   0  -3  154.82    5.41
   2   0   3  170.59    5.32
   2   0   3  173.26    5.44
  -3   0  -3   17.33    0.84
   3   0   3   16.70    0.87
   3   0   3   16.31    0.80
  -4   0  -3   24.26    1.09
   4   0   3   24.20    1.13
   4   0   3   24.22    1.06
  -5   0  -3   25.82    1.19
   5   0   3   22.95    1.08
   5   0   3   23.12    1.24
  -6   0  -3   40.80    1.84
   6   0   3   47.09    1.71
   6   0   3   46.95    1.96
  -7   0  -3   47.99    2.05
   7   0   3   48.72    2.15
  -8   0  -3    9.31    0.92
   8   0   3    8.40    0.95
  -9   0  -3    5.84    0.85
   9   0   3    5.63    0.94
 -10   0  -3    1.05    0.81
  10   0   3    2.18    0.90
 -11   0  -3    4.54    1.04
  11   0   3    6.45    1.25
  -9   1   3   13.42    1.37
   8  -1  -3   10.93    1.13
  -8   1   3   10.90    1.20
   7  -1  -3   19.22    1.35
  -7   1   3   17.76    1.39
   6  -1  -3   10.12    0.92
  -6   1   3    9.60    0.96
   5  -1  -3   14.83    1.02
  -5   1   3   15.89    1.16
   4  -1  -3   28.32    1.35
  -4   1   3   27.26    1.41
   3  -1  -3   20.95    0.96
   3  -1  -3   20.65    1.12
   3  -1  -3   21.89    1.01
  -3   1   3   23.48    1.17
  -3   1   3   21.47    0.97
   2  -1  -3    4.22    0.42
   2  -1  -3    4.73    0.51
   2  -1  -3    4.47    0.36
  -2   1   3    4.68    0.50
  -2   1   3    4.10    0.39
  -2   1   3    4.95    0.37
   1  -1  -3    0.03    0.32
   1  -1  -3    0.53    0.20
  -1   1   3    0.39    0.24
  -1   1   3   -0.04    0.30
   0  -1  -3  153.10    4.97
   0   1   3  148.26    4.97
  -1  -1  -3   31.49    1.27
   1   1   3   32.96    1.17
   1   1   3   33.34    1.29
  -2  -1  -3  187.70    5.88
  -2  -1  -3  174.81    5.85
   2   1   3  178.66    5.75
   2   1   3  179.88    5.86
  -3  -1  -3   81.99    2.89
  -3  -1  -3   89.61    2.93
   3   1   3   84.54    2.91
   3   1   3   86.46    2.89
  -4  -1  -3   68.11    2.42
  -4  -1  -3   73.35    2.46
   4   1   3   67.73    2.50
  -5  -1  -3    6.94    0.54
  -5  -1  -3    6.51    0.56
   5   1   3    7.17    0.50
   5   1   3    6.52    0.61
  -6  -1  -3  150.99    5.07
   6   1   3  149.33    5.16
  -7  -1  -3    0.63    0.50
   7   1   3    0.98    0.59
   7   1   3    0.36    0.35
  -8  -1  -3   13.12    1.06
   8   1   3   13.77    1.18
  -9  -1  -3    1.37    0.66
   9   1   3    1.40    0.78
 -10  -1  -3   14.44    1.19
  10   1   3   15.52    1.38
 -11  -1  -3   -0.50    0.75
  11   1   3    0.71    0.96
  -9   2   3    0.72    1.02
   8  -2  -3   17.25    1.43
  -8   2   3   18.83    1.52
   7  -2  -3    0.27    0.68
  -7   2   3    0.47    0.77
   6  -2  -3   13.73    1.09
  -6   2   3   13.82    1.17
   5  -2  -3   -0.16    0.54
  -5   2   3    0.66    0.63
   4  -2  -3   36.35    1.69
  -4   2   3   35.28    1.73
   3  -2  -3    2.00    0.51
  -3   2   3    1.46    0.49
  -3   2   3    1.37    0.38
   2  -2  -3   38.55    1.68
  -2   2   3   42.28    1.46
  -2   2   3   40.51    1.53
  -2   2   3   40.51    1.71
   1  -2  -3  108.91    3.65
  -1   2   3  102.62    3.64
  -1   2   3  105.41    3.35
   0  -2  -3  112.05    3.80
   0   2   3  109.94    3.80
   0   2   3  114.43    3.50
  -1  -2  -3    0.71    0.30
   1   2   3    1.06    0.32
  -2  -2  -3   66.21    2.24
  -2  -2  -3   64.84    2.24
   2   2   3   63.81    2.20
   2   2   3   61.11    2.19
  -3  -2  -3   52.71    1.83
  -3  -2  -3   53.76    1.85
   3   2   3   48.27    1.77
   3   2   3   53.16    1.91
  -4  -2  -3   37.41    1.38
  -4  -2  -3   34.40    1.33
   4   2   3   35.43    1.46
   4   2   3   35.98    1.27
  -5  -2  -3   20.87    0.95
  -5  -2  -3   19.71    0.89
   5   2   3   18.19    1.02
  -6  -2  -3   29.30    1.28
  -6  -2  -3   31.79    1.32
   6   2   3   28.96    1.45
   7   2   3   29.19    1.52
  -8  -2  -3    0.05    0.47
   8   2   3   -0.37    0.57
  -9  -2  -3   20.09    1.22
   9   2   3   19.81    1.50
 -10  -2  -3   11.14    0.99
  10   2   3   11.48    1.21
 -11  -2  -3   10.91    1.09
  11   2   3    9.69    1.34
 -12  -2  -3    0.98    0.82
  12   2   3    1.04    1.06
   8  -3  -3    6.88    1.14
  -8   3   3    3.54    1.10
   7  -3  -3   14.04    1.27
  -7   3   3   14.07    1.35
   6  -3  -3   12.97    1.13
  -6   3   3   11.54    1.18
  -5   3   3   28.79    1.67
   4  -3  -3   67.84    2.74
  -4   3   3   67.00    2.77
   3  -3  -3  179.13    5.99
  -3   3   3  169.80    6.00
   2  -3  -3   22.64    1.24
  -2   3   3   22.20    1.06
  -2   3   3   22.70    0.88
  -2   3   3   21.27    1.20
   1  -3  -3  142.22    4.80
  -1   3   3  140.69    4.43
  -1   3   3  140.35    4.81
   0  -3  -3  325.90   10.44
   0   3   3  318.31    9.67
   0   3   3  323.04   10.44
  -1  -3  -3  253.93    8.42
  -1  -3  -3  266.83    8.27
   1   3   3  265.12    8.42
   1   3   3  252.88    7.79
  -2  -3  -3   29.71    1.17
  -2  -3  -3   28.96    1.17
  -2  -3  -3   28.66    1.08
   2   3   3   26.59    1.14
   2   3   3   28.41    1.13
  -3  -3  -3  321.43   10.04
  -3  -3  -3  312.15   10.04
   3   3   3  309.42    9.94
   3   3   3  308.71    9.98
  -4  -3  -3    8.22    0.53
  -4  -3  -3    9.25    0.57
   4   3   3    9.66    0.69
  -5  -3  -3  103.74    3.57
  -5  -3  -3  114.95    3.61
   5   3   3  104.09    3.74
  -6  -3  -3    2.74    0.39
  -6  -3  -3    2.53    0.41
   6   3   3    3.26    0.59
  -7  -3  -3   68.76    2.45
   7   3   3   66.64    2.69
  -8  -3  -3    8.92    0.70
   8   3   3    9.08    0.92
  -9  -3  -3   21.92    1.20
   9   3   3   22.38    1.49
 -10  -3  -3    2.42    0.65
  10   3   3    2.07    0.83
 -11  -3  -3   13.06    1.06
  11   3   3   13.55    1.41
 -12  -3  -3   11.19    1.10
  12   3   3   11.68    1.45
   8  -4  -3    2.94    0.99
  -8   4   3    1.17    1.05
   7  -4  -3   12.88    1.32
  -7   4   3   16.86    1.54
   6  -4  -3   -1.44    0.65
  -6   4   3    0.36    0.82
  -5   4   3   21.43    1.47
   4  -4  -3   13.42    1.11
  -4   4   3   12.70    1.07
   3  -4  -3   49.16    2.08
  -3   4   3   40.23    1.97
   2  -4  -3   31.90    1.55
  -2   4   3   26.94    1.47
  -2   4   3   32.45    1.38
  -2   4   3   30.79    1.13
   1  -4  -3   18.72    1.09
  -1   4   3   20.68    0.98
  -1   4   3   18.69    1.09
   0  -4  -3    1.13    0.45
   0   4   3    2.46    0.44
   0   4   3    1.03    0.34
  -1  -4  -3  294.90    9.61
   1   4   3  299.30    9.60
   1   4   3  293.24    8.90
  -2  -4  -3  346.13   11.68
  -2  -4  -3  373.68   11.57
   2   4   3  369.39   11.67
   2   4   3  366.32   11.57
  -3  -4  -3   96.38    3.37
  -3  -4  -3  105.89    3.39
   3   4   3   97.99    3.38
   3   4   3  100.85    3.44
   3   4   3  100.02    3.31
  -4  -4  -3    0.43    0.28
  -4  -4  -3    0.34    0.28
   4   4   3    0.59    0.36
  -5  -4  -3  134.24    4.44
  -5  -4  -3  142.75    4.45
   5   4   3  128.74    4.61
  -6  -4  -3   37.92    1.44
  -6  -4  -3   43.07    1.49
   6   4   3   36.10    1.74
  -7  -4  -3    9.74    0.65
   7   4   3    9.75    0.90
  -8  -4  -3    1.22    0.42
   8   4   3    1.00    0.59
  -9  -4  -3    8.16    0.68
   9   4   3    7.90    0.59
   9   4   3    7.31    0.94
 -10  -4  -3   19.95    1.15
  10   4   3   20.46    1.58
 -11  -4  -3   -0.21    0.58
  11   4   3    0.02    0.77
 -12  -4  -3   11.36    1.04
  12   4   3   12.24    1.45
   8  -5  -3    7.44    1.26
   7  -5  -3    2.48    0.94
  -7   5   3    1.09    1.00
  -6   5   3    1.69    0.98
  -5   5   3   -0.42    0.73
   4  -5  -3   77.07    3.13
  -4   5   3   70.47    3.11
   3  -5  -3    0.29    0.60
  -3   5   3   -0.24    0.56
   2  -5  -3   14.92    1.10
  -2   5   3   14.65    0.99
  -2   5   3   12.08    0.99
   1  -5  -3   38.49    1.81
  -1   5   3   41.40    1.66
  -1   5   3   42.36    1.83
   0  -5  -3  202.98    6.77
   0   5   3  203.54    6.25
   0   5   3  197.20    6.73
  -1  -5  -3    2.38    0.48
   1   5   3    1.81    0.38
   1   5   3    2.07    0.21
   1   5   3    1.64    0.42
  -2  -5  -3   81.03    2.88
  -2  -5  -3   83.51    2.76
   2   5   3   80.44    2.72
   2   5   3   79.86    2.82
   2   5   3   80.97    2.65
  -3  -5  -3    6.24    0.51
  -3  -5  -3    4.99    0.48
   3   5   3    5.03    0.45
   3   5   3    5.37    0.40
  -4  -5  -3   19.75    0.87
  -4  -5  -3   17.31    0.86
   4   5   3   16.95    1.00
   4   5   3   17.75    0.94
  -5  -5  -3   19.57    0.88
  -5  -5  -3   17.66    0.83
   5   5   3   18.87    1.02
   5   5   3   19.62    1.13
  -6  -5  -3   73.21    2.58
  -6  -5  -3   81.68    2.61
   6   5   3   74.05    2.89
  -7  -5  -3   11.12    0.63
   7   5   3   12.20    0.98
  -8  -5  -3   34.52    1.33
   8   5   3   33.53    1.73
  -9  -5  -3    5.19    0.51
   9   5   3    3.02    0.82
 -10  -5  -3   30.81    1.35
  10   5   3   28.36    1.78
 -11  -5  -3    7.72    0.73
  11   5   3    6.73    1.12
 -12  -5  -3    1.52    0.61
  12   5   3    1.89    1.00
   7  -6  -3   -0.74    0.85
  -7   6   3   -0.69    1.03
  -6   6   3    6.86    1.25
  -5   6   3    3.99    1.07
   4  -6  -3   20.47    1.50
  -4   6   3   18.36    1.45
   3  -6  -3    5.37    0.85
  -3   6   3    3.60    0.80
   2  -6  -3   11.01    1.07
  -2   6   3   11.23    1.00
   1  -6  -3   20.66    1.36
  -1   6   3   22.11    1.16
  -1   6   3   20.41    1.32
   0  -6  -3   42.09    1.89
   0   6   3   42.01    1.68
   0   6   3   41.87    1.85
  -1  -6  -3  131.73    4.64
   1   6   3  133.97    4.60
   1   6   3  138.90    4.32
   1   6   3  129.06    4.27
  -2  -6  -3    2.81    0.51
   2   6   3    3.16    0.43
   2   6   3    2.69    0.32
   2   6   3    3.97    0.47
  -3  -6  -3   34.73    1.43
  -3  -6  -3   31.93    1.38
   3   6   3   31.58    1.30
   3   6   3   32.55    1.25
  -4  -6  -3   12.57    0.77
  -4  -6  -3   13.34    0.84
   4   6   3   13.74    0.83
  -5  -6  -3  115.48    3.65
  -5  -6  -3  106.29    3.62
   5   6   3  106.12    3.82
   5   6   3  104.51    3.85
  -6  -6  -3    1.57    0.33
  -6  -6  -3    2.65    0.37
   6   6   3    1.92    0.54
   6   6   3    1.42    0.52
  -7  -6  -3   48.43    1.71
   7   6   3   48.71    2.13
  -8  -6  -3    6.42    0.51
   8   6   3    7.30    0.91
  -9  -6  -3   67.08    2.27
   9   6   3   61.83    2.79
 -10  -6  -3    1.65    0.40
  10   6   3    0.84    0.73
  10   6   3    2.43    0.41
  11   6   3   16.48    1.42
  12   6   3    0.72    0.95
   7  -7  -3    7.18    1.28
  -6   7   3    5.34    1.27
  -5   7   3   15.55    1.56
  -4   7   3    9.70    1.24
   3  -7  -3   21.98    1.66
  -3   7   3   20.86    1.54
   2  -7  -3   -0.15    0.75
  -2   7   3    1.67    0.68
   1  -7  -3   57.44    2.47
  -1   7   3   56.97    2.44
  -1   7   3   55.66    2.24
   0  -7  -3   18.76    1.25
   0   7   3   18.68    1.13
   0   7   3   19.75    0.75
   0   7   3   17.82    1.22
  -1  -7  -3   54.88    2.39
   1   7   3   60.43    2.02
   1   7   3   62.85    2.38
   1   7   3   58.60    2.22
  -2  -7  -3   23.76    1.28
   2   7   3   24.13    1.13
   2   7   3   23.34    0.99
   2   7   3   22.97    1.18
  -3  -7  -3   48.84    1.96
   3   7   3   51.96    1.87
   3   7   3   47.41    1.79
  -4  -7  -3   13.99    0.88
   4   7   3   15.68    0.78
   4   7   3   13.59    0.84
  -5  -7  -3   44.31    1.74
   5   7   3   47.35    1.90
  -6  -7  -3   17.16    0.85
   6   7   3   18.03    1.18
   6   7   3   19.31    1.15
  -7  -7  -3   42.14    1.53
   7   7   3   41.86    1.99
   7   7   3   43.73    1.98
   8   7   3   42.05    2.01
   9   7   3    3.47    0.79
  10   7   3   28.83    1.83
  11   7   3    4.01    1.01
  12   7   3    4.40    1.14
  -6   8   3   -0.67    1.08
  -5   8   3    7.10    1.30
  -4   8   3    7.36    1.26
   3  -8  -3   24.70    1.85
  -3   8   3   24.29    1.71
   2  -8  -3    5.97    1.07
  -2   8   3    4.44    0.88
   1  -8  -3   16.55    1.34
  -1   8   3   18.10    1.38
   0  -8  -3    2.67    0.70
   0   8   3    2.48    0.62
   0   8   3    1.20    0.58
  -1  -8  -3   15.63    1.22
   1   8   3   17.12    0.76
   1   8   3   16.35    1.13
   1   8   3   16.59    1.07
  -2  -8  -3    1.59    0.64
   2   8   3    0.67    0.48
   2   8   3    0.95    0.32
   2   8   3    1.92    0.49
  -3  -8  -3    1.04    0.53
   3   8   3    1.70    0.45
   3   8   3    1.14    0.35
  -4  -8  -3   11.18    0.89
   4   8   3   11.62    0.77
   4   8   3   12.15    0.81
  -5  -8  -3   19.62    1.04
   5   8   3   20.90    0.94
   5   8   3   21.90    1.16
  -6  -8  -3   71.44    2.53
   6   8   3   71.28    2.34
   6   8   3   70.87    2.77
  -7  -8  -3    2.30    0.38
   7   8   3    1.28    0.70
   7   8   3    2.47    0.66
   8   8   3   46.28    2.22
   8   8   3   44.31    2.12
   9   8   3    0.07    0.72
  10   8   3    9.74    1.17
  11   8   3    8.09    1.20
  11   8   3    8.06    0.53
  12   8   3    4.97    1.08
  -5   9   3    4.59    1.18
  -4   9   3    9.40    1.40
   3  -9  -3    2.95    1.10
  -3   9   3    0.59    0.95
   2  -9  -3   12.07    1.29
  -2   9   3   10.74    1.17
   1  -9  -3    2.64    0.86
  -1   9   3    2.11    0.74
   0  -9  -3   52.67    2.47
   0   9   3   50.88    2.33
   0   9   3   49.28    2.16
  -1  -9  -3    1.15    0.72
   1   9   3    1.91    0.61
  -2  -9  -3   53.59    2.33
   2   9   3   52.72    1.94
   2   9   3   52.05    2.10
  -3  -9  -3    0.17    0.56
   3   9   3    0.45    0.47
   3   9   3    0.41    0.36
  -4  -9  -3   92.66    3.45
   4   9   3   92.82    3.16
   4   9   3   95.07    3.36
  -5  -9  -3   -0.33    0.46
   5   9   3    0.40    0.48
   5   9   3    0.66    0.40
  -6  -9  -3   38.07    1.59
   6   9   3   36.35    1.74
   6   9   3   37.40    1.43
  -7  -9  -3   20.94    1.00
   7   9   3   22.25    1.35
   7   9   3   17.54    0.87
  -8  -9  -3    3.15    0.39
   8   9   3    2.63    0.36
   8   9   3    4.34    0.75
   8   9   3    3.44    0.78
   9   9   3    0.69    0.78
  10   9   3    6.68    1.05
  11   9   3    4.31    0.99
  12   9   3    0.83    0.99
   2 -10  -3   -0.26    0.96
   1 -10  -3   10.19    1.30
   0 -10  -3    1.68    0.90
  -1 -10  -3   26.56    1.67
   1  10   3   27.56    1.55
  -2 -10  -3    2.37    0.80
   2  10   3    5.82    0.75
  -3 -10  -3   31.82    1.74
   3  10   3   35.14    1.47
   3  10   3   34.83    1.60
  -4 -10  -3   16.49    1.17
   4  10   3   17.39    1.06
   4  10   3   18.64    1.05
  -5 -10  -3   32.47    1.60
   5  10   3   34.15    1.61
   5  10   3   34.88    1.46
  -6 -10  -3    1.68    0.55
   6  10   3    1.39    0.45
   6  10   3    1.08    0.56
  -7 -10  -3   21.84    1.13
   7  10   3   21.91    1.03
   7  10   3   23.39    1.38
  -8 -10  -3    0.99    0.44
   8  10   3    1.65    0.39
   8  10   3    2.02    0.68
   9  10   3    6.52    0.47
  10  10   3    0.48    0.77
  11  10   3   10.66    1.35
  12  10   3    0.37    1.02
   2 -11  -3   -0.45    1.01
   1 -11  -3    6.29    1.26
   0 -11  -3    1.80    0.91
  -1 -11  -3   19.66    1.58
   1  11   3   24.72    1.52
  -2 -11  -3    5.64    0.98
   2  11   3    6.11    0.80
  -3 -11  -3   19.03    1.41
   3  11   3   17.86    1.21
  -4 -11  -3   22.66    1.50
   4  11   3   24.57    1.32
  -5 -11  -3   12.64    1.03
   5  11   3   12.30    0.96
   5  11   3   13.02    0.93
  -6 -11  -3   28.58    1.47
   6  11   3   26.90    1.30
   6  11   3   26.16    1.51
  -7 -11  -3   18.50    1.13
   7  11   3   17.67    0.99
   7  11   3   18.02    1.30
  -8 -11  -3    6.96    0.67
   8  11   3    7.68    0.61
   8  11   3    5.88    0.93
   9  11   3    5.61    0.94
   9  11   3    6.20    0.52
   2 -12  -3    2.62    1.26
   1 -12  -3    1.27    1.14
   0 -12  -3   12.49    1.49
  -1 -12  -3   16.53    1.49
  -2 -12  -3   23.45    1.76
   2  12   3   25.03    1.53
  -3 -12  -3    0.48    0.81
   3  12   3   -0.21    0.63
  -4 -12  -3   16.08    1.30
   4  12   3   18.09    1.22
  -5 -12  -3    2.22    0.78
   5  12   3    1.73    0.61
  -6 -12  -3   27.85    1.60
   6  12   3   27.57    1.40
   6  12   3   29.43    1.59
  -7 -12  -3    2.46    0.67
   7  12   3    2.50    0.55
   7  12   3    1.79    0.74
  -8 -12  -3   19.78    1.16
   8  12   3   19.13    1.05
   8  12   3   18.26    1.44
   9  12   3    3.19    0.52
   9  12   3    4.27    0.95
  10  12   3   29.52    1.19
   1 -13  -3    0.07    1.08
   0 -13  -3   21.28    1.91
  -1 -13  -3    1.70    1.11
  -2 -13  -3    2.53    1.05
  -3 -13  -3    7.95    1.20
   3  13   3    8.16    1.05
  -4 -13  -3    3.60    0.94
   4  13   3    1.99    0.76
  -5 -13  -3   10.42    1.14
   5  13   3    8.04    0.90
  -6 -13  -3    3.15    0.84
   6  13   3    2.30    0.69
  -7 -13  -3   25.55    1.49
   7  13   3   23.27    1.35
  -8 -13  -3   -0.10    0.61
   8  13   3    0.23    0.53
   8  13   3    0.06    0.72
   9  13   3   10.20    1.20
   9  13   3    9.66    0.77
  10  13   3    2.08    0.50
  -1 -14  -3    8.21    1.44
  -2 -14  -3    0.69    1.04
  -3 -14  -3    5.54    1.19
   3  14   3    4.31    0.98
  -4 -14  -3    1.21    0.98
   4  14   3    3.02    0.85
  -5 -14  -3   13.47    1.35
   5  14   3   13.07    1.18
  -6 -14  -3   -0.45    0.78
   6  14   3    0.36    0.67
  -7 -14  -3    3.29    0.82
   7  14   3    1.16    0.67
  -8 -14  -3   -0.51    0.67
   8  14   3    0.24    0.56
   9  14   3    4.75    0.68
  -4 -15  -3    9.74    1.39
   4  15   3    8.94    1.14
  -5 -15  -3    2.27    1.02
   5  15   3    1.56    0.80
  -6 -15  -3    7.47    1.10
   6  15   3    8.51    1.06
  -7 -15  -3    0.52    0.84
   7  15   3   -0.48    0.67
  -8 -15  -3    7.31    0.99
  -8 -14   4    1.81    0.77
  -7 -14   4    4.80    0.94
  -6 -14   4   18.32    1.47
   5  14  -4   -0.43    0.85
  -5 -14   4    1.03    0.88
   4  14  -4    4.87    1.03
  -4 -14   4    6.53    1.14
   3  14  -4    1.35    0.94
  -3 -14   4    1.48    0.94
   2  14  -4    0.15    0.87
  -2 -14   4   -0.32    0.99
  -1 -14   4   -1.15    0.97
   0 -14   4   -0.89    1.03
  -8 -13   4   16.21    1.21
  -7 -13   4    0.51    0.72
   6  13  -4    3.99    1.08
  -6 -13   4    3.51    0.88
   5  13  -4   10.03    1.26
  -5 -13   4    9.20    1.10
   4  13  -4    2.87    0.97
  -4 -13   4    2.19    0.85
   3  13  -4    0.79    0.80
  -3 -13   4    1.47    0.90
   2  13  -4    7.20    1.11
  -2 -13   4    9.45    1.21
   1  13  -4    5.17    1.10
  -1 -13   4    4.53    1.03
   0  13  -4    6.19    1.20
   0 -13   4    7.68    1.28
   1 -13   4    3.91    1.20
   2 -13   4    6.46    1.38
  -8 -12   4   12.26    1.01
   7  12  -4   28.81    1.94
  -7 -12   4   29.01    1.58
   6  12  -4    0.12    0.85
  -6 -12   4   -0.26    0.70
   5  12  -4   19.12    1.54
  -5 -12   4   15.75    1.26
   4  12  -4    5.15    1.02
  -4 -12   4    5.10    0.88
   3  12  -4   22.95    1.57
  -3 -12   4   19.07    1.49
   2  12  -4    0.10    0.72
  -2 -12   4   -0.36    0.77
   1  12  -4   21.89    1.70
  -1 -12   4   23.16    1.71
   0 -12   4    0.41    0.95
   1 -12   4   22.40    1.87
   2 -12   4    1.95    1.09
   3 -12   4    5.62    1.33
   8  11  -4    8.39    1.22
  -8 -11   4    8.30    0.83
   7  11  -4    7.94    1.20
  -7 -11   4    6.89    0.83
   6  11  -4    7.42    1.08
  -6 -11   4    8.22    0.88
   5  11  -4   28.37    1.82
  -5 -11   4   26.99    1.57
   4  11  -4    8.38    1.08
  -4 -11   4    8.88    0.94
   3  11  -4   39.80    2.06
  -3 -11   4   37.29    1.94
   2  11  -4    0.66    0.78
  -2 -11   4    2.30    0.78
  -1 -11   4   17.86    1.39
   0 -11   4   13.62    1.33
   1 -11   4    4.24    1.06
   2 -11   4    4.28    1.15
   3 -11   4    1.19    1.03
  -9 -10   4    1.41    0.60
   8  10  -4   11.51    1.30
  -8 -10   4   12.03    0.99
   7  10  -4    0.20    0.77
  -7 -10   4   -0.14    0.57
   6  10  -4   37.09    2.10
  -6 -10   4   40.62    1.82
   5  10  -4    0.18    0.65
  -5 -10   4   -0.14    0.57
   4  10  -4   59.97    2.78
  -4 -10   4   64.57    2.57
   3  10  -4    9.44    1.05
  -3 -10   4    8.12    0.90
   2  10  -4   31.44    1.78
  -2 -10   4   32.01    1.72
  -1 -10   4    4.73    0.87
   0 -10   4   29.54    1.74
   1 -10   4    4.57    0.92
   2 -10   4    6.57    1.14
   3 -10   4    0.08    0.92
   9   9  -4    5.83    1.12
  -9  -9   4    4.88    0.69
   8   9  -4    7.80    1.14
  -8  -9   4    9.21    0.81
   7   9  -4    5.73    1.03
  -7  -9   4    6.43    0.73
   6   9  -4   14.89    1.31
  -6  -9   4   14.20    1.04
   5   9  -4   19.02    1.38
  -5  -9   4   19.28    1.24
   4   9  -4    3.68    0.75
  -4  -9   4    4.21    0.70
   3   9  -4   -0.02    0.58
  -3  -9   4    0.45    0.55
   2   9  -4    2.26    0.69
  -2  -9   4    1.09    0.62
  -1  -9   4   91.67    3.54
   0  -9   4    4.57    0.80
  -1   9  -4   20.01    1.33
   1  -9   4   16.20    1.33
  -2   9  -4    3.79    0.86
   2  -9   4    4.60    0.96
  -3   9  -4   34.73    2.04
   3  -9   4   34.58    2.08
  -4   9  -4    1.12    0.92
   4  -9   4    0.42    0.92
  -5   9  -4   14.70    1.54
  -6   9  -4    3.13    1.18
   6  -9   4    1.06    0.99
  -7   9  -4    0.27    1.07
 -10  -8   4    8.34    0.84
   9   8  -4    3.32    0.99
  -9  -8   4    5.47    0.72
   8   8  -4    0.85    0.87
  -8  -8   4    0.95    0.57
   7   8  -4   21.92    1.57
  -7  -8   4   23.12    1.22
   6   8  -4    2.55    0.76
  -6  -8   4    3.44    0.61
   5   8  -4   14.65    1.21
  -5  -8   4   15.10    1.01
   4   8  -4    1.90    0.65
  -4  -8   4    1.73    0.57
   3   8  -4   20.54    1.37
  -3  -8   4   18.93    1.16
   2   8  -4   64.57    2.70
  -2  -8   4   64.84    2.58
   1   8  -4   69.16    2.61
  -1  -8   4   65.03    2.66
   0   8  -4   17.40    1.17
   0  -8   4   18.90    1.24
  -1   8  -4   28.59    1.54
   1  -8   4   27.60    1.58
  -2   8  -4    4.09    0.75
   2  -8   4    2.13    0.80
  -3   8  -4   15.46    1.27
   3  -8   4   11.25    1.15
  -4   8  -4   13.16    1.32
   4  -8   4   12.30    1.29
  -5   8  -4    0.93    0.83
  -6   8  -4    0.38    0.99
   6  -8   4    0.07    0.86
  -7   8  -4    1.33    1.03
   7  -8   4   -0.05    1.00
 -10  -7   4    0.47    0.66
   9   7  -4    0.44    0.92
  -9  -7   4    0.50    0.64
   8   7  -4   21.45    1.63
  -8  -7   4   15.52    1.11
   7   7  -4   20.35    1.55
  -7  -7   4   22.39    1.21
   6   7  -4   42.57    2.08
  -6  -7   4   40.28    1.75
   5   7  -4   40.82    1.98
  -5  -7   4   38.31    1.67
   4   7  -4   18.90    1.26
  -4  -7   4   19.24    1.13
   3   7  -4   58.02    2.43
  -3  -7   4   56.95    2.25
   2   7  -4   49.27    1.89
  -2  -7   4   46.32    1.99
   1   7  -4   24.98    1.25
  -1  -7   4   23.51    1.35
   0   7  -4   16.91    1.09
   0  -7   4   16.39    1.12
  -1   7  -4   10.25    0.84
   1  -7   4    9.87    0.96
  -2   7  -4   29.44    1.56
   2  -7   4   27.46    1.63
  -3   7  -4    3.49    0.74
   3  -7   4    3.21    0.83
  -4   7  -4   23.19    1.52
   4  -7   4   22.88    1.53
  -5   7  -4   -0.32    0.72
  -6   7  -4   22.15    1.78
   6  -7   4   23.97    1.70
  -7   7  -4    0.55    1.01
   7  -7   4    1.52    0.98
  -8   7  -4    9.49    1.47
 -11  -6   4   -0.04    0.71
  10   6  -4    6.10    1.14
 -10  -6   4    7.51    0.92
   9   6  -4    3.71    1.06
  -9  -6   4    2.60    0.73
   8   6  -4   33.26    1.97
  -8  -6   4   29.47    1.52
   7   6  -4    0.59    0.67
  -7  -6   4   -0.71    0.48
   6   6  -4   89.47    3.58
  -6  -6   4   92.60    3.30
   5   6  -4    0.85    0.65
  -5  -6   4    1.24    0.51
   4   6  -4   63.44    2.58
  -4  -6   4   62.06    2.37
   3   6  -4   -0.14    0.30
   3   6  -4    0.70    0.50
  -3  -6   4    0.84    0.44
   2   6  -4  137.77    4.52
  -2  -6   4  128.41    4.57
   1   6  -4   24.27    1.21
  -1  -6   4   24.66    1.27
   0   6  -4   55.39    2.18
   0  -6   4   55.71    2.24
  -1   6  -4    1.95    0.51
   1  -6   4    1.45    0.55
  -2   6  -4   12.87    1.03
   2  -6   4   15.42    1.10
  -3   6  -4    9.84    0.92
   3  -6   4   10.78    0.96
  -4   6  -4    8.32    0.92
   4  -6   4    6.43    0.86
  -5   6  -4    6.71    1.01
   5  -6   4    7.30    0.98
  -6   6  -4   12.20    1.29
   6  -6   4   10.42    1.15
  -7   6  -4    3.51    1.06
   7  -6   4    4.56    0.99
  -8   6  -4    0.92    1.04
   8  -6   4    1.53    0.95
 -10  -5   4    0.12    0.77
   9   5  -4    0.53    0.81
  -9  -5   4    1.05    0.67
   8   5  -4   11.53    1.17
  -8  -5   4   10.62    0.93
   7   5  -4   14.20    1.21
  -7  -5   4   16.45    1.09
   6   5  -4    7.31    0.63
   6   5  -4    7.99    0.88
  -6  -5   4    7.57    0.72
   5   5  -4   15.46    1.20
   5   5  -4   16.74    0.87
  -5  -5   4   15.22    1.01
   4   5  -4    1.70    0.60
  -4  -5   4    1.86    0.49
   3   5  -4   66.03    2.66
   3   5  -4   70.37    2.41
  -3  -5   4   66.02    2.51
  -3  -5   4   70.65    2.53
   2   5  -4    8.59    0.66
   2   5  -4    6.73    0.71
  -2  -5   4    8.15    0.65
   1   5  -4  226.39    7.31
  -1  -5   4  217.75    7.34
   0   5  -4   10.25    0.74
   0  -5   4   10.86    0.82
   1  -5   4   18.37    1.09
  -2   5  -4   40.94    1.88
   2  -5   4   45.99    1.90
  -3   5  -4   39.46    1.84
   3  -5   4   42.18    1.91
  -4   5  -4   10.57    0.95
   4  -5   4   12.38    1.02
  -5   5  -4   15.05    1.21
   5  -5   4   14.04    1.14
  -6   5  -4    1.06    0.80
   6  -5   4    2.28    0.72
  -7   5  -4    6.67    1.09
   7  -5   4    4.91    0.93
  -8   5  -4    3.44    1.06
   8  -5   4    4.13    1.03
  -9   5  -4   -0.58    0.95
   9  -5   4    0.27    0.99
 -10  -4   4   -0.28    0.72
  -9  -4   4   11.95    1.13
   8   4  -4    0.09    0.76
  -8  -4   4   -0.05    0.64
   7   4  -4   99.49    3.54
   7   4  -4  102.45    3.93
  -7  -4   4   98.92    3.67
   6   4  -4    7.76    0.91
   6   4  -4    8.29    0.67
  -6  -4   4    8.19    0.76
   5   4  -4   37.88    1.45
   5   4  -4   34.39    1.73
  -5  -4   4   35.47    1.58
   4   4  -4    1.27    0.54
   4   4  -4    0.54    0.29
  -4  -4   4    0.51    0.46
   3   4  -4  127.54    4.24
   3   4  -4  125.38    4.45
  -3  -4   4  122.44    4.33
  -3  -4   4  133.45    4.36
   2   4  -4  172.59    5.94
   2   4  -4  179.68    5.80
  -2  -4   4  175.43    5.86
   1   4  -4    9.77    0.70
  -1  -4   4    9.48    0.75
   0   4  -4   43.30    1.70
   0  -4   4   40.47    1.70
  -1   4  -4   44.25    1.75
   1  -4   4   40.61    1.73
  -2   4  -4   76.70    2.86
   2  -4   4   78.71    2.88
  -3   4  -4   30.00    1.48
   3  -4   4   29.71    1.46
  -4   4  -4   84.86    3.27
   4  -4   4   88.44    3.29
  -5   4  -4   27.00    1.55
   5  -4   4   23.62    1.42
   5  -4   4   28.50    1.51
  -6   4  -4   28.61    1.70
   6  -4   4   27.71    1.65
  -7   4  -4   -0.54    0.75
   7  -4   4    0.29    0.73
  -8   4  -4    6.70    1.10
   8  -4   4    4.99    1.04
  -9   4  -4    0.08    0.91
   9  -4   4    0.91    0.96
 -10  -3   4    0.56    0.86
  -9  -3   4   10.94    1.12
   8   3  -4   40.59    2.14
  -8  -3   4   40.12    1.97
   7   3  -4    8.01    0.99
   7   3  -4    6.20    0.69
  -7  -3   4    8.74    0.86
   6   3  -4   55.35    2.09
   6   3  -4   55.82    2.39
  -6  -3   4   53.45    2.24
   5   3  -4    9.13    0.67
   5   3  -4    9.12    0.85
  -5  -3   4    8.83    0.75
   4   3  -4  152.93    4.84
   4   3  -4  146.03    4.70
   4   3  -4  149.08    5.06
  -4  -3   4  134.09    4.94
   3   3  -4    0.59    0.43
   3   3  -4    0.03    0.22
   3   3  -4    0.16    0.18
  -3  -3   4    0.21    0.39
  -3  -3   4   -0.46    0.32
   2   3  -4  165.28    5.76
   2   3  -4  173.32    5.67
  -2  -3   4  167.07    5.71
  -2  -3   4  180.86    5.41
   1   3  -4    0.86    0.33
  -1  -3   4    0.63    0.38
  -1  -3   4    0.89    0.18
   0   3  -4   56.37    2.05
   0  -3   4   53.99    2.08
  -1   3  -4    6.49    0.57
   1  -3   4    5.93    0.55
  -2   3  -4   52.29    2.00
   2  -3   4   49.36    1.97
  -3   3  -4  120.46    4.30
   3  -3   4  126.77    4.32
  -4   3  -4  114.18    4.11
   4  -3   4  113.67    4.04
   4  -3   4  117.81    4.10
  -5   3  -4   42.14    1.93
   5  -3   4   43.15    1.87
   5  -3   4   39.85    1.85
  -6   3  -4   48.22    2.17
   6  -3   4   48.49    2.21
  -7   3  -4   30.40    1.75
   7  -3   4   30.76    1.73
  -8   3  -4   16.41    1.35
   8  -3   4   17.31    1.41
  -9   3  -4    3.26    0.98
   9  -3   4    5.26    1.07
 -10   3  -4   23.94    1.82
  10  -3   4   23.18    1.84
 -10  -2   4   16.94    1.46
  -9  -2   4    1.50    0.83
  -8  -2   4   47.66    2.26
   7   2  -4    6.42    0.69
   7   2  -4    6.41    0.88
  -7  -2   4    4.94    0.76
   6   2  -4   71.51    3.04
   6   2  -4   77.88    2.84
  -6  -2   4   84.63    3.04
   5   2  -4    0.40    0.35
   5   2  -4    1.24    0.53
  -5  -2   4    0.41    0.49
   4   2  -4   43.67    1.56
   4   2  -4   42.62    1.79
  -4  -2   4   40.42    1.77
   3   2  -4   38.42    1.34
   3   2  -4   38.16    1.52
   3   2  -4   36.81    1.60
  -3  -2   4   37.20    1.59
   2   2  -4   36.88    1.44
   2   2  -4   35.46    1.50
  -2  -2   4   36.55    1.51
   1   2  -4    5.55    0.46
  -1  -2   4    4.97    0.51
   0   2  -4   94.66    3.26
   0  -2   4   94.09    3.01
   0  -2   4   94.07    3.27
  -1   2  -4   70.52    2.52
   1  -2   4   68.45    2.52
   1  -2   4   72.26    2.36
  -2   2  -4   13.68    0.82
   2  -2   4   14.03    0.86
   2  -2   4   14.67    0.76
  -3   2  -4  230.86    7.52
   3  -2   4  224.54    7.50
   3  -2   4  227.94    7.36
  -4   2  -4   65.76    2.49
   4  -2   4   63.60    2.43
   4  -2   4   65.59    2.46
  -5   2  -4   78.41    2.92
   5  -2   4   78.83    2.86
   5  -2   4   71.49    2.87
  -6   2  -4    0.89    0.60
   6  -2   4    1.23    0.56
  -7   2  -4   12.74    1.08
   7  -2   4   12.66    1.13
  -8   2  -4    4.25    0.84
   8  -2   4    2.58    0.79
  -9   2  -4   20.06    1.54
   9  -2   4   20.26    1.65
 -10   2  -4    1.91    0.92
  10  -2   4    2.75    1.05
  -9  -1   4   14.90    1.39
  -8  -1   4    4.88    0.95
   7   1  -4   24.08    1.33
  -7  -1   4   19.69    1.41
   6   1  -4   33.73    1.65
   6   1  -4   33.06    1.50
  -6  -1   4   30.89    1.65
   5   1  -4    7.25    0.62
   5   1  -4    7.68    0.77
  -5  -1   4    6.51    0.78
   4   1  -4    6.67    0.52
   4   1  -4    6.09    0.60
   4   1  -4    6.18    0.63
  -4  -1   4    4.31    0.62
   3   1  -4   35.60    1.42
   3   1  -4   32.50    1.23
   3   1  -4   32.73    1.41
  -3  -1   4   31.69    1.44
   2   1  -4   38.24    1.31
   2   1  -4   39.49    1.55
   2   1  -4   38.24    1.53
  -2  -1   4   38.17    1.57
  -2  -1   4   40.37    1.39
   1   1  -4  234.46    7.61
  -1  -1   4  232.32    7.64
   0   1  -4   10.51    0.73
   0  -1   4   11.33    0.43
   0  -1   4   10.91    0.71
  -1   1  -4  112.71    3.84
   1  -1   4  110.44    3.84
   1  -1   4  116.58    3.64
  -2   1  -4    0.75    0.32
   2  -1   4    1.13    0.29
   2  -1   4    1.09    0.33
  -3   1  -4  460.64   15.07
   3  -1   4  470.39   14.77
   3  -1   4  477.56   15.07
  -4   1  -4    8.57    0.69
   4  -1   4    7.96    0.63
   4  -1   4    7.24    0.62
  -5   1  -4   11.64    0.83
   5  -1   4   10.91    0.85
   5  -1   4   12.49    0.84
  -6   1  -4   -0.13    0.50
   6  -1   4    0.32    0.55
  -7   1  -4    3.34    0.69
   7  -1   4    2.61    0.74
  -8   1  -4    2.74    0.73
   8  -1   4    2.95    0.80
  -9   1  -4   10.82    1.11
   9  -1   4   11.89    1.27
 -10   1  -4   12.43    1.24
  10  -1   4   13.12    1.41
 -11   1  -4    0.02    0.90
  11  -1   4   -1.90    0.81
  -9   0   4    1.03    0.96
  -8   0   4    4.22    0.91
   7   0  -4    7.74    0.84
  -7   0   4    8.62    1.03
   6   0  -4   28.65    1.42
  -6   0   4   26.00    1.57
   5   0  -4    4.46    0.59
   5   0  -4    3.68    0.58
  -5   0   4    4.03    0.69
   4   0  -4  163.10    5.34
   4   0  -4  160.52    5.20
   4   0  -4  166.49    5.41
   4   0  -4  148.27    4.99
  -4   0   4  149.55    5.42
   3   0  -4  110.32    3.80
   3   0  -4  109.03    3.61
   3   0  -4  108.03    3.73
  -3   0   4  108.56    3.86
   2   0  -4  150.11    5.24
   2   0  -4  162.15    5.16
  -2   0   4  155.76    4.83
  -2   0   4  156.97    5.28
   1   0  -4  100.84    3.33
   1   0  -4   99.25    3.43
  -1   0   4   97.25    3.13
  -1   0   4   99.20    3.44
   0   0  -4   86.40    3.13
   0   0  -4   92.77    2.91
   0   0   4   94.44    3.19
  -1   0  -4   12.96    0.76
   1   0   4   13.61    0.60
   1   0   4   11.00    0.73
  -2   0  -4    8.51    0.61
   2   0   4    8.50    0.55
   2   0   4    8.02    0.60
  -3   0  -4   45.08    1.72
   3   0   4   44.57    1.73
   3   0   4   46.88    1.70
  -4   0  -4   27.45    1.23
   4   0   4   29.43    1.24
   4   0   4   27.26    1.24
  -5   0  -4   33.21    1.48
   5   0   4   37.00    1.47
   5   0   4   34.10    1.53
  -6   0  -4   -0.25    0.48
   6   0   4    0.80    0.49
  -7   0  -4    1.05    0.55
   7   0   4    0.52    0.56
  -8   0  -4   36.70    1.79
   8   0   4   38.57    1.94
  -9   0  -4    1.26    0.73
   9   0   4    0.92    0.80
 -10   0  -4    5.50    0.96
  10   0   4    5.72    1.12
 -11   0  -4   -0.31    0.82
  11   0   4    0.52    0.97
  -9   1   4   -1.27    0.85
  -8   1   4   11.31    1.25
   7  -1  -4    1.66    0.71
  -7   1   4    1.57    0.80
   6  -1  -4   24.17    1.35
  -6   1   4   21.07    1.47
   5  -1  -4    4.37    0.66
  -5   1   4    5.54    0.80
   4  -1  -4   57.54    2.32
   4  -1  -4   58.22    2.20
  -4   1   4   58.05    2.40
   3  -1  -4   12.23    0.74
   3  -1  -4   12.44    0.92
   3  -1  -4   12.35    0.82
  -3   1   4   12.73    0.78
  -3   1   4   11.58    0.89
   2  -1  -4   91.74    3.35
   2  -1  -4   96.71    3.18
  -2   1   4   94.57    3.39
  -2   1   4   95.10    3.08
   1  -1  -4   10.92    0.75
   1  -1  -4   10.84    0.55
  -1   1   4   10.16    0.79
  -1   1   4    9.64    0.65
   0  -1  -4    6.68    0.53
   0   1   4    5.94    0.53
  -1  -1  -4    4.93    0.50
   1   1   4    5.19    0.48
   1   1   4    5.18    0.42
  -2  -1  -4  279.31    8.89
   2   1   4  274.02    8.88
   2   1   4  270.15    8.68
  -3  -1  -4  127.32    4.42
   3   1   4  137.62    4.43
   3   1   4  132.72    4.37
  -4  -1  -4   87.80    3.11
  -4  -1  -4   97.34    3.17
   4   1   4   85.82    3.13
   4   1   4   89.77    3.10
  -5  -1  -4    4.32    0.52
  -5  -1  -4    6.27    0.56
   5   1   4    4.13    0.55
  -6  -1  -4   56.00    2.16
   6   1   4   57.86    2.32
  -7  -1  -4   12.68    0.91
   7   1   4   13.54    1.05
  -8  -1  -4   44.24    1.97
   8   1   4   48.58    2.23
  -9  -1  -4    7.73    0.88
   9   1   4    8.19    1.08
 -10  -1  -4    2.24    0.75
  10   1   4    2.82    0.95
 -11  -1  -4    1.28    0.78
  11   1   4    0.55    0.92
  -8   2   4   30.32    2.05
   7  -2  -4    3.61    0.82
  -7   2   4    1.75    0.89
   6  -2  -4   26.05    1.55
  -6   2   4   25.61    1.66
   5  -2  -4   12.60    0.98
  -5   2   4   15.15    1.19
   4  -2  -4   24.87    1.40
  -4   2   4   25.14    1.49
   3  -2  -4   30.91    1.49
  -3   2   4   26.45    1.43
   2  -2  -4   57.17    2.23
  -2   2   4   57.88    2.02
  -2   2   4   53.58    2.24
   1  -2  -4  124.19    3.93
   1  -2  -4  119.47    4.21
  -1   2   4  122.37    3.87
  -1   2   4  119.99    4.21
   0  -2  -4    7.09    0.59
   0  -2  -4    8.19    0.40
   0   2   4    8.38    0.68
   0   2   4    9.42    0.58
  -1  -2  -4  255.39    8.65
   1   2   4  276.89    8.66
  -2  -2  -4   44.16    1.66
   2   2   4   41.82    1.61
   2   2   4   43.22    1.59
  -3  -2  -4  332.11   10.76
  -3  -2  -4  347.20   10.76
   3   2   4  333.82   10.72
   3   2   4  323.19   10.58
  -4  -2  -4    3.54    0.42
  -4  -2  -4    3.11    0.44
   4   2   4    3.69    0.49
   4   2   4    2.76    0.29
  -5  -2  -4   50.64    1.96
  -5  -2  -4   55.59    2.02
   5   2   4   52.35    2.09
   5   2   4   54.63    1.89
  -6  -2  -4    2.06    0.43
   6   2   4    2.49    0.57
  -7  -2  -4  109.23    3.80
   7   2   4  107.93    3.98
  -8  -2  -4    1.37    0.52
   8   2   4    0.74    0.61
  -9  -2  -4   27.28    1.44
   9   2   4   27.75    1.71
 -10  -2  -4    0.15    0.62
  10   2   4    0.31    0.81
 -11  -2  -4   12.89    1.15
  11   2   4   14.55    1.51
 -12  -2  -4    0.74    0.80
  12   2   4    1.46    1.06
  -8   3   4    5.03    1.14
   7  -3  -4   21.52    1.57
  -7   3   4   18.93    1.61
   6  -3  -4    0.44    0.71
  -6   3   4   -0.63    0.75
  -5   3   4   19.64    1.39
   4  -3  -4    2.47    0.70
  -4   3   4    1.53    0.65
   3  -3  -4   73.11    2.90
  -3   3   4   73.30    2.92
   2  -3  -4   17.89    1.15
  -2   3   4   16.52    1.08
   1  -3  -4  101.93    3.67
  -1   3   4  101.31    3.65
  -1   3   4  104.51    3.36
   0  -3  -4   25.32    1.21
   0   3   4   23.24    1.16
   0   3   4   21.30    1.00
  -1  -3  -4  100.79    3.29
  -1  -3  -4  100.27    3.52
   1   3   4  104.97    3.53
  -2  -3  -4   11.26    0.75
  -2  -3  -4    9.98    0.55
   2   3   4   12.31    0.72
  -3  -3  -4  134.37    4.54
  -3  -3  -4  139.24    4.57
   3   3   4  139.00    4.50
   3   3   4  131.83    4.51
  -4  -3  -4   40.56    1.56
  -4  -3  -4   40.83    1.54
   4   3   4   40.30    1.45
   4   3   4   38.04    1.61
  -5  -3  -4   21.02    0.99
  -5  -3  -4   19.96    0.92
   5   3   4   16.35    1.07
  -6  -3  -4   38.58    1.53
  -6  -3  -4   35.63    1.45
   6   3   4   35.79    1.68
  -7  -3  -4   31.91    1.39
   7   3   4   34.23    1.64
  -8  -3  -4   65.93    2.45
   8   3   4   64.47    2.75
  -9  -3  -4   11.91    0.92
   9   3   4    9.93    1.07
 -10  -3  -4   20.60    1.28
  10   3   4   20.65    1.62
 -11  -3  -4    3.43    0.75
  11   3   4    2.35    0.97
 -12  -3  -4   17.95    1.36
  12   3   4   15.86    1.58
  -8   4   4    3.71    1.23
   7  -4  -4    4.20    0.93
  -7   4   4    2.32    1.04
   6  -4  -4   19.93    1.58
  -6   4   4   22.62    1.65
  -5   4   4    0.86    0.74
   4  -4  -4    9.18    1.00
  -4   4   4    8.24    0.96
   3  -4  -4   82.92    3.16
  -3   4   4   74.74    3.13
   2  -4  -4   68.67    2.84
  -2   4   4   77.35    2.63
  -2   4   4   71.27    2.85
   1  -4  -4   -0.26    0.44
  -1   4   4    0.33    0.35
  -1   4   4    0.43    0.53
   0  -4  -4   28.75    1.36
   0   4   4   27.49    1.20
   0   4   4   28.10    1.36
  -1  -4  -4    1.77    0.43
   1   4   4    1.02    0.36
   1   4   4    0.90    0.40
  -2  -4  -4   56.76    1.91
  -2  -4  -4   55.70    2.09
   2   4   4   52.75    2.03
  -3  -4  -4    0.76    0.36
  -3  -4  -4    0.87    0.39
   3   4   4    0.27    0.27
   3   4   4    0.13    0.33
  -4  -4  -4   23.86    1.09
  -4  -4  -4   27.19    1.15
   4   4   4   24.48    1.23
   4   4   4   25.12    0.99
  -5  -4  -4    2.11    0.38
  -5  -4  -4    2.12    0.39
   5   4   4    1.43    0.50
  -6  -4  -4   33.14    1.36
  -6  -4  -4   31.65    1.30
   6   4   4   30.66    1.51
  -7  -4  -4    4.74    0.49
   7   4   4    5.56    0.75
  -8  -4  -4   69.11    2.53
   8   4   4   71.01    2.86
  -9  -4  -4    0.34    0.47
   9   4   4    1.01    0.71
 -10  -4  -4    8.45    0.78
  10   4   4    7.25    1.04
 -11  -4  -4    2.19    0.64
  11   4   4    2.23    0.97
 -12  -4  -4    6.12    0.86
  12   4   4    7.20    1.31
   7  -5  -4    2.88    1.01
  -7   5   4    3.78    1.18
   6  -5  -4    3.77    0.97
  -6   5   4    3.50    1.08
  -5   5   4   -0.46    0.75
  -4   5   4   45.97    2.26
   3  -5  -4    5.45    0.91
  -3   5   4    5.48    0.89
   2  -5  -4  121.98    4.50
  -2   5   4  124.27    4.53
   1  -5  -4   41.95    1.98
  -1   5   4   43.26    1.77
  -1   5   4   43.46    1.96
   0  -5  -4   18.12    1.17
   0   5   4   19.62    1.03
   0   5   4   18.71    1.16
  -1  -5  -4    5.48    0.60
   1   5   4    5.41    0.57
   1   5   4    5.46    0.55
  -2  -5  -4  136.60    4.22
  -2  -5  -4  125.05    4.42
   2   5   4  127.98    4.39
   2   5   4  125.98    4.09
  -3  -5  -4   46.84    1.87
   3   5   4   50.25    1.81
  -4  -5  -4    2.68    0.44
  -4  -5  -4    3.44    0.47
   4   5   4    3.76    0.56
  -5  -5  -4   33.59    1.36
  -5  -5  -4   30.16    1.30
   5   5   4   31.72    1.48
  -6  -5  -4   29.67    1.21
  -6  -5  -4   27.39    1.17
   6   5   4   25.05    1.44
  -7  -5  -4  133.42    4.59
   7   5   4  144.88    4.92
  -8  -5  -4   22.54    1.04
   8   5   4   21.19    1.37
  -9  -5  -4    9.09    0.72
   9   5   4    8.77    0.99
 -10  -5  -4    0.47    0.46
  10   5   4   -0.05    0.75
 -11  -5  -4   13.70    0.98
  11   5   4   11.52    1.33
 -12  -5  -4   -0.33    0.58
  12   5   4    0.74    0.97
   7  -6  -4    2.07    1.03
  -7   6   4    2.62    1.16
  -6   6   4    3.10    1.16
  -5   6   4    6.90    1.18
  -4   6   4    3.62    0.99
   3  -6  -4   49.39    2.34
  -3   6   4   40.80    2.17
   2  -6  -4   19.36    1.37
  -2   6   4   20.80    1.37
   1  -6  -4   31.35    1.73
  -1   6   4   30.14    1.61
  -1   6   4   32.78    1.52
   0  -6  -4   60.50    2.51
   0   6   4   63.62    2.48
   0   6   4   57.54    2.23
  -1  -6  -4  226.44    7.57
   1   6   4  223.99    7.52
   1   6   4  224.78    6.99
  -2  -6  -4    3.11    0.52
   2   6   4    1.79    0.44
   2   6   4    2.13    0.43
  -3  -6  -4  137.69    4.71
   3   6   4  141.49    4.63
   3   6   4  134.46    4.35
  -4  -6  -4    0.22    0.39
  -4  -6  -4   -0.34    0.38
  -5  -6  -4  139.69    4.52
  -5  -6  -4  127.82    4.48
   5   6   4  133.95    4.68
  -6  -6  -4    1.77    0.39
   6   6   4    2.10    0.61
  -7  -6  -4   43.66    1.62
   7   6   4   41.58    1.96
  -8  -6  -4    0.76    0.36
   8   6   4    0.52    0.60
  -9  -6  -4    1.33    0.42
   9   6   4    3.08    0.78
 -10  -6  -4   15.96    0.91
  10   6   4   14.27    1.30
 -11  -6  -4    0.92    0.50
  11   6   4    1.82    0.94
  12   6   4    8.36    1.31
  -6   7   4    0.61    1.06
  -5   7   4   13.45    1.52
  -4   7   4    3.24    1.06
   3  -7  -4   11.19    1.27
  -3   7   4   11.46    1.25
   2  -7  -4    7.42    1.01
  -2   7   4    6.16    0.99
   1  -7  -4    5.59    0.92
  -1   7   4    7.06    0.85
   0  -7  -4   33.01    1.73
   0   7   4   35.79    1.73
   0   7   4   31.87    1.53
  -1  -7  -4   87.93    3.38
   1   7   4   89.07    3.33
   1   7   4   91.41    3.12
  -2  -7  -4    1.89    0.54
   2   7   4    2.52    0.50
   2   7   4    2.49    0.53
  -3  -7  -4   41.58    1.91
   3   7   4   47.25    1.84
   3   7   4   49.20    1.74
   3   7   4   47.47    1.77
  -4  -7  -4   58.02    2.22
   4   7   4   57.43    2.13
   4   7   4   55.37    2.00
  -5  -7  -4   24.60    1.17
   5   7   4   22.37    1.18
  -6  -7  -4   57.86    2.12
   6   7   4   58.02    2.45
  -7  -7  -4    7.67    0.55
   7   7   4    6.81    0.84
  -8  -7  -4   14.16    0.78
   8   7   4   16.97    1.30
  -9  -7  -4    0.59    0.36
   9   7   4    0.43    0.70
 -10  -7  -4   33.04    1.28
  10   7   4   28.31    1.83
  11   7   4    1.08    0.91
  12   7   4   12.06    1.46
  -5   8   4    0.14    1.08
  -4   8   4   15.26    1.51
   3  -8  -4    3.23    0.98
  -3   8   4    3.65    1.06
   2  -8  -4   17.10    1.49
  -2   8   4   17.32    1.45
   1  -8  -4    9.22    1.05
  -1   8   4    8.43    1.01
   0  -8  -4   21.98    1.53
   0   8   4   20.67    1.32
   0   8   4   24.08    1.48
  -1  -8  -4   36.14    1.86
   1   8   4   39.69    1.82
   1   8   4   38.53    1.72
  -2  -8  -4    3.50    0.66
   2   8   4    2.59    0.55
   2   8   4    3.03    0.31
  -3  -8  -4    0.19    0.52
   3   8   4   -0.13    0.30
   3   8   4   -0.14    0.40
  -4  -8  -4   33.39    1.58
   4   8   4   35.35    1.49
   4   8   4   35.82    1.46
  -5  -8  -4   39.13    1.68
   5   8   4   38.99    1.54
   5   8   4   42.72    1.74
  -6  -8  -4   17.22    1.00
   6   8   4   17.53    1.11
  -7  -8  -4    2.05    0.44
   7   8   4    3.10    0.77
  -8  -8  -4   55.14    2.01
   8   8   4   57.86    2.55
  -9  -8  -4    9.43    0.60
   9   8   4    8.18    1.02
  10   8   4   17.87    1.45
  11   8   4    1.48    0.93
  12   8   4   17.24    1.63
  -4   9   4    2.54    1.15
  -3   9   4    0.74    0.92
   2  -9  -4    5.44    1.21
  -2   9   4    7.75    1.15
   1  -9  -4    7.66    1.17
   0  -9  -4    5.92    1.02
  -1  -9  -4    8.63    1.02
   1   9   4    8.47    0.85
  -2  -9  -4   31.09    1.72
   2   9   4   29.68    1.50
  -3  -9  -4   71.24    2.74
   3   9   4   64.48    2.36
   3   9   4   63.59    2.45
  -4  -9  -4    0.67    0.59
   4   9   4    0.74    0.40
   4   9   4    0.09    0.42
  -5  -9  -4   21.90    1.20
   5   9   4   19.85    1.05
   5   9   4   20.31    1.12
  -6  -9  -4   10.28    0.84
   6   9   4   10.11    0.85
   6   9   4   10.22    0.72
  -7  -9  -4   16.84    0.98
   7   9   4   16.58    0.87
  -8  -9  -4    1.56    0.41
  -9  -9  -4   14.87    0.74
   9   9   4   15.72    1.32
  10   9   4    4.74    0.98
  11   9   4   14.74    1.44
  12   9   4   -1.77    0.89
   2 -10  -4    0.08    1.04
   1 -10  -4   22.54    1.86
   0 -10  -4   -0.73    0.84
  -1 -10  -4   26.43    1.79
   1  10   4   28.67    1.60
  -2 -10  -4    0.35    0.72
   2  10   4    0.54    0.55
  -3 -10  -4   19.68    1.35
   3  10   4   16.27    1.14
  -4 -10  -4    9.01    0.92
   4  10   4    8.51    0.78
  -5 -10  -4   13.79    1.13
   5  10   4   15.55    1.01
   5  10   4   15.39    0.96
  -6 -10  -4    0.01    0.54
   6  10   4    0.12    0.45
   6  10   4   -0.31    0.47
  -7 -10  -4   22.36    1.22
   7  10   4   23.12    1.12
   7  10   4   24.26    1.42
  -8 -10  -4   12.86    0.86
   8  10   4   12.69    0.78
  -9 -10  -4    1.60    0.42
   9  10   4    1.71    0.41
  10  10   4    7.80    0.58
  10  10   4    6.70    1.05
  11  10   4    8.73    1.29
  12  10   4    7.64    1.31
   2 -11  -4   11.72    1.60
   1 -11  -4    8.24    1.37
   0 -11  -4   21.67    1.77
  -1 -11  -4   11.83    1.35
  -2 -11  -4   23.23    1.69
   2  11   4   26.01    1.50
  -3 -11  -4    3.69    0.87
   3  11   4    4.81    0.73
  -4 -11  -4   55.51    2.47
   4  11   4   56.06    2.28
  -5 -11  -4    5.42    0.80
   5  11   4    5.72    0.75
  -6 -11  -4   49.12    2.11
   6  11   4   48.50    2.11
   6  11   4   47.80    1.93
  -7 -11  -4   -0.24    0.53
   7  11   4    0.62    0.65
   7  11   4    0.49    0.44
  -8 -11  -4   31.05    1.46
   8  11   4   32.19    1.36
  -9 -11  -4    0.53    0.47
   9  11   4    0.26    0.39
  10  11   4   20.22    0.92
   1 -12  -4    1.14    1.10
   0 -12  -4    5.51    1.29
  -1 -12  -4    0.80    1.01
  -2 -12  -4    8.94    1.23
   2  12   4    9.03    1.07
  -3 -12  -4    6.96    1.10
   3  12   4    7.18    0.93
  -4 -12  -4   14.70    1.26
   4  12   4   13.71    1.10
  -5 -12  -4   23.67    1.55
   5  12   4   22.63    1.38
  -6 -12  -4   12.55    1.08
   6  12   4   11.49    0.94
  -7 -12  -4    6.41    0.84
   7  12   4    6.91    0.77
  -8 -12  -4    8.46    0.84
   8  12   4   10.54    0.79
  -9 -12  -4   11.44    0.91
   9  12   4   10.78    0.82
  10  12   4    9.17    0.70
   1 -13  -4    4.46    1.41
   0 -13  -4    1.56    1.11
  -1 -13  -4   -0.63    1.06
  -2 -13  -4    5.26    1.17
  -3 -13  -4   17.37    1.57
   3  13   4   20.84    1.50
  -4 -13  -4    3.54    0.97
   4  13   4    3.54    0.82
  -5 -13  -4   16.82    1.38
   5  13   4   14.21    1.15
  -6 -13  -4    3.39    0.85
   6  13   4    3.70    0.72
  -7 -13  -4    5.28    0.85
   7  13   4    5.13    0.74
  -8 -13  -4    0.79    0.62
   8  13   4   -0.02    0.53
  -9 -13  -4   10.26    0.88
   9  13   4    8.52    0.76
  10  13   4    0.21    0.45
  -2 -14  -4    7.58    1.35
  -3 -14  -4    8.63    1.36
  -4 -14  -4    3.41    1.12
   4  14   4    5.47    0.96
  -5 -14  -4    7.85    1.18
   5  14   4    5.14    0.89
  -6 -14  -4    4.80    0.98
   6  14   4    5.03    0.87
  -7 -14  -4    1.01    0.79
   7  14   4    1.46    0.69
  -8 -14  -4    4.71    0.86
   8  14   4    4.64    0.74
  -9 -14  -4    0.12    0.66
   9  14   4   -0.72    0.51
   4  15   4    1.39    0.86
   5  15   4   -0.33    0.73
  -6 -15  -4    1.20    0.93
   6  15   4    1.39    0.80
  -7 -15  -4    8.17    1.13
  -6 -14   5    8.04    1.13
  -5 -14   5   -0.05    0.88
  -4 -14   5   15.35    1.49
   3  14  -5    0.01    0.92
  -3 -14   5    1.17    0.92
   2  14  -5    4.48    1.11
  -2 -14   5    4.00    1.13
   1  14  -5   -0.77    0.91
  -1 -14   5   -1.73    0.94
   0 -14   5    8.63    1.44
  -8 -13   5   -0.01    0.75
  -7 -13   5    5.26    0.92
  -6 -13   5    4.46    0.92
   5  13  -5   10.74    1.35
  -5 -13   5    8.14    1.14
   4  13  -5   -0.88    0.85
  -4 -13   5   -0.42    0.78
   3  13  -5   14.10    1.43
  -3 -13   5   13.88    1.34
   2  13  -5   -0.97    0.85
  -2 -13   5   -0.30    0.88
   1  13  -5   24.26    1.89
  -1 -13   5   22.42    1.85
   0  13  -5   -1.10    0.88
   0 -13   5    0.42    1.00
   1 -13   5   12.43    1.52
   2 -13   5    0.51    1.06
  -8 -12   5    0.19    0.67
   7  12  -5   25.46    1.98
  -7 -12   5   26.09    1.55
   6  12  -5    1.01    0.98
  -6 -12   5    0.69    0.73
   5  12  -5   19.09    1.59
  -5 -12   5   16.32    1.33
   4  12  -5    1.78    0.93
  -4 -12   5    1.78    0.79
   3  12  -5   11.83    1.32
  -3 -12   5   12.22    1.21
   2  12  -5    2.16    0.93
  -2 -12   5    2.63    0.89
   1  12  -5    8.79    1.25
  -1 -12   5    8.87    1.22
   0 -12   5   10.40    1.24
   1 -12   5    3.28    1.10
   2 -12   5   18.03    1.71
   3 -12   5    6.26    1.34
  -8 -11   5   11.27    0.99
   7  11  -5    6.94    1.15
  -7 -11   5    7.22    0.92
   6  11  -5    9.22    1.28
  -6 -11   5    9.33    0.96
   5  11  -5   -0.04    0.78
  -5 -11   5    2.07    0.75
   4  11  -5   24.89    1.68
  -4 -11   5   23.92    1.52
   3  11  -5    1.53    0.83
  -3 -11   5    0.69    0.72
   2  11  -5   18.63    1.49
  -2 -11   5   20.00    1.49
  -1 -11   5    0.08    0.79
   0 -11   5   16.33    1.43
   1 -11   5   -0.27    0.86
   2 -11   5    9.38    1.27
   3 -11   5    0.16    1.03
  -9 -10   5    1.58    0.66
   8  10  -5   13.21    1.47
  -8 -10   5   13.00    1.08
   7  10  -5    8.83    1.25
  -7 -10   5    9.72    0.92
   6  10  -5    7.73    1.10
  -6 -10   5    6.03    0.81
   5  10  -5   12.12    1.25
  -5 -10   5   13.52    1.07
   4  10  -5   34.26    1.93
  -4 -10   5   33.84    1.76
   3  10  -5   27.54    1.70
  -3 -10   5   26.22    1.56
   2  10  -5   10.17    1.14
  -2 -10   5    7.09    0.94
  -1 -10   5    4.86    0.89
   0 -10   5   14.28    1.27
   1 -10   5   18.06    1.47
   2 -10   5    0.47    0.83
   3 -10   5    2.44    1.04
  -9  -9   5   25.28    1.42
   8   9  -5    2.14    0.99
  -8  -9   5    1.73    0.65
   7   9  -5   13.86    1.38
  -7  -9   5   14.40    1.09
   6   9  -5    0.14    0.75
  -6  -9   5   -0.09    0.58
   5   9  -5   34.54    1.95
  -5  -9   5   38.94    1.82
   4   9  -5    3.20    0.84
  -4  -9   5    3.94    0.71
   3   9  -5   27.55    1.67
  -3  -9   5   24.05    1.45
   2   9  -5    0.55    0.68
  -2  -9   5    1.05    0.63
  -1  -9   5   30.77    1.70
   0  -9   5    4.15    0.86
   1  -9   5   27.79    1.75
  -2   9  -5    0.41    0.73
   2  -9   5    2.88    0.83
  -3   9  -5    0.49    0.81
   3  -9   5   -0.14    0.86
  -4   9  -5    0.48    0.87
   4  -9   5    0.42    0.82
  -5   9  -5    7.25    1.29
  -6   9  -5    2.03    1.11
   6  -9   5    3.68    1.17
  -7   9  -5   -1.43    1.11
 -10  -8   5    1.16    0.69
   9   8  -5   16.60    1.53
  -9  -8   5   13.51    1.08
   8   8  -5    3.95    0.97
  -8  -8   5    3.59    0.71
   7   8  -5    9.94    1.14
  -7  -8   5    9.27    0.86
   6   8  -5    4.33    0.93
  -6  -8   5    3.06    0.67
   5   8  -5   40.76    2.03
  -5  -8   5   37.74    1.77
   4   8  -5   38.70    2.01
  -4  -8   5   43.68    1.90
   3   8  -5   14.05    1.18
  -3  -8   5   14.30    1.10
   2   8  -5   23.78    1.49
  -2  -8   5   24.99    1.41
  -1  -8   5   37.16    1.79
   0   8  -5  102.34    3.73
   0  -8   5   97.97    3.81
  -1   8  -5    4.44    0.78
   1  -8   5    4.29    0.78
  -2   8  -5    5.19    0.87
   2  -8   5    6.52    0.98
  -3   8  -5    8.60    1.01
   3  -8   5    8.84    1.05
  -4   8  -5   29.02    1.89
   4  -8   5   27.32    1.84
  -5   8  -5    4.04    1.01
  -6   8  -5   10.02    1.34
   6  -8   5    6.28    1.18
  -7   8  -5   -0.63    1.09
   7  -8   5   -0.06    0.98
 -10  -7   5   21.73    1.43
   9   7  -5   -0.38    0.86
  -9  -7   5    0.94    0.67
   8   7  -5   10.37    1.22
  -8  -7   5   11.30    0.97
   7   7  -5    3.71    0.91
  -7  -7   5    3.37    0.68
   6   7  -5   60.14    2.63
  -6  -7   5   53.86    2.28
   5   7  -5    7.58    0.93
  -5  -7   5    8.08    0.80
   4   7  -5   50.22    2.26
  -4  -7   5   49.50    2.07
   3   7  -5    2.68    0.66
  -3  -7   5    3.58    0.62
  -2  -7   5   40.58    1.83
   1   7  -5    2.62    0.55
  -1  -7   5    3.59    0.68
   0   7  -5    7.47    0.76
   0  -7   5    8.08    0.82
  -1   7  -5    5.16    0.70
   1  -7   5    5.45    0.76
  -2   7  -5    5.11    0.75
   2  -7   5    4.49    0.83
  -3   7  -5   17.34    1.26
   3  -7   5   15.77    1.28
  -4   7  -5   50.26    2.43
   4  -7   5   48.74    2.40
  -5   7  -5   14.01    1.37
  -6   7  -5    9.66    1.30
   6  -7   5   10.34    1.18
  -7   7  -5    3.13    1.18
   7  -7   5    5.19    1.16
  -8   7  -5    6.22    1.30
 -10  -6   5   17.72    1.41
   9   6  -5    1.05    0.95
  -9  -6   5    0.56    0.71
   8   6  -5   14.47    1.34
  -8  -6   5   14.27    1.18
   7   6  -5    0.89    0.72
  -7  -6   5    0.52    0.61
   6   6  -5   43.48    2.20
  -6  -6   5   46.59    1.99
   5   6  -5    6.97    0.92
  -5  -6   5    6.37    0.73
   4   6  -5   13.18    1.08
  -4  -6   5   13.26    1.00
   3   6  -5   44.14    2.06
  -3  -6   5   45.38    1.91
   2   6  -5   10.82    0.81
  -2  -6   5   11.25    0.94
   1   6  -5   17.92    1.05
  -1  -6   5   17.47    1.14
   0   6  -5    9.33    0.79
   0  -6   5    8.05    0.78
  -1   6  -5   20.17    1.16
   1  -6   5   16.99    1.16
  -2   6  -5   17.35    1.22
   2  -6   5   17.62    1.27
  -3   6  -5   39.69    1.87
   3  -6   5   37.93    1.89
  -4   6  -5    2.56    0.74
   4  -6   5    1.05    0.67
  -5   6  -5   13.36    1.19
   5  -6   5   11.98    1.10
   5  -6   5   11.70    1.15
  -6   6  -5    3.62    0.98
   6  -6   5    4.07    0.92
  -7   6  -5   13.36    1.37
   7  -6   5   16.68    1.48
  -8   6  -5   -0.98    0.96
   8  -6   5    0.75    0.89
 -10  -5   5    0.25    0.80
   9   5  -5   18.70    1.60
  -9  -5   5   17.54    1.37
   8   5  -5   -0.25    0.80
  -8  -5   5    0.51    0.65
   7   5  -5   31.29    1.81
  -7  -5   5   32.20    1.64
   6   5  -5    1.02    0.65
  -6  -5   5    0.86    0.58
   5   5  -5   80.35    3.18
  -5  -5   5   78.45    2.98
   4   5  -5   27.94    1.55
  -4  -5   5   29.16    1.40
   3   5  -5   46.00    1.98
  -3  -5   5   43.14    1.86
   2   5  -5    0.25    0.36
   2   5  -5   -0.53    0.45
  -2  -5   5    0.24    0.46
   1   5  -5   22.36    1.12
  -1  -5   5   18.93    1.16
   0   5  -5    5.02    0.61
   0  -5   5    3.91    0.58
  -1   5  -5   92.92    3.35
   1  -5   5   89.10    3.34
  -2   5  -5   14.68    1.00
   2  -5   5   13.70    1.04
  -3   5  -5   34.62    1.71
   3  -5   5   34.24    1.73
  -4   5  -5   18.07    1.25
   4  -5   5   16.17    1.26
  -5   5  -5    8.71    1.00
   5  -5   5    7.91    0.94
   5  -5   5    7.39    0.91
  -6   5  -5    9.94    1.09
   6  -5   5   12.87    1.16
  -7   5  -5    3.21    0.96
   7  -5   5    2.75    0.92
  -8   5  -5    1.27    0.97
   8  -5   5    1.41    0.95
  -9   5  -5   -0.33    1.00
   9  -5   5    2.10    1.05
 -10  -4   5    9.63    1.19
  -9  -4   5   12.01    1.20
   8   4  -5   11.56    1.24
  -8  -4   5   11.48    1.07
   7   4  -5   18.41    1.45
  -7  -4   5   19.49    1.30
   6   4  -5  107.56    3.95
  -6  -4   5   99.08    3.78
   5   4  -5   15.51    0.77
   5   4  -5   12.54    1.05
  -5  -4   5   15.84    1.09
   4   4  -5  121.11    4.41
  -4  -4   5  125.31    4.35
   3   4  -5    7.65    0.74
   3   4  -5    7.93    0.66
  -3  -4   5    8.02    0.72
   2   4  -5   36.44    1.71
   2   4  -5   37.89    1.53
  -2  -4   5   38.11    1.27
  -2  -4   5   36.58    1.63
   1   4  -5    6.91    0.61
  -1  -4   5    6.75    0.66
   0   4  -5  274.75    9.02
   0  -4   5  275.25    9.06
  -1   4  -5   -0.02    0.38
   1  -4   5    0.20    0.43
  -2   4  -5  143.46    4.90
   2  -4   5  139.17    4.90
  -3   4  -5    8.71    0.83
   3  -4   5    9.34    0.83
  -4   4  -5   77.41    3.05
   4  -4   5   77.96    2.92
   4  -4   5   77.09    2.99
  -5   4  -5    2.07    0.70
   5  -4   5    2.65    0.66
   5  -4   5    1.57    0.62
  -6   4  -5   21.11    1.49
   6  -4   5   21.98    1.47
  -7   4  -5   -0.52    0.76
   7  -4   5    0.48    0.74
  -8   4  -5    3.25    0.91
   8  -4   5    3.69    0.92
  -9   4  -5    1.52    0.88
   9  -4   5    2.26    1.03
  -9  -3   5    4.67    0.94
   8   3  -5    7.08    1.07
  -8  -3   5    8.09    0.99
   7   3  -5    7.37    1.01
  -7  -3   5    7.73    0.91
   6   3  -5   30.76    1.63
  -6  -3   5   29.03    1.58
   5   3  -5   43.58    1.99
   5   3  -5   45.12    1.65
  -5  -3   5   42.12    1.91
   4   3  -5   16.27    0.72
   4   3  -5   15.60    1.09
  -4  -3   5   14.30    1.02
   3   3  -5   27.52    1.33
   3   3  -5   27.60    1.24
  -3  -3   5   24.92    1.32
   2   3  -5  141.30    4.89
   2   3  -5  140.02    4.80
  -2  -3   5  145.36    4.88
   1   3  -5   72.15    2.61
  -1  -3   5   71.22    2.64
   0   3  -5  287.79    8.84
   0  -3   5  251.07    8.82
  -1   3  -5   32.80    1.45
   1  -3   5   30.51    1.41
  -2   3  -5   84.68    3.07
   2  -3   5   86.88    2.92
   2  -3   5   81.85    3.09
  -3   3  -5   23.63    1.30
   3  -3   5   25.20    1.21
   3  -3   5   26.67    1.29
  -4   3  -5   15.83    1.09
   4  -3   5   13.93    0.99
   4  -3   5   14.67    1.05
  -5   3  -5    7.32    0.85
   5  -3   5    6.06    0.77
   5  -3   5    6.80    0.77
  -6   3  -5    7.09    0.84
   6  -3   5    7.78    0.91
  -7   3  -5   16.51    1.34
   7  -3   5   15.27    1.26
  -8   3  -5    1.68    0.85
   8  -3   5    3.23    0.91
  -9   3  -5   11.62    1.26
   9  -3   5    9.26    1.28
 -10   3  -5    2.22    1.01
  10  -3   5    0.74    1.00
  -9  -2   5    2.73    0.91
  -8  -2   5    8.97    1.12
   7   2  -5   31.69    1.80
  -7  -2   5   34.16    1.83
   6   2  -5   12.33    1.06
  -6  -2   5    7.75    0.88
   5   2  -5    9.30    0.67
   5   2  -5    9.98    0.88
  -5  -2   5    9.55    0.91
   4   2  -5   34.36    1.28
   4   2  -5   32.70    1.56
  -4  -2   5   33.26    1.60
   3   2  -5   62.30    1.98
   3   2  -5   58.88    2.31
   3   2  -5   62.19    2.30
  -3  -2   5   55.82    2.34
   2   2  -5    6.95    0.59
   2   2  -5    6.82    0.62
  -2  -2   5    6.20    0.65
   1   2  -5   76.12    2.71
  -1  -2   5   75.21    2.77
   0   2  -5    2.60    0.43
   0  -2   5    3.04    0.46
   0  -2   5    3.43    0.28
  -1   2  -5  233.78    7.72
   1  -2   5  234.68    7.40
   1  -2   5  234.53    7.73
  -2   2  -5   32.97    1.42
   2  -2   5   32.82    1.28
   2  -2   5   29.63    1.39
  -3   2  -5   59.44    2.26
   3  -2   5   59.32    2.16
   3  -2   5   56.78    2.24
  -4   2  -5    0.23    0.47
   4  -2   5   -0.28    0.40
   4  -2   5    0.22    0.45
  -5   2  -5   82.19    3.10
   5  -2   5   79.23    3.02
   5  -2   5   81.10    3.03
  -6   2  -5   -0.19    0.55
   6  -2   5   -0.19    0.55
  -7   2  -5   25.61    1.54
   7  -2   5   26.67    1.57
  -8   2  -5    4.49    0.87
   8  -2   5    4.10    0.92
  -9   2  -5    9.97    1.12
   9  -2   5    6.54    1.12
 -10   2  -5    1.37    0.91
  10  -2   5    0.91    0.95
  -9  -1   5   16.18    1.42
  -8  -1   5    9.32    1.13
  -7  -1   5   13.13    1.21
   6   1  -5    0.78    0.45
   6   1  -5    0.24    0.61
  -6  -1   5    0.38    0.62
   5   1  -5   41.05    1.82
   5   1  -5   40.02    1.60
  -5  -1   5   39.18    1.89
   4   1  -5    4.02    0.43
   4   1  -5    5.39    0.63
   4   1  -5    5.13    0.64
  -4  -1   5    5.55    0.73
   3   1  -5   19.25    1.08
   3   1  -5   18.14    0.79
   3   1  -5   19.48    1.05
  -3  -1   5   20.64    1.19
   2   1  -5   11.25    0.82
   2   1  -5   10.94    0.75
   2   1  -5   10.54    0.44
  -2  -1   5   11.62    0.88
  -2  -1   5   10.61    0.67
   1   1  -5   14.32    0.89
  -1  -1   5   14.21    0.93
   0   1  -5   17.89    0.98
   0  -1   5   18.69    0.99
  -1   1  -5    6.52    0.57
   1  -1   5    6.65    0.43
   1  -1   5    5.43    0.54
  -2   1  -5   53.17    2.03
   2  -1   5   50.76    2.01
   2  -1   5   54.05    1.87
  -3   1  -5    9.60    0.75
   3  -1   5    7.04    0.64
   3  -1   5   10.05    0.68
  -4   1  -5    2.32    0.50
   4  -1   5    3.13    0.50
   4  -1   5    1.70    0.47
  -5   1  -5   31.37    1.51
   5  -1   5   33.40    1.48
   5  -1   5   31.67    1.50
  -6   1  -5   50.42    2.11
   6  -1   5   48.96    2.16
  -7   1  -5    4.57    0.72
   7  -1   5    2.63    0.68
  -8   1  -5   15.18    1.24
   8  -1   5   17.41    1.37
  -9   1  -5    4.26    0.85
   9  -1   5    3.40    0.92
 -10   1  -5    8.80    1.14
  10  -1   5    8.37    1.25
 -11   1  -5   -0.69    0.83
  11  -1   5   -0.90    0.94
  -9   0   5    1.54    0.99
  -8   0   5   14.53    1.37
  -7   0   5   -0.63    0.72
   6   0  -5   24.55    1.35
  -6   0   5   27.79    1.65
   5   0  -5   19.00    1.07
   5   0  -5   19.72    1.20
  -5   0   5   21.95    1.37
   4   0  -5  110.08    3.79
   4   0  -5  116.99    4.05
   4   0  -5  111.21    3.94
  -4   0   5  112.44    4.12
   3   0  -5    0.49    0.32
   3   0  -5    0.44    0.38
   3   0  -5    1.27    0.49
  -3   0   5    0.54    0.54
   2   0  -5   40.52    1.57
   2   0  -5   37.59    1.65
  -2   0   5   39.29    1.71
  -2   0   5   39.88    1.50
   1   0  -5  102.47    3.60
   1   0  -5  108.51    3.73
  -1   0   5  105.16    3.74
  -1   0   5  109.74    3.42
   0   0  -5  149.05    4.53
   0   0  -5  140.70    4.85
   0   0   5  139.99    4.87
  -1   0  -5   66.42    2.47
   1   0   5   65.96    2.47
   1   0   5   67.46    2.22
  -2   0  -5    4.02    0.48
   2   0   5    4.26    0.52
   2   0   5    4.15    0.38
  -3   0  -5    4.46    0.53
   3   0   5    4.44    0.51
   3   0   5    3.62    0.43
  -4   0  -5   51.84    2.02
   4   0   5   54.78    2.03
   4   0   5   48.80    1.98
  -5   0  -5   48.24    1.94
   5   0   5   51.34    1.96
   5   0   5   46.30    1.95
  -6   0  -5   12.56    0.94
   6   0   5   11.75    0.94
  -7   0  -5   38.65    1.77
   7   0   5   35.56    1.82
  -8   0  -5   19.85    1.36
   8   0   5   20.67    1.45
  -9   0  -5    1.14    0.71
   9   0   5    0.37    0.78
 -10   0  -5    5.49    0.94
  10   0   5    4.74    1.00
 -11   0  -5    6.83    1.10
  11   0   5    5.43    1.15
  -8   1   5   10.74    1.31
  -7   1   5   -0.33    0.78
   6  -1  -5   44.92    1.98
  -6   1   5   42.67    2.21
   5  -1  -5   10.66    0.84
  -5   1   5    9.76    1.01
   4  -1  -5   30.95    1.39
   4  -1  -5   34.36    1.62
  -4   1   5   27.89    1.62
   3  -1  -5   15.61    1.08
   3  -1  -5   16.37    0.90
  -3   1   5   15.02    1.07
   2  -1  -5   89.91    3.06
   2  -1  -5   90.67    3.29
  -2   1   5   89.65    2.99
  -2   1   5   89.12    3.32
   1  -1  -5   33.03    1.46
   1  -1  -5   33.82    1.26
  -1   1   5   30.53    1.50
  -1   1   5   33.60    1.33
   0  -1  -5   37.66    1.67
   0   1   5   45.57    1.74
  -1  -1  -5  241.16    7.95
   1   1   5  243.07    7.96
  -2  -1  -5   59.77    2.25
   2   1   5   61.99    2.12
   2   1   5   59.03    2.25
  -3  -1  -5   47.74    1.89
   3   1   5   51.13    1.84
   3   1   5   48.30    1.88
  -4  -1  -5   87.94    3.15
   4   1   5   92.41    3.15
   4   1   5   88.26    3.13
  -5  -1  -5  172.01    5.87
   5   1   5  187.14    5.85
   5   1   5  166.20    5.84
  -6  -1  -5    0.77    0.48
   6   1   5    1.30    0.49
  -7  -1  -5   17.62    1.15
   7   1   5   21.72    1.28
  -8  -1  -5   15.64    1.11
   8   1   5   17.74    1.28
  -9  -1  -5   24.30    1.48
   9   1   5   24.63    1.69
 -10  -1  -5    1.07    0.75
  10   1   5    0.38    0.78
 -11  -1  -5   12.62    1.20
  11   1   5   12.73    1.44
  -8   2   5    5.49    1.19
  -7   2   5    4.63    1.04
   6  -2  -5    2.43    0.73
  -6   2   5    1.67    0.79
   5  -2  -5   39.68    1.79
  -5   2   5   35.51    2.00
  -4   2   5    2.11    0.72
   3  -2  -5   69.75    2.73
  -3   2   5   66.04    2.76
   2  -2  -5    0.97    0.29
   2  -2  -5    1.22    0.50
  -2   2   5    0.82    0.51
  -2   2   5    1.62    0.38
   1  -2  -5  344.14   10.90
   1  -2  -5  329.97   11.20
  -1   2   5  353.28   10.37
  -1   2   5  344.13   11.23
   0  -2  -5   57.69    2.20
   0  -2  -5   55.32    1.90
   0   2   5   56.36    2.18
   0   2   5   55.20    1.98
  -1  -2  -5  407.67   13.00
   1   2   5  396.03   12.98
  -2  -2  -5    2.56    0.47
   2   2   5    2.33    0.37
   2   2   5    2.60    0.46
  -3  -2  -5  217.69    7.11
   3   2   5  212.26    7.08
   3   2   5  217.66    6.97
  -4  -2  -5   38.47    1.58
   4   2   5   42.06    1.58
   4   2   5   37.18    1.61
  -5  -2  -5   80.48    2.98
  -5  -2  -5   91.39    3.07
   5   2   5   86.38    2.93
   5   2   5   79.58    3.04
  -6  -2  -5    2.75    0.51
   6   2   5    2.34    0.54
  -7  -2  -5   37.69    1.61
   7   2   5   35.09    1.73
  -8  -2  -5   17.28    1.10
   8   2   5   17.61    1.32
  -9  -2  -5   12.25    0.97
   9   2   5   14.17    1.25
 -10  -2  -5   16.91    1.26
  10   2   5   19.60    1.52
 -11  -2  -5    3.07    0.79
  11   2   5    3.25    1.06
 -12  -2  -5    4.19    0.89
  12   2   5    3.59    1.18
  -8   3   5   -0.18    1.02
  -7   3   5    2.17    1.03
   6  -3  -5    3.51    0.82
  -6   3   5    4.79    1.04
  -5   3   5   23.27    1.57
  -4   3   5    5.34    0.91
   3  -3  -5    6.16    0.85
  -3   3   5    6.96    0.83
   2  -3  -5   12.10    1.01
  -2   3   5   14.05    1.14
   1  -3  -5   17.93    1.17
  -1   3   5   19.02    1.13
  -1   3   5   17.51    0.96
   0  -3  -5   57.49    2.22
   0   3   5   54.43    2.19
   0   3   5   54.48    2.00
  -1  -3  -5    0.51    0.41
   1   3   5    0.91    0.44
  -2  -3  -5   79.63    2.87
   2   3   5   77.94    2.82
  -3  -3  -5    1.45    0.43
   3   3   5    2.22    0.39
   3   3   5    1.65    0.36
  -4  -3  -5  148.54    5.01
  -4  -3  -5  152.54    5.02
   4   3   5  145.73    4.99
  -5  -3  -5   52.03    2.04
  -5  -3  -5   57.55    2.13
   5   3   5   55.04    1.95
   5   3   5   53.69    2.17
  -6  -3  -5   61.38    2.27
   6   3   5   58.49    2.40
  -7  -3  -5   16.57    0.98
   7   3   5   16.89    1.20
  -8  -3  -5   51.81    2.06
   8   3   5   51.59    2.31
  -9  -3  -5   -0.08    0.54
   9   3   5    0.04    0.68
 -10  -3  -5    6.89    0.83
  10   3   5    7.60    1.11
 -11  -3  -5   -1.35    0.61
  11   3   5    0.63    0.85
 -12  -3  -5    2.78    0.83
  12   3   5    2.90    1.11
  -7   4   5    0.43    1.05
   6  -4  -5   28.62    1.72
  -6   4   5   25.54    1.91
  -5   4   5    0.90    0.78
  -4   4   5   29.35    1.81
   3  -4  -5    8.53    0.99
  -3   4   5    5.98    0.91
   2  -4  -5   62.42    2.60
  -2   4   5   62.21    2.66
   1  -4  -5    0.70    0.59
  -1   4   5    0.85    0.44
  -1   4   5    0.00    0.49
   0  -4  -5   72.87    2.78
   0   4   5   73.56    2.54
   0   4   5   70.56    2.76
  -1  -4  -5   59.18    2.32
   1   4   5   57.95    2.09
   1   4   5   59.53    2.28
  -2  -4  -5   10.95    0.57
  -2  -4  -5   11.35    0.82
   2   4   5   10.88    0.80
  -3  -4  -5   15.72    0.94
   3   4   5   13.57    0.85
   3   4   5   15.70    0.90
  -4  -4  -5   58.97    2.17
  -4  -4  -5   55.17    2.11
   4   4   5   52.15    2.13
  -5  -4  -5   30.90    1.36
  -5  -4  -5   29.45    1.32
   5   4   5   30.24    1.47
  -6  -4  -5   23.09    1.12
   6   4   5   23.65    1.33
  -7  -4  -5   79.24    2.87
   7   4   5   80.74    3.12
  -8  -4  -5    6.89    0.63
   8   4   5    6.20    0.83
  -9  -4  -5   23.42    1.22
   9   4   5   25.47    1.62
 -10  -4  -5    0.49    0.54
  10   4   5    0.78    0.75
 -11  -4  -5    7.43    0.86
  11   4   5   11.10    1.30
 -12  -4  -5    2.97    0.75
  12   4   5   -0.03    0.97
  -7   5   5    3.26    1.21
   6  -5  -5    6.65    1.13
  -6   5   5    7.48    1.31
  -5   5   5   25.25    1.85
  -4   5   5    1.55    0.88
   3  -5  -5   48.28    2.29
  -3   5   5   46.29    2.32
   2  -5  -5   19.48    1.37
  -2   5   5   20.09    1.35
   1  -5  -5   63.45    2.68
  -1   5   5   66.34    2.43
  -1   5   5   62.32    2.63
   0  -5  -5    3.02    0.63
   0   5   5    2.29    0.64
   0   5   5    2.86    0.53
  -1  -5  -5   34.05    1.62
   1   5   5   35.12    1.47
   1   5   5   34.15    1.61
  -2  -5  -5    8.97    0.50
  -2  -5  -5    7.33    0.73
   2   5   5    6.85    0.65
   2   5   5    8.10    0.61
  -3  -5  -5   16.66    1.03
   3   5   5   17.13    0.92
  -4  -5  -5    0.23    0.43
  -4  -5  -5    0.63    0.42
   4   5   5    1.23    0.28
   4   5   5    1.01    0.49
  -5  -5  -5   56.93    2.14
   5   5   5   56.76    2.27
  -6  -5  -5   35.39    1.49
   6   5   5   34.68    1.70
  -7  -5  -5   38.45    1.59
   7   5   5   40.77    1.92
  -8  -5  -5   27.41    1.26
   8   5   5   26.37    1.54
  -9  -5  -5   16.65    1.01
   9   5   5   17.17    1.39
 -10  -5  -5    4.86    0.66
  10   5   5    6.09    0.97
 -11  -5  -5   15.90    1.06
  11   5   5   12.58    1.40
 -12  -5  -5    1.87    0.67
  12   5   5    0.47    0.99
   6  -6  -5   -0.91    0.85
  -6   6   5   -0.17    1.04
  -5   6   5   23.21    1.91
  -4   6   5    0.74    0.89
   3  -6  -5   25.68    1.75
  -3   6   5   22.43    1.60
   2  -6  -5   -0.52    0.71
  -2   6   5    1.60    0.77
   1  -6  -5   21.42    1.51
  -1   6   5   23.85    1.49
   0  -6  -5   17.79    1.24
   0   6   5   19.90    1.28
   0   6   5   18.03    1.08
  -1  -6  -5   28.62    1.50
   1   6   5   28.99    1.33
   1   6   5   27.86    1.42
  -2  -6  -5   20.37    1.20
   2   6   5   20.41    1.15
   2   6   5   21.31    1.06
  -3  -6  -5   82.02    3.11
   3   6   5   84.39    2.86
   3   6   5   86.69    3.02
  -4  -6  -5   39.88    1.67
   4   6   5   38.65    1.52
  -5  -6  -5   44.36    1.80
   5   6   5   43.77    1.93
  -6  -6  -5   26.35    1.26
   6   6   5   28.40    1.50
  -7  -6  -5    3.09    0.50
   7   6   5    3.08    0.66
  -8  -6  -5    6.72    0.60
   8   6   5    6.13    0.89
  -9  -6  -5    0.32    0.46
   9   6   5    0.05    0.67
 -10  -6  -5    4.53    0.61
  10   6   5    3.79    0.97
 -11  -6  -5    0.45    0.52
  11   6   5    0.60    0.89
  12   6   5   18.17    1.69
  -6   7   5    1.65    1.22
  -5   7   5    0.49    1.09
  -4   7   5   11.07    1.38
   3  -7  -5    4.93    1.13
  -3   7   5    6.03    1.06
   2  -7  -5   14.41    1.36
  -2   7   5   12.56    1.20
   1  -7  -5   18.70    1.45
  -1   7   5   14.85    1.25
   0  -7  -5   20.36    1.44
   0   7   5   19.00    1.22
   0   7   5   17.61    1.25
  -1  -7  -5   24.19    1.52
   1   7   5   27.39    1.47
   1   7   5   27.88    1.37
  -2  -7  -5   67.04    2.64
   2   7   5   64.45    2.53
   2   7   5   62.45    2.37
  -3  -7  -5   10.17    0.85
   3   7   5   10.37    0.83
   3   7   5    9.05    0.72
  -4  -7  -5   39.23    1.75
   4   7   5   39.49    1.58
  -5  -7  -5    0.43    0.45
  -6  -7  -5   73.81    2.71
   6   7   5   73.92    2.94
  -7  -7  -5    1.64    0.47
   7   7   5    2.44    0.71
  -8  -7  -5   22.77    1.11
   8   7   5   23.34    1.52
  -9  -7  -5    1.69    0.45
   9   7   5    2.32    0.77
 -10  -7  -5   39.55    1.59
  10   7   5   38.93    2.18
  11   7   5    3.59    1.03
  12   7   5   14.47    1.49
  -5   8   5    0.13    1.09
  -4   8   5   10.26    1.46
  -3   8   5    2.78    1.04
   2  -8  -5    3.02    0.94
  -2   8   5    3.55    0.93
   1  -8  -5    1.66    0.80
  -1   8   5    1.62    0.81
   0  -8  -5   24.51    1.68
   0   8   5   27.70    1.65
  -1  -8  -5   46.78    2.30
   1   8   5   50.93    2.21
   1   8   5   48.55    2.04
  -2  -8  -5    7.07    0.89
   2   8   5    8.98    0.79
  -3  -8  -5   21.60    1.34
   3   8   5   24.07    1.22
  -4  -8  -5   14.98    1.06
   4   8   5   14.74    0.93
  -5  -8  -5   74.08    2.76
   5   8   5   71.70    2.55
  -6  -8  -5   11.98    0.91
  -7  -8  -5   12.70    0.88
   7   8   5   12.02    1.13
  -8  -8  -5    7.66    0.63
   8   8   5    6.39    0.95
  -9  -8  -5   13.33    0.82
   9   8   5   12.48    1.25
 -10  -8  -5   12.14    0.77
  10   8   5   11.48    1.21
  11   8   5   13.84    1.45
  12   8   5    1.16    0.99
   2  -9  -5   -0.68    0.91
   1  -9  -5   14.35    1.46
   0  -9  -5    0.01    0.82
  -1  -9  -5   31.60    1.85
   1   9   5   36.46    1.76
  -2  -9  -5    2.73    0.81
   2   9   5    3.31    0.67
  -3  -9  -5   31.53    1.66
   3   9   5   32.17    1.53
  -4  -9  -5   -0.10    0.60
   4   9   5    0.25    0.47
  -5  -9  -5   71.06    2.79
   5   9   5   72.34    2.58
  -6  -9  -5    2.03    0.56
   6   9   5    2.32    0.49
  -7  -9  -5    4.96    0.65
   7   9   5    6.67    0.60
  -8  -9  -5    0.39    0.44
  -9  -9  -5   43.35    1.65
   9   9   5   36.78    2.14
  10   9   5    9.28    1.19
  11   9   5    4.47    1.11
  12   9   5    5.20    1.21
   2 -10  -5    6.18    1.25
   1 -10  -5   37.95    2.36
   0 -10  -5   11.25    1.35
  -1 -10  -5    6.63    1.09
  -2 -10  -5   17.59    1.37
   2  10   5   14.91    1.15
  -3 -10  -5   13.93    1.19
   3  10   5   20.54    1.24
  -4 -10  -5   32.29    1.75
   4  10   5   33.15    1.58
  -5 -10  -5    0.36    0.59
   5  10   5    0.19    0.49
  -6 -10  -5   22.64    1.33
   6  10   5   24.89    1.24
  -7 -10  -5    0.03    0.53
   7  10   5    0.60    0.43
  -8 -10  -5   42.15    1.76
   8  10   5   42.20    1.65
  -9 -10  -5    1.78    0.49
   9  10   5    1.11    0.45
  11  10   5    0.69    0.98
  12  10   5   10.56    1.45
   1 -11  -5    1.66    1.04
   0 -11  -5   15.62    1.59
  -1 -11  -5   -0.04    0.94
  -2 -11  -5   36.41    2.12
   2  11   5   37.71    1.94
  -3 -11  -5    0.35    0.79
   3  11   5    0.11    0.60
  -4 -11  -5   22.98    1.53
   4  11   5   20.98    1.34
  -5 -11  -5    4.04    0.86
   5  11   5    4.99    0.70
  -6 -11  -5   20.91    1.40
   6  11   5   22.93    1.25
  -7 -11  -5    3.82    0.70
   7  11   5    3.85    0.63
  -8 -11  -5   14.76    1.09
   8  11   5   16.27    0.98
  -9 -11  -5   10.09    0.80
   9  11   5    9.87    0.75
  10  11   5    2.24    0.48
  11  11   5   10.26    0.71
   1 -12  -5    6.01    1.41
   0 -12  -5    6.64    1.38
  -1 -12  -5   15.38    1.53
  -2 -12  -5    3.29    1.04
  -3 -12  -5    0.35    0.86
   3  12   5    0.27    0.68
  -4 -12  -5   -0.15    0.78
   4  12   5   -0.45    0.62
  -5 -12  -5    6.82    1.01
   5  12   5    5.97    0.83
  -6 -12  -5   -0.66    0.67
   6  12   5    0.91    0.62
  -7 -12  -5    7.02    0.92
   7  12   5    7.87    0.79
  -8 -12  -5    0.63    0.62
   8  12   5    0.07    0.47
  -9 -12  -5   10.67    0.85
   9  12   5    9.91    0.79
  10  12   5    0.22    0.44
  11  12   5   10.36    0.72
   0 -13  -5    1.55    1.23
  -1 -13  -5    3.50    1.24
  -2 -13  -5    0.81    0.98
  -3 -13  -5    2.80    1.05
   3  13   5    2.43    0.87
  -4 -13  -5    0.27    0.88
   4  13   5    0.59    0.74
  -5 -13  -5   17.51    1.41
   5  13   5   17.81    1.35
  -6 -13  -5    3.56    0.91
   6  13   5    3.26    0.78
  -7 -13  -5    6.82    0.95
   7  13   5    7.11    0.85
  -8 -13  -5    2.08    0.73
   8  13   5    1.81    0.61
  -9 -13  -5    9.23    0.91
   9  13   5    8.65    0.82
  10  13   5    5.01    0.64
  -3 -14  -5    0.17    1.00
  -4 -14  -5   11.92    1.48
   4  14   5   11.93    1.23
  -5 -14  -5   -0.11    0.92
   5  14   5   -0.73    0.72
  -6 -14  -5   11.49    1.27
   6  14   5   12.30    1.15
  -7 -14  -5   -0.09    0.77
   7  14   5    0.78    0.69
  -8 -14  -5    9.42    1.03
   8  14   5    7.17    0.85
  -9 -14  -5    0.44    0.71
   5  15   5    1.99    0.91
  -4 -14   6    1.77    1.05
  -3 -14   6    6.90    1.28
  -2 -14   6    6.46    1.25
  -7 -13   6   11.70    1.19
  -6 -13   6   -0.28    0.79
  -5 -13   6    5.55    1.06
   4  13  -6   -1.65    0.86
  -4 -13   6    0.61    0.84
   3  13  -6   31.27    2.11
  -3 -13   6   28.91    1.94
   2  13  -6   11.42    1.45
  -2 -13   6   11.78    1.37
   1  13  -6    9.00    1.39
  -1 -13   6    9.61    1.33
   0 -13   6    6.05    1.25
   1 -13   6    4.89    1.29
   2 -13   6    3.71    1.30
  -8 -12   6    5.57    0.90
  -7 -12   6    3.33    0.87
   6  12  -6    5.84    1.23
  -6 -12   6    6.75    1.01
   5  12  -6    7.55    1.22
  -5 -12   6    6.98    1.04
   4  12  -6   19.66    1.64
  -4 -12   6   23.92    1.64
   3  12  -6    5.14    1.12
  -3 -12   6    7.33    1.09
   2  12  -6   24.21    1.90
  -2 -12   6   27.11    1.81
   1  12  -6    2.31    0.94
  -1 -12   6    1.96    0.96
   0 -12   6    4.29    1.11
   1 -12   6    2.03    0.99
   2 -12   6   11.26    1.44
   3 -12   6    0.68    1.04
  -9 -11   6    0.94    0.70
  -8 -11   6    8.84    0.99
   7  11  -6   -0.25    0.87
  -7 -11   6    0.56    0.73
   6  11  -6   13.46    1.46
  -6 -11   6   12.05    1.13
   5  11  -6    7.71    1.18
  -5 -11   6    8.72    1.04
   4  11  -6   15.32    1.41
  -4 -11   6   14.46    1.25
   3  11  -6   13.85    1.37
  -3 -11   6   13.08    1.22
   2  11  -6   17.52    1.56
  -2 -11   6   21.02    1.55
  -1 -11   6    1.56    0.90
   0 -11   6    0.72    0.89
   1 -11   6    5.63    1.14
   2 -11   6    0.96    1.04
   3 -11   6    4.08    1.22
  -9 -10   6   11.77    1.08
  -8 -10   6    7.81    0.92
   7  10  -6   14.24    1.48
  -7 -10   6   12.66    1.10
   6  10  -6    1.00    0.85
  -6 -10   6    0.80    0.70
   5  10  -6   13.91    1.36
  -5 -10   6   11.11    1.08
   4  10  -6    3.72    0.91
  -4 -10   6    5.35    0.91
   3  10  -6   17.88    1.49
  -3 -10   6   22.41    1.47
   2  10  -6    4.04    0.99
  -2 -10   6    3.17    0.84
  -1 -10   6    1.25    0.76
   0 -10   6    7.95    1.09
   1 -10   6    5.84    1.06
   2 -10   6    1.54    0.96
   3 -10   6    9.27    1.23
   5 -10   6    1.59    1.08
  -9  -9   6   33.39    1.76
   8   9  -6    4.33    1.10
  -8  -9   6    4.28    0.79
   7   9  -6   18.77    1.58
  -7  -9   6   19.60    1.30
   6   9  -6    5.15    1.00
  -6  -9   6    1.55    0.71
   5   9  -6   12.98    1.27
  -5  -9   6   11.76    1.04
   4   9  -6    3.04    0.82
  -4  -9   6    2.74    0.71
   3   9  -6   25.43    1.72
  -3  -9   6   27.43    1.58
   2   9  -6   26.58    1.68
  -2  -9   6   25.80    1.58
  -1  -9   6    0.37    0.63
   0  -9   6   29.42    1.76
   1  -9   6   30.02    1.83
   2  -9   6   22.43    1.60
  -3   9  -6    4.44    1.02
   3  -9   6    5.53    1.02
  -4   9  -6    3.41    0.96
   4  -9   6    2.51    1.02
  -5   9  -6    0.06    0.98
   5  -9   6    0.51    0.93
  -6   9  -6    4.32    1.12
   6  -9   6    2.93    1.10
  -9  -8   6   20.97    1.42
   8   8  -6    2.32    1.00
  -8  -8   6    3.81    0.80
   7   8  -6   -0.30    0.72
  -7  -8   6    0.09    0.66
   6   8  -6   21.64    1.64
  -6  -8   6   19.66    1.31
   5   8  -6    3.53    0.83
  -5  -8   6    4.75    0.77
   4   8  -6   73.05    3.15
  -4  -8   6   74.28    2.96
   3   8  -6   -0.35    0.61
  -3  -8   6   -0.03    0.61
   2   8  -6   37.76    1.98
  -2  -8   6   38.32    1.88
  -1  -8   6   -0.54    0.62
   0  -8   6   55.41    2.47
  -1   8  -6    2.96    0.73
   1  -8   6    3.41    0.76
  -2   8  -6   39.36    2.08
   2  -8   6   42.42    2.16
  -3   8  -6    0.23    0.75
   3  -8   6   -0.19    0.71
  -4   8  -6   10.06    1.21
   4  -8   6    7.36    1.09
  -5   8  -6    1.01    0.86
   5  -8   6    0.61    0.78
  -6   8  -6    8.48    1.35
   6  -8   6    8.85    1.25
  -7   8  -6    4.12    1.25
   7  -8   6    3.39    1.09
  -9  -7   6    0.55    0.72
   8   7  -6    5.56    1.14
  -8  -7   6    5.99    0.87
   7   7  -6   19.63    1.58
  -7  -7   6   14.73    1.24
   6   7  -6   22.21    1.62
  -6  -7   6   22.03    1.37
   5   7  -6   24.94    1.57
  -5  -7   6   24.86    1.44
   4   7  -6   45.37    2.20
  -4  -7   6   44.51    2.00
   3   7  -6   17.52    1.34
  -3  -7   6   15.55    1.16
  -2  -7   6   18.52    1.26
  -1  -7   6    2.57    0.69
   0   7  -6   29.34    1.55
   0  -7   6   28.60    1.60
  -1   7  -6   21.61    1.31
   1  -7   6   23.32    1.41
  -2   7  -6    8.44    0.95
   2  -7   6    8.32    0.99
  -3   7  -6    5.32    0.92
   3  -7   6    7.17    0.93
  -4   7  -6    4.10    0.92
   4  -7   6    2.77    0.87
  -5   7  -6   23.30    1.73
   5  -7   6   22.86    1.56
  -6   7  -6    0.89    0.93
   6  -7   6    0.14    0.76
  -7   7  -6   10.04    1.38
   7  -7   6    6.63    1.21
  -8   7  -6    3.13    1.21
   9   6  -6   11.59    1.35
  -9  -6   6   12.07    1.15
   8   6  -6    7.19    1.16
  -8  -6   6    2.83    0.84
   7   6  -6   17.91    1.45
  -7  -6   6   16.57    1.25
   6   6  -6    1.52    0.75
  -6  -6   6    0.50    0.61
   5   6  -6   25.47    1.63
  -5  -6   6   24.32    1.38
   4   6  -6    0.27    0.59
  -4  -6   6   -0.10    0.57
   3   6  -6   13.32    1.08
  -3  -6   6   11.35    0.91
  -2  -6   6    0.50    0.55
   1   6  -6   79.06    2.97
  -1  -6   6   77.28    3.01
   0   6  -6   24.33    1.35
   0  -6   6   23.28    1.42
  -1   6  -6   92.64    3.52
   1  -6   6   96.82    3.61
  -2   6  -6   -0.07    0.58
   2  -6   6    0.25    0.57
  -3   6  -6   61.57    2.64
   3  -6   6   60.11    2.60
  -4   6  -6    6.15    0.94
   4  -6   6    5.72    0.94
  -5   6  -6   13.51    1.20
   5  -6   6   12.48    1.14
   5  -6   6   11.77    1.08
  -6   6  -6    2.55    0.85
   6  -6   6    2.50    0.86
  -7   6  -6    3.27    1.03
   7  -6   6    2.85    0.92
  -8   6  -6    0.54    0.99
   8  -6   6   -0.48    0.92
   9   5  -6   25.03    1.95
  -9  -5   6   26.14    1.71
   8   5  -6   13.28    1.38
  -8  -5   6   15.78    1.23
   7   5  -6   22.27    1.61
  -7  -5   6   19.37    1.36
   6   5  -6   48.67    2.33
  -6  -5   6   47.96    2.14
   5   5  -6   19.14    1.38
  -5  -5   6   19.60    1.28
   4   5  -6   11.95    1.04
  -4  -5   6   12.86    1.02
   3   5  -6   28.36    1.57
  -3  -5   6   29.81    1.49
   2   5  -6   74.15    2.95
   2   5  -6   76.36    2.78
  -2  -5   6   74.31    2.89
   1   5  -6    0.71    0.45
  -1  -5   6   -0.17    0.46
   0   5  -6   72.13    2.71
   0  -5   6   67.58    2.72
  -1   5  -6    1.48    0.53
   1  -5   6    1.79    0.62
  -2   5  -6   65.26    2.65
   2  -5   6   65.94    2.68
  -3   5  -6    0.78    0.57
   3  -5   6   -0.45    0.53
  -4   5  -6   43.39    2.12
   4  -5   6   47.78    2.08
   4  -5   6   48.28    2.15
  -5   5  -6    9.11    0.99
   5  -5   6    9.12    0.96
   5  -5   6    8.90    1.00
  -6   5  -6   10.26    1.15
   6  -5   6    9.72    1.04
  -7   5  -6   -1.54    0.77
   7  -5   6    0.62    0.74
  -8   5  -6    9.39    1.30
   8  -5   6    8.88    1.24
  -9   5  -6    1.96    1.05
   9  -5   6    1.63    1.06
  -9  -4   6    0.12    0.83
   8   4  -6   23.00    1.75
  -8  -4   6   23.21    1.55
   7   4  -6    4.43    0.95
  -7  -4   6    4.10    0.79
   6   4  -6   45.05    2.17
  -6  -4   6   43.95    2.07
   5   4  -6    1.02    0.64
  -5  -4   6    0.62    0.59
   4   4  -6   88.39    3.34
  -4  -4   6   86.23    3.29
   3   4  -6    1.85    0.60
  -3  -4   6    1.88    0.57
   2   4  -6  129.40    4.29
   2   4  -6  124.49    4.42
  -2  -4   6  116.69    4.35
   1   4  -6    8.03    0.72
  -1  -4   6    8.96    0.43
  -1  -4   6    9.38    0.78
   0   4  -6   51.87    2.11
   0  -4   6   50.95    2.15
  -1   4  -6   -0.39    0.42
   1  -4   6   -0.27    0.44
  -2   4  -6   57.99    2.36
   2  -4   6   59.90    2.18
   2  -4   6   57.78    2.38
  -3   4  -6   26.21    1.43
   3  -4   6   28.39    1.51
   3  -4   6   26.14    1.30
  -4   4  -6    3.17    0.73
   4  -4   6    3.81    0.64
   4  -4   6    4.50    0.75
  -5   4  -6   41.06    2.03
   5  -4   6   43.10    2.01
   5  -4   6   40.81    1.95
  -6   4  -6   14.29    1.22
   6  -4   6   14.98    1.21
  -7   4  -6   18.89    1.45
   7  -4   6   19.68    1.51
  -8   4  -6    4.99    1.08
   8  -4   6    5.31    1.02
  -9   4  -6   15.08    1.52
   9  -4   6   16.92    1.59
  -9  -3   6    6.78    1.13
  -8  -3   6    3.94    0.89
   7   3  -6   17.13    1.41
  -7  -3   6   14.62    1.19
   6   3  -6   14.78    1.21
  -6  -3   6   15.53    1.22
   5   3  -6   36.22    1.76
  -5  -3   6   32.06    1.73
   4   3  -6   61.94    2.48
  -4  -3   6   57.05    2.43
   3   3  -6   59.42    2.29
   3   3  -6   59.08    2.36
  -3  -3   6   57.86    2.40
   2   3  -6   15.34    1.08
   2   3  -6   17.49    1.00
  -2  -3   6   16.25    1.10
   1   3  -6   94.60    3.31
  -1  -3   6   89.03    3.35
   0   3  -6   40.49    1.73
   0  -3   6   36.86    1.76
   0  -3   6   41.16    1.37
  -1   3  -6   50.53    2.07
   1  -3   6   52.73    1.83
   1  -3   6   51.30    2.10
  -2   3  -6   22.01    1.23
   2  -3   6   20.17    0.98
   2  -3   6   19.85    1.16
  -3   3  -6   13.56    0.99
   3  -3   6   15.07    0.91
   3  -3   6   13.94    1.06
  -4   3  -6   18.45    1.24
   4  -3   6   19.26    1.19
   4  -3   6   19.86    1.11
  -5   3  -6   45.53    2.07
   5  -3   6   46.82    2.01
   5  -3   6   42.35    1.95
  -6   3  -6    5.21    0.80
   6  -3   6    4.72    0.75
  -7   3  -6   25.73    1.56
   7  -3   6   24.52    1.56
  -8   3  -6    2.13    0.81
   8  -3   6    2.28    0.86
  -9   3  -6    7.18    1.16
   9  -3   6    8.29    1.20
 -10   3  -6    1.37    0.95
  10  -3   6    0.65    0.93
  -9  -2   6    6.13    1.13
  -8  -2   6    0.41    0.86
   7   2  -6   26.04    1.62
  -7  -2   6   23.86    1.59
   6   2  -6    0.31    0.64
  -6  -2   6    0.80    0.67
   5   2  -6   42.85    1.96
  -5  -2   6   39.04    1.95
   4   2  -6    9.95    0.83
  -4  -2   6    8.46    0.87
   3   2  -6    7.90    0.72
   3   2  -6    7.75    0.71
  -3  -2   6    7.09    0.79
   2   2  -6   45.67    1.86
   2   2  -6   44.81    1.86
  -2  -2   6   43.53    1.91
   1   2  -6   36.25    1.56
  -1  -2   6   34.06    1.62
   0   2  -6   34.37    1.55
   0  -2   6   37.15    1.63
  -1   2  -6   49.99    2.05
   1  -2   6   50.50    1.77
   1  -2   6   54.10    2.11
  -2   2  -6   58.71    2.30
   2  -2   6   56.91    2.30
   2  -2   6   58.42    2.07
  -3   2  -6   38.03    1.71
   3  -2   6   38.85    1.58
   3  -2   6   39.70    1.74
  -4   2  -6   71.05    2.80
   4  -2   6   72.03    2.80
   4  -2   6   75.39    2.72
  -5   2  -6   93.70    3.48
   5  -2   6   92.69    3.46
   5  -2   6   93.15    3.41
  -6   2  -6    0.08    0.58
   6  -2   6   -0.29    0.51
  -7   2  -6   13.91    1.15
   7  -2   6   15.07    1.20
  -8   2  -6    3.68    0.86
   8  -2   6    3.61    0.89
  -9   2  -6    0.07    0.77
   9  -2   6   -0.76    0.70
 -10   2  -6    1.07    0.89
  10  -2   6    2.60    1.01
  -8  -1   6    1.71    0.88
  -7  -1   6    4.81    0.92
   6   1  -6   16.01    1.21
  -6  -1   6   13.02    1.17
   5   1  -6    0.30    0.54
  -5  -1   6    0.46    0.64
   4   1  -6    0.21    0.47
  -4  -1   6    0.37    0.59
   3   1  -6   13.44    0.99
   3   1  -6   13.86    0.95
   3   1  -6   11.94    0.57
  -3  -1   6   11.59    0.98
   2   1  -6  203.03    6.71
   2   1  -6  208.08    6.78
  -2  -1   6  194.40    6.83
   1   1  -6   15.18    0.99
  -1  -1   6   15.31    1.07
   0   1  -6   40.89    1.72
   0  -1   6   41.59    1.79
  -1   1  -6   22.55    1.16
   1  -1   6   20.69    0.83
   1  -1   6   19.28    1.11
  -2   1  -6  133.42    4.62
   2  -1   6  131.36    4.62
   2  -1   6  137.39    4.39
  -3   1  -6    4.68    0.59
   3  -1   6    5.55    0.50
   3  -1   6    4.64    0.57
  -4   1  -6   29.78    1.39
   4  -1   6   28.99    1.41
   4  -1   6   28.21    1.33
  -5   1  -6   16.20    1.08
   5  -1   6   13.29    0.94
   5  -1   6   13.44    0.99
  -6   1  -6   15.10    1.12
   6  -1   6   15.81    1.08
  -7   1  -6    1.02    0.57
   7  -1   6    0.41    0.63
  -8   1  -6    4.77    0.83
   8  -1   6    4.97    0.89
  -9   1  -6    4.19    0.88
   9  -1   6    4.95    0.94
 -10   1  -6    3.04    0.91
  10  -1   6    4.47    1.09
 -11   1  -6    0.81    0.84
  11  -1   6    1.38    1.04
  -8   0   6   18.61    1.63
  -7   0   6    5.63    1.09
  -6   0   6   17.04    1.40
   5   0  -6   -0.34    0.52
  -5   0   6   -0.01    0.65
   4   0  -6   67.32    2.38
   4   0  -6   68.61    2.57
  -4   0   6   63.82    2.77
   3   0  -6   29.70    1.21
   3   0  -6   32.30    1.41
   3   0  -6   31.33    1.55
  -3   0   6   31.84    1.60
   2   0  -6  149.04    5.17
   2   0  -6  152.79    5.01
  -2   0   6  145.53    5.22
   1   0  -6    4.06    0.33
   1   0  -6    4.83    0.59
   1   0  -6    4.25    0.50
  -1   0   6    5.03    0.51
  -1   0   6    3.96    0.66
   0   0  -6   90.37    3.27
   0   0   6   90.92    3.32
  -1   0  -6   12.77    0.85
   1   0   6   12.35    0.60
   1   0   6   13.00    0.94
  -2   0  -6   36.73    1.62
   2   0   6   37.08    1.39
   2   0   6   35.15    1.59
  -3   0  -6  140.17    4.76
   3   0   6  138.20    4.57
   3   0   6  136.24    4.75
  -4   0  -6    1.11    0.44
   4   0   6    1.11    0.41
   4   0   6    0.46    0.43
  -5   0  -6   59.71    2.36
   5   0   6   59.30    2.34
   5   0   6   60.33    2.32
  -6   0  -6   33.86    1.63
   6   0   6   34.65    1.67
  -7   0  -6   88.18    3.29
   7   0   6   83.73    3.32
  -8   0  -6   -0.27    0.57
   8   0   6    0.31    0.63
  -9   0  -6   28.68    1.68
   9   0   6   29.27    1.80
 -10   0  -6    6.30    0.97
  10   0   6    8.05    1.14
 -11   0  -6    5.53    1.05
  11   0   6    6.30    1.22
  -8   1   6    6.25    1.17
  -7   1   6   33.92    2.08
  -6   1   6    9.81    1.21
  -5   1   6   23.39    1.58
   4  -1  -6   36.55    1.48
  -4   1   6   31.40    1.75
   3  -1  -6  128.62    4.58
   3  -1  -6  128.38    4.34
  -3   1   6  126.36    4.66
   2  -1  -6    0.18    0.33
   2  -1  -6    0.84    0.50
  -2   1   6   -0.04    0.57
   1  -1  -6   58.27    2.36
   1  -1  -6   62.03    2.12
  -1   1   6   56.66    2.40
  -1   1   6   58.00    2.10
   0  -1  -6   21.98    1.22
   0   1   6   21.58    1.25
  -1  -1  -6  130.96    4.62
   1   1   6  137.46    4.66
  -2  -1  -6   56.17    2.21
   2   1   6   58.85    2.23
   2   1   6   55.96    2.01
  -3  -1  -6   43.67    1.77
   3   1   6   42.74    1.66
   3   1   6   41.62    1.77
  -4  -1  -6    0.72    0.44
   4   1   6    0.08    0.45
   4   1   6    0.65    0.40
  -5  -1  -6  135.85    4.90
   5   1   6  148.91    4.88
   5   1   6  143.32    4.86
  -6  -1  -6    8.06    0.75
   6   1   6    9.53    0.81
  -7  -1  -6   22.81    1.29
   7   1   6   23.27    1.38
  -8  -1  -6   17.13    1.17
   8   1   6   17.34    1.36
  -9  -1  -6   17.30    1.25
   9   1   6   18.57    1.42
 -10  -1  -6    5.67    0.93
  10   1   6    6.06    1.03
 -11  -1  -6    6.20    1.01
  11   1   6    5.90    1.19
  -7   2   6   10.62    1.34
  -6   2   6   -0.29    0.83
  -5   2   6   26.38    1.77
  -4   2   6    5.80    0.93
   3  -2  -6   43.20    1.94
  -3   2   6   35.57    1.92
   2  -2  -6   48.57    2.11
   2  -2  -6   49.01    1.76
  -2   2   6   48.47    2.19
   1  -2  -6   91.31    3.04
   1  -2  -6   89.30    3.38
  -1   2   6   91.81    3.44
  -1   2   6   92.78    3.11
   0  -2  -6   38.81    1.72
   0  -2  -6   37.20    1.38
   0   2   6   39.11    1.51
   0   2   6   34.35    1.66
  -1  -2  -6   57.15    2.27
   1   2   6   58.14    2.29
  -2  -2  -6   24.34    1.26
   2   2   6   24.81    1.07
   2   2   6   24.00    1.25
  -3  -2  -6  106.50    3.88
   3   2   6  111.08    3.85
   3   2   6  112.92    3.74
  -4  -2  -6   17.66    1.01
   4   2   6   18.76    1.03
   4   2   6   19.99    1.04
  -5  -2  -6   49.34    2.05
   5   2   6   52.79    2.10
   5   2   6   53.41    2.01
  -6  -2  -6   26.01    1.34
   6   2   6   30.13    1.48
  -7  -2  -6    1.00    0.53
   7   2   6    1.30    0.63
  -8  -2  -6   16.17    1.11
   8   2   6   15.61    1.22
  -9  -2  -6    1.50    0.65
   9   2   6    0.47    0.68
 -10  -2  -6   22.60    1.45
  10   2   6   23.08    1.66
 -11  -2  -6    0.21    0.74
  11   2   6   -1.51    0.84
 -12  -2  -6    8.79    1.13
  -7   3   6    2.20    0.98
  -6   3   6   11.67    1.30
   5  -3  -6    0.74    0.61
  -5   3   6   -0.33    0.82
  -4   3   6   54.79    2.62
   3  -3  -6    0.20    0.67
  -3   3   6    0.14    0.69
   2  -3  -6   72.41    2.91
  -2   3   6   70.51    2.89
   1  -3  -6    2.50    0.66
  -1   3   6    1.99    0.60
  -1   3   6    2.25    0.47
   0  -3  -6   12.49    0.97
   0   3   6   12.80    0.83
   0   3   6   12.57    0.97
  -1  -3  -6    1.72    0.51
   1   3   6    1.78    0.50
  -2  -3  -6   40.27    1.81
   2   3   6   43.22    1.78
  -3  -3  -6    1.23    0.49
   3   3   6    2.03    0.43
   3   3   6    2.38    0.47
  -4  -3  -6  129.37    4.63
   4   3   6  138.93    4.58
   4   3   6  134.75    4.57
  -5  -3  -6   31.06    1.47
   5   3   6   32.91    1.52
  -6  -3  -6   18.02    1.05
   6   3   6   19.04    1.19
  -7  -3  -6    5.31    0.62
   7   3   6    4.74    0.76
  -8  -3  -6   13.38    0.97
   8   3   6   13.30    1.10
  -9  -3  -6   15.34    1.08
   9   3   6   17.03    1.33
 -10  -3  -6    9.84    0.95
  10   3   6    9.37    1.21
 -11  -3  -6    0.81    0.67
  11   3   6    1.36    0.94
 -12  -3  -6    3.21    0.78
  12   3   6    0.68    0.95
  -7   4   6    1.38    1.12
  -6   4   6    5.02    1.11
  -5   4   6   13.86    1.36
  -4   4   6    9.11    1.17
   3  -4  -6   60.59    2.67
  -3   4   6   58.55    2.68
   2  -4  -6    8.68    0.97
  -2   4   6    5.53    0.89
   1  -4  -6   45.24    2.14
  -1   4   6   48.44    1.95
  -1   4   6   50.45    2.21
   0  -4  -6   11.19    0.95
   0   4   6   13.22    0.88
   0   4   6   14.04    1.11
  -1  -4  -6   23.53    1.33
   1   4   6   25.02    1.18
   1   4   6   25.72    1.36
  -2  -4  -6   30.18    1.14
  -2  -4  -6   27.91    1.45
   2   4   6   32.16    1.46
  -3  -4  -6  219.16    7.44
   3   4   6  225.69    7.38
  -4  -4  -6    3.06    0.55
   4   4   6    3.62    0.50
   4   4   6    4.67    0.57
  -5  -4  -6   54.74    2.17
   5   4   6   56.83    2.26
   5   4   6   55.50    2.05
  -6  -4  -6    5.35    0.63
   6   4   6    4.50    0.67
  -7  -4  -6   53.83    2.11
   7   4   6   52.73    2.28
  -8  -4  -6    6.56    0.69
   8   4   6    7.00    0.87
  -9  -4  -6   56.04    2.27
   9   4   6   55.61    2.59
 -10  -4  -6    4.15    0.71
  10   4   6    5.25    0.95
 -11  -4  -6    2.34    0.68
  11   4   6    1.46    0.97
 -12  -4  -6    1.04    0.69
  12   4   6   -0.20    0.96
  -6   5   6   -0.56    1.02
  -5   5   6    8.43    1.31
  -4   5   6    0.34    0.87
   3  -5  -6   10.48    1.19
  -3   5   6   11.11    1.15
   2  -5  -6    3.60    0.88
  -2   5   6    4.92    0.84
   1  -5  -6    2.76    0.71
  -1   5   6    2.76    0.77
   0  -5  -6   -0.42    0.60
   0   5   6    0.62    0.60
   0   5   6    0.41    0.45
  -1  -5  -6   30.16    1.60
   1   5   6   32.84    1.47
   1   5   6   32.35    1.60
  -2  -5  -6  103.86    3.87
   2   5   6  111.36    3.57
   2   5   6  103.22    3.81
  -3  -5  -6   97.11    3.60
   3   5   6  100.07    3.51
  -4  -5  -6   45.74    1.93
   4   5   6   45.55    1.80
  -5  -5  -6   17.43    1.06
   5   5   6   20.20    1.15
  -6  -5  -6    8.39    0.72
   6   5   6   12.08    0.97
  -7  -5  -6   38.03    1.60
   7   5   6   34.95    1.79
  -8  -5  -6   17.62    1.05
   8   5   6   15.91    1.26
  -9  -5  -6   22.67    1.26
   9   5   6   25.70    1.64
 -10  -5  -6    0.74    0.59
  10   5   6    1.86    0.84
 -11  -5  -6    0.64    0.62
  11   5   6    0.59    0.89
 -12  -5  -6   10.24    0.99
  12   5   6   12.40    1.48
  -6   6   6   -0.09    1.05
  -5   6   6    4.44    1.24
  -4   6   6    4.04    1.09
  -3   6   6   14.00    1.38
   2  -6  -6    2.34    0.84
  -2   6   6    1.11    0.83
   1  -6  -6   24.38    1.63
  -1   6   6   23.63    1.51
   0  -6  -6   20.05    1.36
   0   6   6   20.68    1.20
   0   6   6   21.58    1.34
  -1  -6  -6    6.92    0.82
   1   6   6    7.35    0.75
   1   6   6    6.87    0.82
  -2  -6  -6  195.52    6.83
   2   6   6  202.63    6.78
   2   6   6  199.41    6.32
  -3  -6  -6   21.56    1.33
   3   6   6   24.69    1.19
   3   6   6   23.28    1.26
  -4  -6  -6   32.99    1.57
  -5  -6  -6    7.84    0.76
   5   6   6    9.66    0.84
  -6  -6  -6   44.85    1.92
   6   6   6   47.96    2.12
  -7  -6  -6    3.73    0.57
   7   6   6    3.78    0.75
  -8  -6  -6   39.07    1.70
   8   6   6   40.21    1.99
  -9  -6  -6   -0.39    0.48
   9   6   6    0.23    0.66
 -10  -6  -6    8.77    0.79
  10   6   6    9.68    1.14
 -11  -6  -6    8.02    0.82
  11   6   6    9.30    1.28
 -12  -6  -6   18.09    1.20
  12   6   6   14.08    1.59
  -5   7   6   12.90    1.59
  -4   7   6   16.57    1.67
  -3   7   6   -1.40    0.87
   2  -7  -6   49.19    2.54
  -2   7   6   48.07    2.44
   1  -7  -6    0.71    0.79
  -1   7   6    1.41    0.78
   0  -7  -6   54.65    2.55
   0   7   6   55.15    2.47
  -1  -7  -6    1.34    0.71
   1   7   6    0.46    0.54
   1   7   6    0.36    0.54
  -2  -7  -6   67.44    2.79
   2   7   6   69.33    2.70
   2   7   6   65.36    2.50
  -3  -7  -6    3.14    0.68
   3   7   6    2.94    0.54
  -4  -7  -6    0.14    0.51
   4   7   6    0.54    0.43
  -5  -7  -6    0.23    0.49
  -6  -7  -6    7.17    0.71
   6   7   6    8.56    0.88
  -7  -7  -6   28.46    1.39
   7   7   6   28.48    1.69
  -8  -7  -6    9.59    0.77
   8   7   6    9.66    1.01
  -9  -7  -6   25.06    1.23
   9   7   6   21.53    1.61
 -10  -7  -6    5.93    0.68
  10   7   6    4.65    1.02
 -11  -7  -6   11.74    0.93
  11   7   6   13.39    1.42
  12   7   6    2.42    1.08
  -5   8   6    7.59    1.50
  -4   8   6   18.34    1.79
  -3   8   6    6.26    1.17
   2  -8  -6    6.34    1.13
  -2   8   6    8.03    1.24
   1  -8  -6   16.66    1.44
  -1   8   6   17.37    1.42
   0  -8  -6    0.51    0.85
   0   8   6   -0.33    0.66
  -1  -8  -6   24.19    1.64
   1   8   6   24.07    1.41
  -2  -8  -6    3.28    0.79
   2   8   6    2.09    0.58
  -3  -8  -6   36.45    1.82
   3   8   6   38.17    1.69
  -4  -8  -6    1.62    0.61
   4   8   6    0.23    0.48
  -5  -8  -6   24.16    1.34
   5   8   6   23.58    1.20
  -6  -8  -6    1.39    0.56
  -7  -8  -6   65.74    2.51
  -8  -8  -6    2.20    0.54
   8   8   6    2.33    0.82
  -9  -8  -6    8.72    0.72
   9   8   6    9.42    1.17
 -10  -8  -6   -0.17    0.48
  10   8   6   -0.35    0.73
  11   8   6    3.84    0.99
  12   8   6    4.27    1.15
   2  -9  -6    5.22    1.21
   1  -9  -6    2.70    1.05
   0  -9  -6    8.00    1.13
  -1  -9  -6   29.64    1.85
   1   9   6   32.14    1.67
  -2  -9  -6   35.10    1.91
   2   9   6   36.00    1.75
  -3  -9  -6   22.06    1.49
   3   9   6   24.40    1.35
  -4  -9  -6    8.49    0.92
   4   9   6    8.46    0.82
  -5  -9  -6   27.40    1.54
   5   9   6   28.65    1.38
  -6  -9  -6   35.16    1.74
   6   9   6   39.55    1.63
  -7  -9  -6   14.73    1.05
   7   9   6   16.66    1.01
  -8  -9  -6   15.70    1.02
  -9  -9  -6    1.92    0.56
   9   9   6    1.19    0.80
 -10  -9  -6    9.63    0.81
  10   9   6   10.71    1.31
  11   9   6    0.05    0.85
  12   9   6   20.69    1.82
   1 -10  -6    0.25    1.06
   0 -10  -6   25.21    1.85
  -1 -10  -6   -0.11    0.87
  -2 -10  -6   41.56    2.33
   2  10   6   48.65    2.17
  -3 -10  -6    0.89    0.72
   3  10   6    2.22    0.67
  -4 -10  -6   20.43    1.44
   4  10   6   21.23    1.30
  -5 -10  -6    7.11    0.92
   5  10   6    8.94    0.82
  -6 -10  -6   45.66    2.12
   6  10   6   49.10    1.98
  -7 -10  -6   15.04    1.10
   7  10   6   14.97    1.01
  -8 -10  -6   17.32    1.10
   8  10   6   16.00    1.02
  -9 -10  -6    4.80    0.65
   9  10   6    4.18    0.59
 -10 -10  -6   18.53    1.03
  11  10   6   13.19    1.43
   1 -11  -6    0.38    1.14
   0 -11  -6    5.42    1.29
  -1 -11  -6    2.46    1.05
  -2 -11  -6    1.71    0.96
  -3 -11  -6    3.18    0.87
   3  11   6    3.01    0.78
  -4 -11  -6    0.97    0.79
   4  11   6    0.43    0.61
  -5 -11  -6   12.29    1.15
   5  11   6   12.63    1.01
  -6 -11  -6    0.22    0.69
   6  11   6    0.66    0.59
  -7 -11  -6   15.82    1.19
   7  11   6   15.32    1.07
  -8 -11  -6   11.99    0.94
   8  11   6    9.96    0.82
  -9 -11  -6   14.97    1.06
   9  11   6   14.29    0.97
  10  11   6    0.74    0.49
  11  11   6   12.66    0.84
   1 -12  -6    7.58    1.49
   0 -12  -6    1.77    1.23
  -1 -12  -6    9.73    1.47
  -2 -12  -6   -0.98    0.92
  -3 -12  -6    6.68    1.15
   3  12   6    6.96    1.02
  -4 -12  -6    1.45    0.92
   4  12   6    1.15    0.73
  -5 -12  -6    3.78    0.90
   5  12   6    2.02    0.71
  -6 -12  -6    2.70    0.85
   6  12   6    2.06    0.66
  -7 -12  -6   25.22    1.56
   7  12   6   24.55    1.39
  -8 -12  -6    2.18    0.74
   8  12   6    1.33    0.58
  -9 -12  -6    4.33    0.74
   9  12   6    4.04    0.64
  10  12   6    9.70    0.80
  -1 -13  -6    1.55    1.20
  -2 -13  -6   11.83    1.52
  -3 -13  -6   -0.24    0.94
  -4 -13  -6    7.79    1.20
   4  13   6    6.07    1.01
  -5 -13  -6    8.67    1.15
   5  13   6    6.30    0.95
  -6 -13  -6   15.42    1.33
   6  13   6   13.59    1.16
  -7 -13  -6   15.52    1.26
   7  13   6   14.57    1.15
  -8 -13  -6    1.95    0.77
   8  13   6    1.99    0.65
  -9 -13  -6    3.86    0.77
   9  13   6    2.09    0.66
  -4 -14  -6    4.09    1.14
   4  14   6    5.88    1.04
  -5 -14  -6    0.46    0.97
   5  14   6   -0.09    0.74
  -6 -14  -6   16.79    1.44
   6  14   6   17.49    1.36
  -7 -14  -6    3.54    0.93
   7  14   6    3.04    0.81
  -8 -14  -6   -0.37    0.74
   8  14   6    0.92    0.67
  -9 -14  -6    7.96    0.97
  -5 -13   7   16.05    1.48
  -4 -13   7    4.85    1.08
  -3 -13   7    3.09    1.09
  -2 -13   7    6.10    1.20
  -1 -13   7    2.17    1.12
   0 -13   7   11.35    1.50
   1 -13   7    0.14    1.08
  -7 -12   7    0.72    0.80
  -6 -12   7   20.08    1.55
  -5 -12   7    1.48    0.89
   4  12  -7    1.89    1.06
  -4 -12   7    4.01    1.04
   3  12  -7    0.59    0.95
  -3 -12   7   -0.47    0.83
   2  12  -7   14.50    1.55
  -2 -12   7   13.62    1.40
   1  12  -7    2.30    1.08
  -1 -12   7    3.12    1.04
   0 -12   7    1.92    1.04
   1 -12   7    3.10    1.06
   2 -12   7    3.00    1.17
   3 -12   7    1.78    1.20
  -8 -11   7    0.28    0.75
  -7 -11   7    7.61    1.02
   6  11  -7    1.19    1.00
  -6 -11   7    1.26    0.81
   5  11  -7    5.43    1.14
  -5 -11   7    6.15    1.01
   4  11  -7   -0.43    0.82
  -4 -11   7    0.11    0.76
   3  11  -7   19.16    1.62
  -3 -11   7   23.72    1.72
   2  11  -7   -1.01    0.81
  -2 -11   7    0.58    0.82
  -1 -11   7   21.82    1.73
   0 -11   7   -0.92    0.87
   1 -11   7    3.51    1.10
   2 -11   7    0.32    1.00
   3 -11   7    5.47    1.30
  -8 -10   7   -0.06    0.75
  -7 -10   7    6.72    0.99
   6  10  -7    1.44    0.91
  -6 -10   7    1.59    0.80
   5  10  -7   17.23    1.55
  -5 -10   7   16.95    1.34
   4  10  -7    9.31    1.18
  -4 -10   7    9.51    1.12
   3  10  -7   11.68    1.29
  -3 -10   7   13.21    1.21
   2  10  -7    6.51    1.08
  -2 -10   7    7.07    1.02
  -1 -10   7   13.86    1.31
   0 -10   7    3.65    0.91
   1 -10   7    8.48    1.19
   2 -10   7    2.06    1.00
   3 -10   7    9.39    1.35
   5 -10   7    0.52    0.98
  -8  -9   7    5.88    0.94
   7   9  -7   20.89    1.69
  -7  -9   7   19.73    1.39
   6   9  -7   18.51    1.59
  -6  -9   7   16.80    1.33
   5   9  -7    5.26    1.06
  -5  -9   7    5.53    0.90
   4   9  -7   21.95    1.62
  -4  -9   7   22.92    1.50
   3   9  -7    0.07    0.72
  -3  -9   7   -0.09    0.66
   2   9  -7   25.14    1.68
  -2  -9   7   21.56    1.47
  -1  -9   7    0.08    0.71
   0  -9   7   27.66    1.77
   1  -9   7    0.11    0.80
   2  -9   7   33.07    1.97
   3  -9   7    1.35    0.94
   4  -9   7   13.03    1.38
   5  -9   7    2.73    0.92
   6  -9   7    2.39    1.11
  -9  -8   7    1.12    0.77
   8   8  -7   15.81    1.59
  -8  -8   7   15.58    1.31
   7   8  -7   -0.01    0.80
  -7  -8   7    0.36    0.69
   6   8  -7   35.56    2.09
  -6  -8   7   30.38    1.74
   5   8  -7    8.12    1.12
  -5  -8   7   10.22    1.04
   4   8  -7   28.20    1.75
  -4  -8   7   27.16    1.59
   3   8  -7    0.50    0.74
  -3  -8   7    1.56    0.74
   2   8  -7   30.55    1.87
  -2  -8   7   31.70    1.75
  -1  -8   7    0.69    0.71
   0  -8   7   14.89    1.25
   1  -8   7   -0.92    0.71
  -2   8  -7   11.56    1.13
   2  -8   7   10.22    1.17
  -3   8  -7   11.42    1.20
   3  -8   7    9.95    1.14
  -4   8  -7   -0.26    0.88
   4  -8   7    0.10    0.79
   4  -8   7   -1.01    0.69
  -5   8  -7   17.04    1.56
   5  -8   7   12.70    1.31
  -6   8  -7    1.95    1.04
   6  -8   7    3.18    1.03
  -7   8  -7    3.25    1.15
   7  -8   7    2.34    1.02
  -9  -7   7    9.53    1.11
   8   7  -7   13.34    1.48
  -8  -7   7   14.08    1.19
   7   7  -7   26.63    1.86
  -7  -7   7   22.95    1.53
   6   7  -7    1.05    0.79
  -6  -7   7    2.70    0.76
   5   7  -7   29.33    1.81
  -5  -7   7   26.97    1.61
   4   7  -7   12.70    1.14
  -4  -7   7   11.82    1.07
   3   7  -7   31.84    1.80
  -3  -7   7   28.30    1.62
   2   7  -7    1.54    0.72
  -2  -7   7    2.55    0.74
  -1  -7   7   40.90    1.96
   0   7  -7   12.91    1.03
   0  -7   7   11.82    1.10
  -1   7  -7   48.78    2.19
   1  -7   7   43.05    2.16
  -2   7  -7    2.66    0.76
   2  -7   7    1.94    0.73
  -3   7  -7   11.27    1.10
   3  -7   7   11.60    1.19
  -4   7  -7    5.70    0.98
   4  -7   7    5.90    0.90
   4  -7   7    5.91    1.04
  -5   7  -7    4.80    1.10
   5  -7   7    5.39    0.96
  -6   7  -7    0.33    0.95
   6  -7   7    0.26    0.84
  -7   7  -7    2.82    1.14
   7  -7   7    3.98    1.10
  -8   7  -7    2.02    1.18
  -9  -6   7   19.62    1.56
   8   6  -7    6.80    1.18
  -8  -6   7    4.53    0.94
   7   6  -7   14.28    1.37
  -7  -6   7   13.09    1.17
   6   6  -7    4.34    0.93
  -6  -6   7    4.29    0.79
   5   6  -7   11.69    1.21
  -5  -6   7   14.69    1.17
   4   6  -7   19.48    1.37
  -4  -6   7   20.66    1.34
   3   6  -7    3.08    0.71
  -3  -6   7    2.50    0.67
   2   6  -7   41.17    2.02
  -2  -6   7   41.06    1.96
   1   6  -7   49.11    2.07
  -1  -6   7   46.18    2.12
   0   6  -7   66.95    2.75
   0  -6   7   70.99    2.85
  -1   6  -7    9.27    0.93
   1  -6   7    9.97    0.95
  -2   6  -7   73.24    3.05
   2  -6   7   78.80    3.12
  -3   6  -7    3.83    0.75
   3  -6   7    2.43    0.63
   3  -6   7    3.86    0.80
  -4   6  -7    6.06    0.92
   4  -6   7    6.93    0.86
   4  -6   7    6.97    0.94
  -5   6  -7    7.60    1.09
   5  -6   7    6.89    0.94
  -6   6  -7    5.00    1.03
   6  -6   7    5.89    1.03
  -7   6  -7   -0.64    0.90
   7  -6   7   -0.75    0.75
  -8   6  -7    7.87    1.24
   8  -6   7    5.22    1.19
  -9  -5   7   -1.07    0.83
   8   5  -7   22.59    1.76
  -8  -5   7   19.38    1.51
   7   5  -7    0.70    0.83
  -7  -5   7    1.51    0.74
   6   5  -7   29.18    1.77
  -6  -5   7   27.42    1.64
   5   5  -7    0.82    0.64
  -5  -5   7    0.18    0.61
   4   5  -7   62.82    2.68
  -4  -5   7   61.88    2.60
   3   5  -7    0.10    0.60
  -3  -5   7    0.59    0.58
   2   5  -7   57.74    2.53
  -2  -5   7   59.65    2.45
   1   5  -7    0.44    0.50
  -1  -5   7    0.46    0.59
   0   5  -7   83.51    3.15
   0  -5   7   75.73    3.14
   0  -5   7   85.76    2.78
  -1   5  -7  114.66    4.24
   1  -5   7  118.78    3.92
   1  -5   7  115.46    4.28
  -2   5  -7   12.02    0.99
   2  -5   7   14.54    1.13
   2  -5   7   12.65    0.87
  -3   5  -7    5.38    0.78
   3  -5   7    6.38    0.70
   3  -5   7    6.60    0.83
  -4   5  -7   42.41    2.09
   4  -5   7   43.99    2.10
   4  -5   7   43.70    1.95
  -5   5  -7   18.97    1.48
   5  -5   7   19.41    1.45
   5  -5   7   17.95    1.32
  -6   5  -7   26.95    1.77
   6  -5   7   23.78    1.63
  -7   5  -7    4.29    0.98
   7  -5   7    1.58    0.88
  -8   5  -7    8.76    1.29
   8  -5   7   12.00    1.36
  -9   5  -7    1.70    1.01
   9  -5   7    0.66    0.97
  -8  -4   7   13.30    1.28
   7   4  -7    1.10    0.84
  -7  -4   7    2.01    0.82
   6   4  -7   12.01    1.17
  -6  -4   7   13.55    1.17
   5   4  -7   21.76    1.44
  -5  -4   7   19.23    1.38
   4   4  -7   12.97    1.07
  -4  -4   7   11.99    1.03
   3   4  -7    6.76    0.83
  -3  -4   7    7.28    0.84
   2   4  -7   54.48    2.17
   2   4  -7   51.35    2.26
  -2  -4   7   53.66    2.30
   1   4  -7  100.78    3.70
  -1  -4   7  104.32    3.80
   0   4  -7    2.09    0.58
   0  -4   7    2.43    0.60
   0  -4   7    2.02    0.29
  -1   4  -7   55.25    2.34
   1  -4   7   57.20    2.03
   1  -4   7   56.98    2.39
  -2   4  -7   20.83    1.27
   2  -4   7   20.25    1.02
  -3   4  -7   19.93    1.33
   3  -4   7   21.71    1.15
   3  -4   7   22.15    1.38
  -4   4  -7   19.49    1.36
   4  -4   7   18.11    1.33
   4  -4   7   20.49    1.22
  -5   4  -7   56.19    2.50
   5  -4   7   56.80    2.40
   5  -4   7   55.76    2.49
  -6   4  -7   -0.77    0.71
   6  -4   7    0.34    0.61
  -7   4  -7   17.59    1.44
   7  -4   7   14.59    1.28
  -8   4  -7   -0.25    0.85
   8  -4   7    0.37    0.83
  -9   4  -7    8.37    1.30
   9  -4   7    9.21    1.29
  -8  -3   7    2.41    0.96
   7   3  -7   12.76    1.23
  -7  -3   7    9.71    1.15
   6   3  -7    0.17    0.70
  -6  -3   7   -0.13    0.73
   5   3  -7   46.73    2.13
  -5  -3   7   43.83    2.17
   4   3  -7   -0.04    0.58
  -4  -3   7   -1.62    0.55
   3   3  -7   55.09    2.28
  -3  -3   7   52.94    2.33
   2   3  -7    1.09    0.50
   2   3  -7    1.19    0.51
  -2  -3   7    0.17    0.51
   1   3  -7   88.76    3.28
  -1  -3   7   89.53    3.39
   0   3  -7   20.64    1.24
   0  -3   7   21.40    1.23
  -1   3  -7    7.69    0.80
   1  -3   7    6.56    0.74
   1  -3   7    7.46    0.54
  -2   3  -7    2.92    0.64
   2  -3   7    3.48    0.45
   2  -3   7    3.31    0.62
  -3   3  -7   48.03    2.07
   3  -3   7   46.45    1.85
   3  -3   7   45.56    2.07
  -4   3  -7   18.96    1.26
   4  -3   7   18.50    1.26
   4  -3   7   16.77    1.08
  -5   3  -7    4.30    0.79
   5  -3   7    4.53    0.72
   5  -3   7    2.63    0.68
  -6   3  -7   10.72    1.10
   6  -3   7   13.08    1.09
  -7   3  -7    3.99    0.91
   7  -3   7    3.83    0.80
  -8   3  -7    6.84    1.09
   8  -3   7    7.13    1.08
  -9   3  -7   -0.86    0.82
   9  -3   7    0.95    0.82
 -10   3  -7    1.98    1.02
  10  -3   7    4.24    1.11
  -8  -2   7    4.18    1.01
  -7  -2   7    3.83    0.94
   6   2  -7   16.12    1.29
  -6  -2   7   14.32    1.27
   5   2  -7   18.26    1.27
  -5  -2   7   17.70    1.36
   4   2  -7   22.06    1.30
  -4  -2   7   20.18    1.40
   3   2  -7   21.81    1.25
  -3  -2   7   22.55    1.35
   2   2  -7   17.08    1.10
   2   2  -7   18.68    1.14
  -2  -2   7   18.53    1.20
   1   2  -7    8.13    0.77
  -1  -2   7    8.98    0.87
   0   2  -7   13.36    1.01
   0  -2   7   12.75    1.06
  -1   2  -7    9.33    0.83
   1  -2   7    9.19    0.81
   1  -2   7    9.33    0.54
  -2   2  -7   12.52    1.02
   2  -2   7   11.35    0.95
   2  -2   7   13.43    0.76
  -3   2  -7   11.01    0.90
   3  -2   7   12.85    0.79
   3  -2   7   11.19    0.93
  -4   2  -7   34.03    1.64
   4  -2   7   30.30    1.45
   4  -2   7   31.74    1.57
  -5   2  -7    0.40    0.55
   5  -2   7    0.11    0.45
   5  -2   7    0.45    0.54
  -6   2  -7    8.00    0.93
   6  -2   7    7.11    0.85
  -7   2  -7    0.94    0.72
   7  -2   7    0.90    0.63
  -8   2  -7    1.42    0.79
   8  -2   7    1.98    0.84
  -9   2  -7    3.01    0.93
   9  -2   7    2.90    0.88
 -10   2  -7    6.23    1.14
  10  -2   7    6.56    1.17
  -8  -1   7    6.93    1.15
  -7  -1   7   -0.05    0.81
  -6  -1   7   37.23    2.04
   5   1  -7    5.35    0.79
  -5  -1   7    3.23    0.77
   4   1  -7   59.47    2.42
  -4  -1   7   61.59    2.64
   3   1  -7    3.93    0.60
  -3  -1   7    3.66    0.78
   2   1  -7   91.54    3.35
   2   1  -7   85.90    3.23
  -2  -1   7   92.83    3.48
   1   1  -7   30.26    1.50
   1   1  -7   30.72    1.40
  -1  -1   7   27.81    1.50
   0   1  -7  117.76    4.20
   0  -1   7  118.69    4.24
  -1   1  -7    8.29    0.76
   1  -1   7    8.63    0.50
   1  -1   7    9.27    0.79
  -2   1  -7   55.96    2.29
   2  -1   7   59.10    2.03
   2  -1   7   54.31    2.31
  -3   1  -7   19.90    1.20
   3  -1   7   22.42    1.05
   3  -1   7   21.80    1.24
  -4   1  -7   34.79    1.67
   4  -1   7   34.45    1.62
   4  -1   7   32.24    1.48
  -5   1  -7   21.40    1.30
   5  -1   7   18.38    1.23
   5  -1   7   24.01    1.24
  -6   1  -7    5.10    0.79
   6  -1   7    5.21    0.75
  -7   1  -7   11.02    1.03
   7  -1   7   12.45    1.08
  -8   1  -7    2.02    0.76
   8  -1   7    2.29    0.75
  -9   1  -7   18.46    1.45
   9  -1   7   16.22    1.45
 -10   1  -7    2.76    1.00
  10  -1   7    1.59    0.99
 -11   1  -7    3.05    1.01
  -8   0   7    4.36    1.15
  -7   0   7    8.83    1.28
  -6   0   7   23.49    1.69
  -5   0   7   38.64    2.05
   4   0  -7   16.30    1.07
  -4   0   7   13.38    1.20
   3   0  -7   30.68    1.54
   3   0  -7   29.83    1.41
  -3   0   7   29.49    1.68
   2   0  -7   32.99    1.50
   2   0  -7   35.96    1.72
  -2   0   7   37.07    1.81
   1   0  -7  131.13    4.51
   1   0  -7  123.67    4.29
  -1   0   7  124.59    4.10
  -1   0   7  124.89    4.54
   0   0  -7    2.72    0.61
   0   0   7    0.99    0.56
  -1   0  -7   34.58    1.61
   1   0   7   32.52    1.62
  -2   0  -7   -0.22    0.49
   2   0   7    0.05    0.51
   2   0   7   -0.09    0.28
  -3   0  -7  199.89    7.06
   3   0   7  219.03    6.81
   3   0   7  210.49    7.07
  -4   0  -7    1.18    0.51
   4   0   7    2.00    0.56
   4   0   7    2.80    0.47
  -5   0  -7   83.42    3.23
   5   0   7   87.29    3.19
   5   0   7   85.49    3.15
  -6   0  -7    1.76    0.60
   6   0   7    1.57    0.54
  -7   0  -7   79.44    3.08
   7   0   7   74.93    3.08
  -8   0  -7    1.89    0.70
   8   0   7    1.32    0.69
  -9   0  -7   29.96    1.82
   9   0   7   34.12    1.98
 -10   0  -7   -0.35    0.75
  10   0   7    0.61    0.90
 -11   0  -7    4.37    1.06
  11   0   7    4.03    1.13
  -7   1   7   31.41    2.10
  -6   1   7    0.60    0.89
  -5   1   7   12.93    1.30
  -4   1   7    1.37    0.77
   3  -1  -7   26.75    1.55
  -3   1   7   26.55    1.65
   2  -1  -7   28.54    1.57
   2  -1  -7   28.58    1.25
  -2   1   7   28.25    1.58
   1  -1  -7   23.24    1.06
   1  -1  -7   21.13    1.34
  -1   1   7   22.74    1.36
   0  -1  -7   51.53    2.16
   0   1   7   51.69    2.19
  -1  -1  -7   40.31    1.79
   1   1   7   40.86    1.85
  -2  -1  -7   81.38    3.08
   2   1   7   82.14    3.06
   2   1   7   82.27    2.80
  -3  -1  -7  119.66    4.22
   3   1   7  112.57    4.17
   3   1   7  122.94    4.00
  -4  -1  -7   41.74    1.84
   4   1   7   38.78    1.68
   4   1   7   42.75    1.80
  -5  -1  -7   20.04    1.23
   5   1   7   20.49    1.18
   5   1   7   21.84    1.18
  -6  -1  -7   46.27    2.00
   6   1   7   43.98    1.97
  -7  -1  -7   17.56    1.18
   7   1   7   19.63    1.30
  -8  -1  -7   21.47    1.35
   8   1   7   23.13    1.50
  -9  -1  -7    0.71    0.69
   9   1   7    1.23    0.82
 -10  -1  -7    7.76    1.04
  10   1   7    8.51    1.20
 -11  -1  -7    1.23    0.86
  11   1   7    1.22    1.00
  -7   2   7    9.64    1.38
  -6   2   7    9.23    1.26
  -5   2   7    0.80    0.88
  -4   2   7   26.15    1.74
   3  -2  -7    8.99    0.98
  -3   2   7    9.91    1.07
   2  -2  -7   17.15    1.28
  -2   2   7   17.59    1.27
   1  -2  -7    0.94    0.33
   1  -2  -7    0.71    0.55
  -1   2   7    2.05    0.63
   0  -2  -7   32.97    1.27
   0  -2  -7   30.64    1.57
   0   2   7   31.63    1.65
   0   2   7   31.51    1.39
  -1  -2  -7   11.42    0.96
   1   2   7   11.98    0.94
  -2  -2  -7   89.00    3.39
   2   2   7   96.33    3.44
  -3  -2  -7    0.59    0.52
   3   2   7    1.53    0.39
   3   2   7    1.05    0.46
  -4  -2  -7   47.06    2.01
   4   2   7   49.24    1.97
   4   2   7   44.65    1.85
  -5  -2  -7    5.15    0.67
   5   2   7    5.48    0.62
   5   2   7    5.44    0.62
  -6  -2  -7   93.93    3.47
   6   2   7   94.88    3.49
  -7  -2  -7    5.06    0.71
   7   2   7    7.02    0.85
  -8  -2  -7   10.01    0.88
   8   2   7    9.30    0.99
  -9  -2  -7    1.85    0.69
   9   2   7    2.06    0.86
 -10  -2  -7   13.38    1.14
  10   2   7   15.59    1.44
 -11  -2  -7    1.10    0.80
  11   2   7    2.58    1.02
  -7   3   7    7.36    1.38
  -6   3   7   18.86    1.70
  -5   3   7   25.98    1.88
  -4   3   7   29.70    1.91
  -3   3   7   11.72    1.14
   2  -3  -7   13.99    1.18
  -2   3   7   16.87    1.35
   1  -3  -7   15.94    1.28
  -1   3   7   15.63    1.17
   0  -3  -7   59.55    2.52
   0   3   7   56.56    2.46
   0   3   7   61.38    2.26
  -1  -3  -7   54.33    2.29
   1   3   7   54.79    2.31
  -2  -3  -7    0.81    0.57
   2   3   7    0.04    0.46
  -3  -3  -7   35.21    1.61
   3   3   7   34.29    1.48
   3   3   7   32.71    1.57
  -4  -3  -7    6.45    0.70
   4   3   7    5.35    0.63
   4   3   7    6.35    0.65
  -5  -3  -7   97.55    3.63
   5   3   7  102.45    3.56
   5   3   7  100.76    3.61
  -6  -3  -7    1.82    0.58
   6   3   7    1.88    0.55
  -7  -3  -7   12.74    1.01
   7   3   7   11.23    0.98
  -8  -3  -7   -0.09    0.55
   8   3   7   -0.17    0.58
  -9  -3  -7   10.05    0.94
   9   3   7    9.27    1.05
 -10  -3  -7   -0.14    0.67
  10   3   7   -0.24    0.73
 -11  -3  -7    6.34    0.91
  11   3   7    8.42    1.19
 -12  -3  -7    2.48    0.86
  12   3   7    1.78    1.08
  -6   4   7    1.24    1.06
  -5   4   7   11.93    1.44
  -4   4   7    3.06    1.01
  -3   4   7    9.05    1.17
   2  -4  -7    0.07    0.69
  -2   4   7    0.41    0.71
   1  -4  -7  131.94    4.95
  -1   4   7  138.10    4.97
   0  -4  -7    0.37    0.57
   0   4   7    0.55    0.50
   0   4   7   -0.36    0.59
  -1  -4  -7   77.50    3.05
   1   4   7   78.14    2.77
   1   4   7   76.80    3.03
  -2  -4  -7    0.64    0.60
   2   4   7    1.02    0.58
  -3  -4  -7   69.66    2.82
   3   4   7   74.70    2.77
  -4  -4  -7    0.88    0.54
   4   4   7    1.25    0.50
   4   4   7    1.41    0.46
  -5  -4  -7   28.80    1.44
   5   4   7   29.28    1.43
  -6  -4  -7   13.60    1.03
   6   4   7   12.35    0.97
  -7  -4  -7    0.80    0.54
   7   4   7    0.08    0.58
  -8  -4  -7    2.38    0.60
   8   4   7    1.26    0.70
  -9  -4  -7   19.73    1.22
   9   4   7   18.48    1.49
 -10  -4  -7   22.82    1.37
  10   4   7   18.49    1.52
 -11  -4  -7    2.92    0.78
  11   4   7    4.25    1.08
 -12  -4  -7    5.88    0.95
  12   4   7    6.69    1.28
  -6   5   7    1.70    1.14
  -5   5   7    6.89    1.30
  -4   5   7    2.27    1.04
  -3   5   7   18.46    1.54
   2  -5  -7    8.12    1.12
  -2   5   7    9.86    1.15
   1  -5  -7   39.98    2.07
  -1   5   7   43.49    2.15
   0  -5  -7   47.27    2.26
   0   5   7   50.15    2.06
   0   5   7   52.94    2.29
  -1  -5  -7    4.00    0.78
   1   5   7    2.77    0.56
   1   5   7    3.34    0.73
  -2  -5  -7   24.26    1.41
   2   5   7   24.65    1.39
   2   5   7   23.92    1.22
  -3  -5  -7   46.61    2.11
   3   5   7   47.94    2.01
  -4  -5  -7  119.90    4.33
   4   5   7  121.56    4.23
  -5  -5  -7    3.22    0.62
   5   5   7    2.35    0.66
  -6  -5  -7   17.81    1.14
   6   5   7   17.10    1.21
  -7  -5  -7   21.58    1.28
   7   5   7   26.28    1.50
  -8  -5  -7   27.43    1.44
   8   5   7   29.47    1.71
  -9  -5  -7    2.86    0.67
   9   5   7    2.24    0.82
 -10  -5  -7   18.49    1.21
  10   5   7   16.40    1.40
 -11  -5  -7    0.49    0.65
  11   5   7    0.57    0.83
 -12  -5  -7    5.36    0.85
  12   5   7    4.94    1.22
  -5   6   7    3.09    1.21
  -4   6   7    7.37    1.30
  -3   6   7    5.30    1.11
   2  -6  -7   29.50    1.87
  -2   6   7   26.84    1.87
   1  -6  -7    0.12    0.79
  -1   6   7    0.53    0.76
   0  -6  -7   21.86    1.45
   0   6   7   18.46    1.43
  -1  -6  -7   -0.54    0.66
   1   6   7   -0.50    0.58
   1   6   7    0.06    0.53
  -2  -6  -7   38.96    1.90
   2   6   7   40.38    1.86
   2   6   7   38.29    1.71
  -3  -6  -7    7.94    0.86
   3   6   7    7.09    0.73
   3   6   7    6.95    0.72
  -4  -6  -7   63.74    2.56
  -5  -6  -7   10.64    0.92
  -6  -6  -7   28.27    1.44
   6   6   7   25.54    1.50
  -7  -6  -7    6.87    0.74
   7   6   7    6.53    0.91
  -8  -6  -7   52.98    2.15
   8   6   7   51.48    2.39
  -9  -6  -7   19.74    1.21
   9   6   7   17.83    1.48
 -10  -6  -7    8.47    0.84
  10   6   7    6.33    1.04
 -11  -6  -7    5.22    0.79
  11   6   7    5.57    1.05
 -12  -6  -7    3.91    0.81
  12   6   7    4.98    1.21
  -5   7   7    1.06    1.22
  -4   7   7    2.59    1.18
  -3   7   7   10.21    1.35
   2  -7  -7    8.46    1.18
  -2   7   7    7.27    1.17
   1  -7  -7   12.67    1.35
  -1   7   7    9.31    1.12
   0  -7  -7    4.54    0.97
   0   7   7    4.75    0.92
  -1  -7  -7    9.23    1.03
   1   7   7   11.27    1.04
   1   7   7   10.49    0.92
  -2  -7  -7    1.01    0.72
   2   7   7    0.73    0.53
  -3  -7  -7   18.51    1.32
   3   7   7   17.62    1.14
  -4  -7  -7   -0.56    0.57
   4   7   7    0.19    0.48
  -5  -7  -7   14.78    1.11
  -6  -7  -7    2.76    0.62
  -7  -7  -7   47.74    2.03
   7   7   7   45.57    2.24
  -8  -7  -7    0.14    0.52
   8   7   7    0.82    0.67
  -9  -7  -7   23.17    1.28
   9   7   7   23.14    1.64
 -10  -7  -7   -0.41    0.55
  10   7   7    0.61    0.76
 -11  -7  -7   14.52    1.09
  11   7   7   14.30    1.50
  12   7   7   -0.71    0.96
   2  -8  -7    3.67    1.13
   1  -8  -7   16.82    1.59
   0  -8  -7    6.20    1.05
  -1  -8  -7   18.40    1.45
  -2  -8  -7    5.56    0.95
   2   8   7    6.66    0.79
  -3  -8  -7   37.24    1.99
   3   8   7   42.50    1.86
  -4  -8  -7   22.33    1.44
   4   8   7   23.83    1.28
  -5  -8  -7   32.01    1.64
   5   8   7   30.42    1.47
  -6  -8  -7   21.07    1.32
  -7  -8  -7   30.98    1.55
  -8  -8  -7   12.01    0.95
   8   8   7   11.33    1.21
  -9  -8  -7    4.56    0.70
   9   8   7    4.26    1.02
 -10  -8  -7   22.21    1.25
  10   8   7   21.03    1.70
 -11  -8  -7    2.73    0.64
  11   8   7    2.06    0.97
  12   8   7    7.12    1.29
   1  -9  -7   -0.37    0.90
   0  -9  -7   64.06    3.10
  -1  -9  -7    0.87    0.83
  -2  -9  -7   28.11    1.78
   2   9   7   31.59    1.69
  -3  -9  -7    2.00    0.77
   3   9   7    0.83    0.59
  -4  -9  -7   48.00    2.33
   4   9   7   54.11    2.19
  -5  -9  -7   -1.16    0.58
   5   9   7   -0.54    0.50
  -6  -9  -7   14.10    1.18
   6   9   7   14.67    1.06
  -7  -9  -7    0.54    0.59
  -8  -9  -7   17.81    1.19
  -9  -9  -7   12.39    1.02
   9   9   7   12.93    1.36
 -10  -9  -7   10.87    0.87
  10   9   7   14.22    1.38
  11   9   7    2.87    1.04
   1 -10  -7    3.40    1.22
   0 -10  -7   10.85    1.45
  -1 -10  -7    0.72    0.91
  -2 -10  -7    6.65    1.16
  -3 -10  -7   13.11    1.31
   3  10   7   16.26    1.21
  -4 -10  -7   21.86    1.51
   4  10   7   19.63    1.32
  -5 -10  -7    4.02    0.83
   5  10   7    6.49    0.80
  -6 -10  -7   16.77    1.32
   6  10   7   17.41    1.14
  -7 -10  -7   18.48    1.26
   7  10   7   17.75    1.15
  -8 -10  -7   11.40    0.96
   8  10   7    8.55    0.81
  -9 -10  -7   10.51    0.90
 -10 -10  -7    1.83    0.64
  11  10   7    4.58    1.15
   1 -11  -7    6.75    1.44
   0 -11  -7    2.02    1.08
  -1 -11  -7    4.57    1.20
  -2 -11  -7   -0.25    0.92
  -3 -11  -7   10.64    1.29
   3  11   7    7.98    1.02
  -4 -11  -7    3.16    0.93
   4  11   7    3.15    0.78
  -5 -11  -7   10.66    1.17
   5  11   7   10.89    1.02
  -6 -11  -7    0.70    0.68
   6  11   7    0.79    0.61
  -7 -11  -7   16.27    1.25
   7  11   7   14.23    1.08
  -8 -11  -7    0.02    0.66
   8  11   7    1.64    0.60
  -9 -11  -7    5.43    0.79
   9  11   7    3.82    0.68
 -10 -11  -7    1.01    0.59
  10  11   7    0.06    0.51
  11  11   7    5.47    0.68
   0 -12  -7    5.56    1.40
  -1 -12  -7    2.51    1.16
  -2 -12  -7    1.59    1.08
  -3 -12  -7    8.10    1.27
  -4 -12  -7    5.82    1.10
   4  12   7    4.63    0.90
  -5 -12  -7    2.11    0.96
   5  12   7    2.66    0.75
  -6 -12  -7   19.33    1.55
   6  12   7   19.63    1.34
  -7 -12  -7    1.38    0.79
   7  12   7    0.87    0.64
  -8 -12  -7    6.95    0.91
   8  12   7    6.63    0.83
  -9 -12  -7    0.01    0.67
   9  12   7   -0.43    0.55
 -10 -12  -7   11.90    0.96
  10  12   7   13.12    1.01
  -2 -13  -7    2.65    1.23
  -3 -13  -7   -0.32    1.02
  -4 -13  -7   21.19    1.75
   4  13   7   16.53    1.43
  -5 -13  -7    6.21    1.12
   5  13   7    8.09    1.05
  -6 -13  -7    2.27    0.98
   6  13   7    5.56    0.91
  -7 -13  -7   -1.05    0.76
   7  13   7   -0.26    0.68
  -8 -13  -7    7.79    1.03
   8  13   7    6.68    0.87
  -9 -13  -7   -0.72    0.67
   9  13   7    0.31    0.61
   5  14   7    8.97    1.12
   6  14   7    0.20    0.74
   7  14   7    6.46    0.99
  -3 -13   8    3.55    1.09
  -2 -13   8    5.85    1.24
  -1 -13   8   -0.68    0.98
   0 -13   8   12.40    1.58
  -5 -12   8    6.64    1.15
  -4 -12   8    1.30    0.96
  -3 -12   8    6.37    1.16
   2  12  -8    0.47    0.96
  -2 -12   8   -1.28    0.88
   1  12  -8    1.86    1.05
  -1 -12   8    2.14    0.97
   0 -12   8    6.52    1.30
   1 -12   8    1.93    1.10
   2 -12   8    1.05    1.14
  -6 -11   8   -0.36    0.78
  -5 -11   8   19.83    1.60
   4  11  -8    0.32    0.97
  -4 -11   8    1.08    0.87
   3  11  -8   12.70    1.45
  -3 -11   8   10.07    1.25
   2  11  -8   -0.43    0.87
  -2 -11   8   -0.34    0.85
  -1 -11   8   20.94    1.70
   0 -11   8    4.00    1.11
   1 -11   8   -1.13    0.89
   2 -11   8    4.04    1.20
   3 -11   8    1.47    1.07
   4 -11   8    3.36    1.10
  -7 -10   8   27.08    1.70
  -6 -10   8    8.14    1.07
   5  10  -8    1.51    0.95
  -5 -10   8    0.98    0.87
   4  10  -8    8.56    1.23
  -4 -10   8    8.95    1.15
   3  10  -8    2.36    0.95
  -3 -10   8    4.16    0.98
   2  10  -8   16.63    1.59
  -2 -10   8   16.91    1.44
  -1 -10   8    3.18    0.98
   0 -10   8    7.24    1.18
   1 -10   8    0.96    0.97
   2 -10   8   26.85    1.91
   3 -10   8   -1.30    0.95
   4 -10   8    6.49    1.14
   5 -10   8   -0.60    0.97
  -8  -9   8   22.67    1.58
  -7  -9   8    1.23    0.82
   6   9  -8    0.93    0.96
  -6  -9   8    0.72    0.77
   5   9  -8    0.92    0.86
  -5  -9   8   -0.23    0.74
   4   9  -8   10.37    1.24
  -4  -9   8   11.25    1.17
   3   9  -8    0.66    0.82
  -3  -9   8    2.66    0.86
   2   9  -8   19.21    1.62
  -2  -9   8   23.47    1.62
  -1  -9   8    3.52    0.96
   0  -9   8   21.26    1.65
   1  -9   8   14.96    1.35
   2  -9   8   30.54    2.02
   3  -9   8    7.81    1.25
   3  -9   8    7.75    1.03
   4  -9   8   13.07    1.49
   4  -9   8   13.79    1.35
   5  -9   8   -0.34    0.88
   6  -9   8    4.27    1.15
  -8  -8   8    3.22    0.93
   7   8  -8    2.85    0.96
  -7  -8   8    2.82    0.83
   6   8  -8   -0.68    0.77
  -6  -8   8    1.17    0.76
   5   8  -8   17.75    1.46
  -5  -8   8   16.99    1.41
   4   8  -8    9.24    1.12
  -4  -8   8    7.60    1.01
   3   8  -8   34.98    2.00
  -3  -8   8   34.50    1.89
   2   8  -8   17.98    1.48
  -2  -8   8   19.40    1.45
  -1  -8   8   17.14    1.35
   0  -8   8    7.13    0.97
   1  -8   8   13.83    1.30
   2  -8   8    0.29    0.83
  -3   8  -8    6.74    1.06
   3  -8   8    5.48    1.12
   3  -8   8    6.55    0.95
  -4   8  -8   -0.69    0.77
   4  -8   8    0.49    0.78
   4  -8   8    0.08    0.83
  -5   8  -8    8.02    1.28
   5  -8   8    6.37    1.08
  -6   8  -8    1.30    1.11
   6  -8   8    0.07    0.92
  -7   8  -8   11.30    1.57
  -8  -7   8    0.08    0.80
   7   7  -8   17.85    1.55
  -7  -7   8   12.41    1.24
   6   7  -8    1.65    0.84
  -6  -7   8    0.88    0.75
   5   7  -8   18.11    1.48
  -5  -7   8   21.46    1.45
   4   7  -8    2.36    0.80
  -4  -7   8    2.67    0.78
   3   7  -8   43.99    2.20
  -3  -7   8   42.05    2.10
   2   7  -8   12.91    1.20
  -2  -7   8   11.36    1.10
  -1  -7   8   12.88    1.17
   0  -7   8   24.80    1.56
  -1   7  -8    5.20    0.87
   1  -7   8    6.86    0.99
  -2   7  -8   31.43    1.83
   2  -7   8   31.33    1.53
   2  -7   8   28.47    1.83
  -3   7  -8   10.13    1.06
   3  -7   8    9.94    0.96
   3  -7   8    7.84    1.06
  -4   7  -8    6.68    1.10
   4  -7   8    8.82    1.10
   4  -7   8    5.28    0.88
  -5   7  -8    3.11    1.03
   5  -7   8    3.16    0.85
  -6   7  -8   10.32    1.39
   6  -7   8   11.14    1.25
  -7   7  -8    0.19    1.05
   7  -7   8    1.19    0.87
   8   6  -8   17.13    1.62
  -8  -6   8   19.21    1.53
   7   6  -8    3.63    0.96
  -7  -6   8    2.66    0.87
   6   6  -8   14.91    1.31
  -6  -6   8   14.77    1.28
   5   6  -8    1.23    0.82
  -5  -6   8    1.85    0.75
   4   6  -8   44.06    2.27
  -4  -6   8   48.26    2.23
   3   6  -8    1.97    0.70
  -3  -6   8    2.59    0.78
   2   6  -8   55.40    2.60
  -2  -6   8   58.75    2.52
  -1  -6   8   11.82    1.10
   0   6  -8   17.80    1.29
   0  -6   8   19.47    1.42
  -1   6  -8    0.26    0.61
   1  -6   8    0.58    0.45
   1  -6   8   -0.22    0.66
  -2   6  -8   49.61    2.32
   2  -6   8   50.88    2.05
   2  -6   8   50.02    2.34
  -3   6  -8    0.05    0.66
   3  -6   8    0.78    0.59
   3  -6   8    1.57    0.81
  -4   6  -8   10.57    1.10
   4  -6   8    9.48    1.07
   4  -6   8    9.22    0.98
  -5   6  -8    0.94    0.79
   5  -6   8    0.23    0.69
  -6   6  -8    5.04    1.11
   6  -6   8    4.50    0.88
  -7   6  -8    2.77    1.13
   7  -6   8    3.80    1.01
  -8   6  -8   -0.46    1.04
   8  -6   8    1.67    1.02
  -8  -5   8    9.73    1.19
   7   5  -8    2.85    1.02
  -7  -5   8    3.74    0.96
   6   5  -8   12.83    1.27
  -6  -5   8   10.26    1.16
   5   5  -8    9.61    1.04
  -5  -5   8   10.72    1.07
   4   5  -8   96.90    3.74
  -4  -5   8   93.69    3.72
   3   5  -8   48.39    2.27
  -3  -5   8   49.74    2.28
   2   5  -8   31.07    1.70
  -2  -5   8   30.76    1.72
   1   5  -8    7.15    0.77
  -1  -5   8    5.58    0.85
   0   5  -8   55.65    2.38
   0  -5   8   55.18    2.46
  -1   5  -8   25.68    1.50
   1  -5   8   24.89    1.48
   1  -5   8   23.18    1.11
  -2   5  -8   26.01    1.57
   2  -5   8   26.48    1.61
   2  -5   8   26.32    1.28
  -3   5  -8   21.34    1.44
   3  -5   8   21.14    1.50
   3  -5   8   23.15    1.28
  -4   5  -8    7.00    0.98
   4  -5   8    6.69    0.97
   4  -5   8    6.80    0.81
  -5   5  -8    5.46    0.99
   5  -5   8    6.61    0.99
   5  -5   8    7.67    0.90
  -6   5  -8    0.60    0.85
   6  -5   8    1.26    0.75
  -7   5  -8   29.63    1.98
   7  -5   8   27.27    1.85
  -8   5  -8   -1.07    0.93
   8  -5   8    1.03    0.84
  -9   5  -8    4.04    1.24
   9  -5   8    3.80    1.13
  -8  -4   8    2.06    0.94
  -7  -4   8    8.44    1.15
   6   4  -8    1.05    0.78
  -6  -4   8    0.88    0.75
   5   4  -8   35.07    1.87
  -5  -4   8   32.38    1.84
   4   4  -8    0.27    0.62
  -4  -4   8    0.22    0.64
   3   4  -8   59.94    2.59
  -3  -4   8   62.24    2.66
   2   4  -8   -0.11    0.60
  -2  -4   8    0.55    0.58
   1   4  -8    9.35    0.86
  -1  -4   8   10.27    1.00
   0   4  -8    2.53    0.67
   0  -4   8    3.40    0.74
  -1   4  -8  109.42    4.12
   1  -4   8  117.21    3.73
   1  -4   8  109.24    4.16
  -2   4  -8    6.53    0.82
   2  -4   8    7.24    0.63
   2  -4   8    7.21    0.84
  -3   4  -8   11.19    1.02
   3  -4   8   12.46    1.08
   3  -4   8   11.08    0.89
  -4   4  -8    2.93    0.79
   4  -4   8    3.95    0.80
   4  -4   8    3.11    0.61
  -5   4  -8    9.81    1.08
   5  -4   8    8.65    1.00
   5  -4   8    9.18    0.92
  -6   4  -8   25.82    1.74
   6  -4   8   26.95    1.63
  -7   4  -8   13.49    1.32
   7  -4   8   14.83    1.31
  -8   4  -8    1.43    0.89
   8  -4   8   -0.50    0.74
  -9   4  -8    2.95    1.12
   9  -4   8    3.91    1.09
  -8  -3   8    1.85    1.03
  -7  -3   8    6.32    1.05
  -6  -3   8    1.63    0.80
   5   3  -8   24.60    1.55
  -5  -3   8   24.86    1.62
   4   3  -8   15.89    1.24
  -4  -3   8   16.72    1.35
   3   3  -8   12.90    1.03
  -3  -3   8   14.81    1.18
   2   3  -8    6.80    0.81
  -2  -3   8    7.55    0.91
   1   3  -8    6.28    0.75
  -1  -3   8    6.64    0.86
   0   3  -8   61.18    2.48
   0  -3   8   59.16    2.55
  -1   3  -8    0.00    0.52
   1  -3   8    0.83    0.30
   1  -3   8    1.61    0.63
  -2   3  -8   27.06    1.53
   2  -3   8   32.23    1.27
   2  -3   8   27.62    1.55
  -3   3  -8    2.19    0.63
   3  -3   8    2.37    0.46
   3  -3   8    2.06    0.68
  -4   3  -8   26.63    1.53
   4  -3   8   25.63    1.34
   4  -3   8   26.52    1.50
  -5   3  -8   -0.60    0.56
   5  -3   8    0.55    0.50
   5  -3   8   -0.19    0.59
  -6   3  -8   55.65    2.57
   6  -3   8   58.56    2.50
  -7   3  -8    7.55    1.08
   7  -3   8    9.50    1.07
  -8   3  -8    3.82    1.01
   8  -3   8    4.15    0.94
  -9   3  -8    1.43    0.97
   9  -3   8    1.85    0.94
 -10   3  -8    1.94    1.04
  10  -3   8    1.12    1.00
  -7  -2   8    2.20    0.93
  -6  -2   8   17.96    1.45
   5   2  -8    2.50    0.78
  -5  -2   8    2.02    0.81
   4   2  -8   19.72    1.29
  -4  -2   8   20.52    1.41
   3   2  -8    5.44    0.72
  -3  -2   8    4.42    0.86
   2   2  -8    2.67    0.64
   2   2  -8    3.09    0.60
  -2  -2   8    1.44    0.64
   1   2  -8   34.25    1.62
  -1  -2   8   29.02    1.62
   0   2  -8   72.35    2.85
   0  -2   8   72.38    2.92
  -1   2  -8   21.21    1.28
   1  -2   8   20.57    1.31
   1  -2   8   21.71    0.86
  -2   2  -8   32.94    1.64
   2  -2   8   28.98    1.59
   2  -2   8   33.98    1.32
  -3   2  -8    4.15    0.69
   3  -2   8    3.59    0.70
   3  -2   8    3.33    0.47
  -4   2  -8   55.29    2.30
   4  -2   8   48.02    2.20
   4  -2   8   51.15    2.05
  -5   2  -8   17.84    1.30
   5  -2   8   16.32    1.10
   5  -2   8   15.61    1.15
  -6   2  -8   27.01    1.63
   6  -2   8   29.19    1.57
  -7   2  -8    0.08    0.70
   7  -2   8    0.64    0.67
  -8   2  -8    5.15    1.00
   8  -2   8    5.48    0.97
  -9   2  -8    3.23    0.96
   9  -2   8    2.81    0.91
 -10   2  -8    0.55    0.96
  10  -2   8   -0.24    0.93
  -7  -1   8    9.14    1.24
  -6  -1   8   11.49    1.25
  -5  -1   8   18.31    1.52
   4   1  -8   45.38    2.00
  -4  -1   8   41.74    2.19
   3   1  -8   63.20    2.53
  -3  -1   8   62.50    2.71
   2   1  -8   15.31    1.16
   2   1  -8   15.81    1.05
  -2  -1   8   15.76    1.31
   1   1  -8  135.95    4.75
   1   1  -8  136.43    4.88
  -1  -1   8  138.46    4.95
   0   1  -8   50.98    2.10
   0  -1   8   45.55    2.13
  -1   1  -8   56.40    2.35
   1  -1   8   57.32    2.42
  -2   1  -8   35.11    1.75
   2  -1   8   36.42    1.40
   2  -1   8   35.67    1.75
  -3   1  -8   46.24    2.13
   3  -1   8   49.84    1.86
   3  -1   8   46.85    2.12
  -4   1  -8   -0.15    0.52
   4  -1   8    1.02    0.44
   4  -1   8   -0.53    0.54
  -5   1  -8   44.78    2.14
   5  -1   8   48.84    2.00
   5  -1   8   45.72    2.05
  -6   1  -8    1.73    0.64
   6  -1   8    1.78    0.63
  -7   1  -8   38.07    1.96
   7  -1   8   38.43    1.94
  -8   1  -8    5.57    0.94
   8  -1   8    5.26    0.95
  -9   1  -8    9.04    1.14
   9  -1   8   11.22    1.25
 -10   1  -8    1.36    0.90
  10  -1   8    2.49    1.02
  -7   0   8   14.96    1.55
  -6   0   8    0.64    0.91
  -5   0   8   56.76    2.71
  -4   0   8    2.29    0.83
  -3   0   8   72.27    3.08
   2   0  -8    6.59    0.82
   2   0  -8    5.62    0.64
  -2   0   8    5.61    0.83
   1   0  -8   53.88    2.38
   1   0  -8   55.69    2.21
  -1   0   8   63.66    2.57
   0   0  -8    2.69    0.69
   0   0   8    4.14    0.76
  -1   0  -8   87.14    3.32
   1   0   8   89.27    3.39
  -2   0  -8    0.74    0.53
   2   0   8    0.71    0.31
   2   0   8    0.56    0.58
  -3   0  -8   32.47    1.67
   3   0   8   31.14    1.62
   3   0   8   32.77    1.38
  -4   0  -8   24.34    1.38
   4   0   8   23.55    1.21
   4   0   8   25.60    1.40
  -5   0  -8   28.62    1.53
   5   0   8   27.55    1.42
   5   0   8   31.63    1.55
  -6   0  -8   28.58    1.59
   6   0   8   27.99    1.50
  -7   0  -8   18.63    1.33
   7   0   8   18.46    1.33
  -8   0  -8    6.72    0.91
   8   0   8    6.88    0.93
  -9   0  -8    4.23    0.88
   9   0   8    3.61    0.93
 -10   0  -8    5.95    1.06
  10   0   8    5.37    1.04
 -11   0  -8    4.79    1.05
  11   0   8    6.32    1.23
  -7   1   8   12.72    1.47
  -6   1   8    5.71    1.17
  -5   1   8   21.99    1.74
  -4   1   8   16.27    1.33
  -3   1   8    0.30    0.77
   2  -1  -8   16.33    1.22
  -2   1   8   17.03    1.30
   1  -1  -8    2.31    0.71
   1  -1  -8    3.61    0.52
  -1   1   8    3.37    0.79
   0  -1  -8  103.38    3.81
   0   1   8  100.63    3.86
  -1  -1  -8   25.50    1.47
   1   1   8   26.21    1.46
  -2  -1  -8  133.76    4.82
   2   1   8  137.94    4.84
  -3  -1  -8    3.86    0.71
   3   1   8    4.68    0.71
   3   1   8    4.19    0.49
  -4  -1  -8  112.81    4.14
   4   1   8  116.79    4.10
   4   1   8  110.93    3.93
  -5  -1  -8    4.66    0.73
   5   1   8    5.54    0.71
   5   1   8    6.37    0.69
  -6  -1  -8   26.49    1.51
   6   1   8   29.00    1.50
  -7  -1  -8    2.08    0.68
   7   1   8    1.66    0.66
  -8  -1  -8    2.95    0.75
   8   1   8    2.24    0.79
  -9  -1  -8    0.13    0.66
   9   1   8    0.03    0.75
 -10  -1  -8    5.33    0.99
  10   1   8    4.77    1.00
 -11  -1  -8    5.96    1.01
  11   1   8    5.78    1.22
  -6   2   8   17.20    1.64
  -5   2   8    1.88    0.91
  -4   2   8    6.17    1.10
  -3   2   8    7.78    1.05
   2  -2  -8   13.52    1.11
  -2   2   8   15.86    1.29
   1  -2  -8   12.85    1.05
  -1   2   8   10.78    1.03
   0  -2  -8   34.84    1.78
   0  -2  -8   34.06    1.37
   0   2   8   33.39    1.75
  -1  -2  -8   14.72    1.11
   1   2   8   12.26    1.00
  -2  -2  -8   24.36    1.41
   2   2   8   22.36    1.38
  -3  -2  -8   84.47    3.27
   3   2   8   88.34    3.05
   3   2   8   85.04    3.27
  -4  -2  -8    0.64    0.61
   4   2   8    0.11    0.44
   4   2   8    0.38    0.52
  -5  -2  -8   28.83    1.53
   5   2   8   26.36    1.38
  -6  -2  -8    9.66    0.92
   6   2   8   12.02    0.94
  -7  -2  -8   14.75    1.12
   7   2   8   12.46    1.03
  -8  -2  -8    3.23    0.73
   8   2   8    6.33    0.90
  -9  -2  -8    9.16    1.02
   9   2   8    9.25    1.14
 -10  -2  -8    0.88    0.77
  10   2   8    0.75    0.85
 -11  -2  -8   19.74    1.52
  11   2   8   19.59    1.69
  -6   3   8    1.14    1.02
  -5   3   8    6.55    1.18
  -4   3   8    3.30    1.00
  -3   3   8   28.16    1.87
   2  -3  -8    3.40    0.85
  -2   3   8    2.11    0.76
   1  -3  -8   33.73    1.87
  -1   3   8   33.03    1.81
   0  -3  -8    7.53    0.88
   0   3   8    7.82    0.94
  -1  -3  -8   68.43    2.84
   1   3   8   68.71    2.81
   1   3   8   69.32    2.55
  -2  -3  -8    7.36    0.83
   2   3   8    8.61    0.88
  -3  -3  -8   15.23    1.18
   3   3   8   15.77    1.14
  -4  -3  -8   46.99    2.11
   4   3   8   46.37    1.93
   4   3   8   49.22    2.08
  -5  -3  -8   12.75    1.01
   5   3   8   13.70    1.01
  -6  -3  -8    3.03    0.66
   6   3   8    3.56    0.67
  -7  -3  -8   37.45    1.81
   7   3   8   39.21    1.90
  -8  -3  -8   16.15    1.21
   8   3   8   15.96    1.27
  -9  -3  -8   16.69    1.25
   9   3   8   15.16    1.28
 -10  -3  -8   12.62    1.14
  10   3   8   14.08    1.32
 -11  -3  -8   17.52    1.43
  11   3   8   22.19    1.78
 -12  -3  -8   -0.33    0.80
  -6   4   8    0.98    1.11
  -5   4   8    8.40    1.39
  -4   4   8    0.10    0.95
  -3   4   8   20.28    1.61
   2  -4  -8    4.89    0.98
  -2   4   8    5.38    1.02
   1  -4  -8   26.68    1.68
  -1   4   8   29.92    1.79
   0  -4  -8    3.83    0.86
   0   4   8    4.56    0.85
  -1  -4  -8   64.30    2.78
   1   4   8   67.58    2.52
   1   4   8   64.23    2.74
  -2  -4  -8   33.95    1.75
   2   4   8   35.13    1.77
  -3  -4  -8    2.34    0.69
   3   4   8    1.40    0.58
  -4  -4  -8   10.65    0.95
   4   4   8   11.24    0.87
   4   4   8    9.56    0.81
  -5  -4  -8   77.26    3.01
   5   4   8   77.46    2.95
  -6  -4  -8   35.45    1.74
   6   4   8   37.71    1.80
  -7  -4  -8    5.63    0.74
   7   4   8    3.67    0.78
  -8  -4  -8   36.97    1.78
   8   4   8   33.89    1.83
  -9  -4  -8    0.67    0.65
   9   4   8    0.32    0.70
 -10  -4  -8   35.44    1.82
  10   4   8   31.78    1.96
 -11  -4  -8    3.47    0.85
  11   4   8    3.92    1.08
 -12  -4  -8    2.07    0.84
  12   4   8    0.70    0.99
  -5   5   8   19.62    1.83
  -4   5   8   10.87    1.45
  -3   5   8    1.88    1.00
   2  -5  -8   25.50    1.78
  -2   5   8   21.66    1.66
   1  -5  -8    8.80    1.05
  -1   5   8    8.31    1.03
   0  -5  -8   57.89    2.64
   0   5   8   57.13    2.58
  -1  -5  -8    3.10    0.77
   1   5   8    3.59    0.69
   1   5   8    3.04    0.77
  -2  -5  -8   24.79    1.47
   2   5   8   24.19    1.46
   2   5   8   22.68    1.27
  -3  -5  -8   11.41    1.00
   3   5   8   13.19    1.07
  -4  -5  -8  116.57    4.29
  -5  -5  -8    7.67    0.85
   5   5   8    8.47    0.82
  -6  -5  -8   77.31    3.10
   6   5   8   85.94    3.20
  -7  -5  -8    5.78    0.78
   7   5   8    8.39    0.90
  -8  -5  -8   11.13    0.97
   8   5   8   10.54    1.11
  -9  -5  -8    1.12    0.67
   9   5   8    1.32    0.81
 -10  -5  -8    8.71    0.92
  10   5   8    4.94    1.07
 -11  -5  -8    2.10    0.77
  11   5   8    1.93    0.97
 -12  -5  -8    1.93    0.82
  12   5   8   -0.02    0.96
  -5   6   8   -1.11    1.10
  -4   6   8    1.00    1.09
  -3   6   8   22.29    1.82
   2  -6  -8    8.02    1.28
  -2   6   8    8.29    1.17
   1  -6  -8   14.50    1.42
  -1   6   8   15.57    1.41
   0  -6  -8   16.96    1.43
   0   6   8   18.04    1.41
  -1  -6  -8   25.67    1.67
   1   6   8   24.45    1.51
  -2  -6  -8   10.41    1.03
   2   6   8    9.37    0.96
   2   6   8   11.54    0.93
  -3  -6  -8   10.73    1.05
   3   6   8    9.63    0.88
  -4  -6  -8  101.27    3.84
  -5  -6  -8   10.53    0.96
  -6  -6  -8    2.67    0.68
   6   6   8    1.25    0.69
  -7  -6  -8    6.99    0.84
   7   6   8    8.90    1.01
  -8  -6  -8    1.31    0.63
   8   6   8    0.98    0.71
  -9  -6  -8   13.48    1.08
   9   6   8   12.78    1.27
 -10  -6  -8    0.39    0.64
  10   6   8   -0.94    0.79
 -11  -6  -8    8.24    0.92
  11   6   8    6.71    1.19
 -12  -6  -8   -0.32    0.69
  12   6   8    1.02    1.01
  -4   7   8    0.87    1.18
  -3   7   8   38.43    2.47
  -2   7   8    0.53    0.98
   1  -7  -8   31.31    2.07
  -1   7   8   28.45    1.90
   0  -7  -8   -0.30    0.83
   0   7   8   -0.95    0.67
  -1  -7  -8   24.40    1.65
  -2  -7  -8    0.54    0.78
   2   7   8    1.46    0.62
  -3  -7  -8   40.63    1.99
   3   7   8   36.93    1.80
  -4  -7  -8    5.75    0.89
   4   7   8    9.54    0.85
  -5  -7  -8   21.27    1.37
  -6  -7  -8   22.11    1.35
  -7  -7  -8   14.65    1.17
   7   7   8   15.80    1.28
  -8  -7  -8   19.83    1.31
   8   7   8   23.13    1.54
  -9  -7  -8   22.53    1.36
   9   7   8   20.87    1.60
 -10  -7  -8    5.69    0.80
  10   7   8    6.94    1.12
 -11  -7  -8    8.98    0.93
  11   7   8    7.97    1.27
 -12  -7  -8    3.22    0.75
  12   7   8    0.07    0.93
   1  -8  -8    2.13    1.11
   0  -8  -8    5.19    1.08
  -1  -8  -8    2.95    0.97
  -2  -8  -8   43.92    2.31
   2   8   8   44.99    2.10
  -3  -8  -8   -0.58    0.64
   3   8   8   -0.22    0.55
  -4  -8  -8   48.94    2.32
   4   8   8   48.84    2.13
  -5  -8  -8    2.31    0.77
   5   8   8    1.43    0.60
  -6  -8  -8   40.01    1.93
  -7  -8  -8    0.16    0.64
  -8  -8  -8   38.50    1.84
   8   8   8   38.42    2.11
  -9  -8  -8   -0.85    0.59
   9   8   8    0.53    0.79
 -10  -8  -8   14.01    1.11
  10   8   8   12.70    1.41
 -11  -8  -8    0.22    0.65
  11   8   8    0.18    0.86
   1  -9  -8    1.51    1.14
   0  -9  -8   11.91    1.42
  -1  -9  -8   11.27    1.38
  -2  -9  -8   21.28    1.69
  -3  -9  -8    4.65    0.94
   3   9   8    6.07    0.90
  -4  -9  -8   17.09    1.43
   4   9   8   18.00    1.23
  -5  -9  -8    0.85    0.73
   5   9   8    1.70    0.66
  -6  -9  -8    5.61    0.88
   6   9   8    8.54    0.85
  -7  -9  -8   17.89    1.32
  -8  -9  -8    3.41    0.74
  -9  -9  -8    9.26    0.91
 -10  -9  -8    0.88    0.64
  10   9   8    1.12    0.95
 -11  -9  -8   11.61    0.97
  11   9   8   11.28    1.44
   0 -10  -8    5.54    1.21
  -1 -10  -8    5.00    1.21
  -2 -10  -8    3.25    1.10
  -3 -10  -8    4.12    1.03
   3  10   8    3.03    0.83
  -4 -10  -8    4.44    0.97
   4  10   8    5.72    0.89
  -5 -10  -8   12.35    1.18
   5  10   8   11.32    1.05
  -6 -10  -8   -0.02    0.68
   6  10   8   -0.28    0.58
  -7 -10  -8   18.66    1.41
   7  10   8   22.12    1.32
  -8 -10  -8   -0.53    0.65
   8  10   8    0.13    0.56
  -9 -10  -8   20.96    1.35
 -10 -10  -8    0.43    0.63
   0 -11  -8    1.82    1.25
  -1 -11  -8   10.87    1.53
  -2 -11  -8    3.94    1.17
  -3 -11  -8    9.39    1.33
  -4 -11  -8    2.52    0.96
   4  11   8    3.88    0.88
  -5 -11  -8    2.97    0.91
   5  11   8    2.87    0.79
  -6 -11  -8    7.38    1.07
   6  11   8    7.78    0.97
  -7 -11  -8    0.73    0.77
   7  11   8    0.63    0.67
  -8 -11  -8   16.77    1.32
   8  11   8   15.79    1.18
  -9 -11  -8    3.85    0.79
   9  11   8    3.65    0.72
 -10 -11  -8    2.30    0.68
  10  11   8    0.62    0.60
  -1 -12  -8    0.07    1.15
  -2 -12  -8   20.19    1.83
  -3 -12  -8    0.12    1.01
  -4 -12  -8    8.81    1.31
   4  12   8   10.59    1.18
  -5 -12  -8    1.27    0.88
   5  12   8    0.56    0.72
  -6 -12  -8   18.65    1.51
   6  12   8   17.34    1.34
  -7 -12  -8   -0.05    0.80
   7  12   8   -0.17    0.69
  -8 -12  -8   13.59    1.23
   8  12   8   12.77    1.10
  -9 -12  -8    3.40    0.84
   9  12   8    7.06    0.87
 -10 -12  -8    0.67    0.67
  -4 -13  -8    2.69    1.11
  -5 -13  -8    7.80    1.29
   5  13   8    7.54    1.06
  -6 -13  -8    8.58    1.25
   6  13   8    5.52    0.96
  -7 -13  -8   11.63    1.30
   7  13   8   13.05    1.18
  -8 -13  -8    6.71    1.08
   8  13   8    5.77    0.90
  -9 -13  -8    1.22    0.81
  -4 -12   9   -0.77    0.94
  -3 -12   9    7.06    1.23
  -2 -12   9    2.99    1.08
  -1 -12   9    4.22    1.21
   0 -12   9    0.44    1.09
   1 -12   9    5.65    1.35
   2 -12   9    2.18    1.23
  -5 -11   9    7.68    1.22
  -4 -11   9    8.77    1.23
  -3 -11   9    4.79    1.09
   2  11  -9    9.17    1.40
  -2 -11   9    7.53    1.25
   1  11  -9    5.92    1.23
  -1 -11   9    4.27    1.16
   0 -11   9    7.62    1.30
   1 -11   9    2.72    1.18
   2 -11   9    9.56    1.39
   3 -11   9   -0.91    1.03
  -6 -10   9   19.19    1.60
  -5 -10   9    0.25    0.88
   4  10  -9   11.48    1.45
  -4 -10   9   12.06    1.35
   3  10  -9    1.40    0.99
  -3 -10   9    0.25    0.85
   2  10  -9   14.25    1.56
  -2 -10   9   15.04    1.43
  -1 -10   9   -0.04    0.87
   0 -10   9   25.65    1.94
   1 -10   9    6.39    1.15
   2 -10   9    8.65    1.38
   3 -10   9    1.28    1.10
  -7  -9   9    3.31    0.96
  -6  -9   9   11.93    1.26
   5   9  -9    7.24    1.23
  -5  -9   9    8.26    1.10
   4   9  -9    6.28    1.17
  -4  -9   9    5.35    1.03
   3   9  -9    6.00    1.09
  -3  -9   9    5.59    1.02
   2   9  -9   39.56    2.30
  -2  -9   9   31.89    2.04
  -1  -9   9   16.97    1.43
   0  -9   9    4.39    0.99
   1  -9   9    5.67    1.15
   2  -9   9    2.64    1.05
   3  -9   9    5.08    1.23
   5  -9   9    4.53    1.05
  -7  -8   9   17.04    1.40
   6   8  -9    1.26    1.00
  -6  -8   9    0.02    0.83
   5   8  -9   18.37    1.58
  -5  -8   9   15.43    1.40
   4   8  -9    2.62    0.90
  -4  -8   9    2.33    0.85
   3   8  -9   53.21    2.58
  -3  -8   9   48.00    2.45
   2   8  -9    0.52    0.88
  -2  -8   9    2.15    0.86
  -1  -8   9   28.52    1.84
   0  -8   9   11.99    1.27
   1  -8   9    6.61    1.11
   2  -8   9    0.79    0.93
   3  -8   9    3.86    1.00
   4  -8   9    4.67    1.06
   4  -8   9    4.59    0.90
  -5   8  -9    0.30    1.00
   5  -8   9    0.95    0.85
  -6   8  -9    5.84    1.30
   6  -8   9    9.65    1.28
  -7   8  -9    1.40    1.21
  -7  -7   9   11.02    1.24
   6   7  -9    7.11    1.22
  -6  -7   9    9.07    1.16
   5   7  -9    6.02    1.09
  -5  -7   9    5.11    0.94
   4   7  -9    8.36    1.09
  -4  -7   9    8.14    1.06
   3   7  -9    1.81    0.79
  -3  -7   9    3.11    0.89
   2   7  -9   22.55    1.70
  -2  -7   9   21.93    1.49
  -1  -7   9    8.01    1.07
   0  -7   9   36.72    2.07
   1  -7   9    1.00    0.74
  -2   7  -9   20.47    1.48
   2  -7   9   19.67    1.52
  -3   7  -9   -1.19    0.75
   3  -7   9   -1.59    0.80
  -4   7  -9   31.82    2.00
   4  -7   9   26.70    1.68
   4  -7   9   26.30    1.84
  -5   7  -9    0.17    0.95
   5  -7   9    0.73    0.76
  -6   7  -9    9.68    1.38
   6  -7   9   11.94    1.28
  -7   7  -9    1.15    1.11
   7  -7   9    0.48    0.93
   7   6  -9   -0.05    0.86
  -7  -6   9    0.54    0.83
   6   6  -9   36.07    2.13
  -6  -6   9   35.67    2.06
   5   6  -9    2.28    0.84
  -5  -6   9    0.40    0.78
   4   6  -9   17.21    1.41
  -4  -6   9   17.64    1.43
   3   6  -9    5.67    0.96
  -3  -6   9    4.40    0.89
   2   6  -9   32.36    1.90
  -2  -6   9   29.34    1.75
  -1  -6   9   22.58    1.57
   0  -6   9   11.33    1.11
  -1   6  -9    6.03    0.92
   1  -6   9    5.10    0.97
  -2   6  -9    4.13    0.90
   2  -6   9    5.21    0.97
  -3   6  -9   31.15    1.82
   3  -6   9   29.53    1.87
   3  -6   9   29.36    1.55
  -4   6  -9   10.95    1.27
   4  -6   9   12.31    1.04
   4  -6   9   10.36    1.21
  -5   6  -9   20.33    1.62
   5  -6   9   24.77    1.55
  -6   6  -9    0.40    0.94
   6  -6   9    1.30    0.83
  -7   6  -9   10.54    1.45
   7  -6   9   12.48    1.35
  -8   6  -9    1.06    0.98
   8  -6   9    0.86    0.97
  -7  -5   9   15.22    1.43
   6   5  -9   11.53    1.28
  -6  -5   9    9.71    1.15
   5   5  -9   12.06    1.24
  -5  -5   9   13.12    1.29
   4   5  -9    1.98    0.73
  -4  -5   9    3.60    0.88
   3   5  -9   27.98    1.70
  -3  -5   9   28.02    1.71
   2   5  -9   13.34    1.20
  -2  -5   9   11.10    1.13
  -1  -5   9   34.09    1.89
   0   5  -9    1.32    0.59
   0  -5   9   -0.81    0.59
  -1   5  -9    9.68    1.03
   1  -5   9   11.61    1.13
  -2   5  -9    3.48    0.82
   2  -5   9    3.15    0.83
  -3   5  -9   52.30    2.40
   3  -5   9   48.57    2.38
   3  -5   9   50.40    2.10
  -4   5  -9    2.82    0.91
   4  -5   9    1.86    0.67
   4  -5   9    2.72    0.80
  -5   5  -9   13.53    1.26
   5  -5   9   12.90    1.12
  -6   5  -9    2.37    0.90
   6  -5   9    3.29    0.84
  -7   5  -9    6.46    1.20
   7  -5   9    9.11    1.17
  -8   5  -9    0.36    0.98
   8  -5   9   -0.39    0.87
  -7  -4   9   15.66    1.43
  -6  -4   9    2.00    0.88
   5   4  -9    2.92    0.87
  -5  -4   9    2.19    0.89
   4   4  -9    5.77    0.91
  -4  -4   9    3.89    0.92
   3   4  -9   31.32    1.73
  -3  -4   9   31.25    1.81
   2   4  -9   28.01    1.65
  -2  -4   9   29.45    1.73
  -1  -4   9    6.15    0.86
   0   4  -9    4.76    0.73
   0  -4   9    5.83    0.85
  -1   4  -9   39.61    1.90
   1  -4   9   36.17    1.89
  -2   4  -9   12.80    1.08
   2  -4   9   12.15    1.12
  -3   4  -9   18.53    1.33
   3  -4   9   18.87    1.07
   3  -4   9   14.97    1.28
  -4   4  -9    4.55    0.86
   4  -4   9    4.47    0.67
   4  -4   9    3.78    0.79
  -5   4  -9    0.04    0.79
   5  -4   9    0.82    0.61
  -6   4  -9    1.21    0.84
   6  -4   9    0.85    0.69
  -7   4  -9    0.44    0.81
   7  -4   9    0.65    0.78
  -8   4  -9    3.08    1.07
   8  -4   9    1.18    0.89
  -9   4  -9   -0.82    0.98
   9  -4   9    1.53    0.97
  -7  -3   9    1.47    0.91
  -6  -3   9    9.92    1.21
  -5  -3   9    0.30    0.77
   4   3  -9   36.94    1.91
  -4  -3   9   37.42    2.05
   3   3  -9    0.35    0.62
  -3  -3   9    1.15    0.77
   2   3  -9   42.24    1.99
  -2  -3   9   41.99    2.13
   1   3  -9    1.14    0.60
  -1  -3   9    0.59    0.63
   0   3  -9   32.37    1.72
   0  -3   9   34.42    1.82
  -1   3  -9    3.65    0.80
   1  -3   9    3.70    0.77
  -2   3  -9   73.01    3.02
   2  -3   9   73.29    3.00
  -3   3  -9    1.67    0.67
   3  -3   9    1.91    0.49
   3  -3   9    1.46    0.70
  -4   3  -9   18.65    1.43
   4  -3   9   20.25    1.42
   4  -3   9   18.78    1.16
  -5   3  -9   -1.00    0.63
   5  -3   9    0.02    0.54
   5  -3   9    0.86    0.68
  -6   3  -9   16.14    1.32
   6  -3   9   16.57    1.27
  -7   3  -9    0.39    0.74
   7  -3   9    0.70    0.72
  -8   3  -9    6.67    1.13
   8  -3   9    6.15    1.04
  -9   3  -9    0.90    0.94
   9  -3   9   -1.22    0.77
  -7  -2   9    2.86    1.08
  -6  -2   9   24.96    1.86
  -5  -2   9   13.67    1.32
  -4  -2   9   25.73    1.73
   3   2  -9   33.50    1.72
  -3  -2   9   32.74    1.90
   2   2  -9   12.21    1.01
  -2  -2   9   10.68    1.12
   1   2  -9   19.11    1.25
   1   2  -9   21.13    1.35
  -1  -2   9   17.53    1.32
   0   2  -9   26.04    1.48
   0  -2   9   23.94    1.56
  -1   2  -9  101.71    3.83
   1  -2   9  103.02    3.89
  -2   2  -9    8.53    0.95
   2  -2   9    9.52    1.00
  -3   2  -9   37.36    1.93
   3  -2   9   41.41    1.65
   3  -2   9   39.10    1.96
  -4   2  -9    9.76    1.02
   4  -2   9    8.31    0.93
   4  -2   9    9.38    0.79
  -5   2  -9   50.36    2.40
   5  -2   9   51.82    2.18
   5  -2   9   51.92    2.30
  -6   2  -9    0.84    0.70
   6  -2   9    0.54    0.63
  -7   2  -9   10.04    1.15
   7  -2   9   12.98    1.16
  -8   2  -9    0.89    0.84
   8  -2   9    0.11    0.77
  -9   2  -9    5.87    1.11
   9  -2   9    4.98    1.11
 -10   2  -9    0.07    0.90
  10  -2   9    1.83    0.94
  -7  -1   9   12.49    1.43
  -6  -1   9    0.21    0.95
  -5  -1   9   41.36    2.30
  -4  -1   9   -0.76    0.76
  -3  -1   9   26.09    1.67
   2   1  -9   13.23    1.06
  -2  -1   9   14.26    1.24
   1   1  -9   71.21    2.85
   1   1  -9   71.48    2.73
  -1  -1   9   64.37    2.91
   0   1  -9   -0.21    0.54
   0  -1   9   -0.04    0.60
  -1   1  -9   56.76    2.40
   1  -1   9   54.39    2.41
  -2   1  -9    1.58    0.63
   2  -1   9   -0.27    0.55
   2  -1   9    0.13    0.31
  -3   1  -9   24.79    1.54
   3  -1   9   26.62    1.20
   3  -1   9   23.78    1.49
  -4   1  -9   35.01    1.84
   4  -1   9   32.94    1.79
   4  -1   9   36.06    1.58
  -5   1  -9   37.36    1.87
   5  -1   9   37.04    1.70
   5  -1   9   35.90    1.85
  -6   1  -9   24.77    1.63
   6  -1   9   27.94    1.52
  -7   1  -9   13.16    1.23
   7  -1   9   14.33    1.14
  -8   1  -9   14.69    1.30
   8  -1   9   11.81    1.23
  -9   1  -9   20.97    1.62
   9  -1   9   21.52    1.68
 -10   1  -9    9.75    1.25
  10  -1   9   10.31    1.32
  -6   0   9   11.99    1.44
  -5   0   9   13.39    1.39
  -4   0   9    1.13    0.89
  -3   0   9   21.10    1.61
  -2   0   9   11.00    1.16
   1   0  -9   28.93    1.65
   1   0  -9   28.81    1.40
  -1   0   9   29.61    1.68
   0   0  -9   34.99    1.77
   0   0   9   34.20    1.81
  -1   0  -9    4.57    0.80
   1   0   9    4.85    0.79
  -2   0  -9   23.44    1.44
   2   0   9   20.77    1.35
   2   0   9   21.87    0.99
  -3   0  -9    4.85    0.81
   3   0   9    4.82    0.79
   3   0   9    4.46    0.55
  -4   0  -9   82.89    3.31
   4   0   9   79.35    3.24
   4   0   9   87.13    3.03
  -5   0  -9   -0.19    0.62
   5   0   9    0.52    0.50
  -6   0  -9    7.78    0.90
   6   0   9    7.94    0.87
  -7   0  -9    1.70    0.68
   7   0   9   -0.08    0.56
  -8   0  -9   33.54    1.93
   8   0   9   35.93    1.94
  -9   0  -9    1.97    0.82
   9   0   9   -0.45    0.71
 -10   0  -9   12.03    1.32
  10   0   9   10.55    1.33
  11   0   9    0.23    0.95
  -6   1   9   12.26    1.48
  -5   1   9   -0.42    0.93
  -4   1   9    2.17    0.96
  -3   1   9    1.04    0.85
  -2   1   9   54.95    2.62
   1  -1  -9    9.28    1.02
  -1   1   9    8.63    1.06
   0  -1  -9   30.93    1.38
   0  -1  -9   27.23    1.68
   0   1   9   30.96    1.76
  -1  -1  -9   20.33    1.40
   1   1   9   19.00    1.33
  -2  -1  -9   66.80    2.74
   2   1   9   66.20    2.77
  -3  -1  -9   22.42    1.37
   3   1   9   23.39    1.38
   3   1   9   22.31    1.10
  -4  -1  -9   31.20    1.74
   4   1   9   33.04    1.70
   4   1   9   34.98    1.54
  -5  -1  -9    1.77    0.69
   5   1   9    3.46    0.62
  -6  -1  -9    7.11    0.86
   6   1   9    9.49    0.89
  -7  -1  -9    8.92    0.97
   7   1   9    7.31    0.92
  -8  -1  -9   11.74    1.15
   8   1   9   10.65    1.07
  -9  -1  -9    9.56    1.09
   9   1   9    7.67    1.05
 -10  -1  -9   -0.44    0.75
  10   1   9    0.09    0.79
 -11  -1  -9    6.20    1.08
  11   1   9    5.75    1.19
  -6   2   9    0.50    1.06
  -5   2   9   10.82    1.41
  -4   2   9    2.59    1.02
  -3   2   9   39.39    2.17
  -2   2   9   17.58    1.43
   1  -2  -9   42.87    2.12
  -1   2   9   43.50    2.18
   0  -2  -9    0.24    0.63
   0   2   9    0.59    0.70
  -1  -2  -9   32.09    1.77
   1   2   9   32.33    1.73
  -2  -2  -9    0.19    0.66
   2   2   9   -0.51    0.53
  -3  -2  -9   16.56    1.22
   3   2   9   20.33    1.26
  -4  -2  -9    4.00    0.74
   4   2   9    4.25    0.73
   4   2   9    2.70    0.54
  -5  -2  -9   20.70    1.39
   5   2   9   21.29    1.24
  -6  -2  -9   -0.88    0.59
   6   2   9   -0.31    0.54
  -7  -2  -9   35.19    1.81
   7   2   9   34.13    1.80
  -8  -2  -9   -0.22    0.64
   8   2   9   -0.31    0.62
  -9  -2  -9    4.76    0.93
   9   2   9    5.31    0.93
 -10  -2  -9    0.31    0.79
  10   2   9    0.69    0.90
 -11  -2  -9    1.76    0.85
  11   2   9    1.38    0.98
  -5   3   9   10.25    1.45
  -4   3   9    0.58    0.96
  -3   3   9   22.74    1.73
  -2   3   9    3.11    0.88
   1  -3  -9   29.99    1.77
  -1   3   9   28.38    1.76
   0  -3  -9   39.94    2.05
   0   3   9   40.85    2.12
  -1  -3  -9   41.71    2.07
   1   3   9   45.11    2.16
  -2  -3  -9    6.49    0.91
   2   3   9    4.40    0.82
  -3  -3  -9   75.02    3.11
   3   3   9   78.78    3.08
  -4  -3  -9   26.07    1.52
   4   3   9   30.76    1.56
   4   3   9   27.98    1.39
  -5  -3  -9   38.07    1.89
   5   3   9   39.79    1.78
  -6  -3  -9   12.23    1.04
   6   3   9   12.80    1.03
  -7  -3  -9   19.30    1.34
   7   3   9   19.74    1.36
  -8  -3  -9   16.19    1.29
   8   3   9   20.18    1.42
  -9  -3  -9    0.63    0.74
   9   3   9    1.13    0.80
 -10  -3  -9    9.36    1.06
  10   3   9   10.09    1.19
 -11  -3  -9    1.24    0.81
  11   3   9    0.82    0.88
  -5   4   9    7.39    1.44
  -4   4   9    6.23    1.31
  -3   4   9    8.25    1.22
  -2   4   9   38.28    2.23
   1  -4  -9   -0.67    0.67
  -1   4   9   -0.28    0.79
   0  -4  -9   23.51    1.60
   0   4   9   24.40    1.58
  -1  -4  -9    8.26    1.06
   1   4   9    9.33    1.00
  -2  -4  -9   43.58    2.21
   2   4   9   48.73    2.22
  -3  -4  -9    2.63    0.75
   3   4   9    2.22    0.69
  -4  -4  -9   56.22    2.48
  -5  -4  -9   -0.35    0.54
   5   4   9   -0.08    0.56
  -6  -4  -9   33.28    1.73
   6   4   9   33.67    1.71
  -7  -4  -9    0.76    0.64
   7   4   9    0.04    0.58
  -8  -4  -9   25.27    1.56
   8   4   9   27.35    1.62
  -9  -4  -9    3.98    0.79
   9   4   9    4.94    0.94
 -10  -4  -9    8.70    1.04
  10   4   9   12.10    1.29
 -11  -4  -9    0.77    0.77
  11   4   9   -0.39    0.80
  -4   5   9   14.11    1.66
  -3   5   9    0.11    1.00
  -2   5   9   23.79    1.88
   1  -5  -9   -0.52    0.83
  -1   5   9   -0.19    0.83
   0  -5  -9   11.98    1.24
   0   5   9   10.14    1.18
  -1  -5  -9    1.51    0.77
   1   5   9    0.44    0.73
  -2  -5  -9   34.02    1.91
   2   5   9   39.07    1.96
   2   5   9   36.81    1.74
  -3  -5  -9   28.00    1.63
  -4  -5  -9    2.02    0.75
  -5  -5  -9   16.34    1.28
  -6  -5  -9   20.24    1.37
   6   5   9   22.44    1.37
  -7  -5  -9   24.74    1.52
   7   5   9   24.21    1.52
  -8  -5  -9    2.56    0.69
   8   5   9    1.95    0.79
  -9  -5  -9   16.86    1.32
   9   5   9   17.51    1.43
 -10  -5  -9    1.55    0.75
  10   5   9    3.27    0.91
 -11  -5  -9    7.60    1.02
  11   5   9    7.82    1.27
 -12  -5  -9    0.03    0.78
  -4   6   9    1.09    1.16
  -3   6   9    9.52    1.45
  -2   6   9    0.20    0.99
   1  -6  -9   19.20    1.64
  -1   6   9   17.18    1.58
   0  -6  -9    4.81    1.05
   0   6   9    4.76    0.96
  -1  -6  -9   34.35    2.04
   1   6   9   36.03    1.97
  -2  -6  -9    0.42    0.71
   2   6   9   -0.38    0.54
  -3  -6  -9   20.37    1.41
   3   6   9   16.09    1.22
  -4  -6  -9    0.19    0.64
  -5  -6  -9   17.72    1.34
  -6  -6  -9    0.71    0.71
  -7  -6  -9   11.18    1.01
   7   6   9    9.58    1.10
  -8  -6  -9   12.17    1.07
   8   6   9   12.01    1.20
  -9  -6  -9   15.76    1.27
   9   6   9   17.84    1.42
 -10  -6  -9    2.88    0.79
  10   6   9    2.91    0.97
 -11  -6  -9    7.06    0.95
  11   6   9    7.48    1.16
 -12  -6  -9    5.35    0.93
   1  -7  -9   25.23    2.01
   0  -7  -9   17.14    1.51
  -1  -7  -9    4.83    1.00
  -2  -7  -9   32.01    1.96
  -3  -7  -9    7.06    1.05
   3   7   9    7.93    0.87
  -4  -7  -9   37.00    1.99
   4   7   9   35.21    1.76
  -5  -7  -9    4.70    0.85
  -6  -7  -9   53.85    2.41
  -7  -7  -9    0.10    0.68
  -8  -7  -9   37.72    1.92
   8   7   9   39.02    2.12
  -9  -7  -9    1.50    0.75
   9   7   9    1.67    0.90
 -10  -7  -9   13.35    1.13
  10   7   9   14.27    1.42
 -11  -7  -9    0.72    0.74
  11   7   9    2.47    0.97
 -12  -7  -9    7.30    0.96
   1  -8  -9    2.66    1.10
   0  -8  -9    8.27    1.36
  -1  -8  -9   13.57    1.37
  -2  -8  -9   27.49    1.83
  -3  -8  -9    0.65    0.75
   3   8   9    1.09    0.67
  -4  -8  -9   39.19    2.06
   4   8   9   38.31    1.87
  -5  -8  -9   10.23    1.11
   5   8   9    8.59    0.93
  -6  -8  -9   23.06    1.53
  -7  -8  -9    0.77    0.69
  -8  -8  -9   14.13    1.13
  -9  -8  -9    2.00    0.74
   9   8   9    0.94    0.84
 -10  -8  -9    0.67    0.70
  10   8   9    0.78    0.96
 -11  -8  -9    3.80    0.81
  11   8   9    2.91    1.13
 -12  -8  -9    4.37    0.84
   0  -9  -9    1.61    1.13
  -1  -9  -9    4.05    1.09
  -2  -9  -9   22.38    1.81
  -3  -9  -9   13.53    1.39
  -4  -9  -9    0.86    0.87
   4   9   9    0.97    0.75
  -5  -9  -9   33.68    1.95
   5   9   9   32.25    1.75
  -6  -9  -9    3.47    0.90
   6   9   9    4.38    0.79
  -7  -9  -9   13.52    1.17
   7   9   9   13.38    1.08
  -8  -9  -9    0.20    0.69
  -9  -9  -9   14.41    1.15
 -10  -9  -9   -0.86    0.66
 -11  -9  -9    8.13    0.93
  11   9   9    6.60    1.29
   0 -10  -9    0.73    1.18
  -1 -10  -9    5.29    1.31
  -2 -10  -9    0.62    1.05
  -3 -10  -9    7.82    1.25
  -4 -10  -9    9.87    1.25
   4  10   9   10.74    1.14
  -5 -10  -9    4.59    0.98
   5  10   9    4.51    0.87
  -6 -10  -9    1.55    0.86
   6  10   9    1.84    0.75
  -7 -10  -9    4.80    0.91
   7  10   9    2.53    0.73
  -8 -10  -9    5.59    0.96
   8  10   9    6.73    0.88
  -9 -10  -9    6.19    0.96
 -10 -10  -9    2.00    0.74
 -11 -10  -9    4.54    0.81
   0 -11  -9    1.27    1.16
  -1 -11  -9    4.09    1.32
  -2 -11  -9   15.92    1.72
  -3 -11  -9    2.73    1.03
  -4 -11  -9   10.35    1.33
  -5 -11  -9   -0.25    0.84
   5  11   9    0.04    0.73
  -6 -11  -9   -0.25    0.86
   6  11   9    1.01    0.74
  -7 -11  -9   -0.88    0.79
   7  11   9   -0.35    0.63
  -8 -11  -9    3.72    0.90
   8  11   9    4.93    0.85
  -9 -11  -9    0.99    0.78
   9  11   9    0.80    0.66
 -10 -11  -9    9.56    1.01
  10  11   9    8.62    0.92
  -3 -12  -9    2.39    1.16
  -4 -12  -9    4.58    1.20
  -5 -12  -9    1.70    1.06
   5  12   9    2.29    0.92
  -6 -12  -9    7.55    1.16
   6  12   9    6.33    0.99
  -7 -12  -9    2.03    0.92
   7  12   9    0.12    0.75
  -8 -12  -9   17.21    1.39
   8  12   9   16.31    1.27
  -9 -12  -9    7.27    1.00
   9  12   9    7.10    0.94
   6  13   9    1.18    0.80
   7  13   9   23.65    1.65
  -4 -11  10    2.82    1.07
  -3 -11  10    0.02    0.97
  -2 -11  10   14.59    1.55
  -1 -11  10    0.44    1.03
   0 -11  10   11.44    1.49
   1 -11  10    0.63    1.07
   2 -11  10   -0.05    1.12
  -5 -10  10    7.64    1.20
  -4 -10  10   17.33    1.61
  -3 -10  10    6.37    1.16
   2  10 -10    2.97    1.08
  -2 -10  10    0.98    1.00
   1  10 -10    7.19    1.35
  -1 -10  10    6.18    1.23
   0 -10  10    4.19    1.07
   1 -10  10    7.95    1.33
   2 -10  10    2.08    1.01
   3 -10  10   14.15    1.65
  -5  -9  10   12.93    1.34
   4   9 -10    3.07    1.02
  -4  -9  10    2.06    0.95
   3   9 -10   23.37    1.92
  -3  -9  10   26.69    1.88
   2   9 -10    2.64    1.09
  -2  -9  10    4.17    1.08
  -1  -9  10   17.91    1.58
   0  -9  10   -0.40    0.93
   1  -9  10    7.47    1.30
   2  -9  10    1.32    1.03
   3  -9  10    1.64    1.06
  -6  -8  10    5.78    1.11
   5   8 -10   12.79    1.39
  -5  -8  10   11.68    1.27
   4   8 -10   37.83    2.32
  -4  -8  10   38.18    2.22
   3   8 -10    1.02    0.85
  -3  -8  10    0.94    0.88
   2   8 -10   16.51    1.57
  -2  -8  10   15.52    1.44
  -1  -8  10   14.80    1.42
   0  -8  10   14.31    1.45
   1  -8  10    0.72    0.95
   2  -8  10    6.71    1.14
   3  -8  10   -0.34    0.87
   6   7 -10   29.95    2.02
  -6  -7  10   25.38    1.83
   5   7 -10    1.02    0.93
  -5  -7  10   -0.57    0.83
   4   7 -10    7.77    1.18
  -4  -7  10    6.41    1.06
   3   7 -10    5.38    1.00
  -3  -7  10    6.84    1.01
   2   7 -10   13.45    1.38
  -2  -7  10   10.99    1.28
  -1  -7  10    1.65    0.80
   0  -7  10   17.58    1.49
   1  -7  10   13.56    1.38
   2  -7  10   20.84    1.74
   3  -7  10   12.63    1.35
  -4   7 -10   19.43    1.70
   4  -7  10   23.88    1.75
  -5   7 -10    3.93    1.13
  -6   7 -10    4.58    1.21
   6  -7  10    2.04    0.92
  -7   7 -10   -1.11    1.00
   7  -7  10    0.05    0.93
   6   6 -10    6.25    1.13
  -6  -6  10    6.26    1.10
   5   6 -10   15.02    1.42
  -5  -6  10   12.56    1.37
   4   6 -10    1.35    0.79
  -4  -6  10    1.24    0.83
   3   6 -10   26.87    1.79
  -3  -6  10   26.04    1.76
   2   6 -10    9.72    1.14
  -2  -6  10   11.01    1.23
  -1  -6  10   34.60    2.03
   0  -6  10   10.02    1.19
   1  -6  10   35.79    2.02
  -2   6 -10    0.26    0.80
   2  -6  10   -0.15    0.74
  -3   6 -10   27.63    1.79
   3  -6  10   29.27    1.86
  -4   6 -10    0.40    0.88
   4  -6  10    0.10    0.86
  -5   6 -10    9.97    1.34
   5  -6  10   10.34    1.07
  -6   6 -10    1.00    1.03
   6  -6  10   -0.41    0.73
  -7   6 -10    2.33    1.10
   7  -6  10    1.86    0.93
  -6  -5  10   -0.71    0.83
   5   5 -10    9.46    1.20
  -5  -5  10   11.33    1.25
   4   5 -10    2.43    0.87
  -4  -5  10    4.07    0.94
   3   5 -10   10.68    1.16
  -3  -5  10   12.73    1.25
   2   5 -10   -0.12    0.66
  -2  -5  10    0.81    0.73
  -1  -5  10   34.53    1.98
   0  -5  10    1.46    0.76
  -1   5 -10    6.69    0.89
   1  -5  10    6.27    1.01
  -2   5 -10    6.28    1.01
   2  -5  10    5.31    0.92
  -3   5 -10    6.14    0.96
   3  -5  10    4.51    0.99
  -4   5 -10    3.12    0.93
   4  -5  10    1.63    0.81
  -5   5 -10    7.56    1.21
   5  -5  10    7.04    0.94
  -6   5 -10    0.73    0.99
   6  -5  10    0.25    0.74
  -7   5 -10    0.55    1.03
   7  -5  10    0.14    0.78
  -8   5 -10   12.80    1.44
   8  -5  10   13.09    1.39
  -6  -4  10    6.64    1.20
  -5  -4  10    6.84    1.12
   4   4 -10   16.72    1.37
  -4  -4  10   13.11    1.35
   3   4 -10    7.73    1.03
  -3  -4  10    8.25    1.05
   2   4 -10   23.82    1.55
  -2  -4  10   23.48    1.68
  -1  -4  10   24.68    1.62
   0   4 -10    7.84    0.90
   0  -4  10    8.65    1.08
  -1   4 -10    1.86    0.71
   1  -4  10    3.22    0.82
  -2   4 -10   14.26    1.26
   2  -4  10   15.33    1.28
  -3   4 -10    0.21    0.76
   3  -4  10    0.19    0.68
  -4   4 -10   14.73    1.28
   4  -4  10   14.82    1.26
   4  -4  10   15.94    1.11
  -5   4 -10    1.10    0.78
   5  -4  10   -0.19    0.56
  -6   4 -10    7.31    1.19
   6  -4  10    6.83    0.97
  -7   4 -10   10.05    1.35
   7  -4  10   12.84    1.23
  -8   4 -10   16.65    1.61
   8  -4  10   14.99    1.44
  -9   4 -10    0.26    0.99
   9  -4  10   -1.14    0.90
  -6  -3  10   19.61    1.64
  -5  -3  10    2.85    0.98
  -4  -3  10   20.55    1.63
   3   3 -10    1.66    0.77
  -3  -3  10    1.69    0.82
   2   3 -10   41.99    1.99
  -2  -3  10   38.46    2.17
   1   3 -10    1.89    0.72
  -1  -3  10    2.16    0.85
   0   3 -10   -0.58    0.61
   0  -3  10    0.40    0.73
  -1   3 -10   36.10    1.86
   1  -3  10   36.07    1.93
  -2   3 -10   31.91    1.76
   2  -3  10   30.29    1.82
  -3   3 -10   37.54    1.93
   3  -3  10   32.58    1.86
  -4   3 -10   14.29    1.21
   4  -3  10   14.00    1.21
   4  -3  10   12.69    1.02
  -5   3 -10   17.45    1.43
   5  -3  10   17.66    1.26
  -6   3 -10    2.04    0.95
   6  -3  10    1.86    0.75
  -7   3 -10   13.69    1.35
   7  -3  10   14.65    1.31
  -8   3 -10    2.69    1.06
   8  -3  10    3.63    0.97
  -9   3 -10   -0.81    0.96
   9  -3  10    2.70    1.01
  -6  -2  10   -0.59    0.95
  -5  -2  10   13.68    1.42
  -4  -2  10    2.49    0.94
  -3  -2  10   47.09    2.44
   2   2 -10   -0.51    0.58
  -2  -2  10   -0.68    0.66
   1   2 -10   32.35    1.70
  -1  -2  10   32.02    1.92
   0   2 -10    2.35    0.75
   0  -2  10    2.28    0.76
  -1   2 -10  136.89    4.90
   1  -2  10  127.36    4.92
  -2   2 -10    0.03    0.71
   2  -2  10    0.30    0.63
  -3   2 -10   73.37    3.08
   3  -2  10   73.90    3.10
  -4   2 -10    0.17    0.67
   4  -2  10    1.01    0.72
   4  -2  10    0.48    0.51
  -5   2 -10   21.28    1.51
   5  -2  10   22.82    1.30
  -6   2 -10    1.96    0.87
   6  -2  10    1.62    0.68
  -7   2 -10    8.40    1.21
   7  -2  10   10.47    1.10
  -8   2 -10    1.34    0.87
   8  -2  10   -0.63    0.75
  -9   2 -10    5.18    1.17
   9  -2  10    3.89    1.02
  10  -2  10    2.22    1.01
  -6  -1  10    3.03    1.11
  -5  -1  10   10.48    1.33
  -4  -1  10   14.51    1.45
  -3  -1  10   26.32    1.84
  -2  -1  10   13.82    1.33
   1   1 -10   42.56    1.88
   1   1 -10   39.62    2.06
  -1  -1  10   39.45    2.17
   0   1 -10   12.13    1.08
   0  -1  10   13.06    1.15
  -1   1 -10   80.70    3.29
   1  -1  10   81.59    3.34
  -2   1 -10   40.23    1.98
   2  -1  10   38.29    2.02
  -3   1 -10    8.72    1.03
   3  -1  10    5.64    0.92
  -4   1 -10    2.86    0.78
   4  -1  10    2.66    0.56
   4  -1  10    2.42    0.68
  -5   1 -10    6.13    0.97
   5  -1  10    6.91    0.78
  -6   1 -10   32.34    1.89
   6  -1  10   31.31    1.67
  -7   1 -10   -0.01    0.79
   7  -1  10    0.84    0.69
  -8   1 -10   22.65    1.63
   8  -1  10   21.10    1.57
  -9   1 -10    8.97    1.25
   9  -1  10    9.11    1.18
 -10   1 -10   15.85    1.53
  10  -1  10   15.51    1.48
  -6   0  10   10.87    1.47
  -5   0  10    6.26    1.20
  -4   0  10   29.41    2.01
  -3   0  10    1.24    0.90
  -2   0  10    7.92    1.12
   1   0 -10    0.89    0.69
  -1   0  10    2.60    0.82
   0   0 -10   60.47    2.65
   0   0  10   60.11    2.72
  -1   0 -10   45.01    2.18
   1   0  10   47.84    2.28
  -2   0 -10   26.82    1.64
   2   0  10   28.22    1.69
  -3   0 -10    4.53    0.80
   3   0  10    5.53    0.89
  -4   0 -10   25.71    1.63
   4   0  10   26.44    1.58
   4   0  10   26.28    1.32
  -5   0 -10    7.91    0.96
   5   0  10    6.79    0.79
  -6   0 -10   27.52    1.77
   6   0  10   33.10    1.65
  -7   0 -10    4.06    0.91
   7   0  10    3.47    0.81
  -8   0 -10   12.94    1.27
   8   0  10   12.82    1.17
  -9   0 -10    1.19    0.88
   9   0  10    1.80    0.91
 -10   0 -10    0.80    0.92
  10   0  10    2.90    1.01
  -5   1  10    6.86    1.35
  -4   1  10    7.48    1.24
  -3   1  10    2.47    0.92
  -2   1  10    5.14    1.07
   1  -1 -10   19.28    1.50
  -1   1  10   20.24    1.60
   0  -1 -10    0.37    0.72
   0   1  10    1.24    0.74
  -1  -1 -10   45.76    2.23
   1   1  10   43.71    2.18
  -2  -1 -10   -0.01    0.69
   2   1  10    0.62    0.66
  -3  -1 -10    2.56    0.73
   3   1  10    2.48    0.51
   3   1  10    3.15    0.72
  -4  -1 -10    7.59    0.99
   4   1  10    9.26    0.99
   4   1  10    9.20    0.78
  -5  -1 -10   31.77    1.79
   5   1  10   31.99    1.57
  -6  -1 -10   -0.87    0.65
   6   1  10    0.09    0.55
  -7  -1 -10   11.26    1.15
   7   1  10   13.48    1.11
  -8  -1 -10    1.80    0.80
   8   1  10    0.21    0.72
  -9  -1 -10    8.98    1.14
   9   1  10    9.33    1.18
 -10  -1 -10    5.05    1.07
  10   1  10    4.14    1.06
  11   1  10   -0.62    0.92
  -5   2  10   26.35    2.00
  -4   2  10    0.09    0.99
  -3   2  10   31.91    2.10
  -2   2  10   -0.89    0.74
   1  -2 -10   62.92    2.86
  -1   2  10   63.21    2.93
   0  -2 -10    2.41    0.86
   0   2  10    1.46    0.77
  -1  -2 -10   27.95    1.74
   1   2  10   28.67    1.76
  -2  -2 -10    0.25    0.65
   2   2  10    0.34    0.65
  -3  -2 -10   20.46    1.45
   3   2  10   19.04    1.40
  -4  -2 -10    2.13    0.71
   4   2  10    1.39    0.55
  -5  -2 -10    5.53    0.91
   5   2  10    6.43    0.75
  -6  -2 -10   30.83    1.77
   6   2  10   32.54    1.67
  -7  -2 -10    8.54    1.01
   7   2  10   10.22    1.01
  -8  -2 -10   21.21    1.51
   8   2  10   20.87    1.50
  -9  -2 -10    0.82    0.78
   9   2  10    1.14    0.82
 -10  -2 -10    8.31    1.14
  10   2  10    6.86    1.10
 -11  -2 -10    0.30    0.85
  11   2  10   -0.19    0.95
  -5   3  10   12.74    1.63
  -4   3  10    7.75    1.35
  -3   3  10    9.77    1.39
  -2   3  10   12.08    1.38
   1  -3 -10    9.90    1.19
  -1   3  10    9.93    1.17
   0  -3 -10   30.71    1.83
   0   3  10   30.77    1.93
  -1  -3 -10   16.09    1.34
   1   3  10   17.04    1.37
  -2  -3 -10   29.17    1.82
   2   3  10   34.93    1.87
  -3  -3 -10   27.65    1.76
   3   3  10   31.70    1.73
  -4  -3 -10   26.94    1.65
  -5  -3 -10    0.21    0.63
   5   3  10   -0.14    0.51
  -6  -3 -10   67.98    2.84
   6   3  10   64.17    2.69
  -7  -3 -10    1.28    0.70
   7   3  10    0.48    0.67
  -8  -3 -10   16.23    1.33
   8   3  10   15.11    1.28
  -9  -3 -10    1.12    0.82
   9   3  10    2.66    0.87
 -10  -3 -10    6.06    1.00
  10   3  10    7.95    1.17
 -11  -3 -10   -0.14    0.82
  11   3  10   -0.35    0.88
  -4   4  10   17.89    1.82
  -3   4  10   -1.70    0.97
  -2   4  10    3.89    1.11
   1  -4 -10    2.63    0.95
  -1   4  10    1.87    0.98
   0  -4 -10   30.81    1.85
   0   4  10   24.57    1.73
  -1  -4 -10    7.09    1.10
   1   4  10    7.33    1.06
  -2  -4 -10   17.74    1.39
   2   4  10   18.21    1.44
  -3  -4 -10    4.20    0.84
  -4  -4 -10   19.72    1.48
  -5  -4 -10   54.22    2.52
   5   4  10   57.91    2.37
  -6  -4 -10   46.02    2.24
   6   4  10   48.89    2.17
  -7  -4 -10    4.12    0.80
   7   4  10    3.00    0.78
  -8  -4 -10    8.65    1.06
   8   4  10    7.78    1.04
  -9  -4 -10    1.58    0.79
   9   4  10    1.34    0.82
 -10  -4 -10    6.83    1.04
  10   4  10    8.18    1.14
 -11  -4 -10    2.95    0.94
  11   4  10    4.28    1.08
  -4   5  10    4.09    1.24
  -3   5  10   -0.16    1.08
  -2   5  10    0.44    0.96
   1  -5 -10   19.45    1.68
  -1   5  10   24.10    1.75
   0  -5 -10    1.61    0.85
   0   5  10    1.14    0.90
  -1  -5 -10   21.47    1.67
   1   5  10   20.35    1.54
  -2  -5 -10    2.13    0.89
  -3  -5 -10   39.79    2.13
  -4  -5 -10    1.35    0.77
  -5  -5 -10   82.97    3.40
  -6  -5 -10    5.32    0.90
   6   5  10    8.78    0.98
  -7  -5 -10   10.96    1.07
   7   5  10   12.97    1.11
  -8  -5 -10    0.66    0.74
   8   5  10    0.17    0.73
  -9  -5 -10   11.24    1.09
   9   5  10   10.94    1.23
 -10  -5 -10    1.83    0.80
  10   5  10   -0.15    0.82
 -11  -5 -10   10.24    1.17
  11   5  10   11.22    1.38
  -3   6  10    3.27    1.29
  -2   6  10   25.36    2.08
  -1   6  10   36.02    2.24
   0  -6 -10    9.53    1.35
  -1  -6 -10   22.92    1.79
  -2  -6 -10    8.66    1.14
  -3  -6 -10   16.65    1.44
   3   6  10   19.64    1.31
  -4  -6 -10   32.63    1.91
  -5  -6 -10    4.64    0.88
  -6  -6 -10   15.99    1.33
  -7  -6 -10    0.52    0.70
   7   6  10    0.99    0.74
  -8  -6 -10   23.79    1.52
   8   6  10   23.63    1.68
  -9  -6 -10   -0.02    0.72
   9   6  10    0.54    0.82
 -10  -6 -10   24.89    1.59
  10   6  10   22.74    1.78
 -11  -6 -10   -0.34    0.74
  11   6  10    0.84    0.95
   0  -7 -10    6.96    1.27
  -1  -7 -10    4.07    1.13
  -2  -7 -10   13.45    1.33
  -3  -7 -10    0.92    0.90
  -4  -7 -10   16.24    1.34
   4   7  10   16.25    1.23
  -5  -7 -10    3.26    0.88
  -6  -7 -10   29.01    1.76
  -7  -7 -10    7.89    1.06
  -8  -7 -10   11.80    1.16
   8   7  10    9.76    1.17
  -9  -7 -10    7.12    0.98
   9   7  10    6.45    1.15
 -10  -7 -10   17.43    1.38
  10   7  10   16.97    1.51
 -11  -7 -10    1.08    0.81
  11   7  10    4.14    1.11
   0  -8 -10   11.97    1.49
  -1  -8 -10   12.10    1.48
  -2  -8 -10    4.28    1.15
  -3  -8 -10   16.27    1.51
  -4  -8 -10   18.42    1.54
   4   8  10   19.39    1.45
  -5  -8 -10   12.91    1.28
   5   8  10   15.27    1.22
  -6  -8 -10   11.61    1.18
  -7  -8 -10    3.00    0.90
  -8  -8 -10    0.06    0.70
  -9  -8 -10    2.30    0.84
 -10  -8 -10    0.20    0.72
  10   8  10    0.51    0.93
 -11  -8 -10    8.95    1.07
  11   8  10    7.73    1.30
   0  -9 -10    4.29    1.30
  -1  -9 -10   13.51    1.59
  -2  -9 -10    0.28    1.00
  -3  -9 -10    8.73    1.30
  -4  -9 -10    0.69    0.83
   4   9  10    0.98    0.76
  -5  -9 -10   16.90    1.49
   5   9  10   18.24    1.38
  -6  -9 -10    2.32    0.88
   6   9  10    2.25    0.78
  -7  -9 -10    3.13    0.89
   7   9  10    4.30    0.83
  -8  -9 -10    0.00    0.77
  -9  -9 -10   13.30    1.21
 -10  -9 -10    6.83    0.97
 -11  -9 -10    6.70    0.98
  -1 -10 -10    0.64    1.10
  -2 -10 -10    4.19    1.25
  -3 -10 -10    0.45    1.01
  -4 -10 -10    5.01    1.16
  -5 -10 -10    0.24    0.87
   5  10  10   -0.31    0.72
  -6 -10 -10    4.39    1.00
   6  10  10    4.13    0.88
  -7 -10 -10    0.34    0.84
   7  10  10    0.47    0.69
  -8 -10 -10    7.07    1.08
   8  10  10    6.38    0.95
  -9 -10 -10   -0.28    0.76
   9  10  10   -0.07    0.68
 -10 -10 -10   18.03    1.40
  -2 -11 -10    2.46    1.26
  -3 -11 -10    1.27    1.14
  -4 -11 -10   18.60    1.71
  -5 -11 -10    0.19    0.95
   5  11  10    0.23    0.79
  -6 -11 -10   10.95    1.33
   6  11  10   15.65    1.29
  -7 -11 -10    2.17    0.99
   7  11  10    2.24    0.84
  -8 -11 -10   15.57    1.37
   8  11  10   11.11    1.14
  -9 -11 -10   11.04    1.20
   9  11  10   10.56    1.08
   6  12  10    1.03    0.84
   7  12  10   17.40    1.42
   8  12  10    0.10    0.72
   0 -11  11    5.77    1.35
   1 -11  11    3.47    1.23
  -3 -10  11    9.76    1.40
  -2 -10  11   -1.08    0.94
  -1 -10  11   12.89    1.54
   0 -10  11    0.59    1.06
   1 -10  11    5.56    1.29
   2 -10  11   -0.90    1.07
  -4  -9  11    3.57    1.05
  -3  -9  11   12.70    1.47
   2   9 -11   18.59    1.75
  -2  -9  11   21.46    1.76
   1   9 -11    4.70    1.25
  -1  -9  11    3.78    1.10
   0  -9  11   -0.59    0.89
   1  -9  11    2.90    1.18
   2  -9  11    7.33    1.34
   3  -9  11    1.42    1.15
  -5  -8  11    2.39    1.06
  -4  -8  11   16.98    1.54
   3   8 -11    0.26    0.85
  -3  -8  11   -1.04    0.87
   2   8 -11   10.79    1.38
  -2  -8  11    8.29    1.31
   1   8 -11   -1.56    0.85
  -1  -8  11   -0.73    0.92
   0  -8  11    6.42    1.22
   1  -8  11    4.05    1.12
   2  -8  11   18.47    1.64
   3  -8  11    4.67    1.21
  -5  -7  11    4.82    1.14
   4   7 -11   17.21    1.57
  -4  -7  11   20.94    1.68
   3   7 -11    9.58    1.28
  -3  -7  11   10.21    1.26
   2   7 -11    2.90    1.04
  -2  -7  11    2.05    0.98
  -1  -7  11    7.66    1.20
   0  -7  11    4.69    1.12
   1  -7  11   23.84    1.85
   2  -7  11    2.13    1.04
   3  -7  11    6.69    1.26
  -6   7 -11   -0.51    1.08
  -7   7 -11    1.69    1.21
   5   6 -11   21.71    1.76
  -5  -6  11   19.21    1.65
   4   6 -11    0.39    0.84
  -4  -6  11   -0.70    0.85
   3   6 -11    8.60    1.12
  -3  -6  11    7.87    1.17
   2   6 -11   -0.05    0.76
  -2  -6  11   -1.18    0.81
  -1  -6  11   28.18    1.91
   0  -6  11    0.45    0.90
   1  -6  11   13.67    1.32
   2  -6  11   -1.12    0.85
  -3   6 -11   11.41    1.32
   3  -6  11   10.00    1.23
  -4   6 -11    5.61    1.08
  -5   6 -11    7.00    1.18
  -6   6 -11    0.07    1.04
  -7   6 -11    1.75    1.09
  -5  -5  11    4.43    1.10
   4   5 -11    2.26    0.88
  -4  -5  11    1.29    0.91
   3   5 -11    2.36    0.87
  -3  -5  11    1.05    0.83
   2   5 -11   11.63    1.26
  -2  -5  11   13.03    1.34
   1   5 -11    2.59    0.94
  -1  -5  11    3.73    1.00
   0  -5  11   13.19    1.34
   1  -5  11    1.76    0.92
  -2   5 -11   17.38    1.40
   2  -5  11   17.99    1.51
  -3   5 -11    3.08    1.01
   3  -5  11    2.32    0.88
  -4   5 -11   18.38    1.59
   4  -5  11   18.69    1.57
  -5   5 -11    0.34    0.85
  -6   5 -11    3.22    1.02
  -7   5 -11    5.16    1.26
   7  -5  11    3.21    0.96
  -8   5 -11    6.87    1.38
   8  -5  11    4.95    1.18
  -5  -4  11    0.55    0.92
  -4  -4  11   10.26    1.27
   3   4 -11    1.56    0.87
  -3  -4  11    6.07    1.12
   2   4 -11   26.15    1.68
  -2  -4  11   27.12    1.85
   1   4 -11    8.59    1.10
  -1  -4  11    9.23    1.12
   0  -4  11   34.19    2.05
  -1   4 -11    7.83    1.04
   1  -4  11    8.76    1.08
  -2   4 -11   34.10    1.99
   2  -4  11   31.76    1.93
  -3   4 -11   19.53    1.56
   3  -4  11   20.33    1.63
  -4   4 -11    7.98    1.11
   4  -4  11    7.97    1.12
  -5   4 -11    3.24    1.05
  -6   4 -11    5.51    1.08
  -7   4 -11    4.00    1.08
   7  -4  11    3.29    0.93
  -8   4 -11    1.82    1.15
   8  -4  11    0.88    0.90
  -5  -3  11   11.92    1.44
  -4  -3  11    3.83    1.07
  -3  -3  11   22.37    1.76
   2   3 -11    6.19    0.90
  -2  -3  11    6.65    1.10
   1   3 -11   36.56    1.93
  -1  -3  11   32.59    1.98
   0  -3  11    1.86    0.80
  -1   3 -11   36.32    1.98
   1  -3  11   34.42    2.05
  -2   3 -11    3.42    0.92
   2  -3  11    3.43    0.86
  -3   3 -11   33.72    2.03
   3  -3  11   36.88    2.07
  -4   3 -11    0.75    0.88
   4  -3  11   -0.41    0.77
  -5   3 -11    8.97    1.25
  -6   3 -11    0.07    0.89
   6  -3  11    0.15    0.64
  -7   3 -11   20.04    1.69
   7  -3  11   21.18    1.60
  -8   3 -11    3.43    1.12
   8  -3  11    2.51    0.95
  -9   3 -11    3.61    1.21
   9  -3  11    4.07    1.03
  -5  -2  11   12.57    1.44
  -4  -2  11   -0.21    0.89
  -3  -2  11   47.86    2.55
  -2  -2  11    1.68    0.94
   1   2 -11   61.91    2.66
  -1  -2  11   62.60    2.91
   0   2 -11   10.60    1.05
   0  -2  11    9.15    1.10
  -1   2 -11   20.14    1.49
   1  -2  11   19.83    1.49
  -2   2 -11    8.77    1.07
   2  -2  11    7.62    1.07
  -3   2 -11   18.26    1.49
   3  -2  11   20.50    1.47
  -4   2 -11    5.52    1.01
   4  -2  11    4.04    0.92
  -5   2 -11    2.41    0.95
  -6   2 -11   23.89    1.74
   6  -2  11   20.11    1.44
  -7   2 -11    6.67    1.16
   7  -2  11    4.89    0.95
  -8   2 -11   17.80    1.63
   8  -2  11   22.38    1.67
  -9   2 -11   -0.87    0.95
   9  -2  11   -0.43    0.83
  -5  -1  11    0.80    1.00
  -4  -1  11   18.54    1.67
  -3  -1  11   14.69    1.46
  -2  -1  11   48.67    2.55
  -1  -1  11    0.97    0.87
   0   1 -11   19.84    1.50
   0  -1  11   20.30    1.53
  -1   1 -11    2.15    0.84
   1  -1  11    1.85    0.87
  -2   1 -11   18.08    1.38
   2  -1  11   16.66    1.39
  -3   1 -11    0.72    0.71
   3  -1  11   -0.49    0.64
  -4   1 -11    7.44    1.00
   4  -1  11    7.17    0.99
  -5   1 -11    0.88    0.83
  -6   1 -11   23.51    1.63
   6  -1  11   22.32    1.42
  -7   1 -11    2.65    0.90
   7  -1  11    3.38    0.81
  -8   1 -11    2.67    1.03
   8  -1  11    3.51    0.93
  -9   1 -11    7.82    1.24
   9  -1  11    7.43    1.15
  10  -1  11    4.68    1.14
  -5   0  11   -0.90    0.94
  -4   0  11   19.72    1.74
  -3   0  11    4.44    1.12
  -2   0  11    2.15    0.89
  -1   0  11   25.09    1.73
   0   0 -11    0.32    0.67
   0   0  11    0.09    0.81
  -1   0 -11   10.01    1.09
   1   0  11   11.56    1.16
  -2   0 -11    9.68    1.13
   2   0  11    9.88    1.14
  -3   0 -11   49.03    2.37
   3   0  11   50.00    2.39
  -4   0 -11    8.79    1.05
   4   0  11    9.38    1.07
  -5   0 -11   20.96    1.49
   5   0  11   19.58    1.25
  -6   0 -11   14.60    1.35
   6   0  11   15.81    1.24
  -7   0 -11   11.34    1.19
   7   0  11   10.58    1.08
  -8   0 -11    0.66    0.87
   8   0  11    0.85    0.81
  -9   0 -11    1.53    0.94
   9   0  11    1.42    0.89
 -10   0 -11    0.44    0.95
  10   0  11   -0.41    0.88
  -5   1  11    4.05    1.18
  -4   1  11   -0.80    0.95
  -3   1  11   22.02    1.77
  -2   1  11    9.52    1.22
  -1   1  11    9.01    1.21
   0  -1 -11    3.85    0.95
   0   1  11    5.08    1.02
  -1  -1 -11   21.26    1.63
   1   1  11   26.21    1.73
  -2  -1 -11    5.42    1.01
   2   1  11    6.88    0.97
  -3  -1 -11   27.56    1.71
   3   1  11   30.47    1.80
  -4  -1 -11    0.93    0.79
  -5  -1 -11   29.30    1.82
   5   1  11   28.46    1.50
  -6  -1 -11   13.27    1.27
   6   1  11   14.46    1.15
  -7  -1 -11    8.63    1.14
   7   1  11    8.53    0.98
  -8  -1 -11    2.87    0.94
   8   1  11    2.05    0.81
  -9  -1 -11    9.60    1.25
   9   1  11    9.38    1.20
 -10  -1 -11    0.97    0.97
  10   1  11    0.31    0.90
  -4   2  11    7.91    1.33
  -3   2  11   11.24    1.44
  -2   2  11    5.43    1.09
  -1   2  11   21.70    1.69
   0  -2 -11    8.10    1.15
   0   2  11    9.16    1.22
  -1  -2 -11   20.37    1.60
   1   2  11   18.32    1.50
  -2  -2 -11   43.99    2.29
   2   2  11   48.70    2.36
  -3  -2 -11   13.17    1.19
   3   2  11   12.66    1.19
  -4  -2 -11   36.75    2.02
  -5  -2 -11    1.53    0.74
   5   2  11    0.49    0.57
  -6  -2 -11   36.51    2.09
   6   2  11   43.00    1.97
  -7  -2 -11    0.34    0.76
   7   2  11    0.00    0.66
  -8  -2 -11   11.64    1.26
   8   2  11   14.91    1.25
  -9  -2 -11    1.47    0.88
   9   2  11    2.43    0.83
 -10  -2 -11   12.62    1.39
  10   2  11   14.35    1.41
  11   2  11    0.88    1.00
  -4   3  11    9.47    1.53
  -3   3  11    1.38    1.10
  -2   3  11    9.67    1.37
  -1   3  11   -1.12    0.84
   0  -3 -11   24.38    1.82
   0   3  11   25.86    1.87
  -1  -3 -11    1.81    0.82
   1   3  11    0.71    0.77
  -2  -3 -11   45.66    2.40
   2   3  11   46.01    2.35
  -3  -3 -11   -0.26    0.70
  -4  -3 -11   30.77    1.87
  -5  -3 -11    1.39    0.80
   5   3  11    1.60    0.66
  -6  -3 -11    9.08    1.10
   6   3  11    9.16    0.95
  -7  -3 -11    0.19    0.75
   7   3  11    0.79    0.70
  -8  -3 -11   12.82    1.25
   8   3  11   13.32    1.24
  -9  -3 -11    4.63    0.98
   9   3  11    4.57    0.99
 -10  -3 -11    2.92    1.00
  10   3  11    1.99    0.95
  11   3  11    3.78    1.05
  -3   4  11    7.31    1.43
  -2   4  11   15.13    1.61
  -1   4  11   13.98    1.52
   0  -4 -11   14.67    1.51
   0   4  11   14.46    1.40
  -1  -4 -11   13.32    1.33
   1   4  11   16.31    1.45
  -2  -4 -11   17.33    1.47
  -3  -4 -11   21.17    1.56
  -4  -4 -11    1.57    0.85
  -5  -4 -11    8.74    1.04
  -6  -4 -11    2.24    0.83
   6   4  11    2.20    0.73
  -7  -4 -11   21.94    1.58
   7   4  11   23.57    1.51
  -8  -4 -11    0.05    0.73
   8   4  11    0.34    0.76
  -9  -4 -11   11.57    1.21
   9   4  11   10.68    1.22
 -10  -4 -11    1.42    0.85
  10   4  11   -0.46    0.84
 -11  -4 -11    3.26    0.96
  11   4  11    3.96    1.15
  -3   5  11   17.31    1.80
  -2   5  11    1.00    1.15
  -1   5  11    8.65    1.32
   0  -5 -11    4.61    1.08
  -1  -5 -11   23.30    1.78
  -2  -5 -11    9.80    1.20
  -3  -5 -11   16.44    1.44
  -4  -5 -11    9.08    1.09
  -5  -5 -11   13.24    1.27
  -6  -5 -11    7.77    1.06
  -7  -5 -11   13.42    1.28
   7   5  11   16.08    1.30
  -8  -5 -11   10.39    1.12
   8   5  11   10.04    1.16
  -9  -5 -11    0.24    0.82
   9   5  11    0.95    0.85
 -10  -5 -11    6.42    0.98
  10   5  11    7.17    1.18
 -11  -5 -11    4.43    0.98
  11   5  11    1.93    1.03
   0  -6 -11   24.26    2.02
  -1  -6 -11    3.68    1.09
  -2  -6 -11   20.60    1.70
  -3  -6 -11   -0.18    0.88
  -4  -6 -11   30.81    1.88
   4   6  11   29.95    1.76
  -5  -6 -11    1.96    0.93
  -6  -6 -11   25.93    1.74
  -7  -6 -11    7.40    1.02
  -8  -6 -11   14.70    1.33
   8   6  11   14.14    1.33
  -9  -6 -11    5.86    1.01
   9   6  11    5.01    1.06
 -10  -6 -11   15.12    1.33
  10   6  11   16.49    1.46
 -11  -6 -11   -0.59    0.81
  11   6  11    0.49    0.96
   0  -7 -11    4.02    1.24
  -1  -7 -11   -0.65    1.01
  -2  -7 -11    9.84    1.28
  -3  -7 -11   17.82    1.63
  -4  -7 -11   17.16    1.53
  -5  -7 -11    9.78    1.20
   5   7  11   10.55    1.11
  -6  -7 -11    6.06    1.10
  -7  -7 -11   10.50    1.16
  -8  -7 -11   12.11    1.27
  -9  -7 -11    7.80    1.08
   9   7  11    6.03    1.14
 -10  -7 -11    7.48    1.07
  10   7  11    8.91    1.32
 -11  -7 -11    6.97    1.10
  11   7  11    5.45    1.16
  -1  -8 -11   17.79    1.68
  -2  -8 -11   -1.91    0.84
  -3  -8 -11   33.20    2.20
  -4  -8 -11    0.13    0.96
  -5  -8 -11    3.75    1.03
   5   8  11    4.76    0.95
  -6  -8 -11   -0.32    0.80
   6   8  11   -0.25    0.70
  -7  -8 -11   20.50    1.66
  -8  -8 -11   -0.97    0.83
  -9  -8 -11    6.94    1.06
 -10  -8 -11    1.27    0.86
  10   8  11    1.07    0.97
  -1  -9 -11   14.41    1.72
  -2  -9 -11    1.57    1.04
  -3  -9 -11   -0.37    0.89
  -4  -9 -11   -1.10    0.91
  -5  -9 -11    1.62    0.97
   5   9  11   -0.90    0.72
  -6  -9 -11    3.00    1.01
   6   9  11    3.93    0.91
  -7  -9 -11    7.05    1.12
   7   9  11    6.26    1.00
  -8  -9 -11    6.49    1.10
  -9  -9 -11    0.65    0.83
 -10  -9 -11    6.78    1.11
  -2 -10 -11   13.34    1.69
  -3 -10 -11    0.89    1.09
  -4 -10 -11    6.68    1.30
  -5 -10 -11    3.17    1.08
  -6 -10 -11   22.21    1.77
   6  10  11   20.69    1.58
  -7 -10 -11    0.09    0.91
   7  10  11    1.09    0.83
  -8 -10 -11    5.07    1.09
   8  10  11    4.83    0.96
  -9 -10 -11    1.69    0.86
   9  10  11    2.91    0.86
  -5 -11 -11    9.31    1.36
  -6 -11 -11    5.15    1.17
   6  11  11    5.31    1.05
  -7 -11 -11   17.20    1.59
   7  11  11   16.77    1.41
   8  11  11    0.89    0.79
   0 -10  12    4.56    1.21
   1 -10  12    7.23    1.42
   2 -10  12    2.66    1.25
  -2  -9  12   14.27    1.56
  -1  -9  12   -0.17    1.04
   0  -9  12   22.13    1.89
   1  -9  12   -0.14    1.06
   2  -9  12    7.21    1.39
  -3  -8  12   -0.98    0.90
  -2  -8  12    6.34    1.19
   1   8 -12   11.60    1.46
  -1  -8  12   13.51    1.47
   0  -8  12    4.18    1.18
   1  -8  12    8.45    1.35
   2  -8  12    1.43    1.11
   3  -8  12   11.94    1.55
  -4  -7  12    3.76    1.19
   3   7 -12    4.14    1.16
  -3  -7  12    7.59    1.25
   2   7 -12    1.02    1.01
  -2  -7  12   -0.21    0.94
   1   7 -12   10.10    1.44
  -1  -7  12   12.83    1.45
   0  -7  12    0.02    0.89
   1  -7  12   14.31    1.55
   2  -7  12    0.58    0.98
   3  -7  12    6.57    1.31
  -4  -6  12    0.79    1.00
   3   6 -12    7.69    1.19
  -3  -6  12    6.81    1.22
   2   6 -12    6.45    1.14
  -2  -6  12    5.11    1.14
   1   6 -12   11.22    1.39
  -1  -6  12   12.14    1.42
   0  -6  12    5.89    1.19
   1  -6  12   17.74    1.64
   2  -6  12    0.15    0.95
   3  -6  12    1.76    1.04
  -5   6 -12    2.45    1.08
  -6   6 -12    4.97    1.29
  -7   6 -12   -0.85    1.10
  -4  -5  12   22.20    1.86
   3   5 -12    0.54    0.84
  -3  -5  12   -0.24    0.89
   2   5 -12   19.02    1.52
  -2  -5  12   18.55    1.55
   1   5 -12   -1.17    0.81
  -1  -5  12   -1.24    0.79
   0  -5  12   41.33    2.38
   1  -5  12   -0.09    0.89
   2  -5  12    1.23    1.00
  -3   5 -12   -0.67    0.90
   3  -5  12    1.70    1.01
  -4   5 -12    9.75    1.38
  -5   5 -12    4.74    1.12
  -6   5 -12    1.56    1.00
  -7   5 -12   -0.06    1.07
  -4  -4  12    4.45    1.15
  -3  -4  12    7.16    1.24
   2   4 -12   10.94    1.17
  -2  -4  12    8.67    1.29
   1   4 -12   29.01    1.89
  -1  -4  12   31.40    2.03
   0  -4  12    5.30    1.14
   1  -4  12    7.67    1.21
  -2   4 -12    1.43    0.82
   2  -4  12    1.44    0.88
  -3   4 -12   33.17    2.09
   3  -4  12   31.02    2.08
  -4   4 -12    1.29    0.94
  -5   4 -12   23.10    1.81
  -6   4 -12    0.42    1.00
  -7   4 -12    4.11    1.12
  -8   4 -12   -0.43    1.06
  -4  -3  12   -0.12    0.97
  -3  -3  12   20.10    1.66
  -2  -3  12    1.97    0.91
   1   3 -12   22.13    1.57
  -1  -3  12   23.07    1.72
   0  -3  12    9.22    1.23
   1  -3  12    3.20    1.02
  -2   3 -12   23.52    1.76
   2  -3  12   26.10    1.85
  -3   3 -12   37.53    2.21
   3  -3  12   36.32    2.10
  -4   3 -12   15.39    1.50
  -5   3 -12   21.29    1.72
  -6   3 -12    6.03    1.22
  -7   3 -12   12.21    1.46
  -8   3 -12    5.89    1.27
  -4  -2  12   14.92    1.60
  -3  -2  12    2.50    1.08
  -2  -2  12   26.01    1.94
  -1  -2  12    6.43    1.16
   0  -2  12   26.30    1.88
  -1   2 -12    3.38    0.91
   1  -2  12    3.76    0.98
  -2   2 -12   21.62    1.57
   2  -2  12   19.69    1.57
  -3   2 -12    5.80    1.07
   3  -2  12    6.12    1.00
  -4   2 -12   19.30    1.58
  -5   2 -12    0.35    0.93
  -6   2 -12   11.57    1.40
  -7   2 -12    2.34    1.07
  -8   2 -12   17.22    1.64
   8  -2  12   15.16    1.39
  -9   2 -12    5.36    1.22
   9  -2  12    3.40    1.04
  -4  -1  12   14.13    1.57
  -3  -1  12    3.56    1.15
  -2  -1  12   14.51    1.51
  -1  -1  12    3.22    0.97
   0  -1  12    9.03    1.17
  -1   1 -12    5.86    1.03
   1  -1  12    5.33    1.07
  -2   1 -12    2.97    0.85
   2  -1  12    2.63    0.96
  -3   1 -12    7.51    1.13
   3  -1  12    5.62    0.95
  -4   1 -12    7.76    1.16
  -5   1 -12    6.96    1.12
  -6   1 -12   -0.52    0.82
  -7   1 -12   12.98    1.37
  -8   1 -12   -0.09    0.97
   8  -1  12    0.61    0.81
  -9   1 -12    2.34    1.09
   9  -1  12    3.37    1.04
  -4   0  12   -1.14    0.98
  -3   0  12    4.46    1.11
  -2   0  12    5.58    1.13
  -1   0  12    7.74    1.25
   0   0  12   -1.59    0.84
  -1   0 -12    8.68    1.11
   1   0  12   11.30    1.31
  -2   0 -12    0.64    0.85
   2   0  12   -0.03    0.82
  -3   0 -12   42.87    2.28
   3   0  12   46.52    2.31
  -4   0 -12   -1.29    0.78
  -5   0 -12   21.87    1.70
  -6   0 -12    0.93    0.88
  -7   0 -12    7.66    1.22
   7   0  12   10.54    1.07
  -8   0 -12   -0.37    0.91
   8   0  12    0.18    0.76
  -9   0 -12    1.57    1.00
   9   0  12    0.79    0.87
  10   0  12    0.54    0.92
  -4   1  12    5.23    1.30
  -3   1  12   22.46    1.87
  -2   1  12    7.63    1.29
  -1   1  12   24.03    1.82
   0   1  12   17.32    1.58
  -1  -1 -12   26.84    1.77
   1   1  12   27.39    1.89
  -2  -1 -12   14.99    1.41
   2   1  12   14.74    1.38
  -3  -1 -12   31.34    1.90
  -4  -1 -12   16.23    1.42
  -5  -1 -12    4.00    0.92
  -6  -1 -12    4.21    1.01
  -7  -1 -12    0.15    0.87
   7   1  12    0.40    0.74
  -8  -1 -12   11.47    1.33
   8   1  12   11.69    1.18
  -9  -1 -12    0.01    0.91
   9   1  12    0.62    0.81
 -10  -1 -12    5.13    1.16
  10   1  12    5.14    1.12
  -3   2  12    3.48    1.24
  -2   2  12   16.93    1.66
  -1   2  12    2.06    1.05
   0   2  12   17.40    1.59
  -1  -2 -12    0.90    0.85
   1   2  12    1.15    0.92
  -2  -2 -12   40.13    2.23
   2   2  12   43.63    2.33
  -3  -2 -12    1.39    0.84
  -4  -2 -12   22.65    1.70
  -5  -2 -12    0.93    0.84
  -6  -2 -12   10.36    1.16
  -7  -2 -12   10.47    1.26
   7   2  12    9.96    1.09
  -8  -2 -12   19.60    1.65
   8   2  12   21.12    1.56
  -9  -2 -12   -1.25    0.83
   9   2  12    0.02    0.80
 -10  -2 -12   14.76    1.52
  10   2  12   13.58    1.43
  -3   3  12    2.92    1.22
  -2   3  12    9.52    1.50
  -1   3  12   -0.21    0.96
   0   3  12    2.74    1.09
  -1  -3 -12   14.78    1.49
   1   3  12   13.57    1.41
  -2  -3 -12    4.72    1.01
  -3  -3 -12    8.24    1.14
  -4  -3 -12    9.64    1.24
  -5  -3 -12   14.53    1.29
  -6  -3 -12    0.11    0.81
  -7  -3 -12   28.82    1.91
   7   3  12   34.19    1.85
  -8  -3 -12   12.38    1.31
   8   3  12   11.71    1.21
  -9  -3 -12    6.06    1.13
   9   3  12   10.99    1.25
 -10  -3 -12    2.26    0.99
  10   3  12    1.63    0.97
  -3   4  12    7.64    1.52
  -2   4  12    6.32    1.38
  -1   4  12    3.27    1.11
   0   4  12    4.59    1.16
  -1  -4 -12   23.20    1.78
  -2  -4 -12    1.97    0.91
  -3  -4 -12   22.65    1.80
  -4  -4 -12    4.94    1.09
  -5  -4 -12   20.64    1.66
  -6  -4 -12   23.89    1.73
  -7  -4 -12   21.40    1.64
   7   4  12   20.50    1.56
  -8  -4 -12    1.25    0.90
   8   4  12   -0.56    0.73
  -9  -4 -12    9.71    1.18
   9   4  12   11.06    1.25
 -10  -4 -12    8.26    1.22
  10   4  12    8.30    1.23
  -1  -5 -12    4.50    1.20
  -2  -5 -12   19.61    1.62
  -3  -5 -12    3.37    1.07
  -4  -5 -12   22.09    1.69
  -5  -5 -12    0.94    0.83
  -6  -5 -12    8.29    1.19
  -7  -5 -12    1.55    0.92
  -8  -5 -12    5.26    1.03
   8   5  12    5.22    1.01
  -9  -5 -12    0.97    0.89
   9   5  12    0.80    0.88
 -10  -5 -12    4.91    1.08
  10   5  12    7.01    1.15
  -1  -6 -12    0.48    1.07
  -2  -6 -12   28.86    2.13
  -3  -6 -12   -0.41    0.93
  -4  -6 -12    4.68    1.04
  -5  -6 -12    3.39    1.06
  -6  -6 -12    4.40    1.05
  -7  -6 -12    4.23    1.08
  -8  -6 -12   11.24    1.27
  -9  -6 -12   13.77    1.38
   9   6  12   13.64    1.39
 -10  -6 -12    1.32    0.93
  10   6  12    1.16    0.97
  -1  -7 -12   15.67    1.69
  -2  -7 -12    0.07    1.06
  -3  -7 -12    7.51    1.32
  -4  -7 -12   -0.22    0.87
  -5  -7 -12   20.50    1.67
  -6  -7 -12    3.62    1.03
  -7  -7 -12   24.13    1.76
  -8  -7 -12    3.71    1.05
  -9  -7 -12    3.06    1.04
 -10  -7 -12    0.03    0.85
  10   7  12    0.29    0.93
  -1  -8 -12    1.93    1.11
  -2  -8 -12    0.89    1.09
  -3  -8 -12    4.76    1.26
  -4  -8 -12   -0.56    0.99
  -5  -8 -12   14.72    1.52
  -6  -8 -12    5.31    1.12
   6   8  12    3.98    0.94
  -7  -8 -12    7.11    1.17
  -8  -8 -12    1.47    0.99
  -9  -8 -12    1.53    0.92
  -2  -9 -12    0.88    1.14
  -3  -9 -12    3.21    1.24
  -4  -9 -12    4.82    1.25
  -5  -9 -12   -0.88    0.97
  -6  -9 -12    6.60    1.22
   6   9  12    5.45    1.03
  -7  -9 -12    0.73    0.99
   7   9  12    1.26    0.82
  -8  -9 -12    6.85    1.21
   8   9  12    6.57    1.07
  -5 -10 -12   17.46    1.71
  -6 -10 -12    6.54    1.26
   7  10  12   11.99    1.26
   8  10  12    0.95    0.82
   1  -9  13    0.83    1.16
   2  -9  13    2.42    1.20
  -1  -8  13    4.87    1.24
   0  -8  13    1.19    1.13
   1  -8  13    6.31    1.43
   2  -8  13    0.49    1.14
  -2  -7  13   -0.80    0.90
  -1  -7  13    7.78    1.27
   0  -7  13    5.24    1.23
   1  -7  13    6.50    1.37
   2  -7  13    2.86    1.22
  -3  -6  13    6.50    1.26
   2   6 -13    7.18    1.24
  -2  -6  13    8.05    1.33
   1   6 -13   -0.83    0.93
  -1  -6  13   -0.49    0.97
   0  -6  13    9.47    1.42
   1  -6  13    0.15    1.02
   2  -6  13    8.44    1.37
  -3  -5  13    7.46    1.30
  -2  -5  13    2.59    1.15
   1   5 -13   21.67    1.76
  -1  -5  13   18.79    1.65
   0  -5  13    4.76    1.20
   1  -5  13   16.91    1.64
   2  -5  13    2.02    1.06
   3  -5  13    9.92    1.38
  -5   5 -13    7.43    1.37
  -6   5 -13   -0.14    1.11
  -7   5 -13    7.69    1.48
  -3  -4  13   22.16    1.84
  -2  -4  13    3.13    1.14
  -1  -4  13   14.07    1.49
   0  -4  13    0.83    0.98
   1  -4  13   27.46    2.01
   2  -4  13    1.28    1.02
   3  -4  13    7.82    1.26
  -4   4 -13   -0.15    1.00
  -5   4 -13   30.46    2.20
  -6   4 -13    6.19    1.26
  -7   4 -13   -0.16    1.10
  -3  -3  13    7.17    1.33
  -2  -3  13   12.89    1.51
  -1  -3  13   14.32    1.55
   0   3 -13   14.73    1.38
   0  -3  13   14.52    1.48
   1  -3  13    6.14    1.10
   2  -3  13   10.28    1.35
  -3   3 -13    5.98    1.17
   3  -3  13    6.68    1.08
  -4   3 -13   23.38    1.83
  -5   3 -13    1.86    1.09
  -6   3 -13   12.76    1.54
  -7   3 -13    1.31    1.15
  -8   3 -13    4.62    1.23
  -3  -2  13    5.50    1.26
  -2  -2  13    9.26    1.39
  -1  -2  13    0.54    1.00
   0  -2  13   11.23    1.35
   1  -2  13    0.66    0.94
  -2   2 -13   14.99    1.48
   2  -2  13   16.16    1.52
  -3   2 -13    0.15    0.93
   3  -2  13    0.14    0.89
  -4   2 -13   10.93    1.30
  -5   2 -13    5.92    1.17
  -6   2 -13    1.28    1.06
  -7   2 -13    1.63    1.04
  -8   2 -13    2.91    1.17
  -3  -1  13    4.15    1.26
  -2  -1  13    2.29    1.08
  -1  -1  13   -0.03    0.96
   0  -1  13    0.24    0.94
   1  -1  13   16.84    1.56
  -2   1 -13    0.27    0.87
   2  -1  13    1.01    0.85
  -3   1 -13   24.41    1.85
  -4   1 -13    4.47    1.02
  -5   1 -13   12.94    1.45
  -6   1 -13    1.41    1.02
  -7   1 -13    6.32    1.26
  -8   1 -13    1.32    1.08
  -3   0  13    7.48    1.41
  -2   0  13    0.02    0.95
  -1   0  13    6.70    1.21
   0   0  13    2.63    1.09
   1   0  13   28.04    1.92
  -2   0 -13    9.62    1.28
   2   0  13    8.25    1.16
  -3   0 -13    4.47    1.09
  -4   0 -13   18.37    1.59
  -5   0 -13    5.51    1.07
  -6   0 -13    4.94    1.14
  -7   0 -13    6.97    1.24
  -8   0 -13    5.83    1.25
  -9   0 -13    3.17    1.16
  -3   1  13    0.20    1.05
  -2   1  13   18.21    1.80
  -1   1  13    8.67    1.32
   0   1  13   38.14    2.37
  -1  -1 -13    1.29    0.90
   1   1  13    3.63    1.10
  -2  -1 -13   15.27    1.51
  -3  -1 -13   -0.63    0.82
  -4  -1 -13   17.31    1.49
  -5  -1 -13   -0.19    0.83
  -6  -1 -13   12.13    1.39
  -7  -1 -13    2.03    1.01
  -8  -1 -13   14.09    1.52
  -9  -1 -13    1.44    1.07
  10   1  13    5.30    1.13
  -2   2  13   11.81    1.57
  -1   2  13    1.35    0.99
   0   2  13   10.95    1.37
  -1  -2 -13    2.38    1.07
   1   2  13    3.25    1.04
  -2  -2 -13   14.41    1.50
  -3  -2 -13    8.00    1.19
  -4  -2 -13   20.90    1.66
  -5  -2 -13    2.48    0.94
  -6  -2 -13   19.15    1.61
  -7  -2 -13    9.53    1.21
  -8  -2 -13    4.46    1.13
  -9  -2 -13    5.06    1.22
  10   2  13    0.53    0.92
  -2   3  13    0.08    1.13
  -1   3  13   17.68    1.70
  -1  -3 -13   28.44    2.11
  -2  -3 -13   -1.72    0.90
  -3  -3 -13   30.47    2.07
  -4  -3 -13   -1.31    0.89
  -5  -3 -13   16.98    1.55
  -6  -3 -13   -0.64    0.88
  -7  -3 -13   12.47    1.38
  -8  -3 -13    5.53    1.11
  -9  -3 -13    2.25    1.01
   9   3  13    2.06    0.94
  10   3  13    0.62    0.91
  -1  -4 -13    4.76    1.24
  -2  -4 -13   17.71    1.68
  -3  -4 -13    2.16    1.06
  -4  -4 -13    9.90    1.31
  -5  -4 -13    3.67    1.08
  -6  -4 -13   19.01    1.62
  -7  -4 -13    0.40    0.90
  -8  -4 -13    8.76    1.21
  -9  -4 -13    2.32    0.99
   9   4  13    1.55    0.89
  10   4  13    4.06    1.08
  -1  -5 -13    2.35    1.08
  -2  -5 -13   16.37    1.59
  -3  -5 -13    1.44    1.07
  -4  -5 -13    4.85    1.18
  -5  -5 -13    4.41    1.05
  -6  -5 -13    7.26    1.15
  -7  -5 -13    5.88    1.15
  -8  -5 -13    4.35    1.07
  -9  -5 -13    2.72    1.01
   9   5  13    3.87    1.10
  10   5  13    4.96    1.20
  -2  -6 -13    5.33    1.31
  -3  -6 -13   -0.59    1.01
  -4  -6 -13    0.69    1.05
  -5  -6 -13   13.37    1.49
  -6  -6 -13    1.12    0.99
  -7  -6 -13    9.11    1.27
  -8  -6 -13    0.28    0.99
  -9  -6 -13   15.75    1.53
  10   6  13    0.24    0.96
  -2  -7 -13    2.97    1.26
  -3  -7 -13    3.88    1.19
  -4  -7 -13    4.68    1.24
  -5  -7 -13   15.77    1.55
  -6  -7 -13    1.81    1.03
  -7  -7 -13    8.26    1.29
  -8  -7 -13    3.67    1.03
  -2  -8 -13    6.28    1.35
  -3  -8 -13    3.70    1.30
  -4  -8 -13    5.31    1.23
  -5  -8 -13    3.68    1.20
  -6  -8 -13    7.35    1.29
  -7  -8 -13   -0.15    0.91
   7   8  13    0.38    0.82
   8   9  13    1.91    0.90
   0  -7  14    7.42    1.40
   1  -7  14   -0.98    1.08
   2  -7  14   12.01    1.57
  -1  -6  14    7.27    1.35
   0  -6  14    4.55    1.29
   1  -6  14    5.20    1.29
   2  -6  14   11.19    1.55
  -1  -5  14   16.15    1.74
   0   5 -14    0.32    1.02
   0  -5  14   -0.17    1.00
   1  -5  14   11.91    1.55
   2  -5  14    1.04    1.09
  -2  -4  14    2.98    1.22
  -1  -4  14    5.44    1.27
   0  -4  14    2.45    1.10
   1  -4  14    7.58    1.33
   2  -4  14    6.14    1.32
  -5   4 -14    0.33    1.04
  -6   4 -14   14.10    1.70
  -2  -3  14    8.72    1.45
  -1  -3  14   -0.67    1.04
   0  -3  14   13.20    1.49
   1  -3  14   -0.46    1.03
   2  -3  14   14.09    1.54
  -4   3 -14    6.42    1.27
  -5   3 -14    1.12    1.12
  -6   3 -14    5.88    1.33
  -7   3 -14    1.81    1.14
  -2  -2  14    2.13    1.17
  -1  -2  14   10.16    1.50
   0  -2  14   14.04    1.63
   1  -2  14   12.39    1.44
   2  -2  14    0.63    1.03
  -3   2 -14    0.97    1.02
  -4   2 -14    0.69    1.06
  -5   2 -14    2.65    1.05
  -6   2 -14   -0.22    1.07
  -7   2 -14    0.59    1.09
  -2  -1  14    0.62    1.11
  -1  -1  14   26.22    2.12
   0  -1  14    0.30    1.07
   1  -1  14    5.54    1.19
  -3   1 -14    8.15    1.29
  -4   1 -14    8.03    1.22
  -5   1 -14   21.20    1.75
  -6   1 -14    5.04    1.27
  -7   1 -14    4.96    1.32
  -2   0  14   14.48    1.67
  -1   0  14    2.62    1.20
   0   0  14   14.74    1.64
   1   0  14    1.42    1.05
  -3   0 -14    5.06    1.19
  -4   0 -14   27.59    2.03
  -5   0 -14   -0.05    0.91
  -6   0 -14    5.93    1.18
  -7   0 -14    2.57    1.09
  -8   0 -14    5.22    1.27
  -2   1  14   15.92    1.78
  -1   1  14    0.99    1.04
   0   1  14   17.41    1.73
  -2  -1 -14   22.77    1.87
  -3  -1 -14    0.84    1.07
  -4  -1 -14   16.08    1.59
  -5  -1 -14    2.42    1.08
  -6  -1 -14    6.32    1.27
  -7  -1 -14    2.65    1.03
  -8  -1 -14    2.80    1.12
  -2  -2 -14   -0.06    1.03
  -3  -2 -14   12.52    1.49
  -4  -2 -14   -1.85    0.92
  -5  -2 -14    6.07    1.15
  -6  -2 -14   -0.17    0.99
  -7  -2 -14    4.71    1.11
  -8  -2 -14    5.12    1.21
  -2  -3 -14   17.53    1.72
  -3  -3 -14    6.89    1.31
  -4  -3 -14   13.22    1.52
  -5  -3 -14    1.76    0.99
  -6  -3 -14    7.90    1.29
  -7  -3 -14    1.09    1.02
  -8  -3 -14   20.20    1.77
  -2  -4 -14   20.31    1.77
  -3  -4 -14   -0.06    1.03
  -4  -4 -14   16.96    1.70
  -5  -4 -14   -0.30    0.98
  -6  -4 -14   13.47    1.52
  -7  -4 -14    0.26    0.96
  -8  -4 -14   13.15    1.47
  -2  -5 -14   22.35    1.98
  -3  -5 -14    8.59    1.43
  -4  -5 -14   10.85    1.49
  -5  -5 -14    2.46    1.13
  -6  -5 -14    7.44    1.31
  -7  -5 -14   17.82    1.67
  -8  -5 -14   -0.37    1.00
  -2  -6 -14    3.24    1.26
  -3  -6 -14    5.04    1.34
  -4  -6 -14    1.16    1.13
  -5  -6 -14    7.28    1.36
  -6  -6 -14    2.62    1.14
  -7  -6 -14    9.34    1.29
  -3  -7 -14    5.54    1.29
  -4  -7 -14    7.84    1.37
  -5  -7 -14    3.15    1.18
  -6  -7 -14   12.60    1.53
   1  -5  15   10.85    1.55
   0  -4  15   12.72    1.61
   1  -4  15   -1.09    1.06
   0  -3  15   10.42    1.50
   1  -3  15    1.44    1.14
  -6   3 -15    4.29    1.33
  -1  -2  15   14.02    1.70
   0  -2  15   -0.30    1.08
   1  -2  15    8.67    1.46
  -5   2 -15    3.06    1.23
  -6   2 -15    0.64    1.16
  -1  -1  15    6.56    1.32
   0  -1  15    3.43    1.24
  -4   1 -15    2.60    1.08
  -5   1 -15    3.58    1.22
  -6   1 -15   20.25    1.87
  -4   0 -15   10.16    1.36
  -5   0 -15    0.90    1.04
  -6   0 -15   16.16    1.72
  -7   0 -15    4.06    1.27
  -3  -1 -15    5.08    1.20
  -4  -1 -15    4.14    1.24
  -5  -1 -15   20.50    1.82
  -6  -1 -15    0.58    1.05
  -7  -1 -15    7.22    1.35
  -3  -2 -15   11.17    1.54
  -4  -2 -15    8.91    1.37
  -5  -2 -15    7.86    1.29
  -6  -2 -15    3.42    1.22
  -7  -2 -15    3.25    1.20
  -3  -3 -15    1.34    1.04
  -4  -3 -15   12.69    1.58
  -5  -3 -15   -0.04    1.03
  -6  -3 -15    6.25    1.24
  -7  -3 -15   -0.04    1.00
  -3  -4 -15    3.14    1.25
  -4  -4 -15    9.71    1.50
  -5  -4 -15    5.29    1.21
  -6  -4 -15    2.05    1.14
  -3  -5 -15   14.31    1.71
  -4  -5 -15    2.25    1.23
  -5  -5 -15    4.65    1.31
  -6  -5 -15   -1.52    0.96
  -5   0 -16    1.34    1.22
  -5  -1 -16    4.86    1.32
  -5  -2 -16    3.14    1.22
   0   0   0    0.00    0.00
;
loop_
_symmetry_equiv_pos_as_xyz
'x, y, z'
'-x, -y, -z'
loop_
_atom_site_label
_atom_site_type_symbol
_atom_site_fract_x
_atom_site_fract_y
_atom_site_fract_z
_atom_site_U_iso_or_equiv
_atom_site_adp_type
_atom_site_occupancy
_atom_site_symmetry_multiplicity
_atom_site_calc_flag
_atom_site_refinement_flags
Br1 Br 0.23886(2) 0.363833(19) 0.398584(17) 0.01684(5) Uani 1 1 d .
O1 O 0.33198(17) 0.75681(14) 0.45943(14) 0.0214(3) Uani 1 1 d .
O2 O 0.23365(17) 0.58347(14) 0.54188(12) 0.0187(2) Uani 1 1 d .
C1 C 0.4244(2) 0.42018(18) 0.27067(17) 0.0146(3) Uani 1 1 d .
C2 C 0.4436(2) 0.54292(17) 0.31247(17) 0.0140(3) Uani 1 1 d .
C3 C 0.5851(2) 0.57673(18) 0.22307(18) 0.0168(3) Uani 1 1 d .
H3 H 0.6041 0.6584 0.2488 0.020 Uiso 1 1 calc R
C4 C 0.6978(2) 0.49209(19) 0.09749(18) 0.0186(3) Uani 1 1 d .
H4 H 0.7938 0.5160 0.0381 0.022 Uiso 1 1 calc R
C5 C 0.6721(2) 0.37285(19) 0.05737(18) 0.0190(3) Uani 1 1 d .
H5 H 0.7488 0.3166 -0.0298 0.023 Uiso 1 1 calc R
C6 C 0.5334(2) 0.33538(19) 0.14519(18) 0.0179(3) Uani 1 1 d .
H6 H 0.5145 0.2537 0.1192 0.021 Uiso 1 1 calc R
C7 C 0.2342(2) 0.22537(18) 0.27345(18) 0.0158(3) Uani 1 1 d .
C8 C 0.1314(2) 0.28052(18) 0.18324(18) 0.0166(3) Uani 1 1 d .
H8 H 0.0640 0.3822 0.1846 0.020 Uiso 1 1 calc R
C9 C 0.1314(2) 0.1807(2) 0.09084(18) 0.0206(3) Uani 1 1 d .
H9 H 0.0658 0.2137 0.0253 0.025 Uiso 1 1 calc R
C10 C 0.2269(3) 0.0329(2) 0.0939(2) 0.0255(4) Uani 1 1 d .
H10 H 0.2243 -0.0346 0.0312 0.031 Uiso 1 1 calc R
C11 C 0.3262(3) -0.0181(2) 0.1871(2) 0.0286(4) Uani 1 1 d .
H11 H 0.3897 -0.1198 0.1882 0.034 Uiso 1 1 calc R
C12 C 0.3332(3) 0.07901(19) 0.2788(2) 0.0224(4) Uani 1 1 d .
H12 H 0.4026 0.0464 0.3421 0.027 Uiso 1 1 calc R
C13 C 0.3242(2) 0.62872(18) 0.44977(17) 0.0152(3) Uani 1 1 d .
C14 C 0.2125(3) 0.8522(2) 0.5874(2) 0.0249(4) Uani 1 1 d .
H14A H 0.0802 0.8836 0.5933 0.037 Uiso 1 1 calc R
H14B H 0.2415 0.9376 0.5886 0.037 Uiso 1 1 calc R
H14C H 0.2353 0.7999 0.6668 0.037 Uiso 1 1 calc R
F1 F 0.02017(16) 0.25393(15) 0.61282(12) 0.0329(3) Uani 1 1 d .
F2 F 0.29356(14) 0.16442(12) 0.66419(12) 0.0264(2) Uani 1 1 d .
F3 F 0.03704(16) 0.13381(11) 0.80309(11) 0.0252(2) Uani 1 1 d .
F4 F 0.04119(17) 0.35784(12) 0.80114(13) 0.0312(3) Uani 1 1 d .
B1 B 0.0976(3) 0.2271(2) 0.7214(2) 0.0167(3) Uani 1 1 d .
loop_
_atom_site_aniso_label
_atom_site_aniso_U_11
_atom_site_aniso_U_22
_atom_site_aniso_U_33
_atom_site_aniso_U_23
_atom_site_aniso_U_13
_atom_site_aniso_U_12
Br1 0.01784(8) 0.02044(9) 0.01280(8) 0.00070(6) -0.00135(6) -0.01087(6)
O1 0.0206(6) 0.0184(6) 0.0218(6) -0.0045(5) 0.0001(5) -0.0090(5)
O2 0.0204(6) 0.0210(6) 0.0133(6) 0.0019(5) -0.0036(5) -0.0084(5)
C1 0.0117(6) 0.0187(8) 0.0127(7) 0.0027(6) -0.0025(5) -0.0066(6)
C2 0.0118(6) 0.0155(7) 0.0143(7) 0.0026(6) -0.0050(6) -0.0045(6)
C3 0.0126(7) 0.0184(8) 0.0199(8) 0.0033(6) -0.0051(6) -0.0070(6)
C4 0.0146(7) 0.0216(8) 0.0182(8) 0.0055(7) -0.0035(6) -0.0073(6)
C5 0.0143(7) 0.0221(8) 0.0164(8) 0.0003(7) -0.0014(6) -0.0057(7)
C6 0.0146(7) 0.0181(8) 0.0183(8) -0.0021(6) -0.0022(6) -0.0060(6)
C7 0.0152(7) 0.0151(7) 0.0170(8) 0.0009(6) -0.0035(6) -0.0071(6)
C8 0.0148(7) 0.0141(7) 0.0173(8) 0.0016(6) -0.0031(6) -0.0039(6)
C9 0.0180(7) 0.0235(9) 0.0185(8) -0.0024(7) -0.0040(6) -0.0077(7)
C10 0.0251(9) 0.0217(9) 0.0259(10) -0.0074(7) 0.0008(7) -0.0118(8)
C11 0.0277(9) 0.0121(8) 0.0379(12) 0.0003(8) -0.0048(8) -0.0039(7)
C12 0.0219(8) 0.0163(8) 0.0266(10) 0.0060(7) -0.0085(7) -0.0051(7)
C13 0.0131(7) 0.0167(7) 0.0164(8) 0.0014(6) -0.0073(6) -0.0050(6)
C14 0.0239(9) 0.0212(9) 0.0237(9) -0.0067(7) 0.0000(7) -0.0086(7)
F1 0.0293(6) 0.0528(8) 0.0272(6) 0.0168(6) -0.0163(5) -0.0226(6)
F2 0.0141(5) 0.0236(6) 0.0362(7) 0.0010(5) -0.0053(4) -0.0044(4)
F3 0.0377(6) 0.0216(5) 0.0173(5) 0.0018(4) -0.0011(5) -0.0187(5)
F4 0.0347(6) 0.0179(5) 0.0327(7) -0.0064(5) 0.0033(5) -0.0123(5)
B1 0.0163(8) 0.0159(8) 0.0166(9) 0.0019(7) -0.0032(7) -0.0068(7)
loop_
_atom_type_symbol
_atom_type_description
_atom_type_scat_dispersion_real
_atom_type_scat_dispersion_imag
_atom_type_scat_source
C C 0.0033 0.0016 'International Tables Vol C Tables 4.2.6.8 and 6.1.1.4'
H H 0.0000 0.0000 'International Tables Vol C Tables 4.2.6.8 and 6.1.1.4'
B B 0.0013 0.0007 'International Tables Vol C Tables 4.2.6.8 and 6.1.1.4'
O O 0.0106 0.0060 'International Tables Vol C Tables 4.2.6.8 and 6.1.1.4'
F F 0.0171 0.0103 'International Tables Vol C Tables 4.2.6.8 and 6.1.1.4'
Br Br -0.2901 2.4595 'International Tables Vol C Tables 4.2.6.8 and 6.1.1.4'
loop_
_geom_angle_atom_site_label_1
_geom_angle_atom_site_label_2
_geom_angle_atom_site_label_3
_geom_angle
C7 Br1 C1 98.99(7)
C13 O1 C14 116.40(13)
C6 C1 C2 123.16(14)
C6 C1 Br1 118.80(12)
C2 C1 Br1 118.02(12)
C1 C2 C3 117.27(15)
C1 C2 C13 120.73(14)
C3 C2 C13 121.92(14)
C4 C3 C2 120.56(15)
C4 C3 H3 119.7
C2 C3 H3 119.7
C3 C4 C5 120.78(15)
C3 C4 H4 119.6
C5 C4 H4 119.6
C4 C5 C6 119.97(16)
C4 C5 H5 120.0
C6 C5 H5 120.0
C1 C6 C5 118.24(15)
C1 C6 H6 120.9
C5 C6 H6 120.9
C12 C7 C8 124.71(16)
C12 C7 Br1 118.26(13)
C8 C7 Br1 117.03(12)
C7 C8 C9 117.04(16)
C7 C8 H8 121.5
C9 C8 H8 121.5
C10 C9 C8 120.11(17)
C10 C9 H9 119.9
C8 C9 H9 119.9
C9 C10 C11 121.11(17)
C9 C10 H10 119.4
C11 C10 H10 119.4
C10 C11 C12 120.31(18)
C10 C11 H11 119.8
C12 C11 H11 119.8
C7 C12 C11 116.69(17)
C7 C12 H12 121.7
C11 C12 H12 121.7
O2 C13 O1 124.94(16)
O2 C13 C2 122.94(15)
O1 C13 C2 112.10(14)
O1 C14 H14A 109.5
O1 C14 H14B 109.5
H14A C14 H14B 109.5
O1 C14 H14C 109.5
H14A C14 H14C 109.5
H14B C14 H14C 109.5
F3 B1 F4 109.82(14)
F3 B1 F2 110.36(15)
F4 B1 F2 109.37(14)
F3 B1 F1 109.60(14)
F4 B1 F1 109.35(16)
F2 B1 F1 108.31(15)
loop_
_geom_bond_atom_site_label_1
_geom_bond_atom_site_label_2
_geom_bond_distance
Br1 C7 1.9210(16)
Br1 C1 1.9497(15)
O1 C13 1.3248(19)
O1 C14 1.453(2)
O2 C13 1.2147(19)
C1 C6 1.380(2)
C1 C2 1.395(2)
C2 C3 1.399(2)
C2 C13 1.485(2)
C3 C4 1.384(2)
C3 H3 0.9500
C4 C5 1.386(2)
C4 H4 0.9500
C5 C6 1.398(2)
C5 H5 0.9500
C6 H6 0.9500
C7 C12 1.382(2)
C7 C8 1.385(2)
C8 C9 1.386(2)
C8 H8 0.9500
C9 C10 1.386(3)
C9 H9 0.9500
C10 C11 1.387(3)
C10 H10 0.9500
C11 C12 1.390(3)
C11 H11 0.9500
C12 H12 0.9500
C14 H14A 0.9800
C14 H14B 0.9800
C14 H14C 0.9800
F1 B1 1.398(2)
F2 B1 1.397(2)
F3 B1 1.386(2)
F4 B1 1.391(2)
loop_
_geom_hbond_atom_site_label_D
_geom_hbond_atom_site_label_H
_geom_hbond_atom_site_label_A
_geom_hbond_distance_DH
_geom_hbond_distance_HA
_geom_hbond_distance_DA
_geom_hbond_angle_DHA
_geom_hbond_site_symmetry_A
C8 H8 F4 0.95 2.40 3.334(2) 166.0 2_566
C12 H12 F2 0.95 2.53 3.270(2) 135.0 2_656
C14 H14B F3 0.98 2.61 3.164(2) 116.1 1_565
loop_
_geom_torsion_atom_site_label_1
_geom_torsion_atom_site_label_2
_geom_torsion_atom_site_label_3
_geom_torsion_atom_site_label_4
_geom_torsion
C7 Br1 C1 C6 -14.38(15)
C7 Br1 C1 C2 167.21(13)
C6 C1 C2 C3 -2.1(2)
Br1 C1 C2 C3 176.21(12)
C6 C1 C2 C13 -179.06(15)
Br1 C1 C2 C13 -0.7(2)
C1 C2 C3 C4 1.2(2)
C13 C2 C3 C4 178.09(15)
C2 C3 C4 C5 0.4(3)
C3 C4 C5 C6 -1.1(3)
C2 C1 C6 C5 1.4(3)
Br1 C1 C6 C5 -176.90(13)
C4 C5 C6 C1 0.2(3)
C1 Br1 C7 C12 101.04(14)
C1 Br1 C7 C8 -78.61(13)
C12 C7 C8 C9 -1.0(2)
Br1 C7 C8 C9 178.61(12)
C7 C8 C9 C10 1.8(2)
C8 C9 C10 C11 -1.0(3)
C9 C10 C11 C12 -0.6(3)
C8 C7 C12 C11 -0.6(3)
Br1 C7 C12 C11 179.82(13)
C10 C11 C12 C7 1.4(3)
C14 O1 C13 O2 -4.2(2)
C14 O1 C13 C2 177.00(14)
C1 C2 C13 O2 15.0(2)
C3 C2 C13 O2 -161.80(16)
C1 C2 C13 O1 -166.21(15)
C3 C2 C13 O1 17.0(2)
