#------------------------------------------------------------------------------
#$Date: 2017-09-12 07:01:55 +0300 (Tue, 12 Sep 2017) $
#$Revision: 200727 $
#$URL: file:///home/coder/svn-repositories/cod/cif/1/54/67/1546792.cif $
#------------------------------------------------------------------------------
#
# This file is available in the Crystallography Open Database (COD),
# http://www.crystallography.net/
#
# All data on this site have been placed in the public domain by the
# contributors.
#
data_1546792
loop_
_publ_author_name
'Meng, Guangrong'
'Lalancette, Roger'
'Szostak, Roman'
'Szostak, Michal'
_publ_section_title
;
 N-Methylamino Pyrimidyl Amides (MAPA): Highly Reactive,
 Electronically-Activated Amides in Catalytic N-C(O) Cleavage.
;
_journal_issue                   17
_journal_name_full               'Organic letters'
_journal_page_first              4656
_journal_page_last               4659
_journal_paper_doi               10.1021/acs.orglett.7b02288
_journal_volume                  19
_journal_year                    2017
_chemical_formula_moiety         'C13 H13 N3 O'
_chemical_formula_sum            'C13 H13 N3 O'
_chemical_formula_weight         227.26
_space_group_crystal_system      triclinic
_space_group_IT_number           2
_space_group_name_Hall           '-P 1'
_space_group_name_H-M_alt        'P -1'
_symmetry_space_group_name_Hall  '-P 1'
_symmetry_space_group_name_H-M   'P -1'
_atom_sites_solution_hydrogens   geom
_atom_sites_solution_primary     direct
_atom_sites_solution_secondary   difmap
_audit_creation_method           SHELXL-2014/7
_cell_angle_alpha                98.93(2)
_cell_angle_beta                 102.72(3)
_cell_angle_gamma                107.148(17)
_cell_formula_units_Z            2
_cell_length_a                   6.0966(16)
_cell_length_b                   8.7275(19)
_cell_length_c                   11.867(4)
_cell_measurement_reflns_used    4649
_cell_measurement_temperature    100(2)
_cell_measurement_theta_max      69.07
_cell_measurement_theta_min      3.93
_cell_volume                     571.9(3)
_computing_cell_refinement       'APEX 2'
_computing_data_collection       'APEX 2 (Bruker, 2006)'
_computing_data_reduction        'SAINT (Bruker, 2005)'
_computing_molecular_graphics    SHELXTL
_computing_publication_material  SHELXTL
_computing_structure_refinement  'SHELXL-2014/7 (Sheldrick, 2014)'
_computing_structure_solution    'SHELXL-2014/7 (Sheldrick, 2014)'
_diffrn_ambient_temperature      100(2)
_diffrn_measured_fraction_theta_full 0.920
_diffrn_measured_fraction_theta_max 0.896
_diffrn_measurement_device_type  'Bruker SMART CCD Apex-II area-detector'
_diffrn_measurement_method       '\f and \w'
_diffrn_radiation_monochromator  graphite
_diffrn_radiation_source         'fine-focus sealed tube'
_diffrn_radiation_type           CuK\a
_diffrn_radiation_wavelength     1.54178
_diffrn_reflns_av_R_equivalents  0.0288
_diffrn_reflns_av_unetI/netI     0.0215
_diffrn_reflns_Laue_measured_fraction_full 0.920
_diffrn_reflns_Laue_measured_fraction_max 0.896
_diffrn_reflns_limit_h_max       7
_diffrn_reflns_limit_h_min       -7
_diffrn_reflns_limit_k_max       10
_diffrn_reflns_limit_k_min       -10
_diffrn_reflns_limit_l_max       13
_diffrn_reflns_limit_l_min       -14
_diffrn_reflns_number            5382
_diffrn_reflns_point_group_measured_fraction_full 0.920
_diffrn_reflns_point_group_measured_fraction_max 0.896
_diffrn_reflns_theta_full        67.684
_diffrn_reflns_theta_max         69.184
_diffrn_reflns_theta_min         3.930
_exptl_absorpt_coefficient_mu    0.699
_exptl_absorpt_correction_T_max  0.919
_exptl_absorpt_correction_T_min  0.835
_exptl_absorpt_correction_type   numerical
_exptl_absorpt_process_details   'SADABS (Sheldrick, 2008a)'
_exptl_crystal_colour            colourless
_exptl_crystal_density_diffrn    1.320
_exptl_crystal_description       block
_exptl_crystal_F_000             240
_exptl_crystal_size_max          0.310
_exptl_crystal_size_mid          0.305
_exptl_crystal_size_min          0.284
_refine_diff_density_max         0.173
_refine_diff_density_min         -0.151
_refine_diff_density_rms         0.038
_refine_ls_extinction_coef       0.0134(12)
_refine_ls_extinction_expression Fc^*^=kFc[1+0.001xFc^2^\l^3^/sin(2\q)]^-1/4^
_refine_ls_extinction_method     'SHELXL-2014/7 (Sheldrick 2014'
_refine_ls_goodness_of_fit_ref   1.018
_refine_ls_hydrogen_treatment    constr
_refine_ls_matrix_type           full
_refine_ls_number_parameters     157
_refine_ls_number_reflns         1923
_refine_ls_number_restraints     0
_refine_ls_restrained_S_all      1.018
_refine_ls_R_factor_all          0.0332
_refine_ls_R_factor_gt           0.0322
_refine_ls_shift/su_max          0.000
_refine_ls_shift/su_mean         0.000
_refine_ls_structure_factor_coef Fsqd
_refine_ls_weighting_details
'w=1/[\s^2^(Fo^2^)+(0.0408P)^2^+0.2486P] where P=(Fo^2^+2Fc^2^)/3'
_refine_ls_weighting_scheme      calc
_refine_ls_wR_factor_gt          0.0835
_refine_ls_wR_factor_ref         0.0843
_reflns_Friedel_coverage         0.000
_reflns_number_gt                1848
_reflns_number_total             1923
_reflns_threshold_expression     'I > 2\s(I)'
_cod_data_source_file            ol7b02288_si_002.cif
_cod_data_source_block           170413RAL_MENG_PYRIMIDINE_100K_0m_a
_cod_depositor_comments          'Adding full bibliography for 1546792.cif.'
_cod_database_code               1546792
_shelx_shelxl_version_number     2014/7
_shelx_space_group_comment
;
The symmetry employed for this shelxl refinement is uniquely defined
by the following loop, which should always be used as a source of
symmetry information in preference to the above space-group names.
They are only intended as comments.
;
_shelx_res_file
;

    170413RAL_MENG_PYRIMIDINE_100K_0m_a.res created by SHELXL-2014/7

TITL 170413RAL_MENG_PYRIMIDINE_100K_0m_a.res in P-1
CELL  1.54184   6.0966   8.7275  11.8667   98.928  102.720  107.148
ZERR    2.000   0.0016   0.0019   0.0042    0.022    0.034    0.017
LATT 1
SFAC C  H  N  O
UNIT 26  26  2  6
L.S. 10
ACTA
BOND $H
FMAP 2
PLAN 2
TEMP -173.140
WGHT    0.040800    0.248600
EXTI    0.013438
FVAR       1.27478
O1    4    1.002313    0.614413    0.830120    11.00000    0.02006    0.01374 =
         0.02360    0.00456    0.00328    0.00250
N1    3    0.966714    0.356725    0.855961    11.00000    0.01173    0.01344 =
         0.01801    0.00322    0.00284    0.00312
N2    3    0.590231    0.188298    0.856186    11.00000    0.01395    0.01691 =
         0.01526    0.00344    0.00411    0.00553
N3    3    0.909645    0.081783    0.857780    11.00000    0.01546    0.01530 =
         0.02043    0.00382    0.00524    0.00608
C2    1    0.813332    0.200086    0.855139    11.00000    0.01333    0.01412 =
         0.01215    0.00207    0.00246    0.00410
C4    1    0.665113    0.397183    0.698855    11.00000    0.01615    0.01433 =
         0.01720    0.00653    0.00546    0.00391
C11   1    0.447082    0.038342    0.853256    11.00000    0.01332    0.01939 =
         0.01529    0.00274    0.00418    0.00362
AFIX  43
H11   2    0.285162    0.022720    0.851165    11.00000   -1.20000
AFIX   0
C1    1    0.887757    0.466369    0.801001    11.00000    0.01613    0.01531 =
         0.01686    0.00414    0.00805    0.00574
C13   1    0.762252   -0.066283    0.857693    11.00000    0.01980    0.01440 =
         0.02137    0.00465    0.00572    0.00750
AFIX  43
H13   2    0.823326   -0.154355    0.860887    11.00000   -1.20000
AFIX   0
C9    1    0.495933    0.475006    0.687653    11.00000    0.02076    0.01444 =
         0.01943    0.00367    0.00560    0.00666
AFIX  43
H9    2    0.522914    0.572979    0.744508    11.00000   -1.20000
AFIX   0
C5    1    0.628932    0.258810    0.611375    11.00000    0.01967    0.01777 =
         0.01944    0.00537    0.00628    0.00843
AFIX  43
H5    2    0.745272    0.205923    0.616687    11.00000   -1.20000
AFIX   0
C3    1    1.217256    0.408596    0.927229    11.00000    0.01194    0.01661 =
         0.01945    0.00281    0.00216    0.00339
AFIX 137
H3A   2    1.310066    0.368420    0.879498    11.00000   -1.50000
H3B   2    1.225525    0.362644    0.997711    11.00000   -1.50000
H3C   2    1.283325    0.529329    0.952022    11.00000   -1.50000
AFIX   0
C12   1    0.524662   -0.095831    0.853133    11.00000    0.01822    0.01464 =
         0.01940    0.00343    0.00572    0.00250
AFIX  43
H12   2    0.420062   -0.202390    0.850078    11.00000   -1.20000
AFIX   0
C6    1    0.423250    0.198119    0.516506    11.00000    0.02445    0.01810 =
         0.01548    0.00247    0.00529    0.00603
AFIX  43
H6    2    0.402270    0.105186    0.456365    11.00000   -1.20000
AFIX   0
C8    1    0.287635    0.411020    0.594138    11.00000    0.01868    0.02108 =
         0.02269    0.00885    0.00554    0.00931
AFIX  43
H8    2    0.171183    0.463799    0.589110    11.00000   -1.20000
AFIX   0
C7    1    0.246944    0.270397    0.507499    11.00000    0.01881    0.02101 =
         0.01708    0.00895    0.00491    0.00369
C10   1    0.020436    0.199928    0.405936    11.00000    0.02174    0.02940 =
         0.01913    0.00592    0.00149    0.00547
AFIX 137
H10A  2   -0.110200    0.224250    0.431773    11.00000   -1.50000
H10B  2   -0.020354    0.080156    0.380989    11.00000   -1.50000
H10C  2    0.044658    0.249581    0.339042    11.00000   -1.50000
AFIX   0
HKLF 4

REM  170413RAL_MENG_PYRIMIDINE_100K_0m_a.res in P-1
REM R1 =  0.0322 for    1848 Fo > 4sig(Fo)  and  0.0332 for all    1923 data
REM    157 parameters refined using      0 restraints

END

WGHT      0.0400      0.2232

REM Highest difference peak  0.173,  deepest hole -0.151,  1-sigma level  0.038
Q1    1  -0.1194  0.1237  0.4221  11.00000  0.05    0.17
Q2    1   0.2478  0.3160  0.5634  11.00000  0.05    0.17
;
_shelx_res_checksum              33641
_shelx_hkl_file
;
  -1   0   0    3.85    0.36
  -1   0   0    3.62    0.35
  -1   0   0    3.86    0.30
  -1   0   0    3.76    0.29
   1   0   0    3.42    0.26
   1   0   0    3.68    0.23
  -2   0   0  765.01   23.38
  -2   0   0  755.38   22.68
  -2   0   0  759.19   22.99
   2   0   0  759.00   22.67
  -3   0   0   49.08    2.54
  -3   0   0   50.54    1.72
  -3   0   0   51.34    2.26
  -3   0   0   48.10    2.21
   3   0   0   48.67    2.49
   3   0   0   49.93    2.04
  -4   0   0  374.64   11.55
  -4   0   0  385.52   11.45
   4   0   0  367.47   11.45
   4   0   0  380.14   12.96
  -5   0   0   74.53    2.94
  -5   0   0   77.68    2.90
  -5   0   0   75.34    2.79
  -5   0   0   78.70    3.28
   5   0   0   73.96    2.74
  -6   0   0    3.76    0.49
  -6   0   0    4.89    0.74
  -6   0   0    4.46    0.59
  -6   1   0  359.85   11.16
  -6   1   0  355.14   11.15
  -6   1   0  363.03   11.54
  -5   1   0  312.71   10.08
  -5   1   0  310.35    9.48
  -5   1   0  303.55    9.72
  -5   1   0  298.50    9.64
   4  -1   0  199.92    6.69
   4  -1   0  197.52    7.61
  -4   1   0  196.14    6.35
  -4   1   0  205.46    6.18
  -4   1   0  185.32    8.82
  -4   1   0  207.05    6.98
   3  -1   0 1901.53   55.88
   3  -1   0 1834.20   55.22
  -3   1   0 1768.55   54.30
  -3   1   0 1890.77   55.23
  -3   1   0 1832.97   54.80
  -3   1   0 1887.04   56.68
   2  -1   0   66.06    2.11
  -2   1   0   68.47    2.60
  -2   1   0   67.51    2.42
  -2   1   0   64.96    2.22
  -2   1   0   66.61    2.25
  -2   1   0   63.27    2.26
  -2   1   0   64.26    2.65
  -1   1   0  590.84   18.58
  -1   1   0  658.42   19.44
  -1   1   0  664.32   19.18
  -1   1   0  609.48   18.70
   0  -1   0  315.85   10.09
   0  -1   0  333.86    9.62
   0  -1   0  326.94    9.78
   0  -1   0  319.51    9.85
   0   1   0  317.90    9.68
   0   1   0  335.33    9.72
   0   1   0  324.65    9.75
  -1  -1   0  461.78   13.62
  -1  -1   0  450.03   13.62
  -1  -1   0  466.79   13.70
  -1  -1   0  450.07   13.49
  -1  -1   0  450.88   13.40
   1   1   0  446.92   13.88
   1   1   0  446.48   13.62
  -2  -1   0   50.39    2.32
  -2  -1   0   52.96    2.08
  -2  -1   0   54.54    2.20
  -2  -1   0   52.75    1.76
   2   1   0   51.76    2.00
   2   1   0   51.64    2.23
  -3  -1   0   27.96    1.70
  -3  -1   0   29.88    1.18
  -3  -1   0   28.86    1.60
  -3  -1   0   30.76    1.96
   3   1   0   29.31    1.82
   3   1   0   28.52    1.50
  -4  -1   0    3.73    0.46
  -4  -1   0    3.45    0.52
  -4  -1   0    3.28    0.39
  -4  -1   0    3.21    0.58
   4   1   0    4.02    0.52
  -5  -1   0  104.69    3.72
  -5  -1   0  102.34    4.06
  -5  -1   0  111.08    3.85
   5   1   0  103.25    3.67
  -6  -1   0   14.03    0.86
  -6  -1   0   12.68    1.02
  -7   2   0   26.01    1.32
  -6   2   0    5.11    0.66
  -6   2   0    4.23    0.44
  -6   2   0    3.78    0.68
  -6   2   0    3.62    0.55
  -5   2   0  364.36   11.52
  -5   2   0  364.95   11.87
  -5   2   0  369.31   11.49
  -5   2   0  376.92   11.24
   4  -2   0  172.55    5.71
   4  -2   0  170.73    6.73
  -4   2   0  174.21    6.82
  -4   2   0  172.08    5.28
  -4   2   0  167.52    5.87
  -4   2   0  171.27    5.60
   3  -2   0   22.50    0.90
   3  -2   0   20.00    1.43
  -3   2   0   18.97    1.22
  -3   2   0   19.40    1.42
  -3   2   0   19.26    0.99
  -2   2   0   57.18    2.37
  -2   2   0   56.93    1.82
  -2   2   0   56.52    2.16
  -2   2   0   52.77    2.35
  -2   2   0   55.80    1.81
   1  -2   0  195.94    5.93
   1  -2   0  200.07    6.18
  -1   2   0  191.28    6.19
  -1   2   0  187.87    6.10
  -1   2   0  189.14    5.98
   0  -2   0    4.00    0.33
   0  -2   0    4.42    0.31
   0  -2   0    4.47    0.44
   0   2   0    4.50    0.39
   0   2   0    4.13    0.43
   0   2   0    4.14    0.36
  -1  -2   0   42.85    1.58
  -1  -2   0   42.50    1.85
  -1  -2   0   39.84    1.60
  -1  -2   0   41.57    1.76
   1   2   0   41.43    1.58
   1   2   0   42.97    1.61
   1   2   0   43.69    1.81
  -2  -2   0  194.96    6.31
  -2  -2   0  195.89    6.75
  -2  -2   0  192.24    5.91
  -2  -2   0  183.11    6.54
   2   2   0  192.47    6.43
   2   2   0  195.84    6.29
  -3  -2   0  616.46   20.32
  -3  -2   0  651.02   19.63
  -3  -2   0  634.40   18.91
  -4  -2   0    2.92    0.50
   4   2   0    3.09    0.50
  -5  -2   0  466.82   14.61
   5   2   0  486.75   14.50
  -6  -2   0    0.37    0.25
  -7   3   0    1.83    0.40
  -6   3   0    5.27    0.45
  -6   3   0    3.73    0.66
  -6   3   0    5.28    0.66
  -6   3   0    5.98    0.64
  -5   3   0   15.01    1.19
  -5   3   0   14.67    0.74
  -5   3   0   15.14    1.02
  -5   3   0   13.70    0.95
   4  -3   0  115.82    5.00
   4  -3   0  111.27    3.86
  -4   3   0  111.48    4.02
  -4   3   0  118.80    5.17
  -4   3   0  114.26    3.87
   3  -3   0   60.27    2.55
   3  -3   0   60.68    2.78
  -3   3   0   59.75    2.09
  -3   3   0   59.76    2.61
  -3   3   0   55.63    2.84
   2  -3   0  933.26   28.88
   2  -3   0  978.23   29.07
  -2   3   0  986.08   29.39
  -2   3   0  992.38   29.15
   1  -3   0 1553.43   49.80
   1  -3   0 1494.44   46.80
   1  -3   0 1586.74   47.54
  -1   3   0 1704.03   49.31
  -1   3   0 1672.09   48.01
  -1   3   0 1515.60   47.37
   0  -3   0  219.60    7.18
   0  -3   0  215.96    6.73
   0   3   0  220.19    7.02
   0   3   0  221.80    7.14
  -1  -3   0    5.64    0.47
  -1  -3   0    5.65    0.68
   1   3   0    5.45    0.63
   1   3   0    6.15    0.37
  -2  -3   0  127.20    5.06
  -3  -3   0  709.18   21.36
   3   3   0  713.97   21.30
  -4  -3   0  651.95   19.57
   4   3   0  637.95   19.44
  -5  -3   0    5.15    0.62
   5   3   0    5.39    0.64
  -7   4   0    8.15    0.71
  -6   4   0  100.27    3.40
  -6   4   0  100.13    3.91
  -6   4   0  105.55    3.71
  -5   4   0   15.28    1.00
  -5   4   0   14.68    1.15
  -5   4   0   17.18    1.08
  -5   4   0   13.92    0.69
   4  -4   0  740.36   23.89
  -4   4   0  774.14   22.66
   3  -4   0  584.09   18.74
   3  -4   0  601.59   18.48
   3  -4   0  601.66   19.06
  -3   4   0  607.71   19.17
  -3   4   0  610.51   18.72
   2  -4   0  402.38   12.66
   2  -4   0  362.49   12.09
  -2   4   0  401.95   12.59
  -2   4   0  405.41   11.86
   1  -4   0  140.88    5.07
   1  -4   0  134.69    4.54
  -1   4   0  140.88    5.06
  -1   4   0  135.04    4.18
  -1   4   0  142.00    4.67
   0  -4   0  134.25    4.88
   0   4   0  126.21    4.07
   0   4   0  132.25    4.70
   0   4   0  130.70    4.83
  -1  -4   0  944.93   28.62
   1   4   0  924.43   27.56
   2   4   0    0.83    0.28
  -3  -4   0  106.49    3.80
   3   4   0  106.28    3.74
  -4  -4   0    9.40    0.84
   4   4   0   10.01    0.86
  -5  -4   0    0.36    0.25
   5   4   0    0.23    0.28
  -6   5   0   58.47    2.38
  -5   5   0 1598.92   47.97
  -5   5   0 1642.04   47.94
  -4   5   0    1.17    0.38
  -4   5   0    1.71    0.32
   3  -5   0  113.16    4.89
  -3   5   0  119.07    4.80
   2  -5   0   62.79    3.04
  -2   5   0   59.93    2.97
  -2   5   0   61.31    2.38
   1  -5   0  123.04    4.89
  -1   5   0  119.80    3.88
  -1   5   0  127.31    4.53
  -1   5   0  126.04    4.96
   0  -5   0  700.95   21.67
   0   5   0  695.42   20.45
   0   5   0  676.80   21.34
   0   5   0  683.60   21.51
   1   5   0    7.67    0.63
   1   5   0    8.67    0.57
  -2  -5   0    9.50    0.80
   2   5   0   10.06    0.59
   2   5   0   10.36    0.78
  -3  -5   0  448.68   13.81
   3   5   0  446.40   13.73
  -4  -5   0   36.56    1.64
   4   5   0   37.75    1.62
  -6   6   0   13.46    0.87
  -5   6   0   74.63    3.31
  -4   6   0   32.95    1.64
  -3   6   0    2.91    0.88
  -3   6   0    1.88    0.43
  -2   6   0  217.14    6.55
  -2   6   0  211.23    8.03
  -1   6   0    3.32    0.34
  -1   6   0    3.34    0.77
   0  -6   0  381.98   12.97
   0   6   0  400.76   11.84
   0   6   0  380.80   12.31
  -1  -6   0   -0.16    0.33
   1   6   0    0.07    0.13
   1   6   0    0.13    0.25
   1   6   0    0.37    0.32
  -2  -6   0  145.27    4.89
   2   6   0  140.54    4.83
   2   6   0  142.00    4.51
  -3  -6   0   46.33    1.97
   3   6   0   45.77    1.91
  -4  -6   0    5.74    0.50
  -4   7   0    0.54    0.38
  -3   7   0   81.52    3.36
  -3   7   0   84.14    2.75
  -2   7   0  748.06   22.12
  -2   7   0  742.16   22.88
  -1   7   0  173.23    5.55
  -1   7   0  170.46    6.12
  -1   7   0  172.49    5.89
   0   7   0  377.49   12.52
   0   7   0  398.94   12.34
   0   7   0  391.93   12.00
   0   7   0  396.81   12.00
  -1  -7   0    6.06    0.71
   1   7   0    6.31    0.52
   1   7   0    6.86    0.81
   1   7   0    6.90    0.67
  -2  -7   0   48.60    1.97
   2   7   0   44.01    1.89
  -3  -7   0   26.62    1.20
   3   7   0   25.11    1.13
  -4   8   0   21.15    1.26
  -3   8   0   64.81    2.86
  -3   8   0   63.80    2.26
  -3   8   0   63.11    2.63
  -2   8   0  329.14   10.07
  -2   8   0  331.49   10.79
  -2   8   0  323.03   10.49
  -1   8   0  237.04    7.80
  -1   8   0  232.85    7.49
  -1   8   0  239.95    8.12
   0  -8   0   30.81    1.48
   0   8   0   26.78    1.28
   0   8   0   28.52    1.70
  -1  -8   0   34.35    1.57
   1   8   0   35.58    1.37
  -2  -8   0   40.65    1.64
  -3   9   0   30.29    1.55
  -3   9   0   33.48    1.74
  -2   9   0   30.79    1.77
  -2   9   0   32.60    1.62
   1  -9   0    7.87    0.72
  -1   9   0    7.88    0.85
  -1   9   0    7.20    0.55
   0  -9   0  137.20    4.55
   0   9   0  138.49    4.87
   0   9   0  139.79    4.42
  -1  -9   0   11.79    0.69
  -3  10   0  106.82    3.75
   2 -10   0    0.79    0.27
  -2  10   0    0.76    0.17
  -2  10   0    1.63    0.39
   1 -10   0    1.26    0.31
  -1  10   0    0.97    0.32
  -1  10   0    1.06    0.18
  -1  10  -1    0.19    0.26
  -1  10  -1    0.40    0.13
   1 -10   1    0.27    0.30
  -2  10  -1   67.30    2.68
  -3  10  -1   56.06    2.28
  -1  -9   1   21.70    1.02
   0   9  -1   15.60    0.79
   0   9  -1   14.38    1.06
   0  -9   1   14.72    0.88
  -1   9  -1   25.89    1.20
  -1   9  -1   26.73    1.61
   1  -9   1   26.50    1.29
  -2   9  -1  588.44   18.00
  -2   9  -1  569.58   17.60
  -3   9  -1   77.38    3.16
   2   8  -1   47.00    1.83
  -2  -8   1   50.84    1.94
   1   8  -1   86.19    2.93
   1   8  -1   80.75    3.01
  -1  -8   1   90.32    3.13
   0   8  -1    6.48    0.55
   0   8  -1    6.63    0.55
   0   8  -1    7.31    0.88
   0  -8   1    6.80    0.72
  -1   8  -1  739.05   22.36
  -1   8  -1  720.47   21.63
  -1   8  -1  712.24   21.96
  -2   8  -1  647.47   19.98
  -2   8  -1  670.04   19.59
  -2   8  -1  649.08   20.31
  -3   8  -1   97.69    3.20
  -3   8  -1   96.38    3.84
   3   7  -1  133.77    4.38
  -3  -7   1  135.48    4.45
   2   7  -1  348.97   10.72
  -2  -7   1  343.71   10.75
   1   7  -1   36.58    1.92
   1   7  -1   36.53    1.54
   1   7  -1   35.61    1.66
  -1  -7   1   36.23    1.70
   0   7  -1  535.89   16.20
   0   7  -1  500.01   16.00
   0   7  -1  540.31   15.89
   0   7  -1  523.70   16.48
  -1   7  -1   12.74    0.98
  -1   7  -1   12.46    0.74
  -1   7  -1   12.18    1.08
  -2   7  -1    1.52    0.26
  -2   7  -1    1.34    0.46
  -2   7  -1    2.99    0.52
  -3   7  -1    1.53    0.46
   4   6  -1    8.13    0.61
  -4  -6   1    8.72    0.63
   3   6  -1  207.72    6.79
  -3  -6   1  215.61    6.89
   2   6  -1    0.05    0.13
   2   6  -1    0.42    0.33
  -2  -6   1   -0.01    0.27
   1   6  -1    8.50    0.59
   1   6  -1    6.87    0.66
   1   6  -1    7.21    0.68
   1   6  -1    8.04    0.84
  -1  -6   1    9.31    0.78
  -1   6  -1  157.51    4.87
  -1   6  -1  155.60    5.62
  -1   6  -1  154.50    6.16
   1  -6   1  150.26    6.05
  -2   6  -1    1.42    0.62
  -2   6  -1    2.99    0.28
   2  -6   1    1.18    0.49
  -3   6  -1   17.23    1.56
   4   5  -1   75.66    2.75
  -4  -5   1   72.50    2.79
   3   5  -1   25.28    1.38
  -3  -5   1   25.61    1.40
   2   5  -1   74.99    2.81
   2   5  -1   76.35    2.62
  -2  -5   1   75.21    2.83
   1   5  -1   12.78    0.71
  -1  -5   1   12.39    1.90
   0   5  -1  123.99    3.99
   0   5  -1  125.07    4.71
   0  -5   1  125.64    4.88
   0  -5   1  125.46    4.98
  -1   5  -1   49.53    2.14
  -1   5  -1   49.15    1.66
  -1   5  -1   47.41    2.51
   1  -5   1   51.21    2.51
  -2   5  -1  188.45    6.02
  -2   5  -1  192.36    6.91
   2  -5   1  186.95    6.83
  -3   5  -1   91.47    3.92
   3  -5   1   88.87    4.01
  -5   5  -1  764.76   23.03
  -6   5  -1    0.90    0.31
  -6   5  -1    0.99    0.39
   5   4  -1  168.96    5.36
  -5  -4   1  167.20    5.44
   4   4  -1    3.49    0.55
  -4  -4   1    3.18    0.55
   3   4  -1  547.14   16.65
  -3  -4   1  550.77   16.71
   2   4  -1   34.50    1.49
   1   4  -1 1213.51   35.87
   1   4  -1 1177.76   36.68
  -1  -4   1 1306.62   36.65
  -1  -4   1 1186.01   36.80
   0   4  -1  136.73    4.83
   0   4  -1  136.87    5.03
   0   4  -1  139.14    4.28
   0  -4   1  141.98    5.02
  -1   4  -1  318.21   10.32
  -1   4  -1  324.22    9.81
   1  -4   1  310.55   10.20
  -2   4  -1 2606.32   75.46
   2  -4   1 2490.54   76.38
   2  -4   1 2520.46   75.13
  -3   4  -1    1.84    0.57
   3  -4   1    0.49    0.33
   3  -4   1    0.68    0.39
   3  -4   1    1.63    0.44
  -4   4  -1  315.40    9.85
   4  -4   1  320.39   11.14
  -5   4  -1    7.43    0.86
  -5   4  -1    6.87    0.44
  -5   4  -1   10.60    0.80
  -6   4  -1   30.43    1.72
  -6   4  -1   33.40    1.56
   5   3  -1   25.71    1.29
  -5  -3   1   25.08    1.33
   4   3  -1 1346.18   39.55
  -4  -3   1 1325.88   39.67
   3   3  -1   46.50    1.87
  -2  -3   1  478.12   15.32
   1   3  -1  563.70   16.88
   1   3  -1  542.90   16.25
  -1  -3   1  514.67   16.72
  -1  -3   1  564.34   16.96
  -1  -3   1  564.15   16.41
   0   3  -1   72.09    2.60
   0   3  -1   69.43    2.74
   0  -3   1   70.45    2.28
   0  -3   1   72.18    2.73
  -1   3  -1  707.87   20.93
  -1   3  -1  681.53   20.50
  -1   3  -1  710.76   20.62
  -1   3  -1  667.31   20.56
   1  -3   1  675.24   20.48
   1  -3   1  712.07   20.86
  -2   3  -1  505.38   15.41
  -2   3  -1  500.83   15.28
  -2   3  -1  505.19   15.51
  -2   3  -1  497.50   15.59
  -3   3  -1    0.90    0.42
  -3   3  -1    1.21    0.48
  -3   3  -1    0.69    0.33
  -4   3  -1   91.49    3.28
   4  -3   1   96.14    4.41
  -5   3  -1  756.42   22.48
  -5   3  -1  756.89   23.22
  -5   3  -1  763.48   22.85
  -6   3  -1   17.14    1.06
  -6   3  -1   16.78    1.26
  -6  -2   1    5.72    0.56
   5   2  -1  122.63    4.21
  -5  -2   1  124.43    4.36
   4   2  -1  123.46    4.21
  -4  -2   1  125.00    4.35
  -3  -2   1  100.12    4.35
  -3  -2   1   91.53    3.22
   2   2  -1    0.64    0.22
  -2  -2   1    0.78    0.26
  -2  -2   1    0.74    0.32
  -2  -2   1    1.54    0.46
   1   2  -1   97.87    3.37
   1   2  -1  105.65    3.36
   1   2  -1  105.37    3.56
  -1  -2   1   96.08    3.51
  -1  -2   1  104.79    3.27
  -1  -2   1  102.61    3.45
  -1  -2   1  103.09    3.58
   0   2  -1 3406.24  103.88
   0   2  -1 3371.29  117.60
   0   2  -1 3460.53  101.02
   0   2  -1 3432.63   99.94
   0  -2   1 3352.52  101.73
   0  -2   1 3286.91  108.69
   0  -2   1 3182.44  124.26
  -1   2  -1   49.77    1.93
  -1   2  -1   51.20    1.97
  -1   2  -1   55.92    2.02
  -2   2  -1  898.26   26.20
  -2   2  -1  827.92   26.09
  -2   2  -1  902.51   26.44
  -2   2  -1  892.02   26.51
  -3   2  -1    1.46    0.40
  -3   2  -1    1.84    0.59
  -3   2  -1    1.13    0.42
  -3   2  -1    1.25    0.26
   3  -2   1    1.14    0.19
  -4   2  -1   98.46    3.43
  -4   2  -1  100.79    3.17
  -4   2  -1   95.09    4.51
   4  -2   1  100.13    4.58
  -5   2  -1    4.48    0.56
  -5   2  -1    4.00    0.40
  -5   2  -1    2.92    0.60
  -6   2  -1   12.98    1.13
  -6   2  -1   13.27    0.91
  -6  -1   1   18.20    1.20
  -6  -1   1   16.67    1.02
   5   1  -1   14.61    0.93
  -5  -1   1   14.16    1.03
  -5  -1   1   14.66    1.23
   4   1  -1   47.28    2.77
   4   1  -1   47.80    1.86
  -4  -1   1   47.07    1.86
  -4  -1   1   47.67    2.29
  -4  -1   1   48.28    1.99
  -4  -1   1   45.21    1.87
   3   1  -1  117.82    4.31
   3   1  -1  123.91    4.77
  -3  -1   1  121.50    4.41
  -3  -1   1  122.08    4.63
  -3  -1   1  121.85    4.90
  -3  -1   1  126.73    3.92
   2   1  -1  277.45    8.62
   2   1  -1  275.11    8.90
  -2  -1   1  285.11    9.06
  -2  -1   1  270.71    8.65
  -2  -1   1  287.67    8.86
   1   1  -1  207.15    6.33
   1   1  -1  202.84    6.33
   1   1  -1  207.70    6.22
  -1  -1   1  203.56    6.35
  -1  -1   1  206.86    6.18
  -1  -1   1  196.41    6.39
   0   1  -1  338.75   10.69
   0   1  -1  343.97   10.82
   0  -1   1  351.01   10.82
   0  -1   1  354.50   10.66
   0  -1   1  385.23   10.91
   0  -1   1  359.65   10.63
  -1   1  -1 1672.03   53.21
  -1   1  -1 1814.36   52.27
  -1   1  -1 1689.08   51.70
  -1   1  -1 1810.59   52.61
  -1   1  -1 1791.24   52.59
  -2   1  -1    1.15    0.29
  -2   1  -1    0.53    0.29
  -2   1  -1    0.81    0.23
  -2   1  -1    0.72    0.28
   2  -1   1    1.24    0.16
  -3   1  -1   77.86    2.47
  -3   1  -1   75.82    2.94
  -3   1  -1   75.38    3.34
  -3   1  -1   82.30    3.60
  -3   1  -1   77.37    3.12
   3  -1   1   76.41    2.77
  -4   1  -1  293.68    9.27
  -4   1  -1  308.17    9.07
   4  -1   1  290.38   10.58
  -5   1  -1  683.02   21.19
  -5   1  -1  694.84   20.59
  -5   1  -1  688.05   20.96
  -5   1  -1  691.72   20.76
   5  -1   1  678.42   20.61
  -6   1  -1    1.72    0.39
  -6   1  -1    1.70    0.50
  -6   0   1   31.37    1.48
  -6   0   1   33.82    1.82
  -6   0   1   32.74    1.58
  -5   0   1    6.68    0.58
  -5   0   1    6.14    0.63
  -5   0   1    6.71    0.91
  -5   0   1    9.56    0.85
   4   0  -1   94.46    4.34
   4   0  -1   91.45    3.65
  -4   0   1   90.75    3.23
  -4   0   1   91.52    3.92
  -4   0   1   96.79    3.16
   3   0  -1   50.17    2.05
   3   0  -1   51.63    2.52
  -3   0   1   51.57    2.57
  -3   0   1   50.26    2.21
  -3   0   1   50.51    1.73
  -3   0   1   49.60    2.25
   2   0  -1  485.90   14.21
   2   0  -1  481.05   14.61
  -2   0   1  485.86   14.39
  -2   0   1  439.50   14.58
  -2   0   1  485.45   14.36
   1   0  -1 3377.25  108.42
   1   0  -1 3071.79  107.73
   1   0  -1 3422.33  123.94
  -1   0   1 3307.29  116.29
  -1   0   1 3380.00  116.48
  -1   0   1 3384.26  120.19
  -1   0   1 3369.13  112.24
   0   0  -1  332.55   10.68
   0   0  -1  350.53   10.98
   0   0  -1  343.93   10.73
   0   0  -1  370.32   10.93
   0   0  -1  351.56   10.81
   0   0  -1  407.45   11.11
   0   0   1  347.30   10.69
   0   0   1  364.99   10.89
   0   0   1  364.33   11.10
   0   0   1  356.85   10.76
  -1   0  -1  244.29    7.58
  -1   0  -1  246.80    7.56
  -1   0  -1  246.27    7.73
  -1   0  -1  250.48    7.56
  -1   0  -1  249.66    7.65
   1   0   1  259.59    7.46
   1   0   1  246.95    7.52
  -2   0  -1    0.80    0.30
  -2   0  -1    0.86    0.34
  -2   0  -1    1.42    0.34
  -2   0  -1    1.45    0.34
   2   0   1    0.68    0.18
  -3   0  -1 1324.86   40.02
  -3   0  -1 1299.32   39.44
  -3   0  -1 1316.21   39.88
  -3   0  -1 1310.54   38.69
  -3   0  -1 1296.55   39.43
   3   0   1 1366.96   39.54
  -4   0  -1    6.26    0.66
  -4   0  -1    7.40    0.53
  -4   0  -1    6.89    0.61
  -4   0  -1    6.17    0.73
   4   0   1    6.74    1.04
  -5   0  -1   45.05    1.97
  -5   0  -1   44.60    2.00
  -5   0  -1   45.44    1.88
  -5   0  -1   49.50    2.33
   5   0   1   45.59    1.90
  -6   0  -1   64.70    2.68
  -6   0  -1   65.59    2.43
  -7   1   1   40.99    1.75
  -6   1   1   13.40    0.94
  -6   1   1   13.73    0.87
  -6   1   1   14.84    1.24
  -6   1   1   14.54    1.01
  -5   1   1  224.41    6.98
  -5   1   1  222.40    7.56
  -5   1   1  220.55    7.23
  -5   1   1  213.57    7.10
   4  -1  -1  418.66   13.06
   4  -1  -1  426.83   14.05
  -4   1   1  439.15   14.20
  -4   1   1  426.39   12.52
  -4   1   1  407.95   13.51
  -4   1   1  386.11   13.23
   3  -1  -1 1153.00   34.61
   3  -1  -1 1152.79   34.59
  -3   1   1 1175.37   34.67
  -3   1   1 1135.03   34.19
  -3   1   1 1118.91   34.00
  -3   1   1 1131.20   33.48
   2  -1  -1  318.17    9.24
   2  -1  -1  318.17    9.73
  -2   1   1  293.67    9.39
  -2   1   1  322.92    9.55
  -2   1   1  289.98    9.73
  -2   1   1  316.82    9.37
  -2   1   1  300.02    9.38
   1  -1  -1 2736.14   86.12
   1  -1  -1 2887.34   82.58
   1  -1  -1 2768.56   82.94
  -1   1   1 2873.84   82.61
  -1   1   1 2895.17   83.54
  -1   1   1 2735.66   91.68
  -1   1   1 2480.02   90.12
   0  -1  -1 2880.26   79.98
   0  -1  -1 2563.16   85.51
   0  -1  -1 2587.44   79.17
   0  -1  -1 2809.87   79.13
   0   1   1 2560.88   98.16
   0   1   1 2558.51   79.26
  -1  -1  -1 1510.72   46.22
  -1  -1  -1 1631.09   46.49
  -1  -1  -1 1426.51   45.80
  -1  -1  -1 1497.74   45.66
   1   1   1 1489.10   45.86
   1   1   1 1558.61   46.29
  -2  -1  -1  383.62   12.37
  -2  -1  -1  396.09   11.64
  -2  -1  -1  398.01   12.44
  -2  -1  -1  390.60   12.10
   2   1   1  386.60   11.98
  -3  -1  -1   65.13    2.97
  -3  -1  -1   61.55    2.82
  -3  -1  -1   65.80    2.25
  -3  -1  -1   65.84    3.22
   3   1   1   62.96    2.68
   3   1   1   63.76    3.07
  -4  -1  -1   76.71    2.76
  -4  -1  -1   76.07    2.80
  -4  -1  -1   74.84    3.10
  -4  -1  -1   75.47    2.83
   4   1   1   73.41    2.74
  -5  -1  -1   24.19    1.25
  -5  -1  -1   23.99    1.49
  -5  -1  -1   23.31    1.30
   5   1   1   23.64    1.25
  -7   2   1    1.02    0.39
  -7   2   1    1.47    0.34
  -6   2   1  565.42   16.97
  -6   2   1  561.45   17.33
  -6   2   1  542.00   16.73
  -6   2   1  554.67   16.97
  -5   2   1  183.75    6.37
  -5   2   1  180.81    6.03
  -5   2   1  181.56    6.08
  -5   2   1  182.31    5.78
   4  -2  -1  215.00    7.91
   4  -2  -1  212.06    6.87
  -4   2   1  212.31    6.43
  -4   2   1  203.88    7.96
  -4   2   1  213.16    7.12
  -4   2   1  210.09    7.53
   3  -2  -1  126.83    4.08
   3  -2  -1  127.17    4.85
  -3   2   1  128.26    4.28
  -3   2   1  131.20    4.65
  -3   2   1  123.35    4.90
   2  -2  -1 1342.16   39.28
   2  -2  -1 1247.62   38.22
   2  -2  -1 1340.43   37.46
  -2   2   1 1167.22   37.78
  -2   2   1 1298.62   38.03
  -2   2   1 1213.15   37.39
  -2   2   1 1241.01   37.68
   1  -2  -1    2.97    0.31
   1  -2  -1    3.85    0.46
  -1   2   1    3.36    0.28
  -1   2   1    3.30    0.43
  -1   2   1    3.82    0.33
   0  -2  -1  439.58   13.17
   0  -2  -1  445.44   12.94
   0  -2  -1  413.55   12.97
   0   2   1  424.97   13.07
   0   2   1  435.68   13.09
  -1  -2  -1  537.91   16.70
  -1  -2  -1  560.38   16.92
  -1  -2  -1  574.31   17.03
  -1  -2  -1  557.72   16.70
   1   2   1  557.58   16.96
   1   2   1  558.21   16.68
   1   2   1  549.32   16.66
  -2  -2  -1   13.34    0.67
  -2  -2  -1   14.50    0.97
  -2  -2  -1   14.78    1.20
   2   2   1   14.18    1.06
  -3  -2  -1   83.04    3.32
  -3  -2  -1  103.65    4.62
   3   2   1   95.11    3.21
  -4  -2  -1  202.39    6.68
  -4  -2  -1  202.31    6.77
   4   2   1  206.37    6.58
  -5  -2  -1   49.83    2.13
   5   2   1   56.75    2.14
  -7   3   1   28.91    1.45
  -7   3   1   28.41    1.46
  -6   3   1   61.82    2.48
  -6   3   1   58.65    2.19
  -6   3   1   59.00    2.69
  -6   3   1   57.96    2.44
  -5   3   1    4.23    0.61
  -5   3   1    2.35    0.51
  -5   3   1    2.96    0.32
  -5   3   1    2.06    0.41
   4  -3  -1   18.68    1.61
   4  -3  -1   18.78    1.01
  -4   3   1   18.73    1.03
  -4   3   1   18.53    1.11
  -4   3   1   18.69    0.73
  -4   3   1   18.03    1.72
   3  -3  -1  121.61    4.59
   3  -3  -1  119.24    3.79
   3  -3  -1  125.13    4.37
  -3   3   1  108.80    4.69
  -3   3   1  117.23    4.39
  -3   3   1  119.64    3.97
   2  -3  -1  182.70    5.94
   2  -3  -1  178.58    6.00
  -2   3   1  183.41    6.39
  -2   3   1  174.97    6.13
  -2   3   1  189.43    5.71
   1  -3  -1  407.47   12.63
   1  -3  -1  398.01   12.27
  -1   3   1  407.59   12.59
  -1   3   1  403.02   12.28
   0  -3  -1  508.51   15.39
   0  -3  -1  531.36   15.84
   0   3   1  523.86   15.66
   0   3   1  483.56   15.65
  -1  -3  -1  122.59    4.25
  -1  -3  -1  121.79    4.66
   1   3   1  122.66    3.93
   1   3   1  128.27    4.86
   1   3   1  128.97    4.63
  -2  -3  -1  292.40    9.93
  -2  -3  -1  279.90    9.28
  -3  -3  -1  360.61   11.20
   3   3   1  362.48   11.13
  -4  -3  -1   58.41    2.38
   4   3   1   56.02    2.30
  -5  -3  -1  223.38    7.12
   5   3   1  228.81    7.10
  -7   4   1    9.97    0.84
  -7   4   1   12.18    0.74
  -6   4   1    4.75    0.66
  -6   4   1    4.62    0.41
  -6   4   1    4.94    0.75
  -6   4   1    5.24    0.64
  -5   4   1   81.83    2.75
  -5   4   1   82.11    3.17
  -5   4   1   81.66    3.31
  -5   4   1   85.47    3.17
   4  -4  -1  507.55   16.47
  -4   4   1  500.07   15.30
   3  -4  -1  157.98    5.66
   3  -4  -1  163.97    6.22
   3  -4  -1  161.00    5.05
   3  -4  -1  154.84    5.80
  -3   4   1  161.22    5.93
  -3   4   1  167.15    6.30
  -3   4   1  162.76    5.24
   2  -4  -1   14.34    1.21
   2  -4  -1   19.66    1.09
  -2   4   1   15.02    1.21
  -2   4   1   15.72    0.93
   1  -4  -1  471.66   14.40
   1  -4  -1  438.65   13.78
  -1   4   1  436.89   13.36
  -1   4   1  457.07   14.30
  -1   4   1  455.66   13.94
   0  -4  -1 1999.19   60.93
   0  -4  -1 1840.08   58.74
   0   4   1 2057.02   60.92
   0   4   1 2035.10   58.63
   0   4   1 2017.93   59.57
  -1  -4  -1    6.36    0.86
  -2  -4  -1  202.98    6.52
   2   4   1  196.98    6.36
  -3  -4  -1   18.89    1.13
   3   4   1   17.16    1.08
  -4  -4  -1    2.07    0.45
   4   4   1    2.54    0.47
  -6   5   1  258.52    8.36
  -6   5   1  264.38    8.39
  -5   5   1    5.16    0.69
  -5   5   1    3.97    0.59
  -4   5   1   99.85    3.60
  -4   5   1   95.40    3.49
   3  -5  -1   29.66    1.71
   3  -5  -1   30.21    2.10
   3  -5  -1   30.95    1.35
  -3   5   1   30.98    1.46
  -3   5   1   30.08    2.02
   2  -5  -1  240.02    8.04
   2  -5  -1  247.52    8.71
  -2   5   1  241.19    7.33
  -2   5   1  245.91    7.94
  -2   5   1  245.88    8.62
   1  -5  -1    7.12    0.92
  -1   5   1    7.25    0.45
  -1   5   1    6.81    0.89
  -1   5   1    7.16    0.76
   0  -5  -1  124.86    5.06
   0   5   1  116.57    4.83
   0   5   1  121.11    3.94
   0   5   1  121.15    4.80
   1   5   1    2.12    0.36
  -2  -5  -1  112.42    3.96
   2   5   1  115.27    3.93
   2   5   1  110.75    3.61
  -3  -5  -1  149.40    5.07
   3   5   1  147.60    4.99
  -4  -5  -1    4.11    0.50
   4   5   1    4.58    0.55
  -6   6   1   11.17    0.88
  -6   6   1   11.72    0.81
  -5   6   1   34.17    1.63
  -5   6   1   35.66    1.76
  -4   6   1  105.47    3.87
  -3   6   1   35.16    1.77
  -3   6   1   37.82    2.50
  -3   6   1   38.21    1.35
  -2   6   1   36.00    1.38
  -2   6   1   35.97    2.40
  -1   6   1  290.41   10.41
  -1   6   1  295.83    9.00
   0   6   1   11.68    1.03
   0   6   1   11.56    0.96
   0   6   1   13.30    0.78
  -1  -6  -1  135.47    4.72
   1   6   1  145.16    4.57
   1   6   1  137.24    4.65
   1   6   1  137.44    5.07
  -2  -6  -1  194.81    6.40
   2   6   1  194.47    6.32
  -3  -6  -1  227.95    7.25
   3   6   1  226.79    7.16
  -5   7   1   -0.05    0.31
  -4   7   1   57.85    2.51
  -3   7   1  447.07   14.23
  -3   7   1  459.64   13.56
  -3   7   1  446.79   14.08
  -2   7   1  331.16   10.64
  -2   7   1  335.85   10.89
  -2   7   1  335.49   10.22
  -1   7   1  416.36   12.99
  -1   7   1  408.29   13.25
  -1   7   1  416.13   12.62
   0   7   1    0.25    0.33
   0   7   1    0.59    0.22
   0   7   1    0.38    0.37
   0   7   1    0.29    0.17
  -1  -7  -1   62.28    2.49
   1   7   1   62.06    2.74
   1   7   1   62.70    2.27
  -2  -7  -1  344.70   10.50
   2   7   1  334.12   10.39
  -3  -7  -1   18.58    0.90
  -5   8   1    3.25    0.51
  -4   8   1   61.18    2.52
  -4   8   1   59.47    2.11
  -3   8   1  367.52   11.69
  -3   8   1  367.22   11.25
  -3   8   1  377.18   11.93
  -2   8   1    0.95    0.25
  -2   8   1    1.44    0.45
  -2   8   1    1.02    0.47
  -1   8   1   55.14    2.19
  -1   8   1   58.53    2.53
  -1   8   1   57.52    2.24
  -1   8   1   58.37    2.75
   0  -8  -1   31.16    1.53
   0   8   1   31.47    1.36
   0   8   1   32.00    1.82
  -1  -8  -1   44.26    1.83
   1   8   1   44.08    1.54
  -2  -8  -1    8.75    0.60
  -4   9   1    0.34    0.32
  -3   9   1   63.69    2.55
  -3   9   1   63.88    2.72
  -2   9   1   23.55    1.32
  -2   9   1   20.58    1.38
   1  -9  -1   15.40    0.96
  -1   9   1   14.70    1.14
  -1   9   1   15.42    0.82
   0  -9  -1   11.44    0.74
   0   9   1   10.81    0.58
   0   9   1   10.86    0.85
  -3  10   1   24.99    1.18
  -3  10   1   27.38    1.32
   2 -10  -1   66.84    2.31
  -2  10   1   67.51    2.59
  -2  10   1   67.26    2.26
  -1  10   1   14.23    0.62
   0  10  -2    4.47    0.29
  -1  10  -2   -0.01    0.24
  -1  10  -2   -0.02    0.09
  -2  10  -2   29.56    1.52
  -3  10  -2   75.75    2.88
   1   9  -2   37.97    1.34
  -1  -9   2   38.72    1.52
   0   9  -2   19.83    1.26
   0   9  -2   20.22    0.97
   0  -9   2   19.50    1.03
  -1   9  -2   16.55    1.22
  -2   9  -2  173.53    6.12
  -3   9  -2   17.23    1.20
   2   8  -2    0.01    0.27
  -2  -8   2   -0.09    0.25
   1   8  -2    0.84    0.35
   1   8  -2    0.60    0.20
  -1  -8   2    1.15    0.36
   0   8  -2   25.28    1.21
   0   8  -2   25.07    1.22
   0   8  -2   27.31    1.63
   0   8  -2   24.57    1.29
   0  -8   2   25.09    1.29
  -1   8  -2 1122.44   33.70
  -1   8  -2 1156.41   34.42
  -2   8  -2  284.65    8.83
  -2   8  -2  291.04    9.59
  -3   8  -2    3.26    0.61
   3   7  -2  347.84   10.75
  -3  -7   2  355.11   10.79
   2   7  -2  283.95    8.77
   2   7  -2  273.60    8.45
  -2  -7   2  277.35    8.76
   1   7  -2    0.82    0.38
   1   7  -2    2.46    0.52
   1   7  -2    0.63    0.22
  -1  -7   2    1.74    0.43
   0   7  -2  183.45    6.49
   0   7  -2  187.79    6.02
   0   7  -2  184.22    5.94
  -1   7  -2  231.74    7.08
  -1   7  -2  220.50    7.68
  -2   7  -2   14.75    0.72
  -2   7  -2   13.80    1.13
  -3   7  -2   12.56    1.04
   4   6  -2   62.34    2.27
  -4  -6   2   62.57    2.30
   3   6  -2   92.44    3.33
  -3  -6   2   92.25    3.39
   2   6  -2    2.26    0.35
   2   6  -2    1.30    0.38
  -2  -6   2    2.19    0.48
   1   6  -2   50.38    2.10
   1   6  -2   53.60    2.87
   1   6  -2   53.13    2.03
   1   6  -2   52.88    2.04
  -1  -6   2   55.96    2.14
   0   6  -2  295.65    9.58
   0   6  -2  333.40    9.53
   0  -6   2  301.23   10.70
  -1   6  -2   80.22    3.65
  -1   6  -2   87.97    2.81
   1  -6   2   85.77    3.90
   2  -6   2   20.02    1.64
   3  -6   2  121.45    5.04
  -5  -5   2   13.97    0.83
   4   5  -2   -0.29    0.32
  -4  -5   2    0.22    0.32
   3   5  -2    8.25    0.80
  -3  -5   2    7.59    0.79
   2   5  -2  155.48    5.07
   2   5  -2  150.57    4.88
  -2  -5   2  151.11    5.05
   1   5  -2  313.54    9.26
  -1  -5   2  296.85   10.33
  -1  -5   2  298.91   10.17
   0   5  -2  133.64    4.29
   0   5  -2  138.63    5.01
   0  -5   2  137.28    5.22
   0  -5   2  133.58    5.18
  -1   5  -2   23.47    1.26
  -1   5  -2   23.74    0.89
   1  -5   2   25.52    1.58
  -2   5  -2  343.98   11.40
  -2   5  -2  342.28   10.42
  -5   5  -2   52.60    2.17
  -5   5  -2   51.34    2.38
  -6   5  -2   37.77    1.63
  -6   5  -2   35.62    1.78
   5   4  -2   87.19    3.06
  -5  -4   2   90.55    3.17
   4   4  -2   14.11    1.00
  -4  -4   2   13.39    1.01
   3   4  -2   -0.03    0.27
  -3  -4   2    0.16    0.30
  -2  -4   2   61.84    3.16
   1   4  -2   95.58    3.09
   1   4  -2   92.23    3.74
  -1  -4   2   92.46    3.71
  -1  -4   2   99.51    3.84
   0   4  -2  264.35    8.47
   0   4  -2  264.68    7.93
   0  -4   2  261.63    8.69
   0  -4   2  267.41    8.63
  -1   4  -2   36.41    1.90
  -1   4  -2   36.97    1.50
   1  -4   2   36.17    1.75
  -2   4  -2  104.40    4.03
   2  -4   2  104.29    3.95
  -3   4  -2   87.88    3.56
  -3   4  -2   90.79    3.97
   3  -4   2   86.99    3.47
  -4   4  -2  219.44    7.35
  -4   4  -2  222.98    7.09
   4  -4   2  225.72    8.48
  -5   4  -2  684.87   21.02
  -5   4  -2  690.78   20.70
  -5   4  -2  679.42   20.27
  -6   4  -2    2.14    0.50
  -6   4  -2    2.15    0.41
   5   3  -2   32.51    1.49
  -5  -3   2   32.14    1.58
   4   3  -2  426.27   13.08
  -4  -3   2  426.28   13.21
   3   3  -2  259.56    8.09
  -2  -3   2    7.53    0.91
   1   3  -2  798.76   23.66
   1   3  -2  792.62   23.06
  -1  -3   2  784.10   23.61
  -1  -3   2  760.49   23.64
   0   3  -2  124.86    4.28
   0   3  -2  143.12    4.50
   0  -3   2  134.87    4.65
   0  -3   2  140.74    4.56
  -1   3  -2  168.95    5.62
  -1   3  -2  170.77    5.14
  -1   3  -2  158.83    5.42
  -1   3  -2  167.97    5.15
   1  -3   2  173.75    5.46
   1  -3   2  162.05    5.15
  -2   3  -2  241.68    7.95
  -2   3  -2  237.66    7.59
  -3   3  -2    2.94    0.31
  -3   3  -2    2.94    0.66
  -3   3  -2    2.79    0.48
   3  -3   2    3.11    0.23
  -4   3  -2   99.20    3.49
  -4   3  -2  100.21    3.82
  -5   3  -2  276.37    8.68
  -5   3  -2  293.95    9.05
  -5   3  -2  283.34    9.37
  -6   3  -2   22.97    1.44
  -6   3  -2   23.47    1.24
  -6  -2   2   -0.12    0.26
   5   2  -2    2.85    0.47
  -5  -2   2    2.77    0.61
  -5  -2   2    1.76    0.48
   4   2  -2  429.82   13.33
  -4  -2   2  454.55   13.54
  -4  -2   2  431.63   13.77
  -3  -2   2  335.45   11.42
   2   2  -2   68.27    2.81
   2   2  -2   65.56    2.73
  -2  -2   2   68.52    2.92
  -2  -2   2   63.90    2.57
  -2  -2   2   65.23    2.42
  -2  -2   2   74.37    3.27
   1   2  -2  520.77   15.18
   1   2  -2  474.05   15.04
   1   2  -2  486.36   14.91
  -1  -2   2  519.91   15.19
  -1  -2   2  512.29   15.16
  -1  -2   2  496.96   14.74
  -1  -2   2  489.28   15.09
   0   2  -2 4294.20  124.25
   0   2  -2 3944.64  124.14
   0   2  -2 4439.25  124.67
   0  -2   2 4144.69  123.39
   0  -2   2 4083.16  159.51
   0  -2   2 4197.13  124.10
  -1   2  -2  417.58   12.30
  -1   2  -2  365.31   12.53
  -1   2  -2  427.10   12.17
  -1   2  -2  415.70   12.42
  -1   2  -2  424.98   12.27
   1  -2   2  410.01   12.47
   1  -2   2  423.76   12.40
  -2   2  -2  932.58   27.51
  -2   2  -2  941.81   27.34
  -2   2  -2  942.41   27.09
  -2   2  -2  910.94   26.79
   2  -2   2  818.13   26.87
  -3   2  -2    2.74    0.38
  -3   2  -2    1.99    0.51
  -3   2  -2    2.43    0.61
  -3   2  -2    2.19    0.51
   3  -2   2    2.30    0.28
  -4   2  -2  243.76    7.25
  -4   2  -2  245.76    7.88
  -4   2  -2  227.51    7.45
  -4   2  -2  232.75    7.53
  -5   2  -2   25.04    1.16
  -5   2  -2   26.74    1.37
  -5   2  -2   25.97    1.63
  -6   2  -2    0.22    0.36
  -6   2  -2   -0.13    0.21
  -6  -1   2  190.77    6.56
  -6  -1   2  199.01    6.36
  -5  -1   2  312.10    9.88
  -5  -1   2  310.28   10.22
   4   1  -2   15.27    1.50
  -4  -1   2   15.93    0.86
  -4  -1   2   16.95    1.01
   3   1  -2   42.85    2.26
   3   1  -2   44.03    1.94
  -3  -1   2   42.09    1.97
  -3  -1   2   42.56    2.37
  -3  -1   2   43.92    1.60
   2   1  -2  335.79   10.63
   2   1  -2  347.57   10.34
  -2  -1   2  333.60   10.69
  -2  -1   2  333.70   10.30
  -2  -1   2  353.17   10.58
  -2  -1   2  320.11   10.36
   1   1  -2 2205.53   61.59
   1   1  -2 1853.84   60.84
   1   1  -2 1894.71   60.93
  -1  -1   2 2010.46   61.76
  -1  -1   2 2323.97   61.12
  -1  -1   2 1976.49   62.04
  -1  -1   2 1982.16   60.48
   0   1  -2    2.33    0.24
   0   1  -2    2.61    0.26
   0   1  -2    1.76    0.28
   0   1  -2    2.45    0.17
   0  -1   2    2.46    0.24
   0  -1   2    2.26    0.18
   0  -1   2    2.88    0.30
  -1   1  -2  223.74    6.78
  -1   1  -2  229.94    6.72
  -1   1  -2  212.15    6.71
  -1   1  -2  215.46    6.74
  -1   1  -2  228.44    7.05
   1  -1   2  206.65    6.69
   1  -1   2  223.42    6.58
   1  -1   2  228.74    6.57
  -2   1  -2    0.84    0.28
  -2   1  -2    0.27    0.22
  -2   1  -2    0.01    0.12
  -2   1  -2    0.05    0.24
   2  -1   2    0.17    0.10
  -3   1  -2  256.71    8.49
  -3   1  -2  254.81    9.00
  -3   1  -2  261.50    8.32
  -3   1  -2  253.80    7.68
  -3   1  -2  249.39    8.68
   3  -1   2  253.57    8.06
  -4   1  -2    4.19    0.55
  -4   1  -2    4.22    0.52
  -4   1  -2    4.18    0.39
  -4   1  -2    3.90    0.62
   4  -1   2    4.57    0.93
  -5   1  -2   11.17    0.73
  -5   1  -2   12.10    0.89
  -5   1  -2   13.06    1.13
   5  -1   2   10.40    0.86
  -6   1  -2   32.18    1.46
  -6   1  -2   33.20    1.71
  -6   0   2  213.20    6.78
  -6   0   2  192.74    6.61
  -6   0   2  213.90    7.10
  -5   0   2  265.75    8.67
  -5   0   2  271.02    8.59
  -5   0   2  279.28    8.81
  -5   0   2  281.33    9.16
   4   0  -2    9.55    1.16
   4   0  -2   10.12    0.87
  -4   0   2    9.76    1.05
  -4   0   2   10.50    0.63
   3   0  -2  105.37    4.26
   3   0  -2  107.71    3.79
  -3   0   2  110.27    4.05
  -3   0   2  108.30    3.97
  -3   0   2  107.71    3.43
  -3   0   2  107.94    4.35
   2   0  -2    0.19    0.11
   2   0  -2    0.76    0.30
  -2   0   2    0.21    0.17
  -2   0   2    0.42    0.21
  -2   0   2    0.02    0.06
  -2   0   2    0.11    0.21
   1   0  -2  401.27   12.37
   1   0  -2  394.44   12.29
   1   0  -2  415.05   12.09
   1   0  -2  396.03   12.14
  -1   0   2  402.16   12.20
  -1   0   2  426.98   12.22
   0   0  -2  191.06    6.18
   0   0  -2  206.18    6.04
   0   0  -2  201.94    6.00
   0   0  -2  192.11    6.08
   0   0  -2  197.15    5.95
   0   0   2  198.37    6.13
   0   0   2  207.37    6.10
  -1   0  -2  907.43   27.79
  -1   0  -2 1038.95   28.23
  -1   0  -2  927.49   27.80
   1   0   2  873.11   27.57
   1   0   2  926.32   28.49
  -2   0  -2 2997.06   85.67
  -2   0  -2 2776.10   83.98
  -2   0  -2 2830.97   83.48
  -2   0  -2 2532.49   81.34
   2   0   2 2725.74   83.43
  -3   0  -2   57.57    2.88
  -3   0  -2   59.95    3.05
  -3   0  -2   57.55    2.00
  -3   0  -2   54.67    2.60
   3   0   2   56.54    2.40
  -4   0  -2   11.91    0.88
  -4   0  -2   12.09    1.00
  -4   0  -2   12.72    0.74
  -4   0  -2   11.65    0.82
   4   0   2   11.60    1.38
  -5   0  -2    0.16    0.16
  -5   0  -2    0.11    0.24
  -5   0  -2    0.22    0.33
   5   0   2    0.15    0.28
  -6   0  -2   24.74    1.32
  -6   0  -2   25.26    1.15
   6   0   2   22.23    1.07
  -7   1   2    8.72    0.63
  -7   1   2    9.07    0.78
  -6   1   2  115.72    4.15
  -6   1   2  122.11    4.58
  -6   1   2  122.97    4.24
  -6   1   2  115.10    4.03
  -5   1   2   85.27    3.25
  -5   1   2   84.68    3.17
  -5   1   2   85.15    3.53
  -5   1   2   85.85    3.02
   4  -1  -2  185.83    6.67
   4  -1  -2  187.73    7.16
   4  -1  -2  191.21    6.38
  -4   1   2  187.45    6.80
  -4   1   2  172.04    7.11
  -4   1   2  195.42    5.85
  -4   1   2  191.49    6.69
   3  -1  -2   26.11    1.64
   3  -1  -2   25.96    1.21
  -3   1   2   27.98    1.71
  -3   1   2   26.20    1.48
  -3   1   2   25.60    0.97
  -3   1   2   25.81    1.38
   2  -1  -2 1517.92   44.80
   2  -1  -2 1354.39   42.58
   2  -1  -2 1420.05   43.58
  -2   1   2 1436.17   43.95
  -2   1   2 1625.09   44.79
  -2   1   2 1330.05   42.63
   1  -1  -2 6677.85  202.54
   1  -1  -2 5857.55  202.76
   1  -1  -2 6244.00  193.72
   1  -1  -2 6122.92  198.43
  -1   1   2 6141.42  207.26
  -1   1   2 5484.83  200.20
  -1   1   2 6462.64  205.99
  -1   1   2 6204.48  214.83
   0  -1  -2  786.31   22.80
   0  -1  -2  767.61   23.00
   0  -1  -2  656.37   22.31
   0  -1  -2  755.61   22.36
   0  -1  -2  754.72   22.90
   0   1   2  735.35   22.56
   0   1   2  791.26   23.65
  -1  -1  -2  135.55    4.29
  -1  -1  -2  140.12    4.54
  -1  -1  -2  125.37    4.44
  -1  -1  -2  138.05    4.38
  -1  -1  -2  132.73    4.48
   1   1   2  135.54    4.32
   1   1   2  127.68    4.14
   1   1   2  130.80    4.48
  -2  -1  -2  895.98   26.94
  -2  -1  -2  871.26   26.77
  -2  -1  -2  904.69   26.23
  -2  -1  -2  872.62   27.05
  -2  -1  -2  911.53   27.11
   2   1   2  892.17   26.63
  -3  -1  -2   16.53    1.48
  -3  -1  -2   16.58    1.35
  -3  -1  -2   17.05    1.51
  -3  -1  -2   17.16    1.30
  -3  -1  -2   18.58    0.87
   3   1   2   16.61    1.16
  -4  -1  -2    3.26    0.50
  -4  -1  -2    3.00    0.39
  -4  -1  -2    3.55    0.61
   4   1   2    4.33    0.57
  -5  -1  -2    0.45    0.26
   5   1   2    0.06    0.30
  -7   2   2    0.36    0.33
  -7   2   2    0.39    0.21
  -7   2   2   -0.09    0.24
  -6   2   2   20.41    1.21
  -6   2   2   20.14    1.05
  -6   2   2   21.31    1.29
  -6   2   2   20.52    1.46
  -5   2   2    8.34    0.80
  -5   2   2    7.06    0.87
  -5   2   2    6.83    0.68
  -5   2   2    7.22    0.54
   4  -2  -2    4.30    0.82
   4  -2  -2    6.53    0.59
   4  -2  -2    4.32    0.67
  -4   2   2    3.96    0.33
  -4   2   2    4.46    0.59
  -4   2   2    4.43    0.89
   3  -2  -2 1282.63   37.11
   3  -2  -2 1232.99   37.42
   3  -2  -2 1263.55   37.46
  -3   2   2 1233.61   36.45
  -3   2   2 1249.45   37.09
  -3   2   2 1177.26   37.56
  -3   2   2 1261.60   37.69
   2  -2  -2   34.62    1.57
   2  -2  -2   36.61    1.36
   2  -2  -2   35.75    1.69
  -2   2   2   36.27    1.50
  -2   2   2   35.40    1.69
  -2   2   2   36.93    1.85
   1  -2  -2    6.81    0.53
   1  -2  -2    5.77    0.41
   1  -2  -2    5.59    0.57
   1  -2  -2    5.61    0.47
  -1   2   2    7.48    0.54
  -1   2   2    5.89    0.59
  -1   2   2    5.24    0.44
   0  -2  -2  110.98    3.62
   0  -2  -2  112.17    3.55
   0  -2  -2  104.38    3.71
   0  -2  -2   99.14    3.41
   0   2   2  104.68    3.67
   0   2   2   99.19    3.60
  -1  -2  -2  485.34   14.99
  -1  -2  -2  499.96   14.78
  -1  -2  -2  472.91   14.77
  -1  -2  -2  483.20   15.03
  -2  -2  -2   10.08    0.58
  -2  -2  -2   11.09    1.07
  -2  -2  -2   11.48    0.92
  -3  -2  -2   41.06    1.70
   3   2   2   43.65    1.75
  -4  -2  -2  249.79    8.02
  -4  -2  -2  252.39    7.97
   4   2   2  249.89    7.95
   5   2   2   35.63    1.56
  -7   3   2   56.01    2.31
  -7   3   2   55.48    2.12
  -6   3   2   23.41    1.54
  -6   3   2   24.00    1.35
  -6   3   2   24.17    1.14
  -6   3   2   25.05    1.40
  -5   3   2  148.59    5.37
  -5   3   2  146.97    5.14
  -5   3   2  148.42    4.79
  -5   3   2  155.60    5.14
   4  -3  -2   42.13    2.52
   4  -3  -2   39.97    1.77
  -4   3   2   40.45    1.74
  -4   3   2   42.22    1.99
  -4   3   2   42.18    1.47
   3  -3  -2  717.32   21.79
   3  -3  -2  726.28   22.06
   3  -3  -2  728.06   21.30
  -3   3   2  686.75   21.90
  -3   3   2  720.29   22.39
  -3   3   2  687.24   20.91
  -3   3   2  733.61   21.53
   2  -3  -2   87.75    3.24
   2  -3  -2   87.63    2.94
   2  -3  -2   84.19    3.27
   2  -3  -2   84.15    3.54
  -2   3   2   86.32    3.12
  -2   3   2   95.39    3.53
   1  -3  -2   70.23    2.60
   1  -3  -2   68.29    2.84
  -1   3   2   67.78    2.80
  -1   3   2   69.46    2.21
  -1   3   2   66.55    2.63
   0  -3  -2  165.83    5.71
   0  -3  -2  168.24    5.38
   0   3   2  155.78    5.54
   0   3   2  164.84    5.61
   0   3   2  158.40    4.99
  -1  -3  -2  102.49    3.73
  -1  -3  -2  102.79    4.10
  -2  -3  -2  247.85    8.33
  -2  -3  -2  247.15    8.87
  -3  -3  -2   48.73    2.02
   3   3   2   45.92    1.94
  -4  -3  -2  951.87   29.14
   4   3   2 1002.52   29.11
   5   3   2   12.05    0.77
  -7   4   2    1.38    0.38
  -7   4   2    1.10    0.29
  -7   4   2    2.04    0.38
  -6   4   2   14.19    1.04
  -6   4   2   12.08    0.71
  -6   4   2   11.09    1.02
  -6   4   2   12.79    0.96
  -5   4   2  377.02   11.84
  -5   4   2  378.10   11.81
  -5   4   2  377.94   11.39
   4  -4  -2   10.48    1.21
  -4   4   2    9.78    0.76
  -4   4   2   10.42    0.51
   3  -4  -2   23.10    1.72
   3  -4  -2   22.65    1.11
  -3   4   2   21.39    1.21
  -3   4   2   21.86    0.81
  -3   4   2   21.89    1.60
   2  -4  -2  631.16   20.19
   2  -4  -2  639.12   19.72
  -2   4   2  681.97   19.71
  -2   4   2  629.46   19.01
  -2   4   2  649.49   20.14
   1  -4  -2   99.44    3.71
   1  -4  -2  102.75    4.15
  -1   4   2  100.87    3.87
  -1   4   2  103.60    3.29
  -1   4   2  109.31    4.18
   0  -4  -2   25.81    1.68
   0  -4  -2   26.48    1.41
   0   4   2   26.22    1.61
   0   4   2   25.29    1.59
   0   4   2   25.94    1.07
  -1  -4  -2  341.62   11.54
  -2  -4  -2    0.94    0.34
   2   4   2    0.80    0.30
  -3  -4  -2  816.21   24.94
   3   4   2  847.04   24.88
  -4  -4  -2    0.43    0.28
   4   4   2    0.07    0.30
  -7   5   2    5.99    0.56
  -6   5   2   40.05    1.89
  -6   5   2   40.78    1.85
  -5   5   2  291.28    9.15
  -5   5   2  276.62    8.61
  -5   5   2  282.87    9.05
  -4   5   2   78.77    2.99
  -4   5   2   83.54    3.13
  -4   5   2   80.39    2.63
   3  -5  -2  587.97   17.96
   3  -5  -2  567.28   18.42
  -3   5   2  613.11   18.21
  -3   5   2  586.25   18.99
  -3   5   2  596.63   17.45
   2  -5  -2   45.36    2.60
   2  -5  -2   43.41    2.15
  -2   5   2   43.92    2.54
  -2   5   2   43.62    2.13
  -2   5   2   45.71    1.60
   1  -5  -2   31.77    2.08
  -1   5   2   28.93    1.78
  -1   5   2   32.65    1.27
  -1   5   2   31.72    2.03
   0   5   2   20.34    1.58
   0   5   2   21.95    1.01
   1   5   2    0.80    0.23
   1   5   2    0.77    0.27
   1   5   2    0.66    0.33
  -2  -5  -2   58.70    2.37
   2   5   2   59.48    2.35
  -3  -5  -2   54.77    2.26
   3   5   2   56.45    2.22
   4   5   2    0.13    0.25
  -6   6   2  369.79   11.72
  -6   6   2  390.87   11.83
  -5   6   2    2.76    0.30
  -5   6   2    2.09    0.42
  -5   6   2    2.49    0.52
  -4   6   2   87.70    3.46
  -4   6   2   77.86    3.14
  -4   6   2   78.15    2.68
  -3   6   2   32.41    1.28
  -3   6   2   31.62    2.33
  -3   6   2   32.80    1.67
  -2   6   2    1.06    0.40
  -2   6   2    0.61    0.48
  -2   6   2    0.17    0.14
  -2   6   2   -0.02    0.27
  -1   6   2   27.73    1.46
  -1   6   2   25.05    1.55
  -1   6   2   27.24    1.21
  -1   6   2   26.12    2.02
   0   6   2  106.75    3.55
   0   6   2  104.14    4.06
   0   6   2   99.49    3.56
   0   6   2  104.04    3.87
  -1  -6  -2   75.90    2.87
   1   6   2   75.49    2.67
   1   6   2   76.98    3.22
  -2  -6  -2  455.17   13.80
   2   6   2  443.64   13.69
  -3  -6  -2   55.99    2.16
   3   6   2   57.37    2.10
  -6   7   2   39.21    1.73
  -5   7   2    1.03    0.41
  -4   7   2   17.36    0.85
  -4   7   2   17.49    1.23
  -3   7   2  127.49    4.73
  -3   7   2  125.33    4.11
  -3   7   2  122.67    4.55
  -2   7   2    2.63    0.55
  -2   7   2    2.79    0.61
  -2   7   2    3.47    0.38
  -1   7   2  240.97    8.25
  -1   7   2  242.34    7.97
  -1   7   2  240.69    7.63
   0   7   2  686.92   20.82
   0   7   2  675.36   20.53
   0   7   2  652.47   20.12
  -1  -7  -2  119.00    4.04
   1   7   2  113.74    4.30
   1   7   2  113.19    3.73
  -2  -7  -2   24.64    1.21
  -5   8   2    7.06    0.73
  -4   8   2   84.98    3.28
  -3   8   2  885.86   26.78
  -3   8   2  873.30   26.14
  -3   8   2  883.82   26.56
  -2   8   2   28.54    1.32
  -2   8   2   30.68    1.80
  -2   8   2   28.96    1.64
  -1   8   2  594.99   17.63
  -1   8   2  596.52   18.28
  -1   8   2  557.39   17.64
  -1   8   2  594.26   18.03
   0  -8  -2   92.29    3.21
   0   8   2   86.08    3.54
   0   8   2   87.40    3.02
  -1  -8  -2   64.11    2.38
  -5   9   2   86.82    2.98
  -4   9   2   46.76    1.95
  -3   9   2  102.26    3.68
  -3   9   2  101.39    3.81
  -2   9   2   72.27    2.79
  -2   9   2   70.11    2.95
  -2   9   2   69.95    2.50
   1  -9  -2   17.31    0.97
  -1   9   2   16.39    1.14
  -1   9   2   16.21    0.81
   0  -9  -2    3.01    0.43
   0   9   2    4.35    0.52
   0   9   2    3.83    0.26
  -2  10   2   35.04    1.27
   0  10  -3   32.32    1.17
  -1  10  -3  132.20    4.59
  -2  10  -3   84.47    3.23
  -3  10  -3   71.22    2.71
   1   9  -3   91.44    2.93
   1   9  -3   90.73    3.06
   0   9  -3   39.82    1.56
   0   9  -3   38.31    1.89
  -1   9  -3    0.05    0.30
  -2   9  -3   24.21    1.54
  -3   9  -3    7.68    0.83
   2   8  -3    2.00    0.40
  -2  -8   3    2.18    0.37
   1   8  -3    3.37    0.52
   1   8  -3    4.99    0.44
  -1  -8   3    2.54    0.46
   0   8  -3    0.02    0.28
   0   8  -3    0.62    0.21
   0   8  -3   -0.44    0.28
   0   8  -3    0.13    0.16
  -1   8  -3  317.12    9.63
  -1   8  -3  319.23   10.33
  -1   8  -3  298.91   10.46
  -2   8  -3   27.88    1.68
  -2   8  -3   25.63    1.13
  -3   8  -3  159.68    5.74
   3   7  -3   23.09    1.17
  -3  -7   3   22.66    1.15
   2   7  -3    0.47    0.17
   2   7  -3    1.37    0.42
  -2  -7   3    0.75    0.33
   1   7  -3   30.10    1.38
   1   7  -3   28.45    2.06
   1   7  -3   33.05    1.56
  -1  -7   3   30.71    1.47
   0   7  -3  712.45   21.95
   0   7  -3  716.40   21.33
   0   7  -3  714.04   21.43
  -1   7  -3  837.01   24.77
  -1   7  -3  817.51   25.49
  -1   7  -3  852.32   24.94
  -2   7  -3   22.44    0.95
  -2   7  -3   22.53    1.44
  -3   7  -3    6.10    0.74
   4   6  -3  104.90    3.44
  -4  -6   3   98.13    3.45
   3   6  -3   10.23    0.88
  -3  -6   3   10.25    0.87
   2   6  -3   14.94    1.00
   2   6  -3   12.98    0.76
  -2  -6   3   13.07    0.92
   1   6  -3  107.19    3.58
   1   6  -3  103.87    3.68
   1   6  -3  107.87    3.60
  -1  -6   3  105.35    3.64
  -1  -6   3  100.87    5.09
   0   6  -3   29.50    1.39
   0   6  -3   30.83    1.28
   0  -6   3   30.89    2.09
  -1   6  -3   10.98    0.79
  -1   6  -3   12.34    0.62
   1  -6   3   13.07    1.33
   2  -6   3   58.98    3.12
  -5  -5   3   49.41    1.85
   4   5  -3    8.31    0.78
  -4  -5   3    7.31    0.74
   3   5  -3    1.27    0.42
  -3  -5   3    2.01    0.42
   2   5  -3  155.26    5.06
   2   5  -3  154.31    4.91
  -2  -5   3  148.07    5.04
   1   5  -3   62.26    2.41
   1   5  -3   62.34    3.02
   1   5  -3   63.74    2.21
  -1  -5   3   60.64    2.95
  -1  -5   3   57.96    2.96
   0   5  -3   66.97    2.90
   0   5  -3   69.43    2.33
   0  -5   3   70.22    3.20
  -1   5  -3  184.02    5.62
  -1   5  -3  179.73    6.14
   1  -5   3  195.78    6.81
   2  -5   3   81.80    3.58
  -5   5  -3  714.71   21.80
  -6   5  -3  143.21    4.95
  -6   5  -3  145.26    4.74
   5   4  -3   45.54    1.81
  -5  -4   3   47.26    1.92
   4   4  -3    3.09    0.53
  -4  -4   3    1.59    0.44
   3   4  -3   98.30    3.48
  -3  -4   3   97.78    3.53
  -2  -4   3    0.49    0.37
   1   4  -3  640.81   20.11
   1   4  -3  660.49   19.28
  -1  -4   3  629.87   20.05
  -1  -4   3  671.68   20.10
   0   4  -3  293.34    8.71
   0   4  -3  295.72    9.26
   0  -4   3  285.98    9.52
   0  -4   3  287.43    9.29
  -1   4  -3  699.22   21.36
   1  -4   3  731.82   21.93
  -2   4  -3  861.67   25.63
   2  -4   3  816.98   25.51
  -3   4  -3  203.98    7.58
  -4   4  -3  738.68   22.48
  -4   4  -3  740.23   22.16
  -5   4  -3   30.53    1.76
  -5   4  -3   33.75    1.57
  -5   4  -3   32.49    1.27
  -6   4  -3    0.24    0.22
  -6   4  -3    0.55    0.36
  -6  -3   3   21.00    1.00
   5   3  -3    0.13    0.33
  -5  -3   3    0.65    0.36
   4   3  -3 1135.63   33.53
  -4  -3   3 1124.58   33.67
   3   3  -3  145.37    4.75
  -2  -3   3  438.71   14.13
  -2  -3   3  440.25   13.82
   1   3  -3 1489.51   43.36
  -1  -3   3 1445.35   42.74
  -1  -3   3 1385.68   42.77
   0   3  -3   29.86    1.41
   0   3  -3   29.37    1.39
   0  -3   3   31.19    1.35
   0  -3   3   32.44    1.57
  -1   3  -3  900.18   25.85
  -1   3  -3  826.52   25.68
   1  -3   3  822.65   25.44
   1  -3   3  887.64   25.83
  -2   3  -3   19.48    1.36
  -2   3  -3   19.32    0.86
  -2   3  -3   17.95    1.03
   2  -3   3   18.36    1.09
  -3   3  -3   49.38    2.37
  -3   3  -3   53.37    2.04
  -3   3  -3   53.79    2.88
   3  -3   3   52.25    1.89
  -4   3  -3  505.17   16.14
  -4   3  -3  554.16   15.89
  -4   3  -3  538.57   16.56
  -4   3  -3  539.10   18.09
  -4   3  -3  538.24   16.23
  -5   3  -3   49.42    2.33
  -5   3  -3   45.08    1.75
  -5   3  -3   45.71    2.01
  -6   3  -3    0.22    0.24
  -6   3  -3   -0.05    0.30
  -6  -2   3    2.89    0.47
  -5  -2   3  519.61   15.70
  -5  -2   3  503.11   15.97
   4   2  -3  199.61    6.70
  -4  -2   3  221.95    6.88
  -4  -2   3  213.30    7.18
   3   2  -3   16.89    1.34
  -3  -2   3   16.68    1.44
   2   2  -3   19.20    1.23
  -2  -2   3   17.12    1.23
  -2  -2   3   19.56    1.19
   1   2  -3  900.57   25.74
  -1  -2   3  833.10   25.62
  -1  -2   3  858.43   25.73
  -1  -2   3  850.41   25.71
   0   2  -3  568.73   20.11
   0   2  -3  667.48   20.03
   0   2  -3  693.62   20.30
   0  -2   3  696.16   19.78
   0  -2   3  733.74   20.19
  -1   2  -3  180.07    6.10
  -1   2  -3  184.59    5.76
  -1   2  -3  184.97    5.74
  -1   2  -3  188.35    5.70
   1  -2   3  184.82    5.54
   1  -2   3  180.49    5.54
   1  -2   3  184.64    5.90
  -2   2  -3  321.20   10.02
  -2   2  -3  329.08   10.27
  -2   2  -3  328.08   10.74
   2  -2   3  332.30    9.83
  -3   2  -3   34.19    1.18
  -3   2  -3   36.06    2.25
  -3   2  -3   32.78    1.61
  -3   2  -3   32.07    1.80
   3  -2   3   33.08    1.47
  -4   2  -3  552.83   17.21
  -4   2  -3  567.30   19.13
  -4   2  -3  572.49   17.61
  -4   2  -3  577.93   17.28
  -4   2  -3  580.76   17.00
  -5   2  -3    6.92    0.77
  -5   2  -3    8.61    0.93
  -5   2  -3    8.84    0.76
  -5   2  -3    7.60    0.57
  -6   2  -3   46.73    1.88
  -6   2  -3   44.59    2.09
  -6  -1   3    8.07    0.89
  -6  -1   3    6.86    0.73
  -5  -1   3   25.48    1.43
  -5  -1   3   25.39    1.66
   4   1  -3    7.57    1.11
  -4  -1   3    7.77    0.56
  -4  -1   3    7.13    0.75
   3   1  -3   13.91    1.23
   3   1  -3   14.15    0.96
  -3  -1   3   14.55    0.72
  -3  -1   3   15.54    1.20
  -3  -1   3   14.11    1.01
  -3  -1   3   13.67    1.25
   2   1  -3    0.62    0.28
   2   1  -3    0.83    0.22
   2   1  -3    0.71    0.21
  -2  -1   3    0.40    0.22
  -2  -1   3    0.50    0.27
  -2  -1   3    0.28    0.24
   1   1  -3 9252.13  313.83
   1   1  -3 8409.79  285.08
   1   1  -3 8978.12  303.68
   1   1  -3 9119.00  298.06
  -1  -1   3 9186.65  297.43
  -1  -1   3 9999.00  310.38
  -1  -1   3 9655.08  295.20
   0   1  -3 4607.00  128.72
   0   1  -3 4242.82  165.62
   0   1  -3 4271.74  127.39
   0  -1   3 4258.89  128.31
   0  -1   3 4214.28  155.12
  -1   1  -3  519.88   16.61
  -1   1  -3  515.71   16.40
  -1   1  -3  552.50   16.30
  -1   1  -3  571.63   16.31
   1  -1   3  563.58   16.61
   1  -1   3  558.68   16.19
   1  -1   3  531.51   16.25
  -2   1  -3  984.86   29.99
  -2   1  -3  981.60   29.36
  -2   1  -3 1027.44   30.49
  -2   1  -3  977.59   29.96
  -2   1  -3 1001.88   29.87
   2  -1   3 1048.57   30.38
  -3   1  -3 1247.04   38.63
  -3   1  -3 1339.49   37.71
  -3   1  -3 1264.50   38.46
  -3   1  -3 1312.58   39.29
   3  -1   3 1260.29   38.16
  -4   1  -3    5.44    0.67
  -4   1  -3    4.82    0.69
  -4   1  -3    5.38    0.57
  -4   1  -3    5.95    0.48
  -5   1  -3    0.06    0.15
  -5   1  -3    0.28    0.24
  -5   1  -3   -0.14    0.31
   5  -1   3   -0.20    0.29
  -6   1  -3  170.04    5.33
  -6   1  -3  165.85    5.56
   6  -1   3  159.82    5.22
  -6   0   3  510.15   15.90
  -6   0   3  504.72   15.54
  -5   0   3  129.24    4.35
  -5   0   3  129.01    4.86
  -5   0   3  129.03    4.53
  -5   0   3  125.72    4.41
   4   0  -3   72.16    3.67
   4   0  -3   70.49    3.02
   4   0  -3   70.49    3.14
  -4   0   3   78.52    2.58
  -4   0   3   68.12    3.30
   3   0  -3  550.22   17.31
   3   0  -3  549.03   16.66
   3   0  -3  551.23   16.79
  -3   0   3  518.62   17.22
  -3   0   3  566.79   17.03
  -3   0   3  550.73   16.25
   2   0  -3  624.35   18.79
   2   0  -3  627.16   19.25
   2   0  -3  599.96   18.83
  -2   0   3  649.91   19.04
  -2   0   3  647.27   19.18
   1   0  -3 1298.62   38.15
   1   0  -3 1181.43   38.67
   1   0  -3 1324.68   38.65
   1   0  -3 1392.29   39.71
  -1   0   3 1118.21   38.30
  -1   0   3 1328.48   38.70
   0   0  -3 7326.98  220.32
   0   0  -3 7035.27  242.72
   0   0  -3 7183.16  230.47
   0   0  -3 7143.95  236.80
   0   0  -3 7813.23  237.89
   0   0   3 8073.13  248.08
   0   0   3 7435.26  252.46
  -1   0  -3   75.94    2.65
  -1   0  -3   74.74    2.58
  -1   0  -3   76.53    2.69
  -1   0  -3   71.26    2.85
   1   0   3   66.05    2.44
   1   0   3   74.53    2.53
  -2   0  -3  548.40   17.19
  -2   0  -3  536.48   16.76
  -2   0  -3  548.19   16.81
  -2   0  -3  558.35   16.88
  -2   0  -3  542.63   16.17
   2   0   3  545.52   16.55
  -3   0  -3   51.57    2.60
  -3   0  -3   54.23    2.64
  -3   0  -3   52.67    2.96
  -3   0  -3   56.28    1.97
   3   0   3   54.60    2.40
  -4   0  -3   47.56    1.88
  -4   0  -3   47.60    2.04
  -4   0  -3   47.10    1.97
  -4   0  -3   45.59    2.21
  -5   0  -3  105.65    3.74
  -5   0  -3  113.58    3.88
  -5   0  -3  108.62    4.13
   5   0   3  109.66    3.77
   7  -1  -3   35.87    1.57
  -7   1   3   36.35    1.51
  -6   1   3    7.85    0.63
  -6   1   3    8.64    0.85
  -6   1   3    7.69    0.74
  -6   1   3   10.68    1.09
  -5   1   3  157.86    5.74
  -5   1   3  161.01    5.44
  -5   1   3  161.49    5.22
  -5   1   3  157.72    5.37
   4  -1  -3    0.20    0.17
   4  -1  -3    0.03    0.23
   4  -1  -3   -0.09    0.27
  -4   1   3    0.03    0.32
  -4   1   3    0.06    0.11
  -4   1   3    0.67    0.34
   3  -1  -3  805.90   24.46
   3  -1  -3  827.86   24.96
   3  -1  -3  845.50   24.26
  -3   1   3  779.38   24.49
  -3   1   3  804.39   24.48
  -3   1   3  779.12   24.88
  -3   1   3  829.31   23.85
   2  -1  -3  509.64   15.26
   2  -1  -3  487.48   14.79
   2  -1  -3  515.04   14.95
  -2   1   3  485.28   14.99
  -2   1   3  493.30   15.24
  -2   1   3  461.75   15.08
   1  -1  -3 4489.97  160.05
   1  -1  -3 4567.81  136.16
   1  -1  -3 4708.05  135.10
   1  -1  -3 4420.64  134.79
  -1   1   3 4112.19  167.65
  -1   1   3 5088.91  136.54
  -1   1   3 4273.29  135.90
   0  -1  -3  351.71   10.43
   0  -1  -3  341.80   10.50
   0  -1  -3  315.74   10.46
   0  -1  -3  337.26   10.60
   0  -1  -3  352.97   10.57
   0   1   3  358.41   10.65
   0   1   3  347.26   10.55
  -1  -1  -3   78.54    3.06
  -1  -1  -3   84.15    3.04
  -1  -1  -3   75.29    2.90
  -1  -1  -3   76.66    2.88
  -2  -1  -3  630.98   19.27
  -2  -1  -3  630.94   19.46
  -2  -1  -3  638.22   19.52
  -2  -1  -3  616.91   19.56
  -2  -1  -3  629.61   18.62
   2   1   3  620.69   19.09
  -3  -1  -3  137.98    4.38
  -3  -1  -3  134.57    4.51
  -3  -1  -3  126.38    5.56
  -3  -1  -3  136.31    4.45
  -4  -1  -3   68.18    2.62
  -4  -1  -3   72.67    2.72
   4   1   3   73.02    2.71
  -5  -1  -3   82.12    3.00
   5   1   3   83.55    2.98
  -7   2   3   24.82    1.16
  -7   2   3   26.21    1.24
  -7   2   3   24.19    1.36
  -6   2   3    1.55    0.46
  -6   2   3    1.40    0.39
  -6   2   3    1.32    0.51
  -6   2   3    1.39    0.31
  -5   2   3   53.41    2.27
  -5   2   3   54.49    2.31
  -5   2   3   55.89    2.08
  -5   2   3   53.57    2.51
   4  -2  -3   36.34    2.07
   4  -2  -3   39.50    2.47
   4  -2  -3   38.10    1.81
  -4   2   3   37.72    1.45
  -4   2   3   38.14    2.04
  -4   2   3   41.44    2.97
   3  -2  -3  176.39    5.80
   3  -2  -3  183.89    6.51
  -3   2   3  179.56    6.25
  -3   2   3  181.37    6.61
  -3   2   3  178.19    6.05
  -3   2   3  174.32    5.44
   2  -2  -3    4.25    0.40
  -2   2   3    2.59    0.51
  -2   2   3    2.61    0.53
  -2   2   3    3.02    0.42
   1  -2  -3 1966.92   60.95
   1  -2  -3 1869.48   60.71
   1  -2  -3 2167.72   62.74
   1  -2  -3 1996.89   60.96
  -1   2   3 2130.49   61.76
  -1   2   3 2049.06   62.18
   0  -2  -3   70.56    2.66
   0  -2  -3   72.00    2.65
   0  -2  -3   71.17    2.83
   0  -2  -3   76.30    2.73
   0   2   3   74.72    2.78
   0   2   3   71.18    2.84
  -1  -2  -3   49.06    2.12
  -1  -2  -3   51.56    2.25
  -1  -2  -3   47.78    2.25
  -2  -2  -3    9.65    1.05
  -2  -2  -3    9.75    0.91
  -3  -2  -3    4.89    0.53
   3   2   3    4.38    0.54
  -4  -2  -3  112.81    3.99
   4   2   3  117.98    4.01
   5   2   3  111.27    3.72
  -7   3   3   48.70    1.89
  -7   3   3   44.67    2.01
  -7   3   3   48.81    1.92
  -6   3   3   62.74    2.61
  -6   3   3   66.16    2.65
  -6   3   3   61.57    2.34
  -6   3   3   64.47    2.82
  -5   3   3    1.78    0.47
  -5   3   3    1.25    0.36
  -5   3   3    1.84    0.31
  -5   3   3    1.23    0.42
   4  -3  -3    0.86    0.50
  -4   3   3    0.97    0.49
  -4   3   3    0.57    0.15
  -4   3   3    0.81    0.26
   3  -3  -3    1.37    0.48
   3  -3  -3    1.30    0.28
  -3   3   3    1.55    0.40
  -3   3   3    1.76    0.19
  -3   3   3    2.04    0.63
  -3   3   3    1.51    0.56
   2  -3  -3   45.41    2.32
   2  -3  -3   46.21    2.07
   2  -3  -3   46.16    2.10
   2  -3  -3   47.37    1.89
  -2   3   3   45.24    2.27
  -2   3   3   47.67    2.07
  -2   3   3   45.68    1.57
   1  -3  -3    0.94    0.30
   1  -3  -3    0.66    0.22
   1  -3  -3    0.77    0.34
  -1   3   3    0.77    0.31
  -1   3   3    1.07    0.43
  -1   3   3    0.92    0.17
   0  -3  -3    1.90    0.39
   0  -3  -3    1.18    0.32
   0  -3  -3    1.23    0.42
   0   3   3    1.38    0.44
   0   3   3    1.38    0.43
   0   3   3    1.77    0.22
  -1  -3  -3   25.23    1.66
  -1  -3  -3   24.75    1.43
  -2  -3  -3  572.56   17.02
   2   3   3  560.20   17.00
  -3  -3  -3   77.24    2.94
  -3  -3  -3   83.11    3.04
   3   3   3   85.53    3.01
   4   3   3  328.85   10.19
   7  -4  -3    0.86    0.48
  -7   4   3    0.28    0.24
  -7   4   3    0.62    0.30
  -6   4   3  314.01    9.98
  -6   4   3  340.79   10.36
  -6   4   3  323.35   10.28
  -5   4   3  155.64    5.40
  -5   4   3  156.33    5.04
  -5   4   3  161.20    5.46
  -4   4   3  581.20   16.58
  -4   4   3  561.24   16.94
  -4   4   3  527.26   16.94
   3  -4  -3  175.99    6.33
   3  -4  -3  180.13    6.89
   3  -4  -3  177.49    5.95
  -3   4   3  177.75    6.17
  -3   4   3  180.55    6.71
  -3   4   3  181.67    5.50
   2  -4  -3 1559.40   46.71
   2  -4  -3 1588.17   46.59
   2  -4  -3 1526.48   47.07
  -2   4   3 1477.43   45.95
  -2   4   3 1682.54   47.13
  -2   4   3 1557.65   46.68
   1  -4  -3  292.58    9.87
   1  -4  -3  279.76    9.31
   1  -4  -3  288.95    9.42
  -1   4   3  286.00    8.84
  -1   4   3  300.81    9.86
  -1   4   3  301.68    9.67
   0  -4  -3   64.86    3.17
   0  -4  -3   74.46    2.93
   0   4   3   68.74    3.07
   0   4   3   62.68    2.34
  -2  -4  -3 1271.72   37.48
   2   4   3 1259.08   37.43
  -3  -4  -3  111.64    3.98
   3   4   3  116.21    3.95
   4   4   3   41.89    1.71
  -7   5   3  133.54    4.38
  -6   5   3   50.64    2.17
  -6   5   3   53.19    2.26
  -5   5   3  863.66   25.87
  -5   5   3  877.68   26.36
  -5   5   3  880.97   26.27
  -4   5   3    4.33    0.58
  -4   5   3    6.94    0.72
  -4   5   3    4.26    0.96
  -4   5   3    4.50    0.37
  -3   5   3   73.08    3.67
  -3   5   3   66.62    2.64
  -3   5   3   72.39    2.43
   2  -5  -3    5.01    0.67
   2  -5  -3    5.18    0.61
  -2   5   3    7.40    0.48
  -2   5   3    5.40    0.72
  -2   5   3    5.40    0.94
   1  -5  -3  444.23   13.81
   1  -5  -3  428.19   13.75
  -1   5   3  430.31   14.33
  -1   5   3  417.37   14.09
  -1   5   3  448.19   13.09
   0   5   3   24.94    1.15
  -1  -5  -3  173.92    5.62
   1   5   3  166.83    5.40
  -2  -5  -3  591.20   18.02
   2   5   3  598.75   17.96
  -3  -5  -3   20.52    1.11
   3   5   3   20.02    1.09
  -6   6   3   37.46    1.68
  -6   6   3   38.68    1.80
  -5   6   3   36.20    1.81
  -5   6   3   35.77    1.71
  -4   6   3  139.59    4.50
  -4   6   3  139.92    4.80
  -4   6   3  141.19    4.99
  -3   6   3  807.06   23.74
  -3   6   3  791.48   24.18
  -2   6   3   73.33    2.59
  -2   6   3   70.77    2.89
  -2   6   3   74.06    3.08
  -2   6   3   68.65    3.75
  -1   6   3   31.32    2.31
  -1   6   3   35.66    1.93
  -1   6   3   36.73    1.78
  -1   6   3   36.59    1.52
   0   6   3   79.03    2.84
   0   6   3   81.14    3.38
   0   6   3   78.44    3.17
  -1  -6  -3   21.94    1.22
   1   6   3   20.72    1.44
   1   6   3   20.63    0.95
  -2  -6  -3    0.09    0.25
  -3  -6  -3    8.37    0.59
  -6   7   3    5.87    0.66
  -5   7   3   25.04    1.45
  -4   7   3   20.77    1.37
  -4   7   3   22.67    1.05
  -3   7   3   26.90    1.63
  -3   7   3   27.33    1.58
  -3   7   3   28.39    1.27
  -2   7   3    4.23    0.45
  -2   7   3    5.22    0.77
  -2   7   3    4.59    0.69
  -1   7   3   10.72    0.99
  -1   7   3    9.72    0.71
  -1   7   3   10.19    0.71
  -1   7   3   11.59    1.12
   0  -7  -3  141.11    4.75
   0   7   3  138.14    5.18
   0   7   3  137.07    4.57
  -1  -7  -3    0.46    0.31
   1   7   3    0.18    0.30
  -2  -7  -3  105.14    3.53
  -5   8   3    3.15    0.51
  -4   8   3   62.32    2.58
  -3   8   3  196.60    6.79
  -3   8   3  203.04    6.61
  -3   8   3  192.34    6.25
  -2   8   3  197.61    6.47
  -2   8   3  209.53    7.09
  -2   8   3  211.91    6.85
  -2   8   3  195.97    6.47
  -1   8   3  540.96   16.36
  -1   8   3  518.87   15.99
  -1   8   3  534.91   16.63
   0  -8  -3  267.88    8.32
   0   8   3  266.61    8.70
   0   8   3  263.36    8.09
  -1  -8  -3   10.41    0.67
  -4   9   3  126.40    4.27
  -3   9   3   61.52    2.51
  -3   9   3   60.61    2.41
  -2   9   3   23.69    1.40
  -2   9   3   24.28    1.06
  -2   9   3   23.99    1.29
   1  -9  -3    8.93    0.64
  -1   9   3    9.61    0.82
  -1   9   3    8.31    0.50
   0  -9  -3    1.14    0.31
   0  10  -4    1.04    0.17
  -1  10  -4  169.89    5.34
  -1  10  -4  173.51    5.73
  -2  10  -4  108.73    3.90
  -3  10  -4    0.09    0.25
   1   9  -4    4.05    0.53
   1   9  -4    4.63    0.35
   0   9  -4   30.29    1.34
   0   9  -4   28.95    1.59
   0   9  -4   29.96    1.28
  -1   9  -4   42.06    2.10
  -2   9  -4   13.65    1.13
  -3   9  -4    7.52    0.80
   2   8  -4   -0.15    0.31
   1   8  -4   13.18    0.78
   1   8  -4   13.86    0.95
   0   8  -4    1.30    0.47
   0   8  -4    1.83    0.46
   0   8  -4    1.45    0.31
   0   8  -4    1.50    0.34
  -1   8  -4  416.35   12.45
  -1   8  -4  400.95   12.31
  -1   8  -4  398.87   13.00
  -2   8  -4   53.83    1.98
  -2   8  -4   57.50    2.64
  -3   8  -4  155.48    5.59
   3   7  -4    6.27    0.66
  -3  -7   4    6.03    0.59
   2   7  -4   86.88    2.92
   2   7  -4   87.80    3.16
  -2  -7   4   82.32    3.10
   1   7  -4  327.26    9.79
   1   7  -4  296.32    9.65
   1   7  -4  311.90    9.64
   0   7  -4 1000.92   29.72
   0   7  -4 1010.29   29.61
   0   7  -4  983.19   30.19
  -1   7  -4   82.95    3.46
  -1   7  -4   85.11    3.06
  -1   7  -4   82.75    2.85
  -2   7  -4    3.14    0.30
  -2   7  -4    2.73    0.59
  -2   7  -4    2.66    0.46
  -3   7  -4    0.36    0.26
   4   6  -4    5.05    0.60
  -4  -6   4    5.50    0.56
   3   6  -4  372.17   11.34
  -3  -6   4  361.06   11.35
   2   6  -4   16.04    1.03
   2   6  -4   13.48    0.77
  -2  -6   4   12.21    0.89
   1   6  -4  353.09   10.75
   1   6  -4  352.54   10.86
   1   6  -4  349.13   10.76
  -1  -6   4  346.31   14.08
   0   6  -4   20.49    1.34
   0   6  -4   21.50    1.14
   0   6  -4   22.58    1.01
   0  -6   4   21.41    1.73
  -1   6  -4  323.35    9.73
  -1   6  -4  318.23    9.94
   1  -6   4  325.30   11.15
  -2   6  -4    4.20    0.51
  -2   6  -4    4.56    0.65
   2  -6   4    3.84    0.78
  -3   6  -4    7.53    1.05
  -3   6  -4    7.24    0.67
  -5  -5   4   27.95    1.21
   4   5  -4   53.17    2.11
  -4  -5   4   51.47    2.13
   3   5  -4   31.91    1.55
  -3  -5   4   31.53    1.56
   2   5  -4    2.53    0.44
   2   5  -4    3.14    0.35
  -2  -5   4    2.84    0.45
   1   5  -4   13.24    0.86
   1   5  -4   13.59    1.23
   1   5  -4   13.29    0.74
  -1  -5   4   13.30    1.28
   0   5  -4   17.15    0.78
   0   5  -4   16.96    1.22
   0  -5   4   15.55    1.34
  -1   5  -4   93.56    2.91
  -1   5  -4   88.64    3.41
   1  -5   4   93.04    3.94
  -2   5  -4  160.77    5.28
   2  -5   4  164.84    6.08
  -3   5  -4  103.07    3.56
  -4   5  -4  330.67   10.59
  -5   5  -4  316.42   10.19
  -6   5  -4   49.57    2.06
  -5  -4   4   78.14    2.85
   4   4  -4   68.74    2.55
  -4  -4   4   62.46    2.57
   3   4  -4   84.48    3.04
  -3  -4   4   83.24    3.09
   2   4  -4    7.11    0.71
  -2  -4   4    7.54    0.96
  -2  -4   4    8.13    1.43
   1   4  -4  481.10   14.27
   1   4  -4  473.37   15.09
  -1  -4   4  479.40   15.21
   0   4  -4  439.35   13.18
   0   4  -4  408.32   12.50
   0  -4   4  416.49   13.42
  -1   4  -4  481.99   14.45
  -1   4  -4  503.32   14.97
   1  -4   4  490.15   15.45
  -2   4  -4  688.89   21.60
  -2   4  -4  708.43   20.69
   2  -4   4  678.50   21.24
  -3   4  -4   17.07    1.59
  -3   4  -4   17.36    0.96
   3  -4   4   17.52    1.01
  -4   4  -4 2217.03   65.17
  -4   4  -4 2191.34   64.79
  -5   4  -4  163.79    5.33
  -5   4  -4  173.59    5.65
  -5   4  -4  174.74    6.01
  -6   4  -4    1.04    0.26
  -6   4  -4    0.48    0.32
  -6  -3   4   82.64    2.83
  -5  -3   4   12.35    0.93
   4   3  -4  535.52   16.32
  -4  -3   4  543.66   16.45
   3   3  -4  101.73    3.47
  -2  -3   4  849.58   25.97
   1   3  -4 2474.88   73.64
   1   3  -4 2464.04   72.67
  -1  -3   4 2529.14   72.64
  -1  -3   4 2372.81   72.34
   0   3  -4  656.01   19.00
   0   3  -4  606.99   18.47
   0  -3   4  622.86   19.22
  -1   3  -4 1104.94   33.11
  -1   3  -4 1063.20   32.81
   1  -3   4 1136.09   32.94
  -2   3  -4  161.37    6.00
  -2   3  -4  157.42    5.17
   2  -3   4  158.55    4.99
  -3   3  -4    3.48    0.45
  -3   3  -4    3.17    0.56
  -3   3  -4    3.55    0.80
   3  -3   4    3.09    0.37
  -4   3  -4   18.40    1.03
  -4   3  -4   16.59    0.79
  -4   3  -4   16.21    1.04
  -4   3  -4   15.38    1.16
  -5   3  -4   98.05    3.34
  -5   3  -4   97.94    3.89
  -5   3  -4  101.44    3.60
  -5   3  -4   98.82    3.52
  -6   3  -4   -0.04    0.19
  -6   3  -4    0.15    0.28
   6   2  -4  279.25    8.91
  -6  -2   4  294.19    8.94
  -5  -2   4  451.08   13.93
  -4  -2   4  120.10    4.53
  -4  -2   4  121.90    4.22
   3   2  -4   43.35    2.41
  -3  -2   4   45.50    2.55
   2   2  -4    2.52    0.52
  -2  -2   4    0.78    0.36
  -2  -2   4    0.83    0.32
   1   2  -4   46.16    2.06
   1   2  -4   46.87    1.99
  -1  -2   4   45.60    2.04
  -1  -2   4   43.16    1.79
   0   2  -4  145.89    4.82
   0   2  -4  146.50    5.08
   0   2  -4  146.61    4.46
   0  -2   4  146.58    4.97
  -1   2  -4  325.71   10.24
  -1   2  -4  347.72   10.84
  -1   2  -4  352.23   10.37
   1  -2   4  316.75   10.40
  -2   2  -4  280.42    9.38
  -2   2  -4  264.89    8.75
  -2   2  -4  278.45    8.63
  -2   2  -4  267.15    8.10
   2  -2   4  273.28    8.42
  -3   2  -4  200.47    7.06
  -3   2  -4  198.84    7.67
  -3   2  -4  204.28    6.13
  -3   2  -4  200.43    6.78
   3  -2   4  195.97    6.55
  -4   2  -4  130.84    4.47
  -4   2  -4  130.32    4.21
  -4   2  -4  128.01    4.43
  -4   2  -4  128.53    4.75
  -5   2  -4   70.31    2.75
  -5   2  -4   75.66    3.11
  -5   2  -4   69.26    2.58
  -5   2  -4   75.00    2.81
  -6   2  -4   26.42    1.22
  -6   2  -4   27.85    1.43
   6   1  -4   94.98    3.52
  -6  -1   4   97.20    3.48
  -5  -1   4   14.19    1.27
  -5  -1   4   15.81    1.08
   4   1  -4   49.23    2.94
  -4  -1   4   49.76    1.94
  -4  -1   4   50.18    2.07
  -4  -1   4   51.44    2.36
   3   1  -4    0.39    0.35
  -3  -1   4    0.19    0.30
  -3  -1   4    0.49    0.16
   2   1  -4   89.06    3.04
   2   1  -4   87.44    3.13
   2   1  -4   91.41    3.55
  -2  -1   4   83.69    3.40
  -2  -1   4   88.55    3.39
  -2  -1   4   86.45    3.38
   1   1  -4  731.23   22.04
   1   1  -4  725.70   22.26
   1   1  -4  737.84   21.83
   1   1  -4  750.66   21.74
  -1  -1   4  763.00   22.14
  -1  -1   4  719.85   21.86
  -1  -1   4  718.48   22.14
   0   1  -4  927.88   25.35
   0   1  -4  708.15   25.49
   0  -1   4  914.64   25.42
  -1   1  -4  730.56   24.22
  -1   1  -4  799.80   23.90
  -1   1  -4  813.64   23.42
  -1   1  -4  837.70   23.85
   1  -1   4  812.35   23.81
  -2   1  -4  544.51   15.96
  -2   1  -4  537.55   17.19
  -2   1  -4  544.39   16.66
  -2   1  -4  541.32   16.58
   2  -1   4  531.04   16.34
  -3   1  -4  292.63    8.90
  -3   1  -4  290.13    9.59
  -3   1  -4  283.88   10.30
  -3   1  -4  291.35    8.73
  -3   1  -4  281.79    8.88
   3  -1   4  279.38    9.34
  -4   1  -4   52.64    2.22
  -4   1  -4   55.37    2.07
  -4   1  -4   51.82    2.18
  -4   1  -4   53.31    2.46
  -5   1  -4    1.03    0.42
  -5   1  -4    1.54    0.37
  -5   1  -4    1.51    0.31
   5  -1   4    1.79    0.44
  -6   1  -4   15.76    0.99
   7   0  -4   20.63    1.36
  -7   0   4   18.15    0.96
  -6   0   4  113.14    4.19
  -6   0   4  100.57    3.81
  -5   0   4  148.75    5.55
  -5   0   4  150.99    5.03
  -5   0   4  155.31    5.25
   4   0  -4    1.14    0.35
   4   0  -4    1.27    0.56
  -4   0   4    1.77    0.59
  -4   0   4    1.13    0.25
   3   0  -4  254.62    8.25
   3   0  -4  252.09    8.28
   3   0  -4  265.44    8.89
  -3   0   4  250.22    8.80
  -3   0   4  259.43    7.81
   2   0  -4 2369.18   67.07
   2   0  -4 1975.66   66.42
   2   0  -4 2423.17   66.67
  -2   0   4 2267.12   67.25
  -2   0   4 1991.67   65.53
  -2   0   4 2318.16   67.87
   1   0  -4  760.56   23.07
   1   0  -4  754.98   23.35
   1   0  -4  766.48   23.30
   1   0  -4  828.87   22.95
  -1   0   4  821.28   23.00
  -1   0   4  753.98   23.17
  -1   0   4  710.69   23.12
   0   0  -4 5896.88  174.17
   0   0  -4 5827.17  173.12
   0   0  -4 5824.43  172.36
   0   0  -4 6094.72  175.45
   0   0   4 6411.37  174.51
   0   0   4 5011.73  173.43
  -1   0  -4    2.05    0.37
  -1   0  -4    1.96    0.48
  -1   0  -4    2.49    0.23
  -1   0  -4    2.82    0.42
  -2   0  -4    1.15    0.39
  -2   0  -4    0.77    0.32
  -2   0  -4    0.88    0.45
  -2   0  -4    0.88    0.18
   2   0   4    0.85    0.25
  -3   0  -4    0.02    0.16
  -3   0  -4    0.08    0.12
  -3   0  -4    0.22    0.37
  -3   0  -4    0.58    0.31
  -4   0  -4  107.13    4.08
  -4   0  -4  105.49    3.82
  -4   0  -4  105.03    3.67
  -4   0  -4  108.96    3.80
  -5   0  -4    5.97    0.60
  -5   0  -4    5.65    0.72
   5   0   4    6.67    0.67
   7  -1  -4   27.48    1.27
  -7   1   4   25.41    1.21
  -6   1   4  482.71   14.65
  -6   1   4  479.10   14.56
  -6   1   4  491.54   15.02
  -6   1   4  445.50   14.41
  -5   1   4  129.68    4.33
  -5   1   4  128.22    4.53
  -5   1   4  131.93    4.87
  -5   1   4  125.78    4.46
   4  -1  -4    4.52    0.58
   4  -1  -4    5.15    0.92
   4  -1  -4    4.27    0.68
  -4   1   4    4.67    0.71
  -4   1   4    4.84    0.42
  -4   1   4    4.54    0.80
   3  -1  -4 1883.17   57.63
   3  -1  -4 1899.75   58.01
   3  -1  -4 1941.48   57.53
  -3   1   4 1994.58   57.82
  -3   1   4 1950.42   60.26
  -3   1   4 2019.33   58.12
  -3   1   4 1924.61   57.38
   2  -1  -4   50.26    2.07
   2  -1  -4   48.95    2.31
   2  -1  -4   51.41    1.99
  -2   1   4   49.67    2.30
  -2   1   4   49.65    1.69
  -2   1   4   48.85    2.17
  -2   1   4   49.03    2.28
   1  -1  -4 1558.63   47.74
   1  -1  -4 1579.86   48.13
   1  -1  -4 1633.73   48.08
   1  -1  -4 1744.67   47.95
   1  -1  -4 1600.32   47.18
  -1   1   4 1525.98   47.17
  -1   1   4 1425.86   46.79
   0  -1  -4  594.56   17.63
   0  -1  -4  555.42   17.77
   0  -1  -4  618.57   18.00
   0  -1  -4  604.95   17.74
   0  -1  -4  572.01   17.64
   0   1   4  586.29   17.78
   0   1   4  573.07   17.88
  -1  -1  -4    0.53    0.26
  -1  -1  -4    0.73    0.28
  -1  -1  -4    0.58    0.30
  -1  -1  -4    0.64    0.15
  -1  -1  -4    0.79    0.35
  -2  -1  -4    0.98    0.21
  -2  -1  -4    0.42    0.29
  -2  -1  -4    0.54    0.36
  -2  -1  -4    0.47    0.34
  -3  -1  -4    8.98    0.80
  -3  -1  -4    8.82    0.62
  -3  -1  -4    9.51    0.72
  -4  -1  -4  375.74   11.52
   4   1   4  367.39   11.47
  -5  -1  -4    1.38    0.31
   5   1   4    1.23    0.34
   7  -2  -4    3.61    0.53
  -7   2   4    2.72    0.46
  -7   2   4    2.13    0.39
  -6   2   4   34.83    1.54
  -6   2   4   34.45    1.74
  -6   2   4   34.90    1.96
  -6   2   4   35.12    1.70
  -5   2   4   91.89    3.48
  -5   2   4   88.03    3.68
  -5   2   4   94.90    3.25
  -5   2   4   97.05    3.49
   4  -2  -4  178.38    7.11
   4  -2  -4  197.09    6.71
  -4   2   4  180.26    5.98
  -4   2   4  175.84    6.61
  -4   2   4  185.95    5.77
   3  -2  -4  130.50    4.85
   3  -2  -4  137.72    5.26
   3  -2  -4  134.02    4.63
  -3   2   4  138.58    4.93
  -3   2   4  131.27    4.21
  -3   2   4  133.12    5.32
  -3   2   4  132.71    5.05
   2  -2  -4  189.20    6.24
   2  -2  -4  185.42    6.07
   2  -2  -4  178.34    6.37
   2  -2  -4  177.09    6.45
  -2   2   4  201.36    6.51
  -2   2   4  194.55    6.34
  -2   2   4  181.69    5.68
  -2   2   4  179.22    6.53
   1  -2  -4  263.92    8.55
   1  -2  -4  273.46    8.43
   1  -2  -4  262.79    8.31
   1  -2  -4  265.15    8.50
  -1   2   4  251.84    8.55
  -1   2   4  260.45    8.61
  -1   2   4  265.63    7.94
   0  -2  -4  329.87   10.90
   0  -2  -4  341.97   10.95
   0  -2  -4  348.54   11.01
   0   2   4  368.43   11.02
  -1  -2  -4    2.08    0.44
  -1  -2  -4    3.91    0.59
  -2  -2  -4  177.83    5.73
  -2  -2  -4  177.64    5.71
  -3  -2  -4    0.03    0.20
   3   2   4    0.19    0.27
  -4  -2  -4   38.22    1.72
   4   2   4   41.42    1.74
   5   2   4   44.85    1.70
   7  -3  -4   43.64    1.77
  -7   3   4   42.04    1.73
  -7   3   4   44.62    1.80
  -6   3   4   35.56    1.72
  -6   3   4   35.79    1.77
  -6   3   4   35.35    1.53
  -6   3   4   36.05    1.93
  -5   3   4   77.36    3.00
  -5   3   4   79.39    3.02
  -5   3   4   76.66    2.72
  -5   3   4   71.78    3.11
   4  -3  -4  380.47   13.55
  -4   3   4  420.26   12.12
  -4   3   4  403.40   12.40
   3  -3  -4  109.29    4.38
   3  -3  -4  105.19    4.13
   3  -3  -4  105.99    4.56
   3  -3  -4  104.66    3.86
  -3   3   4  104.22    4.62
  -3   3   4  105.92    4.42
  -3   3   4  108.98    4.15
  -3   3   4  106.09    3.43
   2  -3  -4  108.86    4.02
   2  -3  -4  108.25    3.83
   2  -3  -4  103.90    4.27
   2  -3  -4  103.72    4.06
  -2   3   4  113.32    4.35
  -2   3   4  100.65    4.03
  -2   3   4  105.31    3.41
   1  -3  -4 1139.85   34.28
   1  -3  -4 1128.28   34.67
   1  -3  -4 1199.35   34.40
  -1   3   4 1115.30   33.77
  -1   3   4 1140.31   34.58
  -1   3   4 1173.39   34.70
   0  -3  -4  229.36    7.42
   0  -3  -4  213.49    7.55
   0   3   4  215.74    7.44
  -1  -3  -4   25.98    1.74
  -1  -3  -4   27.10    1.62
  -2  -3  -4  499.64   15.03
   2   3   4  491.21   14.97
  -3  -3  -4  167.57    5.42
   3   3   4  161.03    5.40
   4   3   4   21.14    1.11
  -7   4   4   27.43    1.28
  -7   4   4   29.60    1.34
  -6   4   4   17.94    1.16
  -6   4   4   16.72    0.90
  -6   4   4   17.51    1.12
  -5   4   4    0.97    0.25
  -5   4   4    0.70    0.35
  -5   4   4    1.53    0.44
  -4   4   4  479.39   14.73
  -4   4   4  472.86   14.40
  -4   4   4  482.26   14.72
  -4   4   4  485.51   15.95
   3  -4  -4   67.08    3.99
   3  -4  -4   81.75    4.87
   3  -4  -4   67.86    2.86
  -3   4   4   67.38    2.39
  -3   4   4   66.07    3.06
  -3   4   4   70.30    3.49
   2  -4  -4  248.96    8.34
   2  -4  -4  249.14    8.99
   2  -4  -4  255.50    8.58
  -2   4   4  267.95    9.05
  -2   4   4  246.84    8.66
  -2   4   4  258.92    7.81
   1  -4  -4    0.79    0.35
   1  -4  -4    0.05    0.24
   1  -4  -4    0.15    0.18
  -1   4   4    0.29    0.36
  -1   4   4    0.14    0.24
  -1   4   4    0.38    0.15
   0  -4  -4   89.78    3.68
   0  -4  -4   86.69    4.00
  -1  -4  -4  117.66    4.08
  -1  -4  -4  122.04    4.05
   1   4   4  124.07    4.52
   2   4   4  221.26    7.05
   3   4   4   -0.07    0.25
   4   4   4   42.06    1.62
  -7   5   4  233.71    7.30
  -6   5   4   94.59    3.53
  -6   5   4   94.67    3.47
  -5   5   4  358.14   11.30
  -5   5   4  359.79   11.36
  -4   5   4  157.59    5.36
  -4   5   4  156.31    5.06
  -4   5   4  158.88    5.44
  -3   5   4   22.54    1.93
  -3   5   4   20.93    1.17
  -3   5   4   20.95    1.00
  -3   5   4   20.06    1.25
  -2   5   4    1.76    0.36
  -2   5   4    2.61    0.33
  -2   5   4    2.11    0.76
   1  -5  -4   92.74    3.32
  -1   5   4   98.17    3.25
  -1   5   4   94.25    4.22
  -1   5   4   91.41    4.28
   0   5   4  130.42    4.83
   0   5   4  128.16    4.28
   0   5   4  130.80    4.58
  -1  -5  -4  127.44    4.42
   1   5   4  134.31    4.18
  -2  -5  -4   83.57    3.04
   2   5   4   84.63    3.69
   3   5   4   53.34    2.00
  -6   6   4   19.66    1.21
  -6   6   4   20.09    1.11
  -5   6   4   22.58    1.06
  -5   6   4   22.63    1.39
  -5   6   4   22.87    1.29
  -4   6   4  200.83    6.78
  -4   6   4  199.62    6.60
  -4   6   4  201.34    6.36
  -3   6   4  303.81    9.94
  -3   6   4  322.00   10.18
  -3   6   4  325.27    9.78
  -2   6   4    3.69    0.70
  -2   6   4    4.26    0.43
  -2   6   4    3.95    0.65
  -1   6   4  185.99    6.62
  -1   6   4  183.91    6.02
  -1   6   4  190.38    6.36
  -1   6   4  188.96    6.06
   0   6   4  101.48    3.83
   0   6   4  102.80    4.09
   0   6   4  101.83    3.49
  -1  -6  -4  106.53    3.75
   1   6   4  108.40    4.15
  -2  -6  -4   50.36    1.97
  -6   7   4   13.37    0.89
  -6   7   4   12.53    0.79
  -5   7   4   -0.02    0.33
  -5   7   4    0.74    0.28
  -4   7   4  110.59    3.81
  -4   7   4  117.94    4.24
  -3   7   4    3.24    0.63
  -3   7   4    5.43    0.76
  -2   7   4    0.20    0.32
  -2   7   4    1.21    0.47
  -2   7   4    0.27    0.18
  -2   7   4    0.44    0.20
  -1   7   4  129.23    4.91
  -1   7   4  127.47    4.62
  -1   7   4  127.07    4.29
   0  -7  -4    6.68    0.71
   0   7   4    7.49    0.52
   0   7   4    5.42    0.82
  -1  -7  -4    3.77    0.49
   1   7   4    2.65    0.51
  -5   8   4    4.24    0.60
  -4   8   4   30.75    1.57
  -3   8   4   54.29    2.47
  -3   8   4   54.58    2.34
  -2   8   4  116.10    3.89
  -2   8   4  114.86    4.18
  -2   8   4  117.66    4.42
  -1   8   4  131.18    4.25
  -1   8   4  129.84    4.79
   0  -8  -4   86.92    3.03
   0   8   4   88.67    3.34
  -4   9   4   17.00    0.96
  -3   9   4  129.14    4.31
  -3   9   4  124.36    4.08
  -3   9   4  130.80    4.40
  -2   9   4    5.04    0.61
  -2   9   4    5.39    0.39
  -2   9   4    4.90    0.61
   1  -9  -4   39.53    1.50
  -1   9   4   37.84    1.31
  -1   9   4   40.19    1.73
   0  10  -5   26.42    1.00
  -1  10  -5  244.82    7.51
  -1  10  -5  250.61    7.90
  -2  10  -5    2.68    0.47
   1   9  -5    4.84    0.53
   1   9  -5    4.63    0.35
   0   9  -5   74.46    3.04
   0   9  -5   78.40    2.76
   0   9  -5   78.46    2.68
  -1   9  -5  294.55    9.56
  -1   9  -5  290.56    9.04
  -2   9  -5    4.73    0.69
  -3   9  -5    0.26    0.30
   2   8  -5   55.89    2.09
   2   8  -5   53.50    1.79
   1   8  -5  104.95    3.67
   1   8  -5  105.17    3.54
   0   8  -5   26.80    1.38
   0   8  -5   24.80    1.58
   0   8  -5   25.65    1.22
  -1   8  -5  557.95   17.29
  -1   8  -5  541.73   16.55
  -1   8  -5  554.54   16.70
  -2   8  -5    0.10    0.29
  -2   8  -5    0.22    0.31
  -2   8  -5    0.27    0.13
  -3   8  -5    0.28    0.33
   3   7  -5   11.84    0.81
   2   7  -5  152.04    4.91
   2   7  -5  141.26    4.69
   1   7  -5    4.96    0.49
   1   7  -5    4.67    0.47
   1   7  -5    5.51    0.68
   0   7  -5  372.11   11.25
   0   7  -5  371.11   11.38
   0   7  -5  357.42   11.82
  -1   7  -5  518.69   15.76
  -1   7  -5  513.47   15.56
  -1   7  -5  524.63   16.30
  -2   7  -5   29.89    1.22
  -2   7  -5   33.95    1.51
  -2   7  -5   31.77    1.85
  -3   7  -5  201.15    6.90
  -3   7  -5  195.53    6.39
   4   6  -5   38.44    1.56
  -4  -6   5   38.43    1.56
   3   6  -5  109.36    3.83
   2   6  -5   13.27    0.96
   2   6  -5   10.78    0.69
   1   6  -5    5.71    0.51
   1   6  -5    5.72    0.68
   1   6  -5    5.72    0.50
   0   6  -5   38.67    1.54
   0   6  -5   39.49    1.97
   0   6  -5   37.41    1.66
   0  -6   5   36.21    2.43
  -1   6  -5   18.81    0.87
  -1   6  -5   19.37    1.31
  -1   6  -5   20.01    1.09
   1  -6   5   20.58    1.71
  -2   6  -5   35.62    1.90
  -2   6  -5   35.46    1.56
  -2   6  -5   34.03    1.25
   2  -6   5   32.94    2.22
  -3   6  -5   10.98    0.83
  -3   6  -5   10.18    0.97
  -5  -5   5    5.86    0.68
   4   5  -5  225.92    7.03
  -4  -5   5  215.84    7.05
   3   5  -5   21.70    1.25
  -3  -5   5   22.09    1.21
   2   5  -5  221.73    6.85
   2   5  -5  214.73    6.98
   1   5  -5   89.46    2.97
   1   5  -5   86.85    3.04
   1   5  -5   76.84    3.67
  -1  -5   5   88.60    3.98
   0   5  -5    6.03    0.73
   0   5  -5    6.16    0.43
   0  -5   5    6.38    0.91
  -1   5  -5    2.66    0.25
  -1   5  -5    2.66    0.45
   1  -5   5    3.05    0.68
  -2   5  -5   81.83    2.84
   2  -5   5   76.58    3.72
  -3   5  -5   21.42    1.29
  -3   5  -5   21.41    1.16
  -4   5  -5    6.47    0.77
  -4   5  -5    7.39    0.74
  -5   5  -5  131.04    4.72
  -6   5  -5   67.93    2.94
  -5  -4   5   24.21    1.23
   4   4  -5  105.43    3.70
  -4  -4   5  107.32    3.79
   3   4  -5   56.63    2.09
   3   4  -5   44.75    1.97
  -3  -4   5   51.65    2.09
   2   4  -5    2.82    0.44
  -2  -4   5    3.00    0.77
   1   4  -5  407.81   13.61
   1   4  -5  439.68   12.80
  -1  -4   5  430.99   13.84
   0   4  -5    0.02    0.08
   0   4  -5    0.47    0.26
   0  -4   5    0.11    0.30
  -1   4  -5   13.27    0.91
  -1   4  -5   12.80    1.14
  -1   4  -5   12.36    0.56
   1  -4   5   13.95    1.16
  -2   4  -5   87.89    3.99
  -2   4  -5   85.22    3.19
  -3   4  -5  160.90    6.66
  -3   4  -5  162.78    5.52
  -3   4  -5  154.24    5.22
  -4   4  -5  553.20   17.08
  -4   4  -5  572.89   17.48
  -5   4  -5  142.40    5.11
  -5   4  -5  142.50    4.75
  -5   4  -5  140.15    4.71
  -6   4  -5    3.75    0.54
  -6  -3   5   46.34    1.75
  -5  -3   5   36.98    1.71
   4   3  -5  671.33   20.67
  -4  -3   5  693.05   20.60
   3   3  -5   32.77    1.43
  -2  -3   5  523.98   16.60
   1   3  -5  414.08   13.43
   1   3  -5  432.61   12.60
   1   3  -5  435.66   13.36
  -1  -3   5  405.45   13.43
   0   3  -5  228.69    7.54
   0   3  -5  207.38    6.59
   0   3  -5  215.49    7.15
   0  -3   5  222.74    7.42
  -1   3  -5   75.74    2.44
  -1   3  -5   80.43    3.41
  -1   3  -5   79.13    2.96
   1  -3   5   74.57    3.13
  -2   3  -5   91.51    4.10
  -2   3  -5   87.66    2.83
  -2   3  -5   91.15    3.38
  -3   3  -5  126.88    4.32
  -3   3  -5  127.55    5.66
  -3   3  -5  132.56    4.06
  -3   3  -5  128.29    4.60
  -3   3  -5  127.79    4.40
  -4   3  -5  131.04    4.28
  -4   3  -5  133.11    4.53
  -4   3  -5  131.83    4.87
  -4   3  -5  134.30    4.56
  -5   3  -5   85.90    3.15
  -5   3  -5   88.41    3.51
  -5   3  -5   87.89    3.20
  -6   3  -5    1.81    0.39
   6   2  -5  215.94    7.10
  -6  -2   5  233.49    7.12
   5   2  -5    7.98    0.90
  -5  -2   5    7.77    0.80
   4   2  -5  177.26    6.03
  -4  -2   5  182.01    5.92
   3   2  -5   23.68    1.75
  -3  -2   5   23.61    1.74
   2   2  -5 1452.85   44.56
  -2  -2   5 1517.80   44.48
   1   2  -5  940.56   28.05
   1   2  -5  907.52   27.43
   1   2  -5  955.54   28.35
   0   2  -5  157.40    5.57
   0   2  -5  147.91    4.70
   0   2  -5  154.05    5.22
   0  -2   5  157.67    5.41
  -1   2  -5   17.16    1.35
  -1   2  -5   18.14    1.09
  -1   2  -5   17.77    0.71
   1  -2   5   18.46    1.15
  -2   2  -5  127.72    4.53
  -2   2  -5  124.22    3.95
  -2   2  -5  131.84    5.26
  -2   2  -5  122.83    4.59
  -3   2  -5   92.94    4.53
  -3   2  -5   90.92    3.52
  -3   2  -5   93.95    3.30
  -3   2  -5   92.98    3.25
  -4   2  -5    5.51    0.75
  -4   2  -5    6.35    0.72
  -4   2  -5    5.69    0.62
  -4   2  -5    6.34    0.49
  -5   2  -5   28.53    1.62
  -5   2  -5   28.91    1.42
  -5   2  -5   28.48    1.42
   6   1  -5   69.97    2.79
  -6  -1   5   72.28    2.73
  -5  -1   5   70.20    3.08
  -5  -1   5   67.63    2.75
   4   1  -5  194.64    7.66
  -4  -1   5  196.34    6.36
  -4  -1   5  197.64    6.75
   3   1  -5    9.25    1.09
  -3  -1   5    8.21    0.99
  -3  -1   5    7.93    0.95
   2   1  -5   27.11    1.73
  -2  -1   5   36.62    1.87
  -2  -1   5   27.14    1.55
   1   1  -5   40.46    2.00
   1   1  -5   37.49    1.77
   1   1  -5   36.34    1.48
  -1  -1   5   37.77    1.86
   0   1  -5   39.33    2.01
   0   1  -5   39.09    1.60
   0   1  -5   39.55    1.77
   0   1  -5   37.09    1.34
   0  -1   5   39.83    1.83
  -1   1  -5  197.95    6.95
  -1   1  -5  193.07    5.92
  -1   1  -5  191.87    6.36
  -1   1  -5  196.28    6.54
  -2   1  -5  184.32    6.94
  -2   1  -5  181.99    5.64
  -2   1  -5  179.89    6.36
  -2   1  -5  182.72    6.35
  -3   1  -5    4.98    0.53
  -3   1  -5    5.92    0.63
  -3   1  -5    6.10    0.47
  -3   1  -5    5.07    0.65
  -3   1  -5    5.29    1.04
  -4   1  -5    3.22    0.40
  -4   1  -5    2.23    0.52
  -4   1  -5    2.78    0.47
  -4   1  -5    2.08    0.52
  -5   1  -5    0.97    0.38
  -5   1  -5    1.89    0.39
   5  -1   5    1.48    0.38
   6   0  -5   38.48    1.85
  -6   0   5   34.85    1.71
  -5   0   5   54.47    2.35
  -5   0   5   58.03    2.24
  -5   0   5   56.50    2.69
   4   0  -5    3.13    0.82
  -4   0   5    3.36    0.38
  -4   0   5    2.58    0.87
   3   0  -5  111.44    4.10
   3   0  -5  110.82    4.66
   3   0  -5  114.07    4.12
  -3   0   5  111.71    4.57
  -3   0   5  113.34    3.66
   2   0  -5   10.12    1.00
   2   0  -5   10.05    0.74
   2   0  -5    9.61    0.72
  -2   0   5    9.65    0.54
  -2   0   5    9.51    0.85
  -2   0   5   11.27    1.00
  -2   0   5   10.26    0.90
   1   0  -5   77.26    2.83
   1   0  -5   73.22    2.88
   1   0  -5   71.78    2.69
   1   0  -5   73.16    3.09
  -1   0   5   75.45    2.98
  -1   0   5   73.04    2.98
   0   0  -5   32.59    1.51
   0   0  -5   34.29    1.82
   0   0  -5   30.60    1.58
   0   0  -5   32.01    1.18
   0   0   5   32.75    1.61
  -1   0  -5 3568.23  110.00
  -1   0  -5 3622.31  111.59
  -1   0  -5 4170.23  114.66
  -1   0  -5 3601.70  112.82
  -2   0  -5  245.42    8.58
  -2   0  -5  258.30    7.72
  -2   0  -5  251.48    8.50
  -2   0  -5  249.15    9.01
  -3   0  -5  240.64    7.91
  -3   0  -5  230.59    9.09
  -3   0  -5  239.32    7.65
  -3   0  -5  249.31    7.55
  -3   0  -5  243.05    7.67
  -4   0  -5   37.29    1.71
  -4   0  -5   40.37    1.80
  -4   0  -5   36.84    1.92
  -4   0  -5   36.50    1.61
  -5   0  -5   41.61    1.73
   5   0   5   41.36    1.69
   7  -1  -5   20.14    1.06
  -7   1   5   19.40    1.01
  -6   1   5   64.62    2.59
  -6   1   5   69.64    3.00
  -6   1   5   68.42    2.71
  -5   1   5   10.87    0.75
  -5   1   5   11.11    0.91
  -5   1   5   10.33    1.08
   4  -1  -5  798.59   26.35
  -4   1   5  859.78   24.83
  -4   1   5  826.80   24.95
  -4   1   5  853.16   26.29
   3  -1  -5   36.52    1.76
   3  -1  -5   37.56    2.24
   3  -1  -5   36.75    1.88
  -3   1   5   36.33    2.11
  -3   1   5   36.75    2.06
  -3   1   5   36.50    1.42
  -3   1   5   36.03    2.17
   2  -1  -5   17.27    1.09
   2  -1  -5   16.62    1.30
   2  -1  -5   16.33    1.00
  -2   1   5   15.94    1.26
  -2   1   5   18.00    1.23
  -2   1   5   17.21    1.23
   1  -1  -5  979.40   29.66
   1  -1  -5  998.61   29.74
   1  -1  -5 1016.41   29.73
   1  -1  -5  995.06   30.08
  -1   1   5 1037.38   30.09
  -1   1   5  950.16   30.01
   0  -1  -5  304.96    9.99
   0  -1  -5  305.12    9.71
   0  -1  -5  308.74   10.40
   0   1   5  301.73    9.76
  -1  -1  -5    1.79    0.24
  -1  -1  -5    2.17    0.55
  -1  -1  -5    1.71    0.44
  -2  -1  -5    8.16    0.68
  -2  -1  -5    8.97    0.65
  -2  -1  -5    7.72    1.04
  -2  -1  -5    9.01    0.58
  -3  -1  -5    0.24    0.31
  -3  -1  -5    0.83    0.24
  -3  -1  -5    0.22    0.22
  -4  -1  -5   29.10    1.43
   4   1   5   29.80    1.43
  -5  -1  -5    0.26    0.20
   5   1   5    0.58    0.28
   7  -2  -5   21.98    1.17
  -7   2   5   24.87    1.18
  -6   2   5    1.86    0.58
  -6   2   5    1.33    0.30
  -6   2   5    1.72    0.48
  -6   2   5    3.80    0.56
  -5   2   5   32.39    1.89
  -5   2   5   34.73    1.70
  -5   2   5   37.38    1.57
  -5   2   5   37.73    1.78
   4  -2  -5  125.12    5.54
  -4   2   5  130.03    4.28
  -4   2   5  137.21    4.50
   3  -2  -5   56.05    2.46
   3  -2  -5   59.12    2.66
   3  -2  -5   58.77    2.97
  -3   2   5   59.54    2.91
  -3   2   5   59.16    2.06
  -3   2   5   56.23    3.00
  -3   2   5   59.02    2.77
   2  -2  -5   44.49    2.28
   2  -2  -5   47.78    2.14
   2  -2  -5   45.83    2.34
   2  -2  -5   45.55    2.00
  -2   2   5   44.31    1.64
  -2   2   5   45.28    2.25
  -2   2   5   43.05    2.30
   1  -2  -5    5.75    0.68
   1  -2  -5    7.13    0.80
   1  -2  -5    5.67    0.59
  -1   2   5    6.58    0.79
  -1   2   5    6.04    0.42
  -1   2   5    5.81    0.74
   0  -2  -5  128.80    4.73
   0  -2  -5  129.53    4.63
   0   2   5  118.09    4.58
  -1  -2  -5   16.77    1.23
  -2  -2  -5   44.18    1.82
  -2  -2  -5   41.88    1.80
  -3  -2  -5  131.01    4.50
   3   2   5  132.75    4.45
  -4  -2  -5  140.25    4.62
   4   2   5  135.58    4.56
   7  -3  -5   10.65    0.76
  -7   3   5   10.41    0.70
  -7   3   5   11.76    0.79
   6  -3  -5    2.59    0.59
  -6   3   5    1.79    0.48
  -6   3   5    1.68    0.41
  -6   3   5    1.17    0.28
  -5   3   5  119.72    4.34
  -5   3   5  120.73    4.34
  -5   3   5  123.72    4.10
   4  -3  -5   31.89    2.31
  -4   3   5   34.32    2.34
  -4   3   5   33.35    1.63
  -4   3   5   35.09    1.63
  -4   3   5   35.52    1.43
   3  -3  -5    2.37    0.69
   3  -3  -5    2.54    0.63
   3  -3  -5    2.41    0.61
   3  -3  -5    2.37    0.43
  -3   3   5    3.12    0.86
  -3   3   5    2.54    0.53
  -3   3   5    2.57    0.31
   2  -3  -5  812.90   25.02
   2  -3  -5  815.48   25.52
   2  -3  -5  832.52   25.24
  -2   3   5  804.73   25.58
  -2   3   5  842.23   25.47
  -2   3   5  847.37   24.45
   1  -3  -5   31.45    1.74
   1  -3  -5   30.18    1.83
   1  -3  -5   30.44    1.66
  -1   3   5   33.28    1.29
  -1   3   5   31.46    1.91
  -1   3   5   28.49    1.99
   0  -3  -5   82.44    3.35
   0  -3  -5   68.94    3.84
  -1  -3  -5  801.36   23.88
  -2  -3  -5  246.16    7.76
   2   3   5  241.86    7.67
  -3  -3  -5   71.62    2.73
   3   3   5   75.93    2.73
   4   3   5  163.53    5.20
  -7   4   5   32.76    1.41
  -7   4   5   29.80    1.44
  -6   4   5    0.24    0.33
  -6   4   5    0.06    0.28
  -5   4   5  189.93    6.61
  -5   4   5  207.01    6.65
  -4   4   5  326.74   10.31
  -4   4   5  312.01   10.30
  -4   4   5  340.57   10.07
  -3   4   5  129.62    4.21
  -3   4   5  126.77    4.43
  -3   4   5  128.31    5.50
   2  -4  -5    0.79    0.42
   2  -4  -5    1.11    0.37
  -2   4   5    0.97    0.45
  -2   4   5    0.77    0.29
  -2   4   5    1.22    0.62
  -2   4   5    0.98    0.23
   1  -4  -5   74.54    3.58
   1  -4  -5   75.59    2.67
  -1   4   5   74.73    3.54
  -1   4   5   70.87    2.58
   0  -4  -5   12.18    0.75
   0   4   5   11.85    1.04
  -1  -4  -5   26.80    1.29
   1   4   5   28.68    1.68
  -2  -4  -5  223.62    7.12
   2   4   5  223.44    7.69
   3   4   5  108.27    3.65
  -7   5   5   27.58    1.24
  -6   5   5   74.23    2.83
  -6   5   5   74.46    2.89
  -5   5   5   25.80    1.50
  -5   5   5   27.46    1.46
  -5   5   5   25.52    1.22
  -4   5   5 1016.14   29.84
  -4   5   5  996.51   30.16
  -4   5   5 1005.11   30.13
  -3   5   5   46.49    2.13
  -3   5   5   46.31    2.04
  -3   5   5   47.03    1.86
   2  -5  -5    8.88    0.68
  -2   5   5    9.39    0.89
  -2   5   5    7.80    0.81
  -2   5   5    8.80    1.24
  -2   5   5    8.84    0.63
   1  -5  -5    0.79    0.23
  -1   5   5    0.64    0.49
  -1   5   5    0.42    0.20
  -1   5   5    0.37    0.18
  -1   5   5    0.02    0.33
  -1   5   5    0.33    0.30
   0  -5  -5    3.89    0.48
   0   5   5    4.45    0.68
   0   5   5    4.50    0.42
   0   5   5    3.60    0.70
   1   5   5  474.22   14.96
  -6   6   5   19.76    1.08
  -6   6   5   20.59    1.18
  -5   6   5    0.31    0.16
  -5   6   5    0.33    0.39
  -5   6   5    0.31    0.28
  -4   6   5  142.86    4.70
  -4   6   5  138.53    4.89
  -4   6   5  144.65    5.07
   3  -6  -5    0.94    0.31
  -3   6   5    1.03    0.48
  -3   6   5    0.25    0.17
   2  -6  -5    3.94    0.48
  -2   6   5    2.31    0.55
  -2   6   5    2.60    0.36
  -2   6   5    2.44    0.40
  -2   6   5    2.70    0.59
  -1   6   5  428.95   13.68
  -1   6   5  448.83   13.37
   0  -6  -5   43.21    1.89
   0   6   5   44.43    2.29
   0   6   5   45.35    1.72
  -1  -6  -5    9.23    0.71
   1   6   5    8.61    0.90
  -6   7   5   64.57    2.42
  -5   7   5    1.26    0.42
   4  -7  -5  262.32    8.27
  -4   7   5  278.96    8.68
  -4   7   5  259.56    8.29
  -3   7   5   17.86    1.31
  -3   7   5   17.06    1.23
  -3   7   5   18.75    0.98
  -2   7   5    2.74    0.38
  -2   7   5    2.81    0.63
  -2   7   5    1.90    0.54
  -2   7   5    2.37    0.37
  -1   7   5   12.89    0.77
  -1   7   5   14.55    1.10
  -1   7   5   13.62    1.19
   0  -7  -5  119.22    4.09
   0   7   5  123.79    3.89
   0   7   5  122.50    4.53
  -1  -7  -5   33.53    1.41
   1   7   5   32.56    1.53
  -5   8   5   38.69    1.65
  -4   8   5   15.28    1.00
  -3   8   5   47.44    2.07
  -3   8   5   47.12    2.15
  -3   8   5   46.78    1.80
  -2   8   5    4.45    0.67
  -2   8   5    4.92    0.42
  -2   8   5    4.60    0.64
   1  -8  -5  316.78    9.91
  -1   8   5  333.18   10.35
  -1   8   5  321.90    9.75
   0  -8  -5   48.47    1.79
   0   8   5   50.53    2.04
  -3   9   5   55.68    2.10
  -3   9   5   56.17    1.91
   2  -9  -5   48.81    1.82
  -2   9   5   48.04    2.06
  -2   9   5   50.50    1.66
  -1  10  -6    1.60    0.39
  -2  10  -6    1.01    0.31
   1   9  -6  105.45    3.33
   1   9  -6  104.48    3.47
   0   9  -6   88.26    3.36
   0   9  -6   86.88    3.06
   0   9  -6   91.17    2.99
  -1   9  -6    1.28    0.42
  -1   9  -6    2.17    0.40
  -2   9  -6    1.75    0.37
  -2   9  -6    0.98    0.39
  -3   9  -6   42.12    1.91
   2   8  -6    1.86    0.20
   2   8  -6    1.68    0.38
   1   8  -6  118.20    3.97
   1   8  -6  112.79    3.81
   0   8  -6    4.21    0.58
   0   8  -6    2.43    0.35
   0   8  -6    2.70    0.36
   0   8  -6    3.06    0.58
  -1   8  -6    2.47    0.56
  -1   8  -6    3.31    0.54
  -1   8  -6    2.53    0.34
  -2   8  -6   83.75    3.39
  -2   8  -6   75.97    2.69
  -2   8  -6   80.32    2.91
  -3   8  -6  177.20    5.98
  -3   8  -6  164.04    5.50
   3   7  -6    0.76    0.34
   2   7  -6   73.83    2.57
   2   7  -6   73.90    2.77
   1   7  -6   53.62    2.19
   1   7  -6   54.18    2.06
   1   7  -6   50.92    2.06
   0   7  -6   83.55    2.94
   0   7  -6   85.59    3.10
   0   7  -6   78.14    3.44
  -1   7  -6  299.47    9.48
  -1   7  -6  323.87    9.70
  -1   7  -6  305.11   10.22
  -2   7  -6    4.67    0.74
  -2   7  -6    4.60    0.38
  -2   7  -6    4.57    0.59
  -3   7  -6   40.49    2.08
  -3   7  -6   40.74    1.79
   4   6  -6   11.34    0.75
   3   6  -6    4.58    0.59
   2   6  -6   96.80    3.48
   2   6  -6   98.90    3.37
   1   6  -6   31.06    1.40
   1   6  -6   32.78    1.55
   1   6  -6   31.59    1.40
   0   6  -6  488.58   15.35
   0   6  -6  503.88   14.72
   0   6  -6  469.50   14.83
  -1   6  -6  317.45   10.21
  -1   6  -6  335.51   10.77
  -1   6  -6  334.47   10.01
  -2   6  -6    2.12    0.44
  -2   6  -6    2.68    0.27
  -2   6  -6    1.99    0.52
  -3   6  -6   53.03    2.15
  -3   6  -6   50.38    2.44
  -4   6  -6  236.34    8.12
  -4   6  -6  235.12    7.49
  -5   6  -6   11.78    0.87
   4   5  -6   14.77    0.93
   3   5  -6   11.31    0.90
   2   5  -6  336.96   10.19
   2   5  -6  327.81   10.30
   1   5  -6  401.65   12.15
   1   5  -6  407.81   12.24
  -1  -5   6  390.90   13.49
   0   5  -6  189.92    5.87
   0   5  -6  192.89    6.03
   0  -5   6  178.33    7.03
  -1   5  -6   44.84    1.86
  -1   5  -6   46.55    1.68
   1  -5   6   47.00    2.63
  -2   5  -6    1.76    0.44
  -2   5  -6    1.72    0.21
  -2   5  -6    1.32    0.43
  -2   5  -6    1.24    0.37
  -3   5  -6   14.94    1.11
  -3   5  -6   17.69    1.06
  -3   5  -6   16.04    0.74
  -4   5  -6   80.44    3.03
  -4   5  -6   81.83    3.30
  -4   5  -6   82.06    2.74
  -5   5  -6   36.97    1.79
  -5   5  -6   36.38    1.54
  -5  -4   6  190.88    6.09
  -4  -4   6   58.07    2.90
   3   4  -6    9.15    0.82
   2   4  -6  235.13    7.30
  -2  -4   6  228.30    8.41
   1   4  -6    0.43    0.16
   1   4  -6    0.37    0.31
  -1  -4   6    0.55    0.45
   0   4  -6  115.05    3.60
   0   4  -6  104.36    4.19
   0  -4   6  115.19    4.57
  -1   4  -6   17.80    1.19
  -1   4  -6   16.61    1.45
  -1   4  -6   16.19    0.73
   1  -4   6   15.18    1.28
  -2   4  -6  232.29    7.40
  -2   4  -6  235.25    7.13
  -2   4  -6  235.71    8.78
  -3   4  -6  836.79   24.96
  -3   4  -6  831.31   25.30
  -3   4  -6  835.61   24.64
  -4   4  -6  140.65    4.63
  -4   4  -6  132.91    4.33
  -4   4  -6  129.69    4.90
  -5   4  -6  107.01    3.95
  -5   4  -6  104.44    3.63
   5   3  -6    3.22    0.56
  -5  -3   6    3.35    0.52
   4   3  -6    1.18    0.50
  -4  -3   6    1.39    0.40
   3   3  -6  353.64   11.05
   2   3  -6   66.73    3.35
  -2  -3   6   75.43    3.43
   1   3  -6 1241.14   35.15
   1   3  -6 1225.37   34.25
   1   3  -6 1208.88   35.48
  -1  -3   6  984.23   35.18
   0   3  -6    8.03    0.99
   0   3  -6    7.41    0.46
   0   3  -6   10.13    0.85
   0  -3   6    8.24    0.93
  -1   3  -6   24.09    1.41
  -1   3  -6   25.93    1.81
  -1   3  -6   23.23    0.96
   1  -3   6   24.18    1.57
  -2   3  -6  342.67   12.29
  -2   3  -6  341.39   10.91
  -2   3  -6  362.51   10.68
  -2   3  -6  376.34   11.75
  -3   3  -6  811.77   24.70
  -3   3  -6  798.39   24.32
  -3   3  -6  830.92   24.10
  -4   3  -6    6.11    0.79
  -4   3  -6    4.41    0.42
  -4   3  -6    6.60    0.74
  -4   3  -6    4.95    0.56
  -5   3  -6    0.57    0.35
  -5   3  -6    0.73    0.27
  -5   3  -6   -0.04    0.29
   6   2  -6   28.48    1.37
  -6  -2   6   30.23    1.34
   5   2  -6  153.26    5.21
  -5  -2   6  144.35    5.05
   4   2  -6  196.20    6.60
  -4  -2   6  197.74    6.41
   3   2  -6   19.20    1.66
  -3  -2   6   14.21    1.36
   2   2  -6  719.02   24.09
  -2  -2   6  840.04   24.19
   1   2  -6  145.79    5.44
   1   2  -6  140.43    4.42
   1   2  -6  136.19    5.08
  -1  -2   6  142.61    5.28
   0   2  -6    4.55    0.33
   0   2  -6    4.24    0.76
   0   2  -6    3.70    0.54
   0  -2   6    4.80    0.66
  -1   2  -6  418.92   11.96
  -1   2  -6  404.39   13.26
  -1   2  -6  413.78   12.68
   1  -2   6  362.89   12.94
  -2   2  -6   14.59    1.15
  -2   2  -6   17.37    0.78
  -2   2  -6   16.59    1.59
  -2   2  -6   15.85    0.96
  -3   2  -6  193.75    6.02
  -3   2  -6  188.91    6.19
  -3   2  -6  184.11    6.46
  -3   2  -6  191.90    6.16
  -4   2  -6    3.91    0.41
  -4   2  -6    4.89    0.64
  -4   2  -6    4.72    0.70
  -4   2  -6    3.32    0.52
  -5   2  -6    8.79    0.76
  -5   2  -6    9.37    0.70
  -5   2  -6    8.47    0.83
   6   1  -6    8.75    0.84
  -6  -1   6    8.38    0.72
   5   1  -6    5.92    0.85
  -5  -1   6    6.15    0.73
   4   1  -6   38.77    1.88
   4   1  -6   40.72    3.08
  -4  -1   6   39.95    1.76
   3   1  -6  102.89    4.57
   2   1  -6  155.68    5.96
  -2  -1   6  158.73    5.84
   1   1  -6  148.77    5.38
   1   1  -6  147.20    5.63
   1   1  -6  150.28    4.70
  -1  -1   6  157.86    5.56
   0   1  -6  882.85   25.70
   0   1  -6  885.20   26.52
   0   1  -6  866.43   26.03
   0   1  -6  892.90   25.31
   0  -1   6  767.37   25.99
  -1   1  -6   75.13    3.08
  -1   1  -6   81.57    2.64
  -1   1  -6   86.12    3.74
  -1   1  -6   75.22    3.25
  -2   1  -6    2.47    0.44
  -3   1  -6   43.22    1.87
  -3   1  -6   43.15    1.73
  -3   1  -6   42.40    2.04
  -3   1  -6   41.51    1.82
  -4   1  -6   35.99    1.90
  -4   1  -6   38.52    1.71
  -4   1  -6   36.18    1.72
  -4   1  -6   35.34    1.56
  -5   1  -6   17.86    0.97
  -5   1  -6   17.97    1.11
   5  -1   6   17.65    0.95
   6   0  -6   74.66    2.93
  -6   0   6   72.41    2.80
   5   0  -6    1.10    0.55
  -5   0   6    0.30    0.34
   4   0  -6   24.91    1.42
   4   0  -6   23.29    1.99
  -4   0   6   22.23    1.22
  -4   0   6   24.07    1.13
   3   0  -6    2.17    0.67
  -3   0   6    2.41    0.71
  -3   0   6    2.28    0.30
   2   0  -6  377.06   12.06
   2   0  -6  387.13   12.75
  -2   0   6  397.69   12.64
   1   0  -6  334.20   11.63
   1   0  -6  371.40   11.16
  -1   0   6  363.62   11.56
   0   0  -6 1864.22   57.52
   0   0  -6 2007.50   57.32
   0   0  -6 1899.25   56.71
   0   0  -6 1907.44   57.86
   0   0   6 2015.09   57.51
  -1   0  -6   80.70    3.78
  -1   0  -6   81.51    3.38
  -1   0  -6   87.47    3.58
  -1   0  -6   85.71    2.82
  -2   0  -6  485.14   16.62
  -2   0  -6  497.46   14.61
  -2   0  -6  480.89   14.67
  -2   0  -6  476.21   16.16
  -2   0  -6  483.61   14.71
  -3   0  -6   86.54    3.43
  -3   0  -6   89.71    3.23
  -3   0  -6   88.05    3.25
  -3   0  -6   86.97    3.10
  -4   0  -6   35.19    1.61
  -4   0  -6   33.66    1.76
  -4   0  -6   35.92    1.67
  -5   0  -6   18.42    0.93
   5   0   6   18.46    0.91
   7  -1  -6    3.98    0.51
  -7   1   6    3.61    0.47
   6  -1  -6  145.61    5.03
  -6   1   6  143.56    4.94
   5  -1  -6   27.80    1.60
  -5   1   6   27.46    1.31
  -5   1   6   27.43    1.42
  -5   1   6   27.66    1.48
   4  -1  -6   32.94    1.68
   4  -1  -6   32.70    2.40
  -4   1   6   34.65    1.45
  -4   1   6   33.21    1.57
  -4   1   6   33.44    1.54
   3  -1  -6  760.12   23.88
   3  -1  -6  745.29   23.24
   3  -1  -6  771.29   23.22
  -3   1   6  782.51   23.78
  -3   1   6  729.05   23.66
   2  -1  -6 2357.49   71.11
   2  -1  -6 2341.51   70.59
  -2   1   6 2300.34   69.98
  -2   1   6 2571.98   71.20
   1  -1  -6  852.35   26.39
   1  -1  -6  853.57   25.90
  -1   1   6  867.08   26.25
   0  -1  -6   28.31    1.84
   0  -1  -6   28.99    1.64
   0   1   6   34.41    1.77
  -1  -1  -6  156.37    6.12
  -1  -1  -6  161.84    5.80
  -1  -1  -6  157.51    5.03
  -2  -1  -6    4.69    0.45
  -2  -1  -6    3.90    0.55
  -2  -1  -6    4.60    0.52
  -3  -1  -6   40.47    1.79
  -3  -1  -6   39.38    1.80
  -4  -1  -6    0.79    0.29
   4   1   6    0.74    0.32
   7  -2  -6   -0.05    0.26
  -7   2   6    0.57    0.27
   6  -2  -6   66.86    2.71
  -6   2   6   69.12    2.68
  -6   2   6   65.05    2.61
  -5   2   6   17.82    1.00
  -5   2   6   18.85    1.16
  -5   2   6   17.84    1.17
   4  -2  -6   19.88    1.86
   4  -2  -6   21.62    1.26
  -4   2   6   22.54    1.10
  -4   2   6   21.45    1.82
  -4   2   6   22.33    1.22
  -4   2   6   20.94    1.20
   3  -2  -6   89.30    3.58
   3  -2  -6   86.75    4.04
   3  -2  -6   91.17    4.21
   3  -2  -6   92.12    3.79
  -3   2   6   90.80    4.00
  -3   2   6   95.47    3.13
  -3   2   6   92.61    4.12
   2  -2  -6  428.85   13.76
   2  -2  -6  424.59   13.40
   2  -2  -6  403.73   13.22
  -2   2   6  403.95   12.67
  -2   2   6  439.84   13.97
  -2   2   6  426.53   13.75
   1  -2  -6    9.00    0.85
   1  -2  -6    8.91    0.98
  -1   2   6    8.13    0.93
   0  -2  -6    0.65    0.35
  -1  -2  -6   19.97    1.05
  -2  -2  -6  152.86    5.13
  -3  -2  -6   19.16    1.12
   3   2   6   21.33    1.11
  -4  -2  -6  114.69    3.92
   4   2   6  120.56    3.90
  -7   3   6  140.76    4.59
   6  -3  -6   11.79    0.96
  -6   3   6   12.35    0.92
  -6   3   6   13.09    0.97
  -5   3   6   36.67    1.81
  -5   3   6   36.98    1.63
  -5   3   6   37.79    1.82
   4  -3  -6    0.16    0.43
  -4   3   6    0.76    0.24
  -4   3   6    0.78    0.33
  -4   3   6    2.05    0.86
  -4   3   6    0.18    0.30
   3  -3  -6    8.48    1.16
  -3   3   6    7.33    0.55
  -3   3   6    8.74    0.72
  -3   3   6    6.78    0.92
  -3   3   6    6.99    1.11
   2  -3  -6  182.19    6.70
  -2   3   6  183.54    5.76
  -2   3   6  177.49    6.89
   1  -3  -6   15.95    1.63
  -1   3   6   14.14    1.32
   0  -3  -6    4.83    0.47
  -1  -3  -6  520.70   15.98
   1   3   6  534.46   16.50
  -2  -3  -6   12.72    0.87
   2   3   6   11.92    1.11
  -3  -3  -6    0.21    0.22
   3   3   6    0.46    0.29
  -7   4   6    0.27    0.12
  -7   4   6    0.31    0.25
  -6   4   6    3.47    0.51
  -6   4   6    3.00    0.54
  -5   4   6  173.68    5.76
  -5   4   6  173.74    5.78
  -5   4   6  159.58    5.49
  -4   4   6    3.38    0.55
  -4   4   6    5.14    0.48
  -4   4   6    2.67    0.50
  -3   4   6  142.04    6.01
  -3   4   6  140.40    4.80
  -3   4   6  129.62    4.74
  -3   4   6  140.97    4.60
   2  -4  -6  542.37   16.66
  -2   4   6  563.84   16.68
  -2   4   6  554.10   18.14
   1  -4  -6    9.43    0.66
  -1   4   6    8.60    1.13
  -1   4   6    8.89    0.61
  -1   4   6    9.63    0.92
   0  -4  -6   15.75    0.94
   0   4   6   18.12    1.30
   0   4   6   14.33    0.77
  -1  -4  -6 1813.33   53.09
   1   4   6 1790.38   53.64
  -2  -4  -6   59.25    2.29
  -6   5   6    1.10    0.39
  -6   5   6    2.24    0.43
  -5   5   6 1034.26   31.06
  -5   5   6 1028.79   30.82
  -5   5   6 1053.97   31.11
  -4   5   6  257.88    8.32
  -4   5   6  251.92    8.24
  -4   5   6  253.52    8.02
  -3   5   6  338.38   10.44
  -3   5   6  340.98   10.73
  -3   5   6  332.65   10.63
   2  -5  -6    0.61    0.26
  -2   5   6    0.41    0.19
  -2   5   6    0.76    0.38
  -2   5   6    0.34    0.18
  -2   5   6    0.26    0.31
   1  -5  -6    2.41    0.40
  -1   5   6    2.73    0.61
  -1   5   6    2.68    0.36
  -1   5   6    2.15    0.72
   0  -5  -6   21.57    1.16
   0   5   6   22.72    1.54
   0   5   6   22.87    1.01
  -1  -5  -6   23.91    1.20
  -6   6   6  191.05    6.13
  -6   6   6  186.73    6.03
  -5   6   6    6.00    0.75
  -5   6   6    7.10    0.69
  -4   6   6   22.47    1.36
  -4   6   6   19.12    1.04
   3  -6  -6    3.78    0.51
  -3   6   6    3.71    0.43
  -3   6   6    3.85    0.45
   2  -6  -6   65.05    2.45
  -2   6   6   65.04    2.70
  -2   6   6   65.69    2.95
  -2   6   6   66.11    2.46
   1  -6  -6   32.69    1.50
  -1   6   6   30.91    1.65
  -1   6   6   32.74    1.41
   0   6   6  135.49    5.02
   1   6   6   25.10    1.42
  -6   7   6    7.69    0.83
   5  -7  -6   10.34    0.66
  -5   7   6   10.95    0.85
   4  -7  -6   28.13    1.26
  -4   7   6   29.28    1.50
  -4   7   6   26.86    1.23
  -3   7   6   42.65    1.98
  -3   7   6   44.93    1.77
  -2   7   6   18.31    1.33
  -2   7   6   19.77    0.98
  -2   7   6   18.99    1.21
  -1   7   6  319.81   10.43
  -1   7   6  323.33    9.76
   0   7   6  377.41   11.86
  -5   8   6    1.93    0.37
  -4   8   6  112.46    3.79
  -4   8   6  109.46    3.59
  -3   8   6   96.34    3.94
  -3   8   6  107.75    3.60
  -3   8   6  102.96    3.37
  -2   8   6   94.03    3.01
  -2   8   6   90.55    3.23
  -2   8   6   90.80    3.42
   1  -8  -6  236.94    7.37
  -1   8   6  245.26    7.73
   1   9  -7   23.07    0.89
   0   9  -7    5.73    0.66
   0   9  -7    6.53    0.45
   0   9  -7    5.87    0.59
  -1   9  -7   98.55    3.38
  -1   9  -7  101.83    3.76
  -2   9  -7    0.38    0.29
  -2   9  -7    0.14    0.26
  -3   9  -7  102.07    3.62
   2   8  -7  115.67    3.81
   1   8  -7   25.38    1.27
   1   8  -7   26.70    1.16
   0   8  -7    1.20    0.39
   0   8  -7    0.83    0.39
   0   8  -7    1.22    0.26
  -1   8  -7    2.23    0.36
  -1   8  -7    2.62    0.47
  -1   8  -7    2.17    0.55
  -2   8  -7  117.86    4.52
  -2   8  -7  122.55    4.11
  -3   8  -7  111.53    4.14
  -3   8  -7  112.92    3.78
   3   7  -7   12.45    0.78
   2   7  -7  277.80    8.53
   2   7  -7  267.17    8.32
   1   7  -7  151.28    4.93
   1   7  -7  149.84    5.05
   0   7  -7 1270.69   38.12
   0   7  -7 1299.66   38.65
   0   7  -7 1289.29   38.01
  -1   7  -7   27.55    1.44
  -1   7  -7   28.65    1.25
  -1   7  -7   28.12    1.75
  -2   7  -7    7.25    0.50
  -2   7  -7    8.09    0.80
  -2   7  -7    8.67    0.95
  -3   7  -7    3.91    0.54
  -3   7  -7    4.16    0.69
  -4   7  -7   61.22    2.26
   3   6  -7   64.46    2.42
   2   6  -7   10.55    0.67
   2   6  -7   10.49    0.87
   1   6  -7   83.77    4.38
   1   6  -7  100.07    3.48
   1   6  -7   99.10    3.36
   1   6  -7   97.94    3.35
   0   6  -7    1.42    0.48
   0   6  -7    0.43    0.19
   0   6  -7    1.04    0.39
  -1   6  -7    2.60    0.59
  -1   6  -7    3.60    0.37
  -1   6  -7    3.71    0.56
  -2   6  -7    2.16    0.27
  -2   6  -7    2.57    0.50
  -2   6  -7    1.78    0.51
  -3   6  -7  231.45    7.81
  -3   6  -7  227.76    8.27
  -3   6  -7  227.38    7.05
  -3   6  -7  230.84    7.37
  -4   6  -7  136.19    4.52
  -4   6  -7  134.13    4.74
  -5   6  -7  198.31    6.55
   3   5  -7    2.42    0.45
   2   5  -7   85.50    3.00
   2   5  -7   86.69    3.12
   1   5  -7    0.18    0.13
   1   5  -7    0.30    0.36
   1   5  -7   -0.07    0.33
   1   5  -7   -0.02    0.11
   0   5  -7   29.65    1.27
   0   5  -7   27.71    1.38
   0   5  -7   29.83    1.71
   0  -5   7   30.32    2.19
  -1   5  -7    0.40    0.15
  -1   5  -7    0.88    0.38
  -1   5  -7    0.49    0.33
  -1   5  -7    0.74    0.34
   1  -5   7    0.04    0.37
  -2   5  -7   75.31    2.60
  -2   5  -7   75.50    3.07
  -2   5  -7   76.39    3.27
  -2   5  -7   77.56    2.88
  -3   5  -7  846.82   26.17
  -3   5  -7  880.89   26.98
  -3   5  -7  898.18   26.51
  -3   5  -7  920.68   26.86
  -4   5  -7  170.04    5.82
  -4   5  -7  163.74    5.49
  -5   5  -7  224.56    6.97
  -5   5  -7  225.18    7.24
   3   4  -7   98.38    3.45
   3   4  -7   80.23    3.04
   2   4  -7  889.44   25.56
   2   4  -7  855.46   25.92
   2   4  -7  826.81   25.62
  -2  -4   7  876.11   27.15
   1   4  -7  903.29   28.04
   1   4  -7  956.20   28.01
  -1  -4   7  978.74   29.49
   0   4  -7  127.92    4.08
   0   4  -7  118.19    6.28
   0   4  -7  126.95    4.22
   0   4  -7  126.81    4.93
   0  -4   7  131.54    5.32
  -1   4  -7   84.52    2.97
  -1   4  -7   80.99    4.01
  -1   4  -7   85.66    2.82
   1  -4   7   80.38    3.81
  -2   4  -7  401.87   11.98
  -2   4  -7  388.85   12.50
  -2   4  -7  400.44   12.24
  -2   4  -7  394.53   13.89
  -2   4  -7  401.54   12.72
  -3   4  -7  150.39    4.95
  -3   4  -7  143.62    5.24
  -3   4  -7  143.85    4.68
  -4   4  -7  450.02   13.91
  -4   4  -7  424.58   13.29
  -4   4  -7  451.80   13.54
  -5   4  -7   55.20    2.06
  -5   4  -7   54.64    2.28
   5   3  -7   31.02    1.54
   4   3  -7  618.98   18.89
   3   3  -7  230.10    7.51
   2   3  -7  125.94    5.39
  -2  -3   7  137.14    5.47
   1   3  -7   67.31    2.36
   1   3  -7   73.17    3.49
  -1  -3   7   62.42    3.23
   0   3  -7   66.56    2.25
   0   3  -7   60.54    2.88
   0   3  -7   67.86    3.33
   0  -3   7   61.78    3.06
  -1   3  -7  651.44   20.75
  -1   3  -7  656.22   19.14
  -1   3  -7  630.00   19.33
  -1   3  -7  637.80   20.02
  -2   3  -7   19.95    1.36
  -2   3  -7   20.26    0.96
  -2   3  -7   19.83    1.27
  -2   3  -7   20.87    1.15
  -2   3  -7   22.62    2.00
  -3   3  -7   35.32    1.73
  -3   3  -7   37.81    1.54
  -3   3  -7   36.43    1.92
  -4   3  -7    3.27    0.55
  -4   3  -7    2.11    0.53
  -4   3  -7    2.66    0.34
  -4   3  -7    2.96    0.46
  -5   3  -7   20.64    1.19
  -5   3  -7   21.23    1.06
  -5   3  -7   19.42    0.96
   6   2  -7   68.97    2.53
  -6  -2   7   68.76    2.43
   5   2  -7  458.01   13.61
  -5  -2   7  417.72   13.45
   4   2  -7   12.21    1.06
   3   2  -7   10.98    0.91
   3   2  -7   16.24    1.58
  -3  -2   7   11.22    1.32
   2   2  -7   66.09    3.41
  -2  -2   7   72.73    3.48
   1   2  -7  225.38    7.14
   1   2  -7  237.40    8.47
  -1  -2   7  236.18    8.19
   0   2  -7    2.69    0.70
   0   2  -7    3.15    0.56
   0   2  -7    2.26    0.28
   0  -2   7    2.69    0.59
  -1   2  -7  990.08   27.13
  -1   2  -7  906.20   28.03
  -1   2  -7  855.78   28.54
  -2   2  -7   12.64    0.98
  -2   2  -7   11.71    0.83
  -2   2  -7   11.52    0.68
  -2   2  -7   11.41    1.44
  -2   2  -7   10.46    0.95
  -3   2  -7  397.77   11.94
  -3   2  -7  384.13   11.87
  -3   2  -7  365.29   12.19
  -3   2  -7  390.80   11.76
  -4   2  -7    1.42    0.35
  -4   2  -7    1.28    0.44
  -4   2  -7    1.39    0.28
  -4   2  -7    1.12    0.41
  -5   2  -7   23.49    1.26
  -5   2  -7   23.20    1.08
   5  -2   7   24.34    1.09
   6   1  -7    2.49    0.49
  -6  -1   7    3.11    0.45
   5   1  -7   18.36    1.28
   4   1  -7  132.29    4.71
   3   1  -7   61.65    3.36
  -3  -1   7   59.66    3.19
   2   1  -7   11.38    1.27
  -2  -1   7   12.56    1.24
   1   1  -7   38.40    2.38
   1   1  -7   38.38    1.50
  -1  -1   7   41.99    2.25
   0   1  -7  424.32   13.86
   0   1  -7  415.56   12.49
   0   1  -7  411.54   13.38
   0  -1   7  414.34   13.37
  -1   1  -7   72.37    2.42
  -1   1  -7   67.53    3.51
  -1   1  -7   69.22    3.38
  -1   1  -7   66.62    3.13
  -2   1  -7   23.46    1.38
  -2   1  -7   24.41    1.49
  -2   1  -7   22.15    2.03
  -2   1  -7   24.48    1.24
  -2   1  -7   23.47    1.18
  -2   1  -7   25.32    1.15
  -3   1  -7  198.15    6.26
  -3   1  -7  185.33    6.51
  -3   1  -7  195.08    6.28
  -3   1  -7  184.39    6.10
  -4   1  -7   28.36    1.38
  -4   1  -7   27.80    1.43
  -4   1  -7   26.77    1.53
   6   0  -7    0.20    0.37
  -6   0   7    0.27    0.29
   5   0  -7   16.96    1.24
  -5   0   7   13.52    1.01
   4   0  -7  191.54    6.42
   3   0  -7    2.62    0.78
  -3   0   7    2.83    0.87
   2   0  -7  751.61   23.99
  -2   0   7  775.98   23.88
   1   0  -7    1.16    0.56
   1   0  -7    1.04    0.35
   0   0  -7 1649.94   50.16
   0   0  -7 1677.22   49.51
   0   0  -7 1793.68   50.98
   0   0   7 1630.38   50.44
  -1   0  -7    6.66    1.04
  -1   0  -7    6.31    0.48
  -2   0  -7  125.01    4.61
  -2   0  -7  132.19    4.46
  -2   0  -7  133.13    4.36
  -2   0  -7  136.74    4.45
   2   0   7  127.68    4.76
  -3   0  -7   41.29    1.80
  -3   0  -7   42.83    2.11
  -3   0  -7   45.67    1.93
  -3   0  -7   46.13    1.97
  -4   0  -7    1.21    0.31
   4   0   7    1.15    0.35
   6  -1  -7  309.36    9.75
  -6   1   7  305.80    9.63
   5  -1  -7   16.18    1.21
  -5   1   7   13.24    0.98
  -5   1   7   14.48    1.01
   4  -1  -7    0.43    0.41
  -4   1   7    0.26    0.67
  -4   1   7    0.06    0.12
  -4   1   7    0.30    0.24
   3  -1  -7 1058.16   33.11
   3  -1  -7 1087.16   33.68
  -3   1   7 1189.26   32.63
  -3   1   7 1029.64   32.17
  -3   1   7 1061.84   33.46
   2  -1  -7    2.49    0.49
  -2   1   7    2.48    0.76
   1  -1  -7  766.14   23.58
   1  -1  -7  781.05   24.23
  -1   1   7  768.95   23.97
   0  -1  -7  314.36   10.65
   0  -1  -7  334.27   11.22
  -1  -1  -7  321.87    9.89
  -1  -1  -7  315.72   11.20
   1   1   7  319.90   10.29
  -2  -1  -7    0.10    0.20
  -2  -1  -7    0.37    0.29
   2   1   7    0.65    0.34
  -3  -1  -7  126.92    4.40
   3   1   7  128.92    4.32
  -4  -1  -7    0.00    0.20
   4   1   7    0.14    0.22
  -7   2   7  111.49    3.49
   6  -2  -7   10.26    0.88
  -6   2   7    8.64    0.73
  -6   2   7    8.74    0.80
   5  -2  -7   36.73    1.87
  -5   2   7   41.77    1.85
  -5   2   7   37.50    1.82
  -5   2   7   38.91    1.69
  -4   2   7  394.90   13.08
  -4   2   7  407.77   12.43
  -4   2   7  412.05   12.59
   3  -2  -7   17.46    1.65
  -3   2   7   19.31    1.70
  -3   2   7   17.22    1.05
  -3   2   7   18.38    0.96
   1  -2  -7   87.28    3.05
   1  -2  -7   84.24    3.97
  -1   2   7   93.47    3.95
   0  -2  -7  219.98    6.96
  -1  -2  -7  186.04    5.97
   1   2   7  179.20    6.38
  -2  -2  -7   67.94    2.69
   2   2   7   69.36    3.00
   2   2   7   73.26    2.82
  -3  -2  -7   61.81    2.40
   3   2   7   62.28    2.30
  -7   3   7   11.97    0.57
  -6   3   7   57.06    2.31
  -6   3   7   57.79    2.34
  -5   3   7    5.78    0.73
  -5   3   7    5.35    0.53
  -5   3   7    5.57    0.71
  -4   3   7  616.97   18.38
  -4   3   7  637.27   18.63
  -4   3   7  575.61   18.49
  -3   3   7    2.82    0.38
  -3   3   7    2.59    0.47
  -3   3   7    1.95    0.34
  -3   3   7    2.39    0.85
   2  -3  -7   53.58    2.07
  -2   3   7   52.22    3.01
   1  -3  -7   19.89    1.02
  -1   3   7   17.78    1.59
  -1   3   7   18.46    1.27
  -1   3   7   18.63    1.13
   0  -3  -7    1.32    0.33
   0   3   7    1.32    0.45
  -1  -3  -7   85.51    3.06
   1   3   7   80.44    3.46
  -2  -3  -7  117.72    4.07
  -3  -3  -7   12.94    0.78
  -6   4   7    0.03    0.11
  -6   4   7    0.12    0.30
  -6   4   7    0.09    0.26
  -5   4   7   69.64    2.66
  -5   4   7   73.97    2.92
  -5   4   7   79.47    2.97
  -5   4   7   73.22    2.73
  -4   4   7  471.84   14.17
  -4   4   7  447.48   13.86
  -4   4   7  453.80   14.09
  -4   4   7  450.50   13.91
  -3   4   7   57.17    2.43
  -3   4   7   58.70    2.25
  -3   4   7   58.88    2.27
   2  -4  -7  280.89    8.72
  -2   4   7  275.90    9.22
  -2   4   7  276.35    8.64
   1  -4  -7    0.65    0.24
  -1   4   7    0.55    0.19
  -1   4   7    0.26    0.30
   0  -4  -7  378.43   11.70
   0   4   7  378.98   12.28
  -1  -4  -7   24.54    1.27
   1   4   7   23.93    1.56
  -2  -4  -7   32.98    1.45
  -6   5   7   15.42    0.94
  -6   5   7   17.35    1.02
  -6   5   7   16.10    0.80
  -5   5   7   22.81    1.30
  -5   5   7   23.28    1.35
  -5   5   7   23.25    1.12
  -4   5   7   19.04    1.25
  -4   5   7   19.77    1.05
  -4   5   7   20.16    1.07
  -4   5   7   19.71    1.23
   3  -5  -7   31.35    1.45
  -3   5   7   30.15    1.37
  -3   5   7   27.91    1.37
  -3   5   7   28.61    1.58
   2  -5  -7   10.93    0.79
  -2   5   7   11.53    1.05
  -2   5   7   10.59    0.71
   1  -5  -7  175.14    5.87
  -1   5   7  183.23    5.74
  -1   5   7  181.54    6.46
   0  -5  -7   55.88    2.23
   0   5   7   57.92    2.68
  -1  -5  -7    0.89    0.28
   1   5   7    0.29    0.31
  -6   6   7    0.00    0.26
  -6   6   7    0.03    0.10
   5  -6  -7  326.91   10.03
  -5   6   7  328.73   10.01
  -5   6   7  328.21   10.26
   4  -6  -7    4.14    0.53
  -4   6   7    4.19    0.63
  -4   6   7    4.85    0.46
   3  -6  -7   16.09    0.96
  -3   6   7   15.42    0.89
  -3   6   7   16.07    1.11
   2  -6  -7   21.67    1.12
  -2   6   7   21.79    1.07
  -2   6   7   22.27    1.48
  -2   6   7   21.40    1.30
   1  -6  -7   87.92    3.16
  -1   6   7   91.64    3.01
   0   6   7    6.03    0.78
   1   6   7    7.50    0.68
   5  -7  -7    0.06    0.25
  -5   7   7   -0.05    0.26
  -5   7   7   -0.09    0.08
   4  -7  -7    1.93    0.33
  -4   7   7    2.26    0.30
  -4   7   7    2.05    0.41
   3  -7  -7    3.71    0.45
  -3   7   7    4.07    0.39
  -3   7   7    3.63    0.56
  -2   7   7  140.78    4.83
  -2   7   7  145.28    5.13
  -2   7   7  146.46    4.59
  -1   7   7    3.59    0.62
   0   7   7   11.80    0.84
  -4   8   7    3.51    0.29
  -3   8   7  118.16    3.63
  -3   8   7  110.86    4.14
  -2   8   7    7.07    0.62
   0   9  -8    0.19    0.26
   0   9  -8   -0.02    0.09
   0   9  -8    0.02    0.24
  -1   9  -8  119.12    4.22
  -1   9  -8  120.56    3.92
  -2   9  -8   10.35    0.82
   2   8  -8   21.54    1.30
   1   8  -8   47.36    1.71
   1   8  -8   44.21    1.81
   0   8  -8  138.88    4.59
   0   8  -8  141.96    5.05
   0   8  -8  144.76    4.70
  -1   8  -8  316.74    9.78
  -1   8  -8  315.37   10.24
  -2   8  -8   10.11    0.93
  -2   8  -8   11.13    0.80
  -3   8  -8    6.30    0.68
  -3   8  -8    6.45    0.59
   2   7  -8  134.70    4.26
   2   7  -8  133.82    4.45
   1   7  -8   56.37    2.16
   1   7  -8   59.48    2.30
   0   7  -8   94.82    3.40
   0   7  -8   96.42    3.83
   0   7  -8   92.61    3.28
  -1   7  -8   68.95    2.56
  -1   7  -8   74.07    2.74
  -1   7  -8   72.94    3.18
  -2   7  -8    0.35    0.35
  -2   7  -8    0.75    0.37
  -2   7  -8    0.56    0.18
  -3   7  -8  226.21    7.13
  -3   7  -8  224.16    7.51
  -4   7  -8   24.66    1.39
   3   6  -8   97.43    3.34
   2   6  -8   64.91    2.50
   2   6  -8   65.09    2.34
   1   6  -8   53.13    2.10
   1   6  -8   42.70    2.60
   1   6  -8   49.19    1.97
   1   6  -8   50.78    1.97
   0   6  -8   73.18    2.77
   0   6  -8   72.30    3.18
   0   6  -8   73.52    2.66
  -1   6  -8   82.20    2.88
  -1   6  -8   82.45    3.51
  -1   6  -8   81.07    3.04
  -2   6  -8   15.54    0.82
  -2   6  -8   16.70    1.32
  -2   6  -8   16.00    1.06
  -3   6  -8  151.83    5.50
  -3   6  -8  152.22    5.09
  -3   6  -8  156.95    5.36
  -3   6  -8  155.93    5.15
  -4   6  -8    6.43    0.69
  -4   6  -8    7.26    0.67
   3   5  -8    7.75    1.06
   2   5  -8    1.51    0.41
   2   5  -8    1.15    0.26
   1   5  -8   18.33    0.97
   1   5  -8   19.96    1.32
   1   5  -8   18.59    0.99
   1   5  -8   17.58    1.08
   0   5  -8   16.06    1.02
   0   5  -8   18.11    1.19
   0   5  -8   15.31    1.23
   0   5  -8   17.12    0.91
  -1   5  -8    3.02    0.63
  -1   5  -8    2.90    0.35
  -1   5  -8    3.47    0.62
  -1   5  -8    3.79    0.57
  -2   5  -8   52.22    2.15
  -2   5  -8   48.59    2.47
  -2   5  -8   49.66    2.32
  -2   5  -8   48.68    1.88
  -3   5  -8  179.38    6.44
  -3   5  -8  182.14    6.05
  -3   5  -8  194.64    6.41
  -3   5  -8  182.70    5.82
  -4   5  -8   11.10    0.82
  -4   5  -8   11.43    0.93
   4   4  -8  136.00    4.74
   3   4  -8   62.41    2.65
   2   4  -8  703.73   20.95
   2   4  -8  690.74   21.54
   2   4  -8  712.67   21.39
   1   4  -8  339.46   10.35
   1   4  -8  334.22   10.38
   1   4  -8  335.46   10.32
   1   4  -8  342.33   10.85
   1   4  -8  345.65   10.69
  -1  -4   8  326.57   11.78
   0   4  -8   14.71    0.95
   0   4  -8   16.99    1.84
   0   4  -8   14.39    1.16
   0   4  -8   15.38    0.83
   0   4  -8   14.39    1.09
   0  -4   8   14.57    1.49
  -1   4  -8   56.06    2.52
  -1   4  -8   53.29    3.32
  -1   4  -8   58.98    2.30
  -1   4  -8   59.85    2.71
  -1   4  -8   59.81    2.14
  -2   4  -8  504.41   15.17
  -2   4  -8  509.60   15.37
  -2   4  -8  491.48   15.92
  -2   4  -8  511.25   15.74
  -3   4  -8    0.55    0.38
  -3   4  -8    0.53    0.34
  -3   4  -8    0.34    0.17
  -4   4  -8   55.85    2.23
  -4   4  -8   57.35    2.47
  -5   4  -8  219.30    7.08
   5   3  -8   11.03    0.84
   4   3  -8  256.62    8.33
   3   3  -8  381.84   11.97
   2   3  -8  354.35   12.47
   2   3  -8  362.79   10.81
   2   3  -8  351.17   11.23
  -2  -3   8  353.79   12.40
   1   3  -8   25.32    2.01
   1   3  -8   23.26    1.08
  -1  -3   8   21.15    1.78
   0   3  -8   11.57    0.67
   0   3  -8    9.66    0.73
   0   3  -8   11.45    1.38
   0  -3   8   10.89    1.22
  -1   3  -8   49.54    2.27
  -1   3  -8   47.22    3.05
  -1   3  -8   55.96    2.08
  -1   3  -8   47.92    2.38
  -1   3  -8   50.62    1.92
  -2   3  -8  166.95    5.68
  -2   3  -8  172.13    6.20
  -2   3  -8  181.58    5.56
  -2   3  -8  168.14    6.00
  -3   3  -8    1.02    0.42
  -3   3  -8    2.09    0.51
  -3   3  -8    0.92    0.26
  -4   3  -8   15.58    1.13
  -4   3  -8   15.30    1.01
   6   2  -8    0.25    0.26
   5   2  -8  299.57    9.54
   4   2  -8  329.61   10.51
   3   2  -8    6.24    0.74
   2   2  -8   33.70    2.24
   2   2  -8   33.68    2.39
  -2  -2   8   34.48    2.30
   1   2  -8   76.31    3.82
   1   2  -8   73.45    2.62
  -1  -2   8   76.97    3.70
   0   2  -8  351.06   10.50
   0   2  -8  331.56   11.51
   0   2  -8  344.53   12.05
   0  -2   8  351.76   11.65
  -1   2  -8   61.51    2.21
  -1   2  -8   61.77    2.31
  -1   2  -8   59.57    3.46
  -1   2  -8   57.92    2.69
  -1   2  -8   59.08    2.56
  -2   2  -8   28.84    1.71
  -2   2  -8   25.97    1.55
  -2   2  -8   25.94    1.39
  -3   2  -8  105.25    3.68
  -3   2  -8  103.06    3.93
  -3   2  -8  100.57    3.60
  -3   2  -8   99.71    3.52
  -4   2  -8    8.01    0.76
  -4   2  -8    7.38    0.79
  -4   2  -8    7.33    0.62
   6   1  -8   13.01    0.91
   5   1  -8   22.76    1.39
  -5  -1   8   22.53    0.96
   4   1  -8  199.43    6.74
  -4  -1   8  202.88    6.27
   3   1  -8    3.81    0.64
   3   1  -8    4.02    0.97
  -3  -1   8    3.72    0.34
  -3  -1   8    3.38    0.92
   2   1  -8  381.88   13.19
  -2  -1   8  387.13   13.04
   1   1  -8   98.83    4.52
  -1  -1   8   96.08    4.28
   0   1  -8  594.33   18.39
   0   1  -8  655.96   20.16
   0  -1   8  602.30   19.47
  -1   1  -8   37.43    1.98
  -1   1  -8   38.46    1.58
  -1   1  -8   33.49    2.50
  -1   1  -8   34.86    1.55
  -1   1  -8   38.80    1.81
  -2   1  -8    3.89    0.44
  -2   1  -8    4.87    0.61
  -2   1  -8    4.32    0.66
  -2   1  -8    5.20    0.54
   2  -1   8    5.76    0.80
  -3   1  -8  107.71    3.67
  -3   1  -8  102.33    3.88
  -3   1  -8   95.21    3.49
  -3   1  -8  102.06    3.62
  -4   1  -8  102.74    3.50
  -4   1  -8  102.21    3.51
  -4   1  -8   99.69    3.66
   6   0  -8    4.19    0.63
  -6   0   8    3.49    0.30
   5   0  -8  167.54    5.72
   4   0  -8   29.53    1.60
  -4   0   8   28.16    1.25
   3   0  -8   50.70    3.09
   3   0  -8   49.05    2.19
  -3   0   8   50.72    3.04
  -3   0   8   50.67    1.87
   2   0  -8    8.54    1.23
  -2   0   8   13.27    1.43
   1   0  -8   84.11    4.14
  -1   0   8   90.52    4.08
   0   0  -8  147.35    4.88
   0   0  -8  152.55    6.27
  -1   0  -8  411.77   12.22
  -1   0  -8  372.39   12.21
  -1   0  -8  399.42   11.99
  -1   0  -8  389.61   13.62
   1   0   8  382.11   12.44
  -2   0  -8    3.33    0.49
  -2   0  -8    3.12    0.53
   2   0   8    2.62    0.57
  -3   0  -8   34.94    1.60
  -3   0  -8   33.38    1.60
  -4   0  -8    3.04    0.42
   4   0   8    3.55    0.46
   6  -1  -8  126.90    4.37
  -6   1   8  129.25    4.06
  -6   1   8  122.44    4.23
   5  -1  -8    0.90    0.45
   4  -1  -8   33.43    1.74
  -4   1   8   35.50    1.48
  -4   1   8   34.40    1.63
   3  -1  -8  126.74    5.77
   3  -1  -8  125.94    4.57
  -3   1   8  137.03    5.75
  -3   1   8  137.16    4.36
  -3   1   8  137.28    4.55
   2  -1  -8    6.17    0.54
   2  -1  -8    7.21    1.15
  -2   1   8    7.79    1.14
   1  -1  -8    2.77    0.38
   1  -1  -8    2.16    0.77
  -1   1   8    1.78    0.62
   0  -1  -8  843.98   26.89
   0  -1  -8  845.23   25.35
   0   1   8  862.49   25.82
  -1  -1  -8  142.37    4.82
   1   1   8  145.19    5.24
  -2  -1  -8    9.29    0.79
  -2  -1  -8    9.96    0.78
   2   1   8    9.02    0.95
  -3  -1  -8    1.68    0.36
   3   1   8    1.84    0.37
   6  -2  -8    3.36    0.54
  -6   2   8    3.76    0.36
  -6   2   8    3.53    0.51
  -6   2   8    2.69    0.43
   5  -2  -8   59.76    2.47
  -5   2   8   60.11    2.25
  -5   2   8   58.13    2.41
  -4   2   8   40.15    1.86
  -4   2   8   40.39    1.67
   3  -2  -8  271.21   11.85
  -3   2   8  281.59    8.83
  -3   2   8  276.31    8.59
   2  -2  -8   91.50    4.40
   2  -2  -8   86.21    3.14
  -2   2   8   90.31    4.23
  -2   2   8   90.08    3.06
   1  -2  -8    2.37    0.38
  -1   2   8    2.90    0.81
  -1   2   8    3.80    0.66
   0  -2  -8  365.12   11.36
   0   2   8  369.41   11.80
  -1  -2  -8  328.70   10.33
   1   2   8  333.96   10.84
  -2  -2  -8   15.12    0.96
   2   2   8   13.67    1.12
  -3  -2  -8   27.09    1.25
  -6   3   8   12.52    0.69
  -6   3   8   10.94    0.82
  -6   3   8   11.19    0.79
  -5   3   8  741.33   22.88
  -5   3   8  758.24   22.70
  -5   3   8  783.10   22.96
  -4   3   8  166.43    5.55
  -4   3   8  175.90    5.83
   3  -3  -8    2.63    0.44
  -3   3   8    2.58    0.40
  -2   3   8    5.23    0.74
  -2   3   8    6.48    0.52
   1  -3  -8    7.93    0.65
  -1   3   8    7.38    0.49
  -1   3   8    7.01    0.84
   0  -3  -8    2.55    0.46
   0   3   8    2.35    0.59
  -1  -3  -8    9.86    0.78
   1   3   8    9.52    1.00
  -2  -3  -8   14.79    0.91
  -6   4   8   15.08    0.76
  -6   4   8   14.58    0.89
  -6   4   8   14.10    0.90
  -5   4   8  141.36    4.59
  -5   4   8  141.13    4.81
  -5   4   8  134.82    4.77
  -4   4   8  198.13    6.43
  -4   4   8  188.53    6.15
  -4   4   8  186.11    6.45
   3  -4  -8   15.67    0.98
  -3   4   8   15.01    0.88
   2  -4  -8    1.22    0.34
  -2   4   8    6.42    0.50
  -2   4   8    1.14    0.42
   1  -4  -8   98.71    3.48
  -1   4   8   97.16    3.96
  -1   4   8   96.46    3.23
   0  -4  -8   41.34    1.79
   0   4   8   39.73    2.18
  -1  -4  -8    6.77    0.63
   1   4   8    6.81    0.82
  -2  -4  -8   47.67    1.79
   6  -5  -8   38.09    1.42
  -6   5   8   36.77    1.37
  -6   5   8   34.21    1.50
   5  -5  -8    5.53    0.55
  -5   5   8    4.66    0.65
  -5   5   8    4.22    0.41
   4  -5  -8  222.23    6.94
  -4   5   8  208.21    7.23
  -4   5   8  217.55    6.86
   3  -5  -8    6.19    0.65
  -3   5   8    6.51    0.55
   2  -5  -8  101.11    3.55
  -2   5   8  101.36    4.00
  -2   5   8  100.77    3.43
   1  -5  -8   19.40    1.09
  -1   5   8   18.95    1.37
  -1   5   8   18.34    0.84
   0  -5  -8    8.24    0.67
   0   5   8    8.73    0.90
  -1  -5  -8  186.58    5.86
   1   5   8  186.22    6.18
   5  -6  -8   14.88    0.81
  -5   6   8   15.02    0.75
  -5   6   8   14.12    0.89
   4  -6  -8   16.11    0.92
  -4   6   8   16.26    0.85
  -4   6   8   16.36    1.02
   3  -6  -8    3.71    0.48
  -3   6   8    3.07    0.36
   2  -6  -8  135.81    4.47
  -2   6   8  135.97    4.32
  -2   6   8  131.51    4.87
   1  -6  -8   62.58    2.32
  -1   6   8   64.55    2.73
   0   6   8    7.95    0.77
  -5   7   8    8.43    0.45
  -4   7   8   23.44    1.59
  -4   7   8   29.85    1.12
   3  -7  -8   19.30    0.91
  -3   7   8   18.91    0.83
  -2   7   8   33.35    1.60
  -1   7   8   91.01    3.29
  -1   9  -9   34.65    1.58
   1   8  -9    3.42    0.31
   1   8  -9    2.77    0.42
   0   8  -9    4.95    0.40
   0   8  -9    5.05    0.59
   0   8  -9    4.73    0.65
  -1   8  -9   91.99    3.50
  -1   8  -9   88.62    3.13
  -2   8  -9   76.82    2.71
  -2   8  -9   77.64    3.03
   2   7  -9    0.68    0.16
   2   7  -9    1.02    0.34
   1   7  -9   53.66    2.12
   1   7  -9   54.84    2.02
   0   7  -9   75.78    2.73
   0   7  -9   77.42    2.85
   0   7  -9   79.13    3.23
  -1   7  -9  360.60   11.19
  -1   7  -9  364.54   11.71
  -2   7  -9  277.12    8.57
  -2   7  -9  269.91    9.01
  -3   7  -9   57.69    2.49
  -3   7  -9   66.77    2.30
   2   6  -9  787.87   23.00
   2   6  -9  762.44   23.11
   1   6  -9   75.50    2.66
   1   6  -9   57.73    3.33
   1   6  -9   72.68    2.55
   0   6  -9   47.17    1.90
   0   6  -9   47.32    2.01
   0   6  -9   48.73    2.40
  -1   6  -9   31.62    1.57
  -1   6  -9   32.86    1.41
  -1   6  -9   32.80    1.93
  -2   6  -9  130.44    4.67
  -2   6  -9  130.56    4.95
  -2   6  -9  133.93    4.49
  -2   6  -9  129.68    4.29
  -3   6  -9    4.12    0.63
  -3   6  -9    3.99    0.63
  -3   6  -9    3.86    0.55
  -4   6  -9   10.82    0.76
   2   5  -9   16.50    1.19
   2   5  -9   14.32    0.82
   2   5  -9   16.39    1.00
   1   5  -9   49.48    2.02
   1   5  -9   48.39    2.36
   1   5  -9   46.94    2.03
   1   5  -9   48.95    2.24
   1   5  -9   52.38    1.96
   0   5  -9    5.76    0.68
   0   5  -9    4.90    0.72
   0   5  -9    5.58    0.51
   0   5  -9    5.99    0.84
  -1   5  -9   48.38    2.47
  -1   5  -9   49.58    2.07
  -1   5  -9   48.71    1.91
  -1   5  -9   46.43    2.24
  -2   5  -9  107.61    4.24
  -2   5  -9  107.53    3.79
  -2   5  -9  105.88    4.06
  -2   5  -9  104.90    3.61
  -3   5  -9   52.99    2.38
  -3   5  -9   55.30    2.48
  -3   5  -9   55.37    2.23
  -4   5  -9   38.06    1.55
  -4   5  -9   36.50    1.69
   4   4  -9   22.81    1.31
   3   4  -9   41.76    2.03
   2   4  -9    3.71    0.66
   2   4  -9    3.67    0.41
   1   4  -9   15.44    1.16
   1   4  -9   15.86    1.22
   1   4  -9   16.52    0.88
   1   4  -9   15.69    0.98
   1   4  -9   14.79    0.87
   0   4  -9    1.35    0.30
   0   4  -9    1.80    0.48
   0   4  -9    1.30    0.39
   0   4  -9    1.32    0.48
  -1   4  -9  100.08    3.61
  -1   4  -9  104.59    4.16
  -1   4  -9   98.54    3.49
  -1   4  -9  104.08    3.93
  -2   4  -9  209.38    6.99
  -2   4  -9  193.91    7.11
  -2   4  -9  211.92    6.63
  -2   4  -9  196.35    6.43
  -3   4  -9   48.81    2.01
  -3   4  -9   45.55    1.95
  -3   4  -9   47.17    2.21
  -3   4  -9   44.42    2.33
  -4   4  -9  102.45    3.65
  -4   4  -9   97.59    3.40
   5   3  -9   12.39    0.92
   4   3  -9   78.26    3.11
   3   3  -9   16.82    1.25
   2   3  -9   88.04    3.47
   1   3  -9  152.65    4.95
   1   3  -9  144.15    5.28
   1   3  -9  158.04    5.48
   0   3  -9  309.74    9.66
   0   3  -9  315.10    9.64
   0   3  -9  320.35    9.67
   0   3  -9  307.90   10.03
   0   3  -9  306.47   10.23
  -1   3  -9  165.23    5.93
  -1   3  -9  171.80    6.19
  -1   3  -9  176.62    5.63
  -1   3  -9  170.81    5.52
  -2   3  -9  233.87    8.16
  -2   3  -9  255.78    7.85
  -2   3  -9  251.12    7.73
  -2   3  -9  238.86    8.36
  -3   3  -9   42.93    2.05
  -3   3  -9   39.45    1.67
  -3   3  -9   42.90    1.85
  -4   3  -9    4.29    0.54
  -4   3  -9    4.29    0.61
   5   2  -9  145.83    4.96
   4   2  -9  144.98    5.08
   3   2  -9    0.10    0.35
   2   2  -9    3.91    0.67
   1   2  -9    2.78    0.58
   1   2  -9    6.75    1.22
  -1  -2   9    3.02    0.85
   0   2  -9   37.22    1.99
   0   2  -9   36.88    1.55
   0   2  -9   37.28    2.77
   0   2  -9   37.81    1.88
  -1   2  -9   20.13    1.03
  -1   2  -9   18.89    1.27
  -1   2  -9   19.59    1.10
  -1   2  -9   19.03    1.40
  -2   2  -9   43.72    1.90
  -2   2  -9   46.17    2.17
  -2   2  -9   41.50    2.25
  -2   2  -9   41.75    1.78
  -3   2  -9   15.67    1.15
  -3   2  -9   16.39    1.05
  -3   2  -9   15.85    0.92
  -4   2  -9    4.71    0.56
  -4   2  -9    4.33    0.58
   6   1  -9    0.19    0.29
   5   1  -9   30.66    1.61
   4   1  -9   41.70    2.02
   3   1  -9   21.05    1.34
   2   1  -9   38.38    2.75
   2   1  -9   37.45    1.89
  -2  -1   9   39.74    2.62
   1   1  -9   76.56    3.13
   1   1  -9   70.62    3.96
   1   1  -9   75.22    2.96
  -1  -1   9   72.24    3.69
   0   1  -9  162.58    7.02
   0   1  -9  157.97    5.85
   0   1  -9  165.43    5.60
  -1   1  -9   36.17    1.54
  -1   1  -9   34.28    1.55
  -1   1  -9   34.56    1.80
  -1   1  -9   35.74    2.02
   1  -1   9   35.83    1.96
  -2   1  -9  338.54   10.45
  -2   1  -9  348.35   10.78
  -2   1  -9  328.23   10.44
  -2   1  -9  327.56   10.38
   2  -1   9  336.92   10.92
  -3   1  -9   32.37    1.48
  -3   1  -9   33.44    1.53
  -3   1  -9   31.80    1.65
   6   0  -9   64.80    2.45
   5   0  -9   10.17    0.94
  -5   0   9    9.04    0.54
   4   0  -9  154.04    5.25
  -4   0   9  145.68    4.77
   3   0  -9  196.80    6.62
  -3   0   9  197.74    6.12
   2   0  -9   43.47    2.07
   2   0  -9   46.51    3.05
  -2   0   9   44.97    2.86
   1   0  -9   90.12    3.37
   1   0  -9   88.53    4.51
  -1   0   9   89.60    3.53
  -1   0   9   88.81    4.22
   0   0  -9  859.76   25.75
   0   0  -9  846.27   26.03
   0   0   9  887.55   26.32
  -1   0  -9   99.36    3.57
   1   0   9  102.89    4.04
  -2   0  -9   76.05    2.81
  -2   0  -9   73.30    2.76
   2   0   9   73.02    3.13
  -3   0  -9    6.00    0.57
   6  -1  -9    0.56    0.31
  -6   1   9    0.31    0.12
   5  -1  -9    3.73    0.61
  -5   1   9    2.55    0.33
   4  -1  -9   46.67    2.17
  -4   1   9   53.25    1.94
   3  -1  -9  470.03   14.75
   3  -1  -9  477.84   14.42
  -3   1   9  481.51   14.33
   2  -1  -9   88.35    3.14
  -2   1   9   90.98    2.95
   1  -1  -9  321.71    9.87
  -1   1   9  329.88   10.39
  -1   1   9  306.46   11.27
   0  -1  -9  163.75    5.30
   0   1   9  154.65    5.71
  -1  -1  -9   73.85    2.77
   1   1   9   70.70    3.12
  -2  -1  -9    6.02    0.61
   2   1   9    4.96    0.73
  -3  -1  -9    1.55    0.32
   6  -2  -9    7.96    1.08
  -6   2   9    7.99    0.48
  -5   2   9   57.78    2.17
  -5   2   9   60.48    2.37
  -4   2   9   86.48    3.24
  -4   2   9   85.18    3.02
   3  -2  -9  134.58    4.58
  -3   2   9  139.40    4.50
   2  -2  -9    3.29    0.47
  -2   2   9    2.43    0.59
  -2   2   9    3.05    0.33
   1  -2  -9   14.82    0.92
  -1   2   9   15.50    1.21
   0  -2  -9  506.71   15.14
   0   2   9  483.87   15.65
  -1  -2  -9   63.65    2.50
   1   2   9   63.31    2.85
  -2  -2  -9   35.78    1.60
   2   2   9   36.86    1.82
   6  -3  -9    7.85    0.54
  -6   3   9    8.25    0.49
  -5   3   9   30.36    1.31
  -5   3   9   29.85    1.48
   4  -3  -9    3.41    0.50
  -4   3   9    3.38    0.39
   3  -3  -9    8.45    0.71
  -3   3   9    9.05    0.63
   2  -3  -9  346.22   10.69
  -2   3   9  347.17   11.20
  -2   3   9  342.27   10.49
   1  -3  -9    0.10    0.21
  -1   3   9    0.33    0.32
   0  -3  -9  409.29   12.61
   0   3   9  409.36   13.16
  -1  -3  -9   94.34    3.32
   1   3   9   90.12    3.66
  -2  -3  -9    1.36    0.32
  -6   4   9   72.59    2.40
   5  -4  -9  715.56   21.29
  -5   4   9  711.20   21.21
   4  -4  -9   63.67    2.45
  -4   4   9   64.27    2.36
   3  -4  -9    0.63    0.30
  -3   4   9    1.15    0.27
   2  -4  -9   12.35    0.86
  -2   4   9   12.42    1.09
  -2   4   9   12.54    0.70
   1  -4  -9   32.52    1.53
  -1   4   9   30.55    1.83
   0  -4  -9   10.37    0.77
   0   4   9   11.43    1.04
  -1  -4  -9  158.99    5.10
   1   4   9  156.89    5.40
  -6   5   9    6.96    0.49
   5  -5  -9  223.63    6.94
  -5   5   9  221.94    6.86
   4  -5  -9  123.42    4.10
  -4   5   9  120.22    4.00
   3  -5  -9   70.65    2.62
  -3   5   9   71.07    2.50
   2  -5  -9   11.97    0.83
  -2   5   9   12.39    0.63
  -2   5   9   12.11    1.02
   1  -5  -9   27.86    1.31
  -1   5   9   27.14    1.58
   0  -5  -9  280.22    8.65
  -5   6   9   19.26    0.80
   4  -6  -9   20.96    1.00
  -4   6   9   21.79    0.92
   3  -6  -9   25.41    1.15
  -3   6   9   24.84    1.01
   2  -6  -9   73.91    2.58
  -2   6   9   71.58    2.86
   1  -6  -9   23.84    1.09
  -1   6   9   24.58    1.32
   0   8 -10  113.00    3.61
   0   8 -10  111.08    3.92
   0   8 -10  112.93    3.68
  -1   8 -10    7.67    0.62
  -1   8 -10    7.71    0.74
  -1   8 -10    7.29    0.47
  -2   8 -10  100.45    3.56
   1   7 -10   36.68    1.40
   1   7 -10   33.43    1.47
   0   7 -10  157.73    5.14
   0   7 -10  158.93    5.54
  -1   7 -10  161.47    5.63
  -1   7 -10  158.03    5.20
  -2   7 -10  101.81    3.78
  -2   7 -10  100.44    3.43
   2   6 -10   20.65    1.29
   1   6 -10   37.56    1.65
   1   6 -10   39.37    1.57
   0   6 -10   32.88    1.84
   0   6 -10   29.76    1.35
   0   6 -10   32.97    1.50
   0   6 -10   30.51    1.45
  -1   6 -10    6.89    0.74
  -1   6 -10    7.36    0.92
  -1   6 -10    7.97    0.82
  -2   6 -10  291.30    9.17
  -2   6 -10  289.69    9.43
  -2   6 -10  280.74    8.93
  -3   6 -10   98.11    3.45
  -3   6 -10   98.42    3.29
  -3   6 -10   94.57    3.52
   3   5 -10  441.22   14.12
   2   5 -10   29.45    1.56
   1   5 -10   98.58    3.38
   1   5 -10   98.69    3.73
   1   5 -10   98.38    3.87
   1   5 -10   94.55    3.40
   0   5 -10   56.53    2.25
   0   5 -10   59.91    2.30
   0   5 -10   61.02    2.65
   0   5 -10   60.75    2.37
   0   5 -10   62.78    2.85
  -1   5 -10   14.94    1.25
  -1   5 -10   15.57    1.16
  -1   5 -10   13.57    0.83
  -1   5 -10   14.07    1.01
  -2   5 -10    5.45    0.75
  -2   5 -10    5.07    0.63
  -2   5 -10    5.02    0.78
  -3   5 -10    1.34    0.40
  -3   5 -10    2.32    0.48
  -3   5 -10    1.85    0.44
   4   4 -10   29.90    1.47
   3   4 -10   20.99    1.33
   2   4 -10   10.73    1.00
   1   4 -10   48.17    1.91
   1   4 -10   46.83    2.24
   1   4 -10   46.98    2.32
   0   4 -10  139.80    5.18
   0   4 -10  135.57    4.97
   0   4 -10  136.53    4.58
   0   4 -10  136.67    4.61
  -1   4 -10    2.08    0.46
  -1   4 -10    3.46    0.74
  -1   4 -10    1.67    0.33
  -1   4 -10    1.93    0.54
  -2   4 -10  260.14    8.60
  -2   4 -10  249.22    8.01
  -2   4 -10  253.39    7.94
  -2   4 -10  249.84    8.36
  -3   4 -10    1.97    0.43
  -3   4 -10    1.51    0.43
   3  -4  10    1.23    0.55
   5   3 -10   77.29    2.82
   4   3 -10  149.97    5.20
   3   3 -10  275.45    9.00
   2   3 -10  447.13   14.00
   1   3 -10    8.34    0.88
   1   3 -10    6.18    0.81
   0   3 -10  254.09    8.10
   0   3 -10  267.02    8.79
   0   3 -10  254.26    8.53
  -1   3 -10  241.21    7.81
  -1   3 -10  225.88    7.34
  -1   3 -10  228.31    7.39
  -1   3 -10  233.72    8.04
  -2   3 -10  446.02   13.88
  -2   3 -10  463.42   14.58
  -2   3 -10  461.36   14.33
  -2   3 -10  457.21   13.96
  -3   3 -10   15.61    0.97
  -3   3 -10   15.99    1.10
   5   2 -10   16.84    1.11
   4   2 -10    6.76    0.86
   3   2 -10   48.11    2.28
   2   2 -10   85.02    3.39
   1   2 -10   11.88    1.01
   1   2 -10    6.98    0.88
   0   2 -10    3.40    0.69
   0   2 -10    3.73    0.67
  -1   2 -10   48.30    2.49
  -1   2 -10   49.75    2.30
  -1   2 -10   48.24    2.20
  -1   2 -10   45.37    1.92
  -2   2 -10   30.94    1.71
  -2   2 -10   31.66    1.44
  -2   2 -10   33.70    1.54
   2  -2  10   34.93    1.86
  -3   2 -10  105.65    3.84
  -3   2 -10  106.81    3.63
   5   1 -10   23.38    1.36
   4   1 -10   12.92    1.10
   3   1 -10   71.96    3.01
   2   1 -10   86.63    3.41
   1   1 -10    1.24    0.46
   1   1 -10    1.68    0.51
  -1  -1  10    1.24    0.45
   0   1 -10  424.76   13.49
   0  -1  10  434.31   13.71
  -1   1 -10   81.54    3.28
   1  -1  10   82.70    3.47
  -2   1 -10    5.78    0.66
  -2   1 -10    7.07    0.77
  -2   1 -10    5.61    0.57
   2  -1  10    6.43    0.81
  -3   1 -10   19.33    0.99
  -3   1 -10   19.37    0.96
   6   0 -10   74.28    2.68
   5   0 -10    2.08    0.50
   4   0 -10   88.09    3.46
   3   0 -10  129.39    4.69
   2   0 -10   36.77    1.86
   1   0 -10   36.05    1.84
  -1   0  10   37.93    1.98
   0   0 -10   14.86    1.37
   0   0 -10   14.16    0.89
   0   0  10   14.43    1.21
  -1   0 -10   83.23    3.05
   1   0  10   83.58    3.49
  -2   0 -10  112.77    3.88
   2   0  10  114.19    4.26
  -3   0 -10   56.36    2.04
   6  -1 -10   57.94    2.18
   5  -1 -10  305.41    9.56
  -5   1  10  297.88    9.05
   4  -1 -10    6.12    0.80
  -4   1  10    5.26    0.41
   2  -1 -10  113.03    3.84
   1  -1 -10  535.76   16.39
  -1   1  10  546.31   16.90
   0  -1 -10  527.70   15.93
   0   1  10  520.73   16.47
  -1  -1 -10   53.17    2.16
   1   1  10   53.54    2.55
  -2  -1 -10    3.42    0.46
   2   1  10    3.92    0.62
  -5   2  10  314.98    9.52
   4  -2 -10   86.85    3.01
  -4   2  10   82.46    2.86
   3  -2 -10   31.76    1.46
  -3   2  10   31.67    1.27
   2  -2 -10   39.21    1.69
  -2   2  10   38.99    2.00
   1  -2 -10    6.82    0.65
  -1   2  10    2.46    0.60
   0  -2 -10   60.01    2.36
   0   2  10   59.12    2.74
  -1  -2 -10    2.81    0.44
   1   2  10    2.60    0.57
  -2  -2 -10   73.42    2.58
   5  -3 -10    5.24    0.50
  -5   3  10    5.33    0.40
   4  -3 -10   67.61    2.54
  -4   3  10   70.08    2.42
   3  -3 -10   15.23    0.94
  -3   3  10   15.38    0.77
   2  -3 -10   15.45    0.95
  -2   3  10   15.44    1.19
   1  -3 -10  168.01    5.61
  -1   3  10  171.71    6.08
   0  -3 -10    2.88    0.45
   0   3  10    2.54    0.57
  -1  -3 -10   10.46    0.70
   1   3  10   10.04    0.88
   5  -4 -10   26.90    1.18
  -5   4  10   27.64    1.08
   4  -4 -10  200.52    6.39
  -4   4  10  201.39    6.23
   3  -4 -10   14.11    0.87
  -3   4  10   13.30    0.67
   2  -4 -10  370.14   11.18
  -2   4  10  354.50   11.57
   1  -4 -10    0.80    0.31
  -1   4  10    0.86    0.40
   0  -4 -10  101.46    3.45
   0   4  10  100.07    3.78
  -5   5  10  227.88    6.84
   4  -5 -10    4.28    0.46
  -4   5  10    4.41    0.33
   3  -5 -10    9.30    0.67
   2  -5 -10    3.99    0.50
   1  -5 -10   12.19    0.72
   0   5  10    7.96    0.66
   0   7 -11  298.01    9.45
   0   7 -11  297.80    9.10
  -1   7 -11   25.10    1.35
  -1   7 -11   22.23    1.09
  -2   7 -11   50.21    2.06
   1   6 -11   57.58    2.14
   0   6 -11   78.96    3.02
   0   6 -11   83.23    3.27
   0   6 -11   78.43    2.84
  -1   6 -11   54.39    2.42
  -1   6 -11   50.68    2.03
  -1   6 -11   53.34    2.22
  -2   6 -11   97.58    3.44
  -2   6 -11   94.95    3.59
  -2   6 -11   98.04    3.28
   3   5 -11  129.15    4.35
   2   5 -11    6.18    0.74
   1   5 -11  100.41    3.74
   1   5 -11   99.42    3.83
   0   5 -11   75.13    3.06
   0   5 -11   74.22    2.77
   0   5 -11   79.66    3.29
  -1   5 -11   49.24    2.27
  -1   5 -11   52.22    2.06
  -1   5 -11   53.43    2.47
  -2   5 -11   16.45    0.97
  -2   5 -11   16.05    1.16
  -2   5 -11   15.17    1.05
  -3   5 -11   -0.09    0.23
   4   4 -11  357.46   10.97
   3   4 -11   75.10    2.92
   2   4 -11    4.80    0.72
   1   4 -11   38.89    1.97
   1   4 -11   40.63    2.05
   0   4 -11    0.03    0.34
   0   4 -11    0.17    0.33
  -1   4 -11    3.10    0.63
  -1   4 -11    2.90    0.49
  -1   4 -11    3.39    0.66
  -2   4 -11  103.99    3.58
  -2   4 -11  105.43    4.03
  -2   4 -11  104.59    3.86
   2  -4  11  104.30    3.95
  -3   4 -11    5.41    0.61
   4   3 -11  219.55    7.12
   3   3 -11   12.24    1.02
   2   3 -11  127.98    4.65
   1   3 -11    0.28    0.40
   1   3 -11    2.87    0.63
   0   3 -11   26.15    1.59
   0   3 -11   24.21    1.64
  -1   3 -11  101.22    3.73
  -1   3 -11   88.07    3.44
  -1   3 -11   92.21    3.87
  -2   3 -11  173.22    5.85
  -2   3 -11  165.88    5.50
   2  -3  11  175.27    5.94
  -3   3 -11   12.68    0.85
   5   2 -11  233.77    7.40
   4   2 -11  192.57    6.44
   3   2 -11  180.02    6.17
   2   2 -11   -0.36    0.33
   1   2 -11  175.58    6.04
   1   2 -11  170.94    6.22
   0   2 -11   79.04    3.45
   0   2 -11   77.26    3.21
  -1   2 -11   31.83    1.71
   1  -2  11   29.86    1.79
  -2   2 -11    0.62    0.34
  -2   2 -11    1.16    0.52
   2  -2  11    1.00    0.41
   5   1 -11   29.75    1.48
   4   1 -11   15.35    1.16
   3   1 -11   79.28    3.19
   2   1 -11   78.72    3.18
   1   1 -11   32.02    1.75
  -1  -1  11   33.26    1.82
   0   1 -11  235.50    7.73
   0  -1  11  231.03    7.94
  -1   1 -11  101.85    3.81
   1  -1  11  102.26    4.02
  -2   1 -11    1.01    0.36
   2  -1  11   -0.03    0.26
   5   0 -11   69.44    2.68
   4   0 -11   14.60    1.11
   3   0 -11   10.40    0.94
   2   0 -11   20.30    1.32
   1   0 -11   74.53    2.99
  -1   0  11   71.58    3.11
   0   0 -11  808.61   24.75
   0   0  11  852.87   25.37
  -1   0 -11   16.81    0.96
   1   0  11   19.69    1.33
  -2   0 -11    2.79    0.38
   2   0  11    3.21    0.54
   5  -1 -11   87.70    3.14
   4  -1 -11    0.52    0.56
   2  -1 -11   11.33    0.77
   1  -1 -11  286.35    9.11
  -1   1  11  298.48    9.63
   0  -1 -11    3.72    0.51
   0   1  11    5.00    0.81
  -1  -1 -11    2.39    0.39
   1   1  11    3.81    0.64
   4  -2 -11    6.34    0.55
   3  -2 -11    0.93    0.29
   2  -2 -11    0.18    0.22
  -2   2  11    0.25    0.31
   1  -2 -11  110.83    3.81
  -1   2  11  109.61    4.22
   0  -2 -11    1.48    0.35
   0   2  11    1.21    0.45
  -1  -2 -11    4.50    0.46
   1   2  11    4.95    0.65
   4  -3 -11    4.23    0.46
   3  -3 -11    9.31    0.68
   2  -3 -11   13.11    0.85
  -2   3  11   12.63    1.03
   1  -3 -11    0.73    0.29
  -1   3  11    0.97    0.41
   0  -3 -11   23.69    1.15
   0   3  11   25.29    1.42
   4  -4 -11  145.89    4.66
   3  -4 -11  124.50    4.10
   2  -4 -11    4.21    0.50
  -2   4  11    4.15    0.59
   1  -4 -11    4.40    0.46
  -1   4  11    4.03    0.58
   0   4  11   15.62    0.93
   0   6 -12   64.26    2.42
   0   6 -12   62.95    2.55
  -1   6 -12   27.72    1.25
  -1   6 -12   23.58    1.34
   2   5 -12    4.61    0.59
   1   5 -12   31.03    1.58
   0   5 -12   84.78    3.22
   0   5 -12   86.64    3.38
  -1   5 -12    9.26    0.81
  -1   5 -12    9.65    0.89
  -1   5 -12    8.62    0.67
  -2   5 -12   35.27    1.52
   2  -5  12   34.11    1.57
   3   4 -12  123.08    4.23
   2   4 -12   20.71    1.27
   1   4 -12  226.33    7.53
   1   4 -12  223.27    7.41
   0   4 -12  106.12    4.01
   0   4 -12  114.54    4.26
  -1   4 -12    7.23    0.76
   1  -4  12    3.68    0.66
  -2   4 -12    6.82    0.66
   2  -4  12    6.61    0.68
   4   3 -12   51.96    2.06
   3   3 -12    3.63    0.57
   2   3 -12    0.69    0.40
   1   3 -12   68.88    2.82
  -1  -3  12   65.27    2.82
   0   3 -12    4.82    0.74
   0  -3  12    7.73    0.89
  -1   3 -12   73.84    2.92
   1  -3  12   72.31    3.01
  -2   3 -12   30.43    1.41
   2  -3  12   28.15    1.43
   4   2 -12  236.26    7.56
   3   2 -12   16.16    1.14
   2   2 -12    1.91    0.53
   1   2 -12   26.22    1.53
  -1  -2  12   25.11    1.51
   0   2 -12  109.79    4.03
   0  -2  12  109.49    4.18
  -1   2 -12  239.74    7.81
   1  -2  12  243.51    8.00
  -2   2 -12    4.87    0.56
   2  -2  12    4.78    0.58
   5   1 -12    0.61    0.28
   4   1 -12  134.04    4.60
   3   1 -12   17.79    1.18
   2   1 -12   17.00    1.20
   1   1 -12  510.30   15.46
  -1  -1  12  487.54   15.55
   0   1 -12  213.97    7.10
   0  -1  12  217.03    7.32
  -1   1 -12   78.79    2.96
   1  -1  12   79.63    3.16
   5   0 -12   62.19    2.39
   4   0 -12   81.34    3.01
   3   0 -12   12.09    0.97
   2   0 -12    1.54    0.46
  -1   0  12    0.51    0.37
   0   0  12   17.41    1.23
   1   0  12   58.68    2.47
   1  -1 -12    6.74    0.55
  -1   1  12    6.88    0.80
   0  -1 -12  296.20    9.37
   0   1  12  315.97    9.85
   1   1  12    0.17    0.27
   3  -2 -12  233.84    7.26
   2  -2 -12    2.45    0.39
  -2   2  12    2.76    0.60
   1  -2 -12    9.34    0.64
  -1   2  12    8.75    0.85
   0  -2 -12    2.37    0.36
   0   2  12    2.51    0.48
   3  -3 -12   56.53    2.07
   2  -3 -12   15.92    0.85
  -2   3  12   16.14    1.01
   1  -3 -12    0.46    0.23
  -1   3  12    0.06    0.25
   1   5 -13    1.82    0.39
   0   5 -13    0.21    0.26
   0  -5  13   -0.42    0.25
   3   4 -13    0.47    0.26
   2   4 -13   81.27    2.97
   1   4 -13  106.50    3.76
   0   4 -13  102.33    3.59
   0  -4  13   98.65    3.64
  -1   4 -13   88.91    3.13
   1  -4  13   88.85    3.22
   3   3 -13  180.82    5.87
   2   3 -13   19.08    1.16
   1   3 -13    9.60    0.84
  -1  -3  13    8.04    0.78
   0   3 -13   29.89    1.48
   0  -3  13   28.73    1.53
  -1   3 -13  162.24    5.35
   1  -3  13  165.88    5.48
   4   2 -13   29.03    1.30
   3   2 -13   20.51    1.17
   2   2 -13    1.37    0.45
   1   2 -13   19.90    1.18
  -1  -2  13   17.19    1.14
   0   2 -13    0.63    0.33
   0  -2  13    0.78    0.37
  -1   2 -13   33.91    1.48
   1  -2  13   35.77    1.62
   4   1 -13    7.70    0.65
   3   1 -13    4.02    0.62
   2   1 -13    4.92    0.67
   1   1 -13  268.53    8.37
  -1  -1  13  259.22    8.49
   0  -1  13   55.77    2.35
   1  -1  13    4.16    0.54
  -1   0  13  370.72   11.61
   0   0  13  286.14    9.08
  -1   1  13  239.95    7.73
   0   1  13    5.72    0.61
  -1   2  13    4.97    0.56
   2   3 -14   64.72    2.39
   1   3 -14   65.00    2.40
   2   2 -14   14.84    0.87
   1   2 -14   65.68    2.46
   0   0   0    0.00    0.00


 _exptl_absorpt_process_details 'SADABS 2014/5'
 _exptl_absorpt_correction_type   numerical
 _exptl_absorpt_correction_T_max  0.9195
 _exptl_absorpt_correction_T_min  0.8354
 _exptl_special_details
)
 The following wavelength and cell were deduced by SADABS from the
 direction cosines etc. They are given here for emergency use only:
 CELL 1.54181    6.095    8.726   11.859   98.887  102.812  107.055
)

_computing_structure_solution     'SHELXT 2014/5 (Sheldrick, 2014)'
;
_shelx_hkl_checksum              89868
loop_
_space_group_symop_operation_xyz
'x, y, z'
'-x, -y, -z'
loop_
_atom_site_label
_atom_site_type_symbol
_atom_site_fract_x
_atom_site_fract_y
_atom_site_fract_z
_atom_site_U_iso_or_equiv
_atom_site_adp_type
_atom_site_occupancy
_atom_site_site_symmetry_order
_atom_site_calc_flag
_atom_site_refinement_flags_posn
_atom_site_refinement_flags_adp
O1 O 1.00231(15) 0.61441(10) 0.83012(7) 0.0204(2) Uani 1 1 d . .
N1 N 0.96671(16) 0.35672(11) 0.85596(8) 0.0150(2) Uani 1 1 d . .
N2 N 0.59023(17) 0.18830(12) 0.85619(8) 0.0154(2) Uani 1 1 d . .
N3 N 0.90964(17) 0.08178(12) 0.85778(9) 0.0169(2) Uani 1 1 d . .
C2 C 0.8133(2) 0.20009(14) 0.85514(10) 0.0136(3) Uani 1 1 d . .
C4 C 0.6651(2) 0.39718(14) 0.69886(10) 0.0157(3) Uani 1 1 d . .
C11 C 0.4471(2) 0.03834(14) 0.85326(10) 0.0166(3) Uani 1 1 d . .
H11 H 0.2852 0.0227 0.8512 0.020 Uiso 1 1 calc R U
C1 C 0.8878(2) 0.46637(14) 0.80100(10) 0.0154(3) Uani 1 1 d . .
C13 C 0.7623(2) -0.06628(14) 0.85769(11) 0.0181(3) Uani 1 1 d . .
H13 H 0.8233 -0.1544 0.8609 0.022 Uiso 1 1 calc R U
C9 C 0.4959(2) 0.47501(14) 0.68765(11) 0.0181(3) Uani 1 1 d . .
H9 H 0.5229 0.5730 0.7445 0.022 Uiso 1 1 calc R U
C5 C 0.6289(2) 0.25881(15) 0.61138(11) 0.0182(3) Uani 1 1 d . .
H5 H 0.7453 0.2059 0.6167 0.022 Uiso 1 1 calc R U
C3 C 1.21726(19) 0.40860(14) 0.92723(10) 0.0169(3) Uani 1 1 d . .
H3A H 1.3101 0.3684 0.8795 0.025 Uiso 1 1 calc R U
H3B H 1.2255 0.3626 0.9977 0.025 Uiso 1 1 calc R U
H3C H 1.2833 0.5293 0.9520 0.025 Uiso 1 1 calc R U
C12 C 0.5247(2) -0.09583(14) 0.85313(10) 0.0181(3) Uani 1 1 d . .
H12 H 0.4201 -0.2024 0.8501 0.022 Uiso 1 1 calc R U
C6 C 0.4232(2) 0.19812(15) 0.51651(11) 0.0199(3) Uani 1 1 d . .
H6 H 0.4023 0.1052 0.4564 0.024 Uiso 1 1 calc R U
C8 C 0.2876(2) 0.41102(15) 0.59414(11) 0.0198(3) Uani 1 1 d . .
H8 H 0.1712 0.4638 0.5891 0.024 Uiso 1 1 calc R U
C7 C 0.2469(2) 0.27040(15) 0.50750(11) 0.0192(3) Uani 1 1 d . .
C10 C 0.0204(2) 0.19993(17) 0.40594(11) 0.0249(3) Uani 1 1 d . .
H10A H -0.1102 0.2243 0.4318 0.037 Uiso 1 1 calc R U
H10B H -0.0204 0.0802 0.3810 0.037 Uiso 1 1 calc R U
H10C H 0.0447 0.2496 0.3390 0.037 Uiso 1 1 calc R U
loop_
_atom_site_aniso_label
_atom_site_aniso_U_11
_atom_site_aniso_U_22
_atom_site_aniso_U_33
_atom_site_aniso_U_23
_atom_site_aniso_U_13
_atom_site_aniso_U_12
O1 0.0201(4) 0.0137(4) 0.0236(5) 0.0046(3) 0.0033(4) 0.0025(4)
N1 0.0117(5) 0.0134(5) 0.0180(5) 0.0032(4) 0.0028(4) 0.0031(4)
N2 0.0140(5) 0.0169(5) 0.0153(5) 0.0034(4) 0.0041(4) 0.0055(4)
N3 0.0155(5) 0.0153(5) 0.0204(5) 0.0038(4) 0.0052(4) 0.0061(4)
C2 0.0133(5) 0.0141(5) 0.0121(5) 0.0021(4) 0.0025(4) 0.0041(5)
C4 0.0161(6) 0.0143(5) 0.0172(6) 0.0065(5) 0.0055(5) 0.0039(5)
C11 0.0133(5) 0.0194(6) 0.0153(6) 0.0027(5) 0.0042(4) 0.0036(5)
C1 0.0161(6) 0.0153(6) 0.0169(6) 0.0041(5) 0.0080(5) 0.0057(5)
C13 0.0198(6) 0.0144(6) 0.0214(6) 0.0046(5) 0.0057(5) 0.0075(5)
C9 0.0208(6) 0.0144(6) 0.0194(6) 0.0037(5) 0.0056(5) 0.0067(5)
C5 0.0197(6) 0.0178(6) 0.0194(6) 0.0054(5) 0.0063(5) 0.0084(5)
C3 0.0119(6) 0.0166(6) 0.0195(6) 0.0028(5) 0.0022(5) 0.0034(5)
C12 0.0182(6) 0.0146(6) 0.0194(6) 0.0034(5) 0.0057(5) 0.0025(5)
C6 0.0245(6) 0.0181(6) 0.0155(6) 0.0025(5) 0.0053(5) 0.0060(5)
C8 0.0187(6) 0.0211(6) 0.0227(6) 0.0089(5) 0.0055(5) 0.0093(5)
C7 0.0188(6) 0.0210(6) 0.0171(6) 0.0090(5) 0.0049(5) 0.0037(5)
C10 0.0217(6) 0.0294(7) 0.0191(6) 0.0059(5) 0.0015(5) 0.0055(6)
loop_
_atom_type_symbol
_atom_type_description
_atom_type_scat_dispersion_real
_atom_type_scat_dispersion_imag
_atom_type_scat_source
C C 0.0181 0.0091 'International Tables Vol C Tables 4.2.6.8 and 6.1.1.4'
H H 0.0000 0.0000 'International Tables Vol C Tables 4.2.6.8 and 6.1.1.4'
N N 0.0311 0.0180 'International Tables Vol C Tables 4.2.6.8 and 6.1.1.4'
O O 0.0492 0.0322 'International Tables Vol C Tables 4.2.6.8 and 6.1.1.4'
loop_
_geom_angle_atom_site_label_1
_geom_angle_atom_site_label_2
_geom_angle_atom_site_label_3
_geom_angle
C1 N1 C2 122.91(10)
C1 N1 C3 119.31(10)
C2 N1 C3 117.58(9)
C11 N2 C2 115.41(10)
C2 N3 C13 115.58(10)
N3 C2 N2 127.31(11)
N3 C2 N1 116.19(10)
N2 C2 N1 116.45(10)
C9 C4 C5 118.98(11)
C9 C4 C1 120.04(11)
C5 C4 C1 120.92(11)
N2 C11 C12 122.71(11)
N2 C11 H11 118.6
C12 C11 H11 118.6
O1 C1 N1 121.33(11)
O1 C1 C4 120.86(11)
N1 C1 C4 117.69(10)
N3 C13 C12 122.47(11)
N3 C13 H13 118.8
C12 C13 H13 118.8
C4 C9 C8 120.58(11)
C4 C9 H9 119.7
C8 C9 H9 119.7
C4 C5 C6 120.05(12)
C4 C5 H5 120.0
C6 C5 H5 120.0
N1 C3 H3A 109.5
N1 C3 H3B 109.5
H3A C3 H3B 109.5
N1 C3 H3C 109.5
H3A C3 H3C 109.5
H3B C3 H3C 109.5
C13 C12 C11 116.42(11)
C13 C12 H12 121.8
C11 C12 H12 121.8
C5 C6 C7 121.41(11)
C5 C6 H6 119.3
C7 C6 H6 119.3
C9 C8 C7 120.89(12)
C9 C8 H8 119.6
C7 C8 H8 119.6
C8 C7 C6 117.98(12)
C8 C7 C10 121.11(12)
C6 C7 C10 120.90(12)
C7 C10 H10A 109.5
C7 C10 H10B 109.5
H10A C10 H10B 109.5
C7 C10 H10C 109.5
H10A C10 H10C 109.5
H10B C10 H10C 109.5
loop_
_geom_bond_atom_site_label_1
_geom_bond_atom_site_label_2
_geom_bond_distance
O1 C1 1.2246(14)
N1 C1 1.3784(16)
N1 C2 1.4076(15)
N1 C3 1.4690(15)
N2 C11 1.3322(16)
N2 C2 1.3364(15)
N3 C2 1.3309(16)
N3 C13 1.3386(16)
C4 C9 1.3869(18)
C4 C5 1.3920(17)
C4 C1 1.4971(18)
C11 C12 1.3861(17)
C11 H11 0.9500
C13 C12 1.3815(17)
C13 H13 0.9500
C9 C8 1.3874(19)
C9 H9 0.9500
C5 C6 1.3863(19)
C5 H5 0.9500
C3 H3A 0.9800
C3 H3B 0.9800
C3 H3C 0.9800
C12 H12 0.9500
C6 C7 1.3910(18)
C6 H6 0.9500
C8 C7 1.3933(18)
C8 H8 0.9500
C7 C10 1.5080(18)
C10 H10A 0.9800
C10 H10B 0.9800
C10 H10C 0.9800
