#------------------------------------------------------------------------------
#$Date: 2017-07-25 13:24:28 +0300 (Tue, 25 Jul 2017) $
#$Revision: 199250 $
#$URL: file:///home/coder/svn-repositories/cod/cif/1/54/66/1546656.cif $
#------------------------------------------------------------------------------
#
# This file is available in the Crystallography Open Database (COD),
# http://www.crystallography.net/. The original data for this entry
# were provided by IUCr Journals, http://journals.iucr.org/.
#
# The file may be used within the scientific community so long as
# proper attribution is given to the journal article from which the
# data were obtained.
#
data_1546656
loop_
_publ_author_name
'Kambo, Konan Ren\'e'
'Sosso, Siaka'
'Mansilla-Koblavi, F.'
'Djand\'e, Abdoulaye'
'Kakou-Yao, Rita'
_publ_section_title
;
 2-Oxo-2<i>H</i>-chromen-3-yl benzoate
;
_journal_coeditor_code           HB4144
_journal_issue                   5
_journal_name_full               IUCrData
_journal_page_first              x170663
_journal_paper_doi               10.1107/S2414314617006630
_journal_volume                  2
_journal_year                    2017
_chemical_formula_iupac          'C16 H10 O4'
_chemical_formula_moiety         'C16 H10 O4'
_chemical_formula_sum            'C16 H10 O4'
_chemical_formula_weight         266.24
_chemical_name_systematic
;
2-Oxo-2<i>H</i>-chromen-3-yl benzoate
;
_space_group_crystal_system      triclinic
_space_group_IT_number           2
_space_group_name_Hall           '-P 1'
_space_group_name_H-M_alt        'P -1'
_symmetry_space_group_name_Hall  '-P 1'
_symmetry_space_group_name_H-M   'P -1'
_atom_sites_solution_hydrogens   difmap
_atom_sites_solution_primary     direct
_audit_creation_method           SHELXL-2013
_cell_angle_alpha                84.550(6)
_cell_angle_beta                 81.852(6)
_cell_angle_gamma                83.023(8)
_cell_formula_units_Z            2
_cell_length_a                   6.9243(6)
_cell_length_b                   7.7262(8)
_cell_length_c                   11.8168(6)
_cell_measurement_reflns_used    2675
_cell_measurement_temperature    298.0(2)
_cell_measurement_theta_max      69.20
_cell_measurement_theta_min      5.76
_cell_volume                     619.22(9)
_computing_cell_refinement
;
Crysalis PRO (Agilent, 2011)
;
_computing_data_collection
;
Crysalis PRO (Agilent, 2011)
;
_computing_data_reduction
;
Crysalis PRO (Agilent, 2011)
;
_computing_molecular_graphics
;
ORTEP-3 for Windows (Farrugia, 2012) and PLATON (Spek, 2009)
;
_computing_publication_material
;
publCIF (Westrip, 2010)
;
_computing_structure_refinement
;
SHELXL2013 (Sheldrick, 2015)
;
_computing_structure_solution
;
SHELXS2013 (Sheldrick, 2008)
;
_diffrn_ambient_temperature      298.0(2)
_diffrn_detector_area_resol_mean 5.3048
_diffrn_measured_fraction_theta_full 0.992
_diffrn_measured_fraction_theta_max 0.975
_diffrn_measurement_device_type
'Agilent Supernova Dual diffractometer with an Atlas detector'
_diffrn_measurement_method       '\w scans'
_diffrn_radiation_type           MoK\a
_diffrn_radiation_wavelength     0.71073
_diffrn_reflns_av_R_equivalents  0.0385
_diffrn_reflns_limit_h_max       8
_diffrn_reflns_limit_h_min       -8
_diffrn_reflns_limit_k_max       9
_diffrn_reflns_limit_k_min       -9
_diffrn_reflns_limit_l_max       14
_diffrn_reflns_limit_l_min       -14
_diffrn_reflns_number            7628
_diffrn_reflns_theta_full        25.242
_diffrn_reflns_theta_max         25.586
_diffrn_reflns_theta_min         1.746
_exptl_absorpt_coefficient_mu    0.103
_exptl_absorpt_correction_T_max  1.00000
_exptl_absorpt_correction_T_min  0.49931
_exptl_absorpt_correction_type   multi-scan
_exptl_absorpt_process_details
;
(Crysalis PRO; Agilent, 2011)
;
_exptl_crystal_colour            yellow
_exptl_crystal_density_diffrn    1.428
_exptl_crystal_density_method    'not measured'
_exptl_crystal_description       prism
_exptl_crystal_F_000             276
_exptl_crystal_size_max          0.34
_exptl_crystal_size_mid          0.12
_exptl_crystal_size_min          0.06
_refine_diff_density_max         0.222
_refine_diff_density_min         -0.279
_refine_ls_extinction_method     none
_refine_ls_goodness_of_fit_ref   1.036
_refine_ls_hydrogen_treatment    refall
_refine_ls_matrix_type           full
_refine_ls_number_parameters     221
_refine_ls_number_reflns         2283
_refine_ls_number_restraints     0
_refine_ls_restrained_S_all      1.036
_refine_ls_R_factor_all          0.0750
_refine_ls_R_factor_gt           0.0509
_refine_ls_shift/su_max          0.000
_refine_ls_shift/su_mean         0.000
_refine_ls_structure_factor_coef Fsqd
_refine_ls_weighting_details
'w=1/[\s^2^(Fo^2^)+(0.0998P)^2^+0.0263P] where P=(Fo^2^+2Fc^2^)/3'
_refine_ls_weighting_scheme      calc
_refine_ls_wR_factor_gt          0.1412
_refine_ls_wR_factor_ref         0.1589
_reflns_number_gt                1724
_reflns_number_total             2283
_reflns_threshold_expression     'I > 2\s(I)'
_cod_data_source_file            hb4144sup1.cif
_cod_data_source_block           I
_cod_database_code               1546656
_shelx_space_group_comment
;
The symmetry employed for this shelxl refinement is uniquely defined
by the following loop, which should always be used as a source of
symmetry information in preference to the above space-group names.
They are only intended as comments.
;
_shelx_hkl_file
;
   0   0   1 75918.4 777.801  50
   0   0   1 76060.4 889.636  48
   0   0  -1 77388.3 1001.62  49
   0   0   2 74591.8 1040.94  50
   0   0   2 75971.6 1222.46  48
   0   0  -2 76149.9 1379.04  49
   0   0   3 1910.83 197.196  50
   0   0  -3 1927.52 272.834  49
   0   0   3 1845.86 239.413  48
   0   0   4 45760.9 1170.57  50
   0   0  -4 48412.9 1568.69  49
   0   0  -4 44899.9 1129.42  33
   0   0  -4 43659.0 1110.75  35
   0   0   4 44632.0 1347.30  48
   0   0  -5 2464.29 407.766  49
   0   0  -5 2103.66 283.964  35
   0   0  -5 2214.76 286.055  33
   0   0   5 2361.31 304.648  50
   0   0   5 2334.82 347.342  48
   0   0  -6 67.2131 72.4753  33
   0   0  -6 66.2132 101.099  49
   0   0   6 39.1764 96.5266  48
   0   0   6 74.7064 74.7715  50
   0   0  -6 35.6536 63.6745  36
   0   0   7 13741.3 992.701  48
   0   0  -7 14382.3 1219.73  49
   0   0  -7 13918.3 926.665  33
   0   0  -7 13209.6 892.040  46
   0   0   7 14114.0 924.121  50
   0   0  -7 14129.5 893.693  36
   0   0  -8 449.805 180.649  36
   0   0  -8 638.895 208.511  46
   0   0  -8 810.130 264.384  33
   0   0  -8 873.657 325.386  49
   0   0   8 750.169 236.433  50
   0   0  -9 8202.80 806.239  36
   0   0   9 8312.67 473.772  10
   0   0  -9 8133.96 373.862  31
   0   0   9 8308.16 377.008  25
   0   0   9 8488.25 380.618  26
   0   0   9 8597.45 370.362   4
   0   0 -10 1071.05 333.205  36
   0   0  10 1034.11 146.061  25
   0   0  10 1040.60 135.565   4
   0   0 -10 856.216 130.562  31
   0   0  10 956.217 172.423  10
   0   0  11 1717.32 233.120  10
   0   0  11 1732.55 165.388   4
   0   0 -11 1714.52 182.350  31
   0   0  11 1871.95 187.562  25
   0   0  12 2166.12 192.514  25
   0   0 -12 2049.84 190.078  32
   0   0  12 1824.29 217.178  10
   0   0  13 1133.00 146.302  10
   0   0 -13 1560.45 163.558  32
   0   0 -14 190.874 58.6241  32
   0   1 -13 1069.04 129.691  32
   0  -1  13 966.946 137.077  10
   0  -1  12 47.4346 67.5676  10
   0   1 -12 128.188 88.3429  32
   0   1 -11-107.543 98.9793  32
   0  -1  11-52.4642 72.0142  25
   0  -1  11 22.4362 86.1157  10
   0  -1  10 1744.72 189.434  25
   0   1 -10 1319.25 407.503  45
   0  -1  10 1847.11 250.639  10
   0  -1   9 3338.62 249.602  25
   0   1  -9 3109.38 546.066  45
   0   1  -8 27795.1 1779.32  49
   0   1  -8 29165.6 1531.15  45
   0   1  -8 29377.8 1470.32  36
   0  -1   8 27807.9 1398.71  50
   0  -1   8 28993.4 1537.17  48
   0   1  -7 24133.3 1224.65  46
   0   1  -7 22592.9 1165.07  36
   0  -1   7 23091.7 1269.59  48
   0  -1   7 23678.3 1182.24  50
   0   1  -7 23140.1 1498.53  49
   0   1  -6 5.83440 73.6156  36
   0  -1   6-2.41806 59.4411  50
   0   1  -6 27.3882 71.7552  46
   0   1  -6-3.69058 97.2440  49
   0  -1   6 2.69363 71.5210  48
   0   1  -5 68808.0 1677.05  33
   0   1  -5 78082.2 2348.35  49
   0  -1   5 76591.6 1923.60  48
   0  -1   5 75575.3 1694.15  50
   0   1  -5 74445.8 1769.75  46
   0   1  -5 71954.7 1708.16  36
   0   1  -4 128870. 2035.66  36
   0   1  -4 129569. 2123.65  46
   0  -1   4 134290. 1982.29  50
   0   1  -4 131480. 2043.08  33
   0  -1   3 1078.71 183.942  48
   0  -1   3 1208.25 156.276  50
   0   1  -3 1126.80 165.060  46
   0  -1   2 94039.7 1254.04  50
   0  -1   2 99497.6 1382.85  48
   0  -1   1 183886. 1694.08  48
   0   1   0 180082. 1376.80  50
   0   1   0 176788. 1688.59  51
   0  -1   0 181013. 1553.11  48
   0   1   1 12698.2 383.901  50
   0  -1  -1 12443.0 433.190  52
   0   1   1 12135.9 407.871  51
   0   1   2 1516.88 164.286  50
   0  -1  -2 1408.18 194.575  49
   0   1   2 1489.65 151.231  51
   0   1   3 4913.41 283.929  51
   0  -1  -3 4676.48 413.664  49
   0   1   3 5283.27 359.614  50
   0   1   4 3535.00 344.943  50
   0  -1  -4 3603.94 426.344  49
   0  -1  -4 3277.67 312.444  35
   0   1   5 130640. 2378.68  50
   0  -1  -5 124642. 2262.21  35
   0  -1  -5 125023. 2284.68  33
   0  -1  -5 123674. 3005.77  49
   0  -1  -6 84516.1 2097.13  35
   0  -1  -6 87772.7 2118.63  33
   0   1   6 91398.0 2198.50  50
   0  -1  -6 91261.8 2946.76  49
   0  -1  -7 5905.87 606.162  33
   0   1   7 5621.95 608.087  50
   0  -1  -7 6450.56 888.145  49
   0  -1  -8 173.161 148.938  33
   0   1   8 395.507 182.133  50
   0  -1  -8 402.194 185.304  36
   0  -1  -8 218.669 221.274  49
   0  -1  -9 930.156 269.574  36
   0   1   9 1078.35 142.108   4
   0  -1  -9 576.742 281.823  33
   0   1   9 1077.39 174.528  10
   0   1   9 1159.97 153.045  25
   0  -1 -10 2102.08 425.253  36
   0  -1 -10 2011.93 209.104  31
   0   1  10 2272.43 208.071   4
   0   1  10 2279.05 206.558  25
   0   1  10 1784.87 228.823  10
   0   1  11 7905.23 366.716   4
   0  -1 -11 7942.75 834.638  36
   0  -1 -11 7658.38 394.862  31
   0   1  11 7925.75 377.924  25
   0   1  11 6934.55 412.326  10
   0   1  12 2787.78 211.767  25
   0   1  12 2561.31 191.243   4
   0  -1 -12 2636.62 219.076  31
   0  -1 -13 33.7418 52.5961  31
   0   1  13 70.0474 38.9963   4
   0   1  13 47.2525 45.4786  25
   0  -1 -14 429.898 76.1808  32
   0  -2  13 49.8184 50.8599  10
   0   2 -13 257.348 70.7147  32
   0   2 -12 771.013 123.712  32
   0  -2  12 683.846 134.484  10
   0  -2  11-48.1717 85.3876  10
   0   2 -11 78.9880 94.3874  32
   0   2 -10 1442.29 173.405  32
   0   2 -10 1090.33 383.900  44
   0  -2  10 1515.56 224.538  10
   0   2  -9 1075.13 142.216  32
   0   2  -9 1292.12 391.371  44
   0   2  -9 1075.28 333.794  45
   0  -2   9 1602.43 185.641  16
   0  -2   9 943.838 166.188  25
   0   2  -8 1583.54 422.409  44
   0   2  -8 1573.34 383.872  45
   0  -2   8 1347.17 167.824  25
   0   2  -8 1994.06 180.506  32
   0  -2   8 2088.97 454.985  48
   0  -2   8 2542.09 226.426  16
   0   2  -8 1888.77 476.789  49
   0   2  -7 4293.97 576.254  45
   0   2  -7 4017.95 654.078  49
   0  -2   7 4351.88 593.228  48
   0   2  -6 17209.2 1048.29  45
   0  -2   6 18170.1 1095.83  48
   0   2  -6 16905.4 1240.63  49
   0  -2   5 43456.4 1236.18  50
   0   2  -5 42469.9 1531.40  45
   0   2  -4 10.3052 92.7916  44
   0  -2   4 164.588 84.6558  50
   0  -2   4-24.3133 101.550  48
   0   2  -4-20.2517 85.9759  45
   0  -2   3 195127. 2104.74  50
   0   2  -3 196736. 2844.32  44
   0  -2   3 193338. 2678.03  48
   0   2  -3 192207. 2676.75  45
   0   2  -2 981935. 6961.85  43
   0  -2   2 969607. 6714.72  48
   0   2  -2 978875. 6962.75  44
   0   2  -1 648818. 5068.34  43
   0  -2   1 651837. 4777.21  48
   0   2   0 116295. 1403.53  50
   0   2   0 115241. 1794.32  51
   0   2   1 66906.4 1363.01  51
   0   2   1 68203.1 1145.29  50
   0  -2  -1 67037.6 1350.43  52
   0  -2  -2 8747.69 467.815  34
   0  -2  -2 9104.20 542.861  52
   0   2   2 9321.21 520.420  51
   0   2   2 10455.6 497.091  50
   0   2   3 19710.1 862.013  29
   0  -2  -3 17769.5 750.604  34
   0  -2  -3 17829.5 868.379  52
   0   2   3 19335.4 775.240  50
   0   2   3 17748.7 734.377  51
   0  -2  -4 4512.49 425.699  34
   0   2   4 5720.56 538.520  29
   0  -2  -4 5040.75 528.814  52
   0   2   4 5139.97 406.839  51
   0   2   4 5371.31 458.556  50
   0  -2  -4 6063.16 463.590  35
   0  -2  -5 21026.7 970.255  35
   0   2   5 19485.9 984.752  50
   0   2   6 11013.6 804.959  50
   0  -2  -6 10354.2 1021.06  49
   0  -2  -6 10260.3 757.769  33
   0  -2  -6 11439.7 786.983  35
   0  -2  -7 5400.37 600.091  35
   0  -2  -7 4952.55 587.632  33
   0  -2  -7 5400.33 834.425  49
   0   2   7 5113.75 616.556  50
   0   2   8 850.680 318.625  50
   0  -2  -8 809.017 267.100  33
   0   2   9 431.621 102.841   4
   0   2   9 467.106 113.539  25
   0  -2  -9 395.884 193.589  36
   0  -2  -9 354.406 97.8044  20
   0  -2  -9 579.007 262.747  33
   0   2  10 56.5299 51.3983   4
   0   2  10-145.833 97.9364  25
   0  -2 -10 15.2207 107.435  33
   0   2  11 1268.64 152.359  25
   0   2  11 1149.76 152.375   4
   0  -2 -11 1109.00 161.059  31
   0  -2 -12 5061.15 315.405  31
   0   2  12 4930.68 272.890  25
   0   2  12 4406.46 258.841   4
   0   2  13 33.6486 36.7805  25
   0   2  13-20.5439 31.1986   4
   0  -2 -13 20.4600 50.8396  31
   0  -3  13-27.0270 34.8779  10
   0  -3  12-19.3930 43.9376  10
   0   3 -12 153.947 66.9293  32
   0   3 -11 10.6743 57.8787  32
   0  -3  11 21.1765 65.5989  10
   0   3 -10 6515.82 342.981  32
   0  -3  10 6640.74 378.002  16
   0  -3  10 7257.39 472.351  10
   0   3 -10 6026.05 828.284  44
   0   3  -9 2228.07 210.617  32
   0  -3   9 2202.19 231.939  16
   0   3  -9 1830.82 477.175  44
   0   3  -8 5770.37 311.326  32
   0   3  -8 5306.74 736.033  43
   0   3  -8 5841.70 794.478  44
   0  -3   8 6295.83 386.374  16
   0   3  -7 331.693 211.886  49
   0   3  -7-428.297 217.597  43
   0  -3   7 134.881 60.9764  16
   0  -3   7-217.199 166.095  48
   0   3  -7 17.2224 102.230  44
   0   3  -6 675.532 290.727  49
   0   3  -6 355.107 189.236  44
   0   3  -6 235.625 151.919  43
   0  -3   6 695.835 255.150  48
   0   3  -5 295.788 161.564  44
   0   3  -5 195.319 93.8252  43
   0  -3   5 470.933 222.023  48
   0  -3   4 23.6826 89.5285  48
   0   3  -4-6.54669 80.6074  43
   0   3  -4 48.3286 110.327  44
   0   3  -3 2596.92 360.609  43
   0  -3   3 3040.47 366.237  48
   0   3  -3 2920.31 403.908  44
   0   3  -2 15398.0 850.737  43
   0  -3   2 16634.3 784.673  48
   0   3  -1 200.281 104.400  29
   0  -3   1 40.6993 54.8674  48
   0  -3   0 251.127 106.169  48
   0   3   0 335.311 125.226  29
   0  -3  -1 8564.64 479.167  34
   0   3   1 10165.0 517.337  50
   0   3   1 9303.60 594.431  29
   0   3   1 8461.39 598.370  51
   0  -3  -1 7499.95 512.930  48
   0   3   2 8178.00 588.930  29
   0  -3  -2 8173.49 524.450  34
   0   3   2 8219.86 601.129  51
   0  -3  -2 8421.60 619.877  52
   0   3   2 8542.19 528.324  50
   0   3   3 33202.5 1265.92  29
   0  -3  -3 30326.6 1124.85  34
   0   3   3 34712.9 1250.78  51
   0  -3  -3 32426.1 1305.23  52
   0   3   3 34370.0 1148.84  50
   0  -3  -4 68636.3 1885.50  34
   0   3   4 72239.8 2082.60  29
   0  -3  -4 71189.2 2133.94  52
   0   3   5 28420.5 1267.96  50
   0  -3  -5 28954.2 1204.87  35
   0  -3  -5 25508.1 1423.65  52
   0   3   5 28444.2 1407.16  29
   0   3   6 1893.59 361.007  50
   0  -3  -6 1548.51 324.504  35
   0  -3  -6 1812.24 435.518  52
   0  -3  -7 15195.9 1372.33  52
   0  -3  -7 17037.8 1102.00  35
   0  -3  -7 15724.7 1094.23  33
   0   3   7 15680.6 1137.46  50
   0  -3  -8 322.343 106.628  20
   0   3   8 170.688 71.1680   4
   0   3   8 339.225 94.8583  13
   0  -3  -8 33.7586 244.377  52
   0  -3  -8 236.376 75.8283  18
   0  -3  -8 171.150 151.254  33
   0   3   8 178.246 71.0237  25
   0   3   9 2062.10 221.945  13
   0  -3  -9 1838.35 443.763  33
   0  -3  -9 2275.81 231.887  20
   0   3   9 2108.02 211.954   4
   0   3   9 2468.17 218.107  25
   0  -3 -10 2727.72 553.062  33
   0  -3 -10 2338.99 235.325  20
   0   3  10 1939.73 192.105  25
   0   3  10 2376.74 224.254   4
   0   3  11 1526.27 166.755  25
   0  -3 -11 1651.69 189.528  20
   0   3  11 1966.75 185.221   4
   0  -3 -11 1657.46 212.978  31
   0   3  12 225.468 63.0232  25
   0   3  12 188.280 61.5185   4
   0  -3 -12 182.536 76.7386  31
   0  -3 -13 517.038 93.3282  31
   0   3  13 521.975 78.4706  25
   0   3  13 417.222 69.7294   4
   0  -4  12 30.6105 41.7790  10
   0   4 -11 143.347 69.3721  24
   0  -4  11 100.216 62.9541  16
   0  -4  11 12.9386 47.4204  10
   0  -4  10 2963.15 253.674  16
   0   4 -10 3478.38 239.461  24
   0  -4  10 3151.80 286.789  10
   0  -4   9 141.323 82.3686  16
   0   4  -9 2103.34 225.925  24
   0   4  -8 1348.38 218.307  24
   0  -4   8 149.080 88.2756  16
   0  -4   7 1466.68 191.544  16
   0   4  -7 2216.01 223.674  24
   0  -4   6 3286.72 609.192  48
   0  -4   6 2815.31 244.756  16
   0  -4   6 2858.70 246.126  14
   0   4  -6 2703.31 515.719  43
   0   4  -6 3636.13 240.892  24
   0   4  -5 20676.0 1302.30  43
   0  -4   5 22751.1 1418.72  48
   0  -4   4 101982. 2677.08  48
   0   4  -4 96442.9 2664.04  43
   0   4  -3 140652. 3030.73  29
   0  -4   3 150224. 2990.50  48
   0  -4   2 53210.6 1648.24  48
   0   4  -2 58691.2 1800.28  29
   0  -4   1 18544.1 935.727  48
   0   4  -1 20168.6 1031.40  29
   0   4   0 224.374 133.229  29
   0  -4   0 10.8941 96.2320  48
   0   4   1 1007.72 256.684  29
   0  -4  -1 932.140 186.331  34
   0  -4  -1 971.064 224.712  48
   0  -4  -2 548.071 211.055  48
   0  -4  -2 395.253 158.224  34
   0   4   2 461.280 173.076  29
   0   4   3 1006.63 280.712  29
   0  -4  -3 810.484 253.781  52
   0   4   3 1008.66 233.806  50
   0   4   4 352.357 167.345  50
   0  -4  -4 122.348 133.008  52
   0  -4  -4 158.328 124.975  35
   0   4   4 199.777 154.592  29
   0   4   5 2598.75 425.684  50
   0  -4  -5 2915.67 528.583  52
   0  -4  -5 2530.65 375.228  35
   0   4   5 2085.29 445.460  29
   0  -4  -6 5934.32 616.281  35
   0   4   6 4981.12 673.686  50
   0  -4  -6 5008.31 754.624  52
   0   4   7 127.129 55.3734  23
   0   4   7 136.585 57.6970  13
   0  -4  -7 126.297 130.909  33
   0   4   7 247.979 174.678  50
   0  -4  -7 167.901 110.676  35
   0  -4  -7 109.301 62.8616  18
   0  -4  -7 377.129 321.416  52
   0   4   8 270.282 84.6725   4
   0  -4  -8 363.506 107.154  20
   0  -4  -8 441.804 247.890  33
   0  -4  -8 337.677 96.3675  18
   0   4   8 443.944 107.629  13
   0   4   9 746.117 135.531   4
   0  -4  -9 651.422 264.835  33
   0  -4  -9 708.943 135.333  18
   0  -4  -9 780.275 147.986  20
   0   4   9 846.560 145.340  13
   0  -4 -10 7132.50 409.270  20
   0   4  10 7920.99 395.534   4
   0   4  10 7180.55 383.984  13
   0  -4 -10 7733.33 875.128  33
   0  -4 -10 6910.49 379.544  18
   0  -4 -11 20.8701 61.2231  31
   0  -4 -11 162.702 77.3709  20
   0   4  11 106.819 60.5092   4
   0  -4 -12 82.3328 50.6704  20
   0   4  12 166.333 56.0798   4
   0  -4 -12 101.309 58.1480  31
   0  -4 -13 100.991 45.8226  31
   0   4  13 61.0918 35.2965   4
   0   5 -11 901.170 94.3264  24
   0  -5  11 797.584 102.287  16
   0  -5  11 959.839 115.131  10
   0  -5  10 1818.13 187.157  10
   0   5 -10 1594.98 136.213  22
   0  -5  10 1593.90 174.741  16
   0  -5   9 45.7319 60.4482  10
   0   5  -9-110.198 81.4488  24
   0  -5   9-31.0631 61.8701  16
   0  -5   8 105.100 65.0497  16
   0   5  -8 19.2120 75.4495  24
   0   5  -7 820.582 280.857  29
   0  -5   7 834.047 150.615  16
   0   5  -7 161.449 72.0279  24
   0  -5   7 817.770 147.876  14
   0   5  -6 3414.08 240.278  24
   0   5  -6 4025.96 642.051  29
   0  -5   6 4462.34 321.825  16
   0  -5   6 4058.83 318.084  14
   0  -5   5 9815.05 457.682  16
   0   5  -5 8987.04 933.727  29
   0  -5   5 9514.28 473.417  14
   0   5  -5 8992.06 377.949  24
   0   5  -5 10150.7 393.895  22
   0   5  -4 2520.70 190.968  24
   0  -5   4 3503.22 273.315  15
   0   5  -4 2805.81 510.937  29
   0   5  -4 3446.85 227.953  22
   0  -5   4 2879.17 249.319  14
   0  -5   4 3323.34 256.956  16
   0  -5   3-215.505 148.282  48
   0   5  -3-62.0303 168.804  29
   0  -5   2 1321.22 310.558  48
   0   5  -2 1340.56 342.895  29
   0   5  -1 180.075 163.501  29
   0  -5   1 84.2390 107.718  48
   0  -5   0-56.0946 107.553  48
   0   5   0 157.238 137.545  29
   0   5   1 5177.72 658.321  29
   0  -5  -1 4794.30 582.519  48
   0  -5  -2 21496.6 1265.26  48
   0   5   2 22768.8 1402.56  29
   0  -5  -3 9936.02 888.762  48
   0   5   3 10898.1 1008.92  29
   0   5   4 9723.19 979.572  29
   0  -5  -4 9824.02 910.775  48
   0  -5  -5 20663.8 631.228  18
   0   5   5 22534.2 1552.93  29
   0   5   5 21765.1 638.940  13
   0  -5  -5 19332.5 564.677   6
   0   5   5 20609.3 617.404  23
   0  -5  -6 1540.82 182.264  18
   0   5   6 1627.44 186.584  23
   0   5   6 1774.18 193.588  13
   0  -5  -6 1489.28 163.231   6
   0  -5  -7 501.051 126.358  20
   0  -5  -7 424.092 117.310  18
   0   5   7 424.329 102.433  13
   0   5   7 609.556 121.172  23
   0  -5  -8 128.763 77.8361  20
   0   5   8 199.654 73.8548   4
   0   5   8 159.907 80.5163  13
   0  -5  -8 113.575 74.8930  18
   0  -5  -9 6611.75 417.407  20
   0   5   9 6874.59 386.839  13
   0  -5  -9 6189.20 373.561  18
   0   5   9 6429.60 352.048   4
   0  -5 -10 122.777 71.2765  18
   0   5  10 70.1631 55.9891  13
   0   5  10 44.0546 45.0085   4
   0  -5 -10 90.8651 56.5484  31
   0  -5 -10 160.493 77.0256  20
   0  -5 -11 84.1868 51.1873  31
   0  -5 -11 80.5573 60.1523  20
   0   5  11 32.9661 40.6257   4
   0  -5 -11 46.7162 38.5904  18
   0   5  12-39.6921 33.7822   4
   0  -5 -12 29.2855 36.3465  31
   0  -5 -12 7.61388 42.5647  20
   0  -6  10 450.016 77.1864  16
   0   6 -10 368.262 60.2304  24
   0  -6   9 35.6650 50.8652  16
   0   6  -9 70.6624 49.6651  24
   0   6  -9 103.451 51.4776  21
   0  -6   8 88.5207 67.8252  16
   0  -6   8 34.4253 53.1697  14
   0   6  -8-23.9615 51.7525  22
   0   6  -8-2.71399 41.1842  24
   0  -6   7 143.764 79.5176  14
   0  -6   7 103.268 63.4459  16
   0   6  -7 111.851 58.9007  22
   0   6  -7 273.192 86.9636  24
   0   6  -6 21308.3 615.343  24
   0  -6   6 21839.4 747.186  14
   0  -6   6 22309.2 718.404  16
   0   6  -6 20120.4 589.841  22
   0  -6   5 28875.1 826.057  16
   0   6  -5 26323.0 685.342  22
   0  -6   5 27565.2 843.788  14
   0   6  -5 26696.1 1662.27  29
   0   6  -5 28135.2 713.789  24
   0  -6   4 11268.9 529.541  15
   0  -6   4 10886.3 519.060  14
   0   6  -4 10867.7 1067.49  29
   0   6  -4 11090.3 456.155  21
   0   6  -4 10293.4 424.111  22
   0  -6   4 12462.6 533.801  16
   0   6  -4 10800.4 441.175  24
   0   6  -3 328.809 101.169  21
   0   6  -3 183.540 172.852  29
   0   6  -3 65.1293 73.1037  22
   0   6  -3 153.424 66.1584  24
   0  -6   3 187.070 91.2214  15
   0  -6   3 291.283 96.4143  14
   0  -6   2 105.258 62.1368  14
   0  -6   2 53.2703 70.8078  15
   0   6  -2-31.7809 54.3437  24
   0   6  -2-113.580 82.6025  22
   0   6  -2 71.8329 188.239  29
   0   6  -2-11.2295 48.9831  21
   0   6  -1 30.2226 111.505  29
   0  -6   1 94.0374 67.1632  14
   0   6  -1-35.1981 57.7813  21
   0   6  -1 20.5809 39.3231  24
   0   6   0 162.638 68.1572  21
   0   6   0 186.458 178.990  29
   0  -6   0 171.411 58.1710   6
   0  -6   0 161.756 82.7232  14
   0  -6  -1 527.781 97.9673   6
   0   6   1 237.298 163.590  29
   0   6   1 546.393 116.333  13
   0   6   2 10.3503 64.9403  13
   0  -6  -2-24.1862 48.6006   6
   0   6   2-138.427 223.912  29
   0   6   2-33.7157 63.8548  23
   0  -6  -3 2239.87 231.242  15
   0  -6  -3 2271.30 205.362   6
   0   6   3 2144.85 204.151  23
   0   6   3 2409.11 532.539  29
   0   6   3 2447.15 225.953  13
   0  -6  -3 2125.44 200.540  18
   0   6   4 24937.7 715.904  23
   0  -6  -4 27160.5 757.332  18
   0   6   4 25531.4 1768.47  29
   0   6   4 27003.3 761.453  13
   0  -6  -4 25557.5 706.809   6
   0   6   5 9797.99 454.175  23
   0   6   5 10129.3 468.550  13
   0  -6  -5 10267.0 489.927  18
   0  -6  -5 10878.2 498.004  20
   0   6   5 9799.60 1132.30  29
   0  -6  -5 9228.90 429.128   6
   0   6   6 1333.60 180.327  13
   0   6   6 1475.87 187.830  23
   0  -6  -6 1526.77 205.977  20
   0  -6  -6 1417.36 191.370  18
   0  -6  -7 3655.23 307.590  20
   0   6   7 3373.79 286.162  13
   0   6   7 3383.30 283.162  23
   0  -6  -7 3363.86 293.635  18
   0  -6  -8 685.406 147.046  20
   0  -6  -8 445.736 110.953  18
   0   6   8 636.253 112.345   4
   0   6   8 629.684 130.797  13
   0  -6  -9 1104.60 167.401  20
   0   6   9 719.151 114.971   4
   0  -6  -9 867.459 140.310  18
   0   6   9 981.697 148.705  13
   0  -6 -10 65.0839 61.0984  20
   0   6  10 36.2724 38.3172   4
   0  -6 -10-17.0671 37.9483  18
   0   6  10 57.8559 48.9507  13
   0   6  11 90.3993 36.8963   4
   0  -6 -11 58.4632 41.3201  18
   0  -6 -11 41.6663 43.6831  20
   0   7  -8-31.7980 30.9022  24
   0  -7   8 3.39839 40.1644  16
   0  -7   7 1268.33 147.900  16
   0  -7   7 1156.20 148.104  14
   0   7  -7 1229.17 127.190  24
   0   7  -7 1150.13 122.049  21
   0   7  -6 152.157 54.9131  22
   0   7  -6 205.677 71.4539  21
   0  -7   6 238.283 88.0803  14
   0   7  -6 252.786 71.7196  24
   0  -7   6 181.891 76.7046  16
   0   7  -5 1011.42 136.062  21
   0   7  -5 1022.13 139.797  24
   0  -7   5 1061.91 165.405  14
   0   7  -5 914.099 127.394  22
   0  -7   5 1135.02 160.145  16
   0   7  -4 94.2736 52.8480  21
   0   7  -4 94.1846 55.1423  24
   0  -7   4 228.701 101.484  14
   0  -7   4 198.612 80.5608  15
   0  -7   3 103.578 73.0058  15
   0   7  -3 80.5754 51.0255  21
   0   7  -3-30.6216 71.4984  24
   0  -7   3 105.491 65.8517   7
   0  -7   3 118.596 76.1493  14
   0   7  -3-66.2140 110.929  29
   0   7  -2-91.4582 81.0192  21
   0   7  -2 105.094 138.658  29
   0  -7   2-1.49717 63.3319  15
   0  -7   2-30.1800 81.2145  14
   0  -7   1 241.230 94.4435  14
   0  -7   1 376.384 117.278  15
   0   7  -1 340.647 87.1003  21
   0   7  -1 441.294 282.121  29
   0  -7   0 13486.8 602.199  15
   0   7   0 14796.9 565.376  13
   0  -7   0 14914.0 618.394  14
   0   7   0 14241.7 540.130  12
   0   7   0 13367.7 1259.39  29
   0  -7  -1 2501.43 264.706  15
   0  -7  -1 2258.21 203.482   6
   0   7   1 2381.81 228.713  13
   0   7   1 2389.81 555.720  29
   0   7   2 13.7584 55.7627  13
   0  -7  -2 11.4456 71.3109  15
   0  -7  -2-25.4797 72.1294   6
   0   7   2-36.3914 194.210  29
   0   7   3 931.685 351.212  29
   0  -7  -3 729.894 131.569   6
   0  -7  -3 848.226 136.271  18
   0  -7  -3 920.003 178.417  15
   0   7   3 939.219 146.679  13
   0   7   3 846.883 133.793  23
   0   7   4 3594.22 680.129  29
   0   7   4 4325.85 306.958  13
   0  -7  -4 4349.17 310.335  18
   0   7   4 3829.98 277.621  23
   0   7   5 438.128 114.733  13
   0   7   5 388.398 99.2040  23
   0  -7  -5 263.064 90.9072   7
   0  -7  -5 442.308 107.068  18
   0   7   6 1565.36 189.225  13
   0   7   6 1720.92 191.073  23
   0  -7  -6 2019.63 215.684  20
   0  -7  -6 1761.70 212.477  18
   0   7   7 218.894 91.9930  13
   0  -7  -7 258.690 100.399  18
   0  -7  -7 267.315 91.5268  20
   0  -7  -8-9.28615 51.8202  20
   0  -7  -8 80.5714 56.2704  18
   0   7   8 85.8672 55.8780  13
   0  -7  -9 357.379 80.8647  18
   0  -7  -9 376.024 95.1133  20
   0   7   9 269.063 72.5538  13
   0  -7 -10 117.191 44.5215  20
   0  -7 -10 23.6878 38.2219  18
   0  -8   6 4895.07 257.631  14
   0   8  -5 168.120 64.2416  13
   0  -8   5 83.0018 52.3184  14
   0   8  -5 206.740 69.0409  12
   0  -8   4 127.445 65.5960  14
   0   8  -4 26.8900 45.3333  12
   0   8  -4 108.401 58.5324  13
   0   8  -3 58.7606 59.7385  12
   0  -8   3 0.36870 61.7313  14
   0  -8   3 35.4877 46.9364   7
   0   8  -3 188.350 72.3883  13
   0  -8   2 1031.23 164.247  14
   0  -8   2 918.595 143.296   7
   0   8  -2 946.299 136.909  13
   0  -8   1 934.168 166.168  14
   0   8  -1 747.702 125.805  13
   0  -8   1 629.151 129.819  15
   0  -8   1 820.741 142.608   7
   0   8   0 42.8873 65.3565  13
   0  -8   0 66.6555 55.6274  15
   0  -8   0 1.09054 72.5776   7
   0   8   1 125.281 64.1216  13
   0  -8  -1 196.141 91.9151   7
   0  -8  -1 211.306 87.8191  15
   0  -8  -2 59.8637 82.0125  15
   0  -8  -2 80.6328 81.8741   7
   0   8   2 36.3705 53.7844  13
   0   8   3-27.8166 55.0320  13
   0  -8  -3 45.9063 82.3383   7
   0   8   4 154.987 66.2196  13
   0  -8  -4 257.479 103.306   7
   0  -8  -5 90.2529 53.7788  18
   0   8   5-4.71158 50.2023  13
   0  -8  -5 8.74754 53.8882   7
   0   8   6 1465.20 155.076  13
   0  -8  -6 1819.24 183.079  18
   0  -8  -7 1436.95 157.287  18
   0   8   7 1204.40 131.083  13
   0  -8  -8 172.945 56.8902  18
   0   9  -2 447.366 75.1884  13
   0  -9   1 1040.00 128.107   7
   0   9  -1 1197.38 119.764  13
   0   9   0 691.644 97.0608  13
   0  -9   0 1065.66 141.057   7
   0  -9  -1 76.8789 57.6926   7
   0   9   1 83.9639 46.9196  13
   0   9   2 24.5367 36.9495  13
   0  -9  -2 4.59002 50.4424   7
   0  -9  -3-61.3567 70.9966   7
   0   9   3 4.90444 34.9247  13
   0   9   4 137.653 48.7966  13
   1  -9  -2 176.476 60.7680   7
  -1   9   2 211.913 57.4606  13
  -1   9   1 60.3200 40.1168  13
   1  -9  -1 88.2499 49.2180   7
   1  -9   0 175.246 58.4602   7
  -1   9   0-18.4665 36.8894  13
  -1   9  -1 1026.05 111.229  13
   1  -8  -7 358.990 75.1360  18
   1  -8  -6 475.691 93.2571  18
  -1   8   6 539.990 89.1107  13
  -1   8   5 130.461 53.7795  23
  -1   8   5 120.944 59.2582  13
   1  -8  -5 233.829 68.5809  18
  -1   8   4 114.784 56.2604  23
   1  -8  -4 4.95236 66.2276   7
  -1   8   4 63.9557 51.2759  13
  -1   8   3 99.2460 52.5108  23
  -1   8   3 132.018 59.4193  13
   1  -8  -3 47.0574 64.9761   7
  -1   8   2 302.962 80.5251  13
   1  -8  -2 436.690 119.580   7
  -1   8   2 346.116 73.4498  23
  -1   8   1 1432.29 151.669  23
   1  -8  -1 2017.68 226.810   7
  -1   8   1 1676.25 181.683  13
  -1   8   0 1838.33 167.307  23
   1  -8   0 2380.67 234.656   7
  -1   8   0 2214.80 209.390  13
   1  -8   1 1297.94 181.061  14
   1  -8   1 907.261 146.233   7
  -1   8  -1 1362.00 168.796  13
  -1   8  -2 195.930 76.1733  13
   1  -8   2 117.198 63.5912   7
   1  -8   2 181.176 84.0380  14
  -1   8  -3 184.016 78.1842  13
   1  -8   3 49.6551 51.3457   7
   1  -8   3 112.134 68.8961  14
   1  -8   4 167.654 66.8517  14
  -1   8  -4 178.858 66.9661  13
   1  -8   5 206.185 79.7430   8
  -1   8  -5 174.998 62.4745  13
   1  -7  -9 1466.67 143.428  20
   1  -7  -9 1227.44 133.978  18
   1  -7  -8 47.3275 62.2373  20
  -1   7   8-45.4834 50.3390  13
   1  -7  -8 74.2050 61.0388  18
  -1   7   7 1676.47 184.640  23
   1  -7  -7 1900.37 198.810  18
   1  -7  -7 1829.18 187.759  20
  -1   7   7 1595.62 170.255  13
  -1   7   6 17.5167 46.8143  23
   1  -7  -6 99.6778 67.6592  18
  -1   7   6-15.5580 55.9749  13
   1  -7  -5 55.2211 52.7252  18
  -1   7   5 79.6422 55.0894  13
  -1   7   5 82.7727 62.8715  23
  -1   7   4 33.4824 48.2646  23
   1  -7  -4 70.3105 73.2002   7
  -1   7   4 52.6698 58.6509  13
   1  -7  -4-27.9416 51.5498  18
  -1   7   3 326.635 92.1078  23
  -1   7   3 328.602 94.7237  13
   1  -7  -3 454.860 132.162   7
   1  -7  -3 330.161 110.999  15
  -1   7   3 386.987 222.338  29
   1  -7  -2 1664.06 227.960  15
  -1   7   2 1580.72 182.046  23
  -1   7   2 1451.19 455.901  29
  -1   7   2 1523.82 186.105  13
   1  -7  -2 1725.00 233.551   7
  -1   7   1 559.282 297.818  29
  -1   7   1 677.951 121.161  23
   1  -7  -1 626.183 145.637  15
  -1   7   1 613.508 119.547  13
   1  -7  -1 551.014 136.701   7
  -1   7   0 2181.82 216.022  23
  -1   7   0 2236.29 541.145  29
   1  -7   0 2179.62 243.026  14
   1  -7   0 2046.35 239.194   7
   1  -7   0 2013.86 240.092  15
  -1   7   0 2643.60 239.951  13
   1  -7   1 1604.76 212.250  14
  -1   7  -1 1329.07 172.471  21
   1  -7   1 1315.21 190.927   7
   1  -7   1 1242.32 189.806  15
  -1   7  -1 1226.49 161.170  23
  -1   7  -1 1222.53 388.434  29
  -1   7  -2 2940.66 255.068  21
  -1   7  -2 3808.95 681.732  29
   1  -7   2 3084.40 278.564   7
   1  -7   2 3343.11 298.287  14
  -1   7  -2 3235.99 253.218  23
   1  -7   2 3192.52 295.542  15
  -1   7  -3-24.2996 64.2342  23
   1  -7   3 42.7804 67.0847  14
   1  -7   3 16.7659 51.5546   7
  -1   7  -3-83.5008 84.6218  21
   1  -7   3 83.9370 81.8409  15
   1  -7   4-41.3567 60.0975  15
  -1   7  -4 30.8418 51.5488  23
  -1   7  -4-48.0545 65.1622  21
   1  -7   4 169.517 86.3756  14
   1  -7   5 2553.06 250.430  14
   1  -7   5 3023.80 256.026  16
  -1   7  -5 2746.36 240.366  21
  -1   7  -5 2794.51 223.013  22
   1  -7   6 3402.04 252.298  16
  -1   7  -6 3298.09 235.574  21
   1  -7   6 3304.29 266.446  14
  -1   7  -6 3161.96 218.113  22
  -1   7  -7 344.556 80.2387  21
  -1   7  -7 111.859 44.1928  22
   1  -7   7 318.759 77.7707  16
   1  -7   7 251.279 83.2535   8
   1  -7   8 32.9624 38.2731  16
  -1   7  -8-32.7041 40.3406  21
  -1   6  10 170.187 53.4502   4
   1  -6 -10 218.565 74.0165  20
   1  -6 -10 270.263 72.1939  18
  -1   6   9 213.059 65.1652   4
  -1   6   9 307.421 80.7853  13
   1  -6  -9 329.858 91.6199  18
   1  -6  -9 250.817 81.8899  20
   1  -6  -8 72.9051 67.2792  18
   1  -6  -8 194.499 89.7936  20
  -1   6   8-20.1981 41.1084   4
  -1   6   8 162.720 68.2861  13
   1  -6  -7 1101.61 170.562  20
  -1   6   7 1076.39 162.092  13
   1  -6  -7 1262.94 183.919  18
  -1   6   7 1262.02 176.813  23
  -1   6   6 220.046 80.5667  13
   1  -6  -6 330.929 102.679  20
   1  -6  -6 226.043 89.9212  18
  -1   6   6 142.307 72.9615  23
  -1   6   5 58.1036 67.9094  13
  -1   6   5 37.4763 244.450  29
   1  -6  -5 21.8612 59.2377  20
   1  -6  -5-51.5988 70.5567  18
  -1   6   5-7.66610 53.0158  23
  -1   6   4 2186.67 220.279  13
  -1   6   4 1894.12 203.866  23
   1  -6  -4 2043.55 217.484  18
   1  -6  -4 2089.39 241.024   7
  -1   6   4 1477.01 478.045  29
  -1   6   3 13687.4 533.193  23
  -1   6   3 14827.5 1341.28  29
  -1   6   3 14735.4 552.911  13
   1  -6  -3 15295.9 539.137  18
   1  -6  -3 14526.6 621.412   7
   1  -6  -3 14581.2 616.715  15
  -1   6   2 1912.60 497.213  29
  -1   6   2 1859.51 199.348  23
   1  -6  -2 1947.85 233.210  15
  -1   6   2 1940.85 204.792  13
  -1   6   1 5954.37 342.157  23
  -1   6   1 6143.78 348.905  13
  -1   6   1 5570.33 792.219  29
   1  -6  -1 5847.39 395.908  15
   1  -6   0 2767.51 263.722  14
   1  -6   0 2551.81 267.673  15
  -1   6   0 2504.99 217.489  21
  -1   6   0 2131.67 500.048  29
  -1   6   0 2618.84 227.435  23
  -1   6  -1 2357.05 217.751  21
   1  -6   1 2790.51 267.831  14
   1  -6   1 2698.09 271.383  15
  -1   6  -1 2653.57 226.301  23
  -1   6  -1 2883.94 579.208  29
   1  -6   2-9.02384 57.0523  15
  -1   6  -2 18.6834 125.498  29
  -1   6  -2-185.242 95.0021  22
  -1   6  -2-22.6793 48.8911  23
   1  -6   2 63.2724 67.4716   7
   1  -6   2 25.3856 58.2261  14
  -1   6  -2 37.3083 51.2667  21
   1  -6   3 2077.62 235.453  14
   1  -6   3 2026.77 229.459   7
  -1   6  -3 2195.73 526.330  29
   1  -6   3 2219.24 253.429  15
  -1   6  -3 1846.19 187.278  22
  -1   6  -3 2093.98 202.154  23
  -1   6  -3 2402.78 226.819  21
   1  -6   4 194.984 102.250  14
  -1   6  -4 284.499 98.6675  22
  -1   6  -4-18.8530 214.158  29
   1  -6   4 160.869 90.5813  16
  -1   6  -4 364.136 119.904  21
   1  -6   4 183.550 92.7984  15
  -1   6  -5 146.127 84.6463  24
  -1   6  -5 120.028 118.223  21
   1  -6   5 41.0236 59.5767  16
   1  -6   5 20.6638 59.1292  15
   1  -6   5 25.7227 75.1137  14
  -1   6  -5 105.972 78.5160  22
  -1   6  -5 112.957 180.891  29
   1  -6   6 4360.83 320.012  16
  -1   6  -6 4202.60 277.387  24
   1  -6   6 3576.87 313.430  14
  -1   6  -6 4146.41 280.211  22
  -1   6  -7 282.361 81.6124  24
  -1   6  -7 260.490 82.9536  22
   1  -6   7 180.694 80.6272  16
   1  -6   7 189.625 83.8073  14
   1  -6   8-28.0065 56.6602  14
  -1   6  -8 25.5969 49.0976  22
   1  -6   8 4.74759 50.1508  16
  -1   6  -8 90.4384 51.3695  24
  -1   6  -9 115.230 46.9167  24
   1  -6   9 149.808 60.1949  16
  -1   6  -9 97.3747 48.5888  22
  -1   6  -9 273.167 74.4810  21
   1  -6  10 1284.16 123.469  16
  -1   5  12-7.66301 22.8349   4
  -1   5  11 214.629 62.1558   4
   1  -5 -11 191.029 70.9297  20
   1  -5 -11 194.436 63.7707  18
   1  -5 -11 339.793 81.5772  31
   1  -5 -10 93.9448 56.6996  31
   1  -5 -10 130.775 68.3571  18
  -1   5  10 90.8941 55.6723   4
   1  -5 -10 122.932 78.9676  20
  -1   5   9 145.030 69.8233   4
   1  -5  -9 13.6802 52.2126  31
   1  -5  -9 206.581 90.4868  20
   1  -5  -9 236.976 87.5817  18
  -1   5   9 174.923 76.3156  13
   1  -5  -8 235.557 87.1450  20
   1  -5  -8 186.968 90.7037  18
  -1   5   8 144.329 67.3757  13
  -1   5   7 1136.42 167.395  23
   1  -5  -7 984.349 170.050  18
   1  -5  -7 1138.75 188.336  20
  -1   5   7 1134.81 158.853  13
   1  -5  -6 313.623 109.749  20
  -1   5   6 357.470 100.950  23
   1  -5  -6 330.815 101.805  18
  -1   5   6 231.361 84.3819  13
  -1   5   5 135.540 76.0959  13
   1  -5  -5 61.2039 65.9286  18
  -1   5   5-49.4636 173.120  29
  -1   5   5 44.7897 56.0753  23
   1  -5  -5 31.7071 63.2777  20
   1  -5  -4 533.473 107.980  18
  -1   5   4 497.633 101.180  23
   1  -5  -4 373.503 192.329  48
  -1   5   4 648.680 280.138  29
  -1   5   4 578.756 109.309  13
   1  -5  -4 524.964 113.817  20
  -1   5   3 13047.7 1143.99  29
   1  -5  -3 10468.0 903.904  48
   1  -5  -3 11960.9 507.444  15
  -1   5   2 23701.0 1492.58  29
   1  -5  -2 21938.1 1274.57  48
   1  -5  -2 22896.6 707.674  15
   1  -5  -1-59.9640 128.726  48
   1  -5  -1-14.0172 47.8652  15
  -1   5   0 1339.75 364.596  29
   1  -5   0 1365.53 311.821  48
   1  -5   0 1466.54 183.152  15
  -1   5  -1 188.869 186.969  29
   1  -5   1 163.656 71.6350  15
   1  -5   1 8.52394 79.9815  48
   1  -5   2 2934.71 471.452  48
   1  -5   2 2950.90 263.915  15
  -1   5  -2 2860.13 496.418  29
   1  -5   3 3580.49 530.454  48
   1  -5   3 3442.69 283.174  14
   1  -5   3 3631.08 295.809  15
  -1   5  -3 3559.91 227.336  22
  -1   5  -3 3281.09 557.427  29
   1  -5   3 3693.39 276.283  16
  -1   5  -4 2986.54 230.758  22
  -1   5  -4 2639.90 521.790  29
  -1   5  -4 1776.19 154.066  24
   1  -5   4 2598.86 255.642  15
   1  -5   4 2185.27 220.674  16
   1  -5   4 2473.32 250.935  14
   1  -5   5 36712.1 924.227  16
  -1   5  -5 37725.5 807.221  22
   1  -5   5 38099.1 1007.76  14
  -1   5  -5 37295.4 801.164  24
   1  -5   5 37583.4 960.627  15
  -1   5  -5 40743.9 2091.39  29
   1  -5   6 7735.57 428.978  16
  -1   5  -6 8757.62 1024.95  29
   1  -5   6 8506.00 483.968  14
  -1   5  -6 7015.49 355.020  24
  -1   5  -7 89.2227 87.1574  24
  -1   5  -7 623.692 344.191  29
   1  -5   7 485.134 126.921  14
   1  -5   7 399.436 112.562  16
  -1   5  -8-201.858 109.132  24
   1  -5   8 27.8416 67.6919  16
   1  -5   8-103.856 73.5093  14
   1  -5   9-12.0490 56.9422  16
  -1   5  -9-279.537 114.010  24
   1  -5  10 111.136 59.3123  16
  -1   5 -10 544.778 94.4445  22
   1  -5  11-27.2966 41.0587  16
  -1   5 -11 35.9521 34.2536  22
  -1   5 -11 102.744 41.8907  24
  -1   4  12 26.3589 32.7108  25
   1  -4 -12 87.2803 53.1200  31
   1  -4 -12 6.42845 47.5694  20
  -1   4  12 14.1554 33.6864   4
  -1   4  11 48.1133 49.8808   4
   1  -4 -11 45.5477 53.9598  31
  -1   4  11 67.9598 51.4905  25
   1  -4 -11 9.20012 48.1795  20
  -1   4  10 511.224 106.311  25
  -1   4  10 696.239 126.322   4
   1  -4 -10 344.856 98.4340  18
   1  -4 -10 563.677 127.905  20
   1  -4 -10 628.746 126.255  31
  -1   4   9 1920.09 201.240   4
  -1   4   9 1865.16 190.884  25
   1  -4  -9 1975.98 215.397  18
   1  -4  -9 2153.55 239.111  20
   1  -4  -9 1957.03 216.229  31
   1  -4  -8 499.347 124.467  18
   1  -4  -8 478.810 120.368  20
  -1   4   8 434.032 109.042  13
  -1   4   8 368.881 92.0715  25
  -1   4   7 219.526 79.0144  13
   1  -4  -7 303.756 100.272  18
   1  -4  -7 254.621 85.1757  20
  -1   4   7 259.097 85.5137  25
  -1   4   7 270.073 85.5656  23
   1  -4  -6 16.2770 44.3573  20
   1  -4  -6 28.4173 63.1786  18
  -1   4   6 36.5188 52.2544  13
   1  -4  -6 139.521 232.357  52
  -1   4   6 125.680 63.1324  23
  -1   4   5 1841.06 458.346  29
   1  -4  -5 2029.82 488.265  52
  -1   4   5 2231.10 444.409  51
   1  -4  -4 20908.4 1415.92  52
  -1   4   4 20971.7 1258.20  51
  -1   4   4 20125.1 1313.26  29
   1  -4  -3 43239.9 1963.30  52
   1  -4  -3 40717.9 821.162  15
  -1   4   3 46207.3 1811.70  51
  -1   4   3 44671.8 1837.84  29
   1  -4  -3 40165.5 1553.32  48
  -1   4   2 365.319 189.287  29
   1  -4  -2 565.940 105.584  15
  -1   4   2 514.356 206.550  51
   1  -4  -2 477.931 174.793  48
   1  -4  -1 5758.28 311.621  15
   1  -4  -1 6103.33 565.581  48
  -1   4   1 6752.90 666.059  29
  -1   4   1 6771.77 674.727  51
   1  -4   0 14735.6 858.988  48
   1  -4   0 15629.6 505.144  15
  -1   4   0 15979.3 985.069  29
  -1   4   0 17443.2 1065.28  51
   1  -4   1 6178.05 322.269  15
   1  -4   1 5323.43 523.844  48
  -1   4  -1 5853.36 611.463  51
  -1   4  -1 5590.41 578.586  29
   1  -4   2 9008.24 702.478  48
   1  -4   2 10127.5 421.878  15
  -1   4  -2 9803.76 785.575  29
  -1   4  -3 14879.3 1022.91  29
   1  -4   3 14041.9 933.148  48
   1  -4   3 16284.7 547.629  15
  -1   4  -4 931.735 301.541  29
   1  -4   4 1686.56 367.193  48
  -1   4  -4 1644.10 436.884  43
   1  -4   4 1628.41 181.038  15
  -1   4  -5 13079.1 1169.48  43
   1  -4   5 13604.3 1118.14  48
   1  -4   5 13137.1 502.828  15
  -1   4  -6 2045.22 528.386  43
  -1   4  -6 2278.23 197.359  24
   1  -4   6 1873.90 210.751  16
   1  -4   6 1850.59 213.041  14
  -1   4  -7 12.8284 178.995  43
   1  -4   7-10.1508 74.9767  16
   1  -4   7 54.8937 72.6695  14
  -1   4  -8 892.041 358.715  43
   1  -4   8 1244.12 206.027  10
   1  -4   8 1133.63 182.989  16
   1  -4   9 46.7754 60.9734  10
   1  -4   9-20.2078 58.6051  16
   1  -4  10-12.6640 52.2128  16
   1  -4  10-16.0822 72.2532  10
   1  -4  11 151.357 72.5260  10
   1  -4  11 110.562 57.4864  16
  -1   4 -11 267.490 76.2928  24
  -1   4 -12 557.880 77.4588  22
   1  -4  12 93.9019 45.1604  10
  -1   3  13 152.327 44.1940  25
   1  -3 -13 140.226 52.5529  31
  -1   3  13 121.900 40.6572   4
  -1   3  12 227.067 61.3079   4
  -1   3  12 177.433 56.3384  25
   1  -3 -12 212.560 77.9877  31
  -1   3  11 72.1170 51.5217   4
   1  -3 -11-36.2844 51.2296  20
   1  -3 -11-44.9125 64.4165  31
  -1   3  11-101.957 72.9437  25
  -1   3  10 825.486 141.549   4
  -1   3  10 913.565 139.641  25
   1  -3 -10 820.746 151.483  31
   1  -3 -10 817.282 150.506  20
   1  -3  -9 134.877 75.4013  31
   1  -3  -9 328.030 103.822  20
  -1   3   9 216.147 79.1569   4
  -1   3   9 295.787 91.6456  25
   1  -3  -9 270.911 94.0960  18
   1  -3  -8 525.045 267.309  33
   1  -3  -8 440.678 113.819  20
  -1   3   8 506.730 106.937  25
   1  -3  -8 464.884 106.999  18
  -1   3   7 1594.40 351.634  50
   1  -3  -7 1386.86 324.767  33
   1  -3  -7 1556.64 187.612  20
   1  -3  -7 1541.12 177.420  18
   1  -3  -7 1782.44 531.903  52
  -1   3   7 1888.46 191.703  23
  -1   3   6 1228.82 309.796  50
   1  -3  -6 1051.96 268.558  33
   1  -3  -6 971.041 349.684  52
   1  -3  -5 6491.51 769.644  52
  -1   3   5 5793.02 594.310  51
  -1   3   5 5957.48 677.670  29
  -1   3   5 6819.46 627.322  50
   1  -3  -5 6044.99 553.681  33
   1  -3  -4 87698.9 2570.42  52
  -1   3   4 91337.1 2279.22  51
  -1   3   4 84636.9 2418.18  29
   1  -3  -4 88684.6 1918.75  33
  -1   3   3 2874.62 389.609  51
  -1   3   3 2730.19 324.487  50
   1  -3  -3 3119.29 463.136  52
  -1   3   3 2712.67 388.962  29
  -1   3   2 1457.04 276.142  51
  -1   3   2 1567.45 219.287  50
   1  -3  -2 1411.43 299.742  52
  -1   3   2 1410.54 266.239  29
   1  -3  -1 44457.5 1299.39  48
   1  -3  -1 43412.0 721.482  15
  -1   3   1 46993.7 1495.85  51
  -1   3   1 44264.6 1418.41  29
  -1   3   0 16429.7 862.376  51
   1  -3   0 15471.1 422.512  15
   1  -3   0 15377.5 732.886  48
  -1   3   0 15550.0 804.392  29
  -1   3   0 15882.8 729.839  42
  -1   3  -1 27640.3 1062.49  29
   1  -3   1 25052.2 946.954  48
  -1   3  -1 28523.8 1119.09  51
   1  -3   1 25906.7 559.959  15
  -1   3  -1 28493.3 1050.76  42
  -1   3  -2 29590.9 1295.41  43
  -1   3  -2 35142.2 1233.13  51
  -1   3  -2 29362.1 1156.72  29
   1  -3   2 32706.3 1157.82  48
   1  -3   2 32306.6 642.623  15
   1  -3   3 70007.7 1854.15  48
   1  -3   3 72233.8 1016.41  15
  -1   3  -3 73027.3 2144.56  43
  -1   3  -4 43.8225 155.096  44
   1  -3   4 70.5756 62.2789  48
   1  -3   4 77.8346 46.4523  15
  -1   3  -4 71.6167 118.235  43
  -1   3  -5 16952.7 1213.14  43
   1  -3   5 16470.9 1121.12  48
  -1   3  -5 14990.7 1168.81  44
  -1   3  -6-45.4114 142.876  44
  -1   3  -6 20.3297 126.707  43
   1  -3   6 5.98141 165.279  48
   1  -3   7 1572.18 414.863  48
  -1   3  -7 780.642 317.586  44
  -1   3  -7 1185.72 360.051  43
  -1   3  -7 701.638 309.316  49
   1  -3   7 1011.44 152.367  16
   1  -3   8 2505.31 255.106  16
  -1   3  -8 2823.73 596.717  43
  -1   3  -8 2533.96 560.431  44
  -1   3  -9-62.2138 141.467  43
   1  -3   9-18.5488 71.1024  10
   1  -3   9-97.1660 103.153  16
  -1   3  -9-32.0926 126.370  44
   1  -3  10 881.790 154.642  16
  -1   3 -10 898.155 324.548  44
   1  -3  10 843.941 170.868  10
   1  -3  11 1082.20 175.610  10
   1  -3  11 949.473 143.956  16
   1  -3  12 44.6667 59.3157  10
  -1   3 -12 1834.06 170.004  24
   1  -3  13 630.713 93.3559  10
  -1   3 -13 285.093 54.3573  24
   1  -2 -13 168.995 61.0920  32
   1  -2 -13 49.5315 49.0030  31
  -1   2  13 36.1674 30.9870   4
  -1   2  13 41.1618 38.8878  25
  -1   2  12 866.562 116.195  25
   1  -2 -12 1011.40 141.980  31
  -1   2  12 760.409 105.904   4
   1  -2 -12 776.546 113.432  32
   1  -2 -11 926.739 156.193  31
  -1   2  11 810.841 122.155   4
  -1   2  11 772.594 124.318  25
  -1   2  10 3746.53 259.829   4
   1  -2 -10 3577.61 280.715  20
  -1   2  10 3577.02 272.502  25
   1  -2 -10 3961.13 308.131  31
   1  -2  -9 2276.07 231.731  20
  -1   2   9 2116.81 197.415   4
   1  -2  -9 2342.66 231.887  31
  -1   2   9 2179.37 212.547  25
   1  -2  -8 1845.69 200.201  20
  -1   2   8 1759.59 181.384  25
  -1   2   8 1592.76 399.402  50
   1  -2  -8 1874.63 569.022  52
   1  -2  -8 1751.85 406.657  33
  -1   2   7 214.747 136.624  50
   1  -2  -7 51.1223 79.8143  33
   1  -2  -7 385.672 289.885  52
   1  -2  -6 10559.5 789.431  33
  -1   2   6 10035.1 793.854  50
   1  -2  -6 10238.3 1034.61  52
   1  -2  -5 162854. 3694.42  52
  -1   2   5 169957. 2758.51  51
  -1   2   5 171022. 3169.31  50
  -1   2   4 15486.9 798.904  50
   1  -2  -4 15961.9 754.573  33
  -1   2   4 14963.7 890.403  29
  -1   2   4 15208.5 760.740  51
   1  -2  -4 14655.8 955.906  52
  -1   2   3 18482.4 808.438  51
  -1   2   3 17532.8 863.079  29
  -1   2   3 18920.6 790.098  50
   1  -2  -3 18240.1 954.825  52
   1  -2  -3 17939.2 691.797  35
  -1   2   2 48.0438 73.4321  29
  -1   2   2 82.3761 76.7236  51
   1  -2  -2 126.877 129.350  52
  -1   2   2 90.7887 68.5881  50
  -1   2   1 13.1761 35.2228  50
  -1   2   1 4.92430 72.5491  51
   1  -2  -1 114.540 98.2288  48
  -1   2   1 119.888 81.1379  29
   1  -2  -1 24.0198 72.4205  52
  -1   2   0 12900.0 593.010  42
  -1   2   0 11854.5 317.193  50
   1  -2   0 12448.9 546.040  48
  -1   2   0 12209.4 606.200  51
  -1   2  -1 88604.5 1608.30  51
  -1   2  -1 87624.7 1801.44  43
   1  -2   1 91651.4 1537.36  48
  -1   2  -2 39.8657 47.7236  47
   1  -2   2 340.607 83.2223   2
  -1   2  -2 22.5976 78.4161  51
  -1   2  -2 3.25189 63.1413  44
   1  -2   2 146.988 73.1954  48
  -1   2  -2 255.767 107.728  43
  -1   2  -3 32065.4 916.884  51
  -1   2  -3 31922.1 1203.74  44
   1  -2   3 31322.8 1086.73  48
  -1   2  -3 33321.9 1285.06  43
  -1   2  -3 30266.2 1116.63  45
   1  -2   4 254.060 137.084  48
  -1   2  -4 139.626 78.2427  44
  -1   2  -4 241.501 110.341  45
  -1   2  -5 1076.98 294.198  44
   1  -2   5 1221.79 291.136  48
  -1   2  -5 1147.69 280.337  45
   1  -2   6 1726.55 356.887  48
  -1   2  -6 1992.50 392.633  45
  -1   2  -6 1815.65 404.834  44
  -1   2  -7 2707.46 491.852  45
   1  -2   7 2730.10 486.452  48
  -1   2  -7 2245.48 513.750  49
  -1   2  -7 2145.03 466.183  44
  -1   2  -8-18.4152 150.147  45
   1  -2   8-171.014 152.179  48
  -1   2  -8-15.7494 132.764  44
   1  -2   8 0.36306 58.9224  16
  -1   2  -8 4.86431 182.580  49
  -1   2  -9 86.4710 154.197  44
   1  -2   9 266.999 83.9061  16
   1  -2   9 255.629 105.194  10
  -1   2  -9 356.565 226.390  45
  -1   2  -9 139.142 71.4618  32
   1  -2  10 5.40059 75.8918  10
  -1   2 -10-81.1461 158.215  44
  -1   2 -10-15.9752 70.5898  32
   1  -2  11 17.4674 73.2917  10
  -1   2 -11 61.2509 73.8773  32
   1  -2  12 52.3990 62.8526  10
  -1   2 -12 17.4038 63.4015  32
  -1   2 -13 2126.51 163.299  24
   1  -2  13 8.41669 43.8358  10
  -1   1  13 96.7112 42.8770  25
   1  -1 -13 30.2045 44.3018  31
  -1   1  12 366.769 73.2713   4
  -1   1  12 387.747 94.3094  25
   1  -1 -12 352.407 96.4879  32
   1  -1 -12 474.185 103.067  31
  -1   1  11 3181.69 266.636  25
   1  -1 -11 2907.34 249.150  31
  -1   1  11 2822.53 211.870   4
  -1   1  10 12325.0 486.509  25
  -1   1  10 11528.6 437.718  26
  -1   1  10 11229.5 444.908   4
   1  -1 -10 11915.2 501.093  31
  -1   1   9 25411.1 692.890  25
   1  -1  -9 24568.8 1337.17  36
   1  -1  -9 23938.3 692.006  31
  -1   1   9 24278.8 635.214  26
   1  -1  -8 11522.0 857.052  36
   1  -1  -8 10593.0 433.762  31
  -1   1   8 10434.5 427.633  25
  -1   1   8 9760.26 922.476  50
   1  -1  -8 10478.0 1275.69  49
   1  -1  -7 11813.0 789.126  36
   1  -1  -7 10384.5 879.602  33
   1  -1  -7 11229.8 1203.07  49
  -1   1   7 11107.9 899.633  50
  -1   1   6 17242.0 1010.25  50
   1  -1  -6 16247.2 953.012  33
   1  -1  -6 18351.1 896.669  36
   1  -1  -6 16798.9 1292.75  49
  -1   1   5 153524. 2814.05  50
   1  -1  -5 143631. 3323.27  49
   1  -1  -5 146295. 2593.84  33
  -1   1   4 6294.24 488.496  50
   1  -1  -4 4990.79 408.218  33
  -1   1   4 5806.39 388.696  51
   1  -1  -4 5138.48 536.991  49
  -1   1   3 62539.0 1263.86  51
   1  -1  -3 59223.8 1603.87  49
  -1   1   3 58595.8 1474.61  29
  -1   1   2 32462.9 842.776  50
   1  -1  -2 30910.5 1010.63  52
  -1   1   1 21026.4 571.262  50
   1  -1  -1 19764.0 694.536  52
   1  -1   0 112519. 1613.83  52
  -1   1   0 113363. 1125.31  50
   1  -1   1 281071. 2425.26  48
  -1   1  -1 285983. 2401.98  47
   1  -1   1 282531. 2651.57   2
   1  -1   2 3066.48 256.148  48
   1  -1   2 2926.54 170.480  50
   1  -1   2 3145.89 268.628   2
  -1   1  -2 2781.84 212.428  51
  -1   1  -3 16704.8 618.420  36
   1  -1   3 14355.7 595.333   2
  -1   1  -3 18052.8 749.853  46
   1  -1   3 17618.0 745.774  48
  -1   1  -3 15009.9 446.181  51
   1  -1   3 14473.0 494.408  50
  -1   1  -4 29598.5 877.859  35
  -1   1  -4 27092.0 912.252  36
  -1   1  -4 27800.0 1050.39  46
   1  -1   4 28763.1 1103.48  48
   1  -1   5 2168.51 277.169  50
   1  -1   5 2610.26 362.028  48
  -1   1  -5 2604.00 324.382  36
  -1   1  -5 2380.92 335.095  46
  -1   1  -5 2435.41 296.551  33
   1  -1   6 42341.7 1581.52  48
  -1   1  -6 39131.9 1750.45  49
  -1   1  -6 43701.2 1472.21  36
  -1   1  -6 43162.6 1393.97  33
   1  -1   6 41746.5 1347.06  50
  -1   1  -6 43386.4 1604.89  46
  -1   1  -7 2657.84 499.529  49
  -1   1  -7 4044.48 538.020  46
  -1   1  -7 4198.12 480.125  33
  -1   1  -7 3047.69 427.627  36
   1  -1   7 3622.46 505.871  48
  -1   1  -8 2203.96 477.036  49
  -1   1  -8 1646.52 377.720  36
   1  -1   8 1889.50 392.372  48
  -1   1  -8 2387.33 460.875  45
  -1   1  -8 2619.80 473.730  46
   1  -1   9 2761.51 290.426  10
  -1   1  -9 2155.73 435.571  36
   1  -1   9 2487.89 190.380   4
  -1   1  -9 2820.79 523.341  46
   1  -1   9 2280.83 203.009  25
  -1   1  -9 2282.05 491.854  45
   1  -1  10 450.494 130.523  10
  -1   1 -10 337.095 249.474  45
   1  -1  10 389.224 107.300  25
   1  -1  10 448.954 91.0397   4
   1  -1  11 1485.42 224.094  10
  -1   1 -11 1673.11 441.298  44
   1  -1  12 1144.32 187.570  10
  -1   1 -12 1274.87 149.632  32
  -1   1 -13 300.028 84.8775  32
   1  -1  13 54.5121 53.9271  10
   1   0 -13 202.135 74.1326  32
   1   0 -13 51.1753 51.7292  31
  -1   0  13 82.2988 49.5072  25
   1   0 -12 1029.59 155.057  32
  -1   0  12 913.143 126.741  25
   1   0 -11 5469.23 332.078  32
   1   0 -11 4957.09 307.662  31
  -1   0  11 5077.12 361.357  10
  -1   0  11 5919.78 332.602  25
  -1   0  10 15730.8 547.574  25
  -1   0  10 14629.7 626.872  10
  -1   0  10 15888.4 537.029  26
   1   0 -10 13954.0 527.944  31
  -1   0   9 9784.80 419.337  26
  -1   0   9 9306.42 433.614  25
   1   0  -8 9881.65 805.051  36
   1   0  -8 10939.1 1254.17  49
  -1   0   8 8840.51 850.879  50
  -1   0   7 6872.35 683.793  50
   1   0  -7 7832.06 967.208  49
   1   0  -7 7698.63 645.532  36
   1   0  -6 23380.3 1465.89  49
  -1   0   6 22149.3 1121.85  50
   1   0  -6 23434.0 1018.24  36
  -1   0   5 4168.87 460.765  48
   1   0  -5 4449.76 376.748  46
   1   0  -5 4466.84 561.725  49
   1   0  -5 4832.08 416.721  36
  -1   0   5 4611.74 463.765  50
   1   0  -4 11898.1 802.498  49
   1   0  -4 12573.3 595.798  36
  -1   0   4 14293.9 742.533  48
   1   0  -4 12735.2 652.833  33
  -1   0   4 13580.4 720.397  50
  -1   0   3 11602.8 595.884  50
  -1   0   3 11622.7 536.454  48
   1   0  -2 37647.0 990.233  49
  -1   0   2 39890.7 770.482  48
   1   0  -1 19912.5 582.973  49
  -1   0   1 17256.1 557.697   1
   1   0   0 70042.3 838.692  52
  -1   0   0 67504.1 1146.23   1
  -1   0  -1 97129.5 1363.96   1
   1   0   1 95935.4 1197.18  50
   1   0   2 38020.2 794.523  50
   1   0   2 40330.1 973.304   2
   1   0   2 40201.0 893.225  48
  -1   0  -3 512.532 76.4942   1
   1   0   3 675.809 129.855  50
   1   0   3 638.859 137.334   2
   1   0   3 641.635 130.508  48
  -1   0  -4 4513.91 304.710  37
  -1   0  -4 5930.29 542.589  49
   1   0   4 5699.59 403.419  50
   1   0   4 5232.21 430.205  48
  -1   0  -5 2258.85 282.526  35
   1   0   5 2087.18 299.903  48
  -1   0  -5 2522.02 386.900  49
   1   0   5 1892.89 268.219  50
  -1   0  -5 1907.89 212.327  37
  -1   0  -6 6885.45 555.661  35
   1   0   6 6334.06 585.492  48
  -1   0  -6 6873.88 557.546  33
  -1   0  -6 6852.10 695.809  49
   1   0   6 6228.02 541.933  50
  -1   0  -7 7347.68 801.775  49
  -1   0  -7 8083.81 671.096  33
  -1   0  -7 8027.43 735.694  46
   1   0   7 8022.31 678.411  50
  -1   0  -7 8311.37 684.026  35
   1   0   7 7170.81 676.477  48
  -1   0  -7 8734.04 719.000  36
  -1   0  -8 256.606 148.140  33
  -1   0  -8 441.413 233.250  49
   1   0   8 201.495 105.570  48
  -1   0  -8 389.065 180.606  36
  -1   0  -8 188.545 128.502  46
   1   0   8 400.004 217.900  50
  -1   0  -9 565.235 224.281  46
   1   0   9 574.960 105.488  25
   1   0   9 552.251 132.860  10
  -1   0  -9 387.684 175.701  36
   1   0   9 475.534 91.2805   4
  -1   0  -9 434.007 204.044  33
  -1   0 -10 8409.34 877.868  36
   1   0  10 8163.10 361.084   4
   1   0  10 8584.29 507.238  10
   1   0  10 8107.28 390.229  25
   1   0  11 5237.69 289.695   4
  -1   0 -11 5452.03 718.947  36
   1   0  11 5848.94 326.273  25
   1   0  11 5501.74 412.621  10
   1   0  12 62.6247 74.3070  10
   1   0  12 140.600 57.9962   4
   1   0  13 1681.42 187.600  10
   1   0  13 1254.09 115.430   4
  -1   0 -13 1520.27 147.491  32
  -1   0 -14 420.117 74.5953  32
  -1  -1  13 293.073 73.2566  10
   1   1 -13 297.175 72.1582  32
  -1  -1  12 235.893 88.1306  10
  -1  -1  12 165.773 70.1923  25
   1   1 -11 1108.97 168.830  32
  -1  -1  11 753.248 155.778  10
  -1  -1  11 751.685 131.829  25
  -1  -1  10 491.596 117.002  26
   1   1 -10 544.731 123.665  32
   1   1 -10 521.072 108.352  31
  -1  -1  10 481.275 116.980  25
  -1  -1   9 654.098 127.646  26
   1   1  -9 370.873 77.0103  32
   1   1  -9 590.153 113.022  31
  -1  -1   9 521.119 118.716  25
  -1  -1   8 34149.6 829.099  26
   1   1  -8 35229.3 2166.97  49
  -1  -1   8 34002.7 750.729  25
  -1  -1   7 28924.7 1375.40  50
   1   1  -7 29639.3 1356.40  45
  -1  -1   7 33172.9 1536.72  48
   1   1  -7 34480.1 1907.14  49
   1   1  -6 1660.65 390.013  49
  -1  -1   6 1848.25 359.780  48
  -1  -1   6 1458.68 289.816  50
  -1  -1   5 64.4096 79.5647  50
  -1  -1   5 16.7979 70.6002  48
   1   1  -5 8.96731 90.0116  49
   1   1  -4 254.135 123.748  49
  -1  -1   4 315.599 136.483  48
  -1  -1   4 256.442 120.571  50
  -1  -1   4 190.106 73.8616   1
  -1  -1   3 9197.24 547.839  50
   1   1  -3 9883.29 617.930  49
  -1  -1   2 2188.88 200.099  48
   1   1  -2 1978.25 235.167  49
   1   1  -1 307736. 2629.57   2
  -1  -1   1 316422. 2281.84  48
  -1  -1   0 75648.8 1075.32  47
   1   1   0 74080.3 1287.40   2
   1   1   1 20517.8 653.722  50
  -1  -1  -1 19741.2 325.281  52
   1   1   2 168773. 2074.96  50
  -1  -1  -2 161269. 1804.27  49
  -1  -1  -3 79862.3 1582.19  49
   1   1   3 79715.0 1514.36  50
  -1  -1  -4 25178.8 1066.66  49
  -1  -1  -4 23810.3 829.545  34
   1   1   4 23370.0 886.219  50
  -1  -1  -5 10387.3 599.371  34
  -1  -1  -5 9755.29 766.930  49
   1   1   5 10001.7 640.730  50
   1   1   6 2368.55 343.427  50
  -1  -1  -6 2846.84 479.048  49
  -1  -1  -6 2743.74 367.457  35
  -1  -1  -6 2773.01 349.138  34
  -1  -1  -7 327.086 150.771  33
  -1  -1  -7 390.059 142.926  35
  -1  -1  -7 312.670 195.430  49
   1   1   7 537.380 192.012  50
   1   1   8 1622.57 352.148  50
  -1  -1  -8 1668.85 367.939  35
  -1  -1  -8 1667.29 357.683  33
  -1  -1  -8 1927.63 471.861  49
  -1  -1  -9 23407.4 1401.50  36
   1   1   9 24315.6 774.545  10
  -1  -1  -9 24786.8 1433.91  33
   1   1   9 22362.9 1425.56  50
   1   1   9 24314.4 635.203  25
   1   1   9 25069.0 647.789   4
  -1  -1  -9 23119.1 1487.34  46
  -1  -1  -9 22924.5 1745.17  49
  -1  -1 -10 42064.0 2002.55  33
   1   1  10 42444.8 1083.09  10
  -1  -1 -10 43319.6 1981.59  36
   1   1  10 41074.8 871.113   4
   1   1  10 43189.7 887.502  25
   1   1  11 810.206 131.065  25
   1   1  11 581.754 135.244  10
  -1  -1 -11 687.810 127.260  31
  -1  -1 -11 476.437 203.228  36
   1   1  11 650.277 106.795   4
   1   1  12 546.434 131.905  10
   1   1  12 635.474 101.739   4
  -1  -1 -12 753.893 116.259  31
   1   1  12 583.038 102.752  25
   1   1  13 165.224 54.7417   4
   1   1  14 66.4694 28.6273   4
  -1  -1 -14 144.543 53.9700  32
  -1  -2  13 80.2837 49.1865  10
   1   2 -13 210.359 62.7017  32
  -1  -2  12-20.5489 53.0581  10
   1   2 -12-85.1554 76.5947  32
  -1  -2  11 1.90315 60.9791  10
   1   2 -11 111.621 85.2981  32
  -1  -2  10 304.196 106.063  25
   1   2 -10 620.395 145.164  32
   1   2  -9 4454.74 691.925  44
   1   2  -9 4677.71 303.790  32
  -1  -2   9 4666.59 318.138  26
  -1  -2   9 4144.36 289.979  16
  -1  -2   9 3867.91 280.026  25
  -1  -2   8 5426.97 318.752  26
   1   2  -8 5676.12 318.171  32
   1   2  -8 4812.95 688.774  44
  -1  -2   8 5372.64 295.427  25
  -1  -2   8 5807.69 335.073  16
  -1  -2   7 687.485 244.948  48
   1   2  -7 977.289 334.913  49
   1   2  -7 111.909 100.558  44
   1   2  -7 758.761 243.098  45
  -1  -2   6 3314.99 479.053  48
   1   2  -6 3414.39 557.417  49
   1   2  -6 2867.03 424.650  45
  -1  -2   6 2754.87 387.515  50
   1   2  -5 291.700 135.706  45
  -1  -2   5 352.183 160.386  48
  -1  -2   5 359.345 153.219  50
   1   2  -5 238.429 180.312  49
   1   2  -4 2558.67 412.501  49
   1   2  -4 2437.72 348.383  44
  -1  -2   4 2361.83 311.260  50
  -1  -2   4 2839.82 359.663  48
   1   2  -4 2457.91 320.242  45
  -1  -2   3 14849.3 686.638  48
   1   2  -3 15214.8 683.107  45
  -1  -2   2 114174. 1714.25  48
   1   2  -2 106183. 1312.89   2
  -1  -2   1 3549.04 202.229  37
  -1  -2   1 3550.74 268.695  48
   1   2  -1 3895.46 265.845   2
  -1  -2   0 88.7246 50.2565  37
  -1  -2   0 125.894 71.5448  48
   1   2   0 72.4472 77.2436   2
   1   2   1 1874.61 241.562  50
  -1  -2  -1 1977.19 206.072  37
  -1  -2  -2 13973.4 598.333  37
  -1  -2  -2 13951.9 534.512  52
   1   2   2 14174.1 679.246  50
  -1  -2  -3 238.596 108.425  52
  -1  -2  -3 233.056 99.2280  37
  -1  -2  -3 249.377 80.8459  38
   1   2   3 263.856 120.054  50
   1   2   3 357.727 132.658  29
  -1  -2  -4 121506. 2199.89  34
  -1  -2  -4 114574. 2403.12  49
   1   2   4 116313. 2296.35  50
   1   2   5 39397.1 1390.22  50
  -1  -2  -5 42686.2 1654.81  49
  -1  -2  -5 39691.1 1341.97  34
   1   2   6 15179.6 957.371  50
  -1  -2  -6 15805.0 908.772  34
  -1  -2  -6 17063.7 1212.14  49
   1   2   7 5073.66 604.437  50
  -1  -2  -7 5697.84 779.819  49
  -1  -2  -7 5282.89 590.054  35
  -1  -2  -8 8162.05 1021.15  49
  -1  -2  -8 8720.47 819.391  35
  -1  -2  -8 9292.40 850.978  33
   1   2   8 8095.28 835.670  50
  -1  -2  -9 7329.28 803.055  35
  -1  -2  -9 7642.46 833.478  33
   1   2   9 8401.45 395.716   4
   1   2   9 7545.83 360.137  25
   1   2  10 5442.85 323.484   4
  -1  -2 -10 5095.11 720.754  33
  -1  -2 -10 5047.87 701.536  36
   1   2  10 5225.47 304.211  25
  -1  -2 -11 1496.44 424.598  33
   1   2  11 1554.23 169.691   4
   1   2  11 1648.12 171.483  25
  -1  -2 -12 543.367 108.894  31
   1   2  12 694.265 109.677  25
   1   2  12 465.471 88.7980   4
  -1  -2 -13 516.356 96.5921  31
   1   2  13 493.035 79.5954   4
  -1  -2 -14-183.112 63.8949  32
   1   2  14-81.8577 34.5551   4
  -1  -3  12-19.3195 51.9949  10
   1   3 -12 103.397 64.8432  32
   1   3 -12-46.6226 48.6908  24
   1   3 -11 108.500 78.5947  32
  -1  -3  11 26.0340 59.5928  10
  -1  -3  11-0.18193 40.4128  16
  -1  -3  10 5419.74 327.749  16
   1   3 -10 5723.91 330.735  32
  -1  -3   9 5672.61 352.481  16
   1   3  -9 5731.23 335.878  32
  -1  -3   8 1717.12 203.633  16
   1   3  -8 1788.58 434.619  44
   1   3  -8 1311.63 353.327  17
   1   3  -8 1735.74 192.334  32
  -1  -3   7 263.839 88.4476  26
   1   3  -7 492.041 251.231  49
   1   3  -7 286.361 175.977  44
   1   3  -7 310.793 217.317  17
   1   3  -7 317.214 97.1256  32
  -1  -3   7 288.342 89.5847  16
  -1  -3   6 924.565 275.553  48
   1   3  -6 1187.09 330.232  44
   1   3  -6 1257.02 295.925  17
   1   3  -6 1388.13 410.724  49
  -1  -3   5 944.927 274.358  48
   1   3  -5 622.121 216.787  44
   1   3  -5 741.773 220.430  17
   1   3  -5 932.439 298.317  49
   1   3  -4 115.352 118.599  44
   1   3  -4 215.045 129.271  17
  -1  -3   4 40.7695 92.6640  48
   1   3  -3 73752.6 1805.93  17
  -1  -3   3 74554.2 819.605  30
   1   3  -3 77399.1 1952.19  44
   1   3  -2 8993.97 581.653  17
   1   3  -2 7634.23 552.654  29
  -1  -3   2 7913.12 236.014  30
  -1  -3   1 3038.58 316.803  48
   1   3  -1 3190.89 336.889  17
   1   3  -1 3318.18 341.875  29
   1   3   0 60595.9 1426.19  29
   1   3   0 62846.9 1482.65  17
   1   3   1 8189.77 549.514  17
  -1  -3  -1 9378.11 428.699  47
   1   3   1 9095.09 601.077  50
   1   3   1 8596.12 552.301  29
  -1  -3  -2 1809.76 245.489  52
   1   3   2 2033.68 304.362  50
   1   3   2 1633.63 257.128  29
  -1  -3  -3 33476.4 1187.23  34
   1   3   3 32707.9 1247.50  29
   1   3   3 34535.0 1287.71  50
  -1  -3  -3 33516.5 1150.26  52
   1   3   4 54847.8 1692.54  50
  -1  -3  -4 53828.5 1622.76  34
  -1  -3  -4 53620.7 1651.14  52
   1   3   4 53022.8 1739.41  29
  -1  -3  -5 7801.18 713.009  52
   1   3   5 7593.85 682.746  50
  -1  -3  -5 7838.82 660.130  34
   1   3   6 176.304 144.790  50
  -1  -3  -6 176.252 167.080  52
  -1  -3  -6 339.186 166.868  34
   1   3   7 582.158 238.536  50
  -1  -3  -7 358.765 248.444  52
  -1  -3  -7 489.008 216.239  35
   1   3   8 4346.63 287.106   4
   1   3   8 3699.84 265.987   3
  -1  -3  -8 4382.59 593.776  35
   1   3   8 4144.07 286.937  13
   1   3   8 3399.85 581.569  50
   1   3   9 2513.93 232.283   4
  -1  -3  -9 2025.17 423.686  35
   1   3   9 2211.24 220.866  13
  -1  -3  -9 2361.47 487.976  33
  -1  -3 -10 563.034 228.530  33
  -1  -3 -10 294.538 95.4787  20
   1   3  10 404.400 106.910   4
  -1  -3 -11 894.240 141.714  20
   1   3  11 1053.28 144.267   4
  -1  -3 -11 1070.97 334.374  33
   1   3  12 200.849 69.1016   4
  -1  -3 -12 69.5384 56.6742  31
  -1  -3 -13 387.254 84.1818  31
   1   3  13 370.915 73.1693   4
  -1  -4  12 43.7596 42.3145  10
  -1  -4  11 1097.27 150.921  10
   1   4 -11 1020.00 119.669  32
   1   4 -11 735.045 97.2219  24
  -1  -4  11 864.641 113.576  16
  -1  -4  10 58.6143 62.6638  16
   1   4 -10 296.958 89.6221  24
   1   4 -10 258.810 87.0103  32
  -1  -4   9 28.7099 57.8543  16
   1   4  -9 182.533 87.3369  32
   1   4  -8 747.931 139.666  32
  -1  -4   8 820.848 159.858  16
   1   4  -7 360.244 108.004  32
  -1  -4   7 275.731 99.8410  16
   1   4  -6 2704.92 230.267  24
   1   4  -6 2910.99 222.648  32
  -1  -4   6 2930.22 246.354  16
  -1  -4   6 2868.19 230.200  14
  -1  -4   5 55.2034 176.802  48
   1   4  -5 8.47245 138.676  49
   1   4  -4 24658.5 1296.81  29
  -1  -4   4 28321.4 1405.52  48
  -1  -4   3 5863.10 577.556  48
   1   4  -3 6037.92 593.825  29
   1   4  -2 83.8480 115.538  29
  -1  -4   2-6.60718 77.2555  48
  -1  -4   2 32.4418 37.9427  30
  -1  -4   1 4127.45 433.314  48
  -1  -4   1 4506.25 205.078  30
   1   4  -1 5243.59 512.912  29
   1   4  -1 4627.76 467.949  17
   1   4   0 24839.7 1074.78  17
  -1  -4   0 25554.6 1082.38  48
  -1  -4   0 24439.7 480.548  30
  -1  -4  -1 16933.9 916.828  48
  -1  -4  -1 15581.9 383.866  30
  -1  -4  -1 18276.9 859.381  34
   1   4   1 18006.2 979.709  29
  -1  -4  -2 1575.84 278.617  34
   1   4   2 1960.76 346.922  50
  -1  -4  -2 1516.55 123.310  30
   1   4   2 1647.69 316.529  29
   1   4   3-8.28081 81.6588  50
   1   4   3 196.227 123.673  29
  -1  -4  -3-18.2859 28.0274  30
  -1  -4  -3 77.1701 76.5954  34
  -1  -4  -4 521.917 204.185  34
  -1  -4  -4 539.213 76.7878  30
   1   4   4 220.550 164.495  29
   1   4   4 458.793 193.179  50
   1   4   5 1458.79 340.997  50
  -1  -4  -5 1360.50 332.490  34
   1   4   5 887.059 304.160  29
   1   4   6-25.4370 143.462  50
  -1  -4  -6 69.4130 111.583  34
   1   4   7 20.3933 48.1250  13
  -1  -4  -7 175.967 109.142  35
   1   4   7-97.8057 55.9737   4
   1   4   7 114.850 63.7116   3
   1   4   8 1137.23 168.547   3
  -1  -4  -8 1006.85 150.185  18
  -1  -4  -8 1001.27 305.013  35
   1   4   8 1140.51 156.579   4
   1   4   8 1328.07 169.503  13
  -1  -4  -9 235.693 133.179  33
  -1  -4  -9 195.057 73.5617  18
  -1  -4  -9 146.707 149.068  35
   1   4   9 171.738 70.1868   4
   1   4   9 227.863 86.8088  13
  -1  -4 -10 1418.90 188.096  20
  -1  -4 -10 1260.52 384.366  33
   1   4  10 1708.96 183.205   4
   1   4  10 1626.40 192.973  13
   1   4  11 506.519 99.3147   4
  -1  -4 -11 459.994 109.450  20
  -1  -4 -12 4.96906 46.6216  20
  -1  -4 -12 16.6130 48.0663  31
   1   4  12 12.6497 35.9112   4
  -1  -4 -13 92.5659 46.1701  31
   1   4  13 82.3311 38.3550   4
  -1  -5  11 1184.69 115.961  16
   1   5 -11 1255.78 104.710  24
  -1  -5  10 686.363 119.840  10
  -1  -5  10 698.153 112.181  16
   1   5 -10 791.844 103.870  24
  -1  -5   9-28.9781 61.8466  16
   1   5  -8-60.8973 89.8471  24
  -1  -5   8 163.128 88.0057  16
   1   5  -7 12.4348 78.4632  24
  -1  -5   7 49.4184 68.0682  16
  -1  -5   7-0.12392 63.8917  14
   1   5  -6 4428.22 260.496  22
  -1  -5   6 3937.24 297.344  14
  -1  -5   6 3936.16 301.678  16
   1   5  -6 4084.78 598.277  29
   1   5  -6 3489.35 247.069  24
   1   5  -5 27834.3 642.822  22
  -1  -5   5 29801.6 800.898  16
  -1  -5   5 29156.4 790.336  14
   1   5  -5 28885.1 1557.49  29
   1   5  -5 26678.3 671.364  24
  -1  -5   4 93.6144 67.6082  16
   1   5  -4 241.045 184.498  29
   1   5  -4 231.749 76.0784  22
  -1  -5   4-6.63411 184.786  48
  -1  -5   4 86.9882 56.6326  14
   1   5  -3 1630.28 361.483  29
  -1  -5   3 1278.70 316.849  48
   1   5  -3 2000.45 175.287  24
  -1  -5   2 30.2537 94.7099  48
   1   5  -2-78.7598 182.297  29
   1   5  -1 8538.18 787.028  29
  -1  -5   1 7272.63 681.035  48
  -1  -5   0 8708.31 743.399  48
   1   5   0 9967.42 862.850  29
  -1  -5  -1 3036.03 458.244  48
   1   5   1 3660.22 531.599  29
  -1  -5  -2 6515.31 693.879  48
  -1  -5  -2 7237.25 638.277  34
   1   5   2 7107.84 766.478  29
   1   5   3 54.9891 115.373  29
  -1  -5  -3 89.4758 151.855  48
  -1  -5  -3 64.9286 119.163  34
  -1  -5  -4 1776.27 375.900  34
   1   5   4 1333.57 381.382  29
   1   5   5 154.608 69.5585  13
   1   5   5 80.6861 47.3081  12
   1   5   5 187.894 152.096  29
  -1  -5  -5 142.911 136.610  34
  -1  -5  -5 29.5257 43.0287   6
   1   5   6 1158.14 158.157  23
  -1  -5  -6 957.080 273.220  35
  -1  -5  -6 1023.89 127.430   6
   1   5   6 1286.15 165.008  13
   1   5   7 686.046 127.429  13
  -1  -5  -7 630.977 126.667  18
  -1  -5  -7 415.297 192.430  35
  -1  -5  -8 140.373 140.574  33
  -1  -5  -8 300.285 94.2731  18
  -1  -5  -8 83.9564 145.918  35
   1   5   8 286.491 97.8698  13
   1   5   8 208.489 69.4672   4
  -1  -5  -9 1292.49 183.050  20
  -1  -5  -9 730.690 298.881  33
   1   5   9 1243.24 177.893  13
  -1  -5  -9 1118.25 161.177  18
   1   5   9 1509.96 169.252   4
  -1  -5 -10 234.053 88.2642  20
  -1  -5 -10 125.911 62.8613  18
   1   5  10 240.742 73.6758   4
   1   5  10 235.579 88.7228  13
   1   5  11 306.507 72.9831   4
  -1  -5 -11 331.352 89.0478  20
  -1  -5 -12 52.5036 41.5816  31
  -1  -5 -12 150.664 59.2259  20
   1   5  12 92.1436 42.0898   4
   1   6  -9 331.981 67.8464  24
  -1  -6   9 356.541 85.5369  10
  -1  -6   9 432.630 93.0859  16
   1   6  -8 231.406 71.5350  24
  -1  -6   8 36.2453 61.1039  16
   1   6  -7 2301.77 196.455  24
  -1  -6   7 2061.27 216.455  16
   1   6  -7 1828.72 163.243  22
  -1  -6   7 2045.18 209.218  14
   1   6  -6 237.128 84.7699  24
   1   6  -6 10.7397 57.2168  22
  -1  -6   6 16.6496 77.7134  16
  -1  -6   6 36.5469 63.7527  14
  -1  -6   5 12425.8 530.454  16
  -1  -6   5 12094.6 537.497  14
   1   6  -5 11480.0 435.561  22
   1   6  -5 12324.1 473.708  24
   1   6  -4 428.806 98.0050  24
   1   6  -4 513.432 226.589  29
  -1  -6   4 264.953 93.3982  16
  -1  -6   4 264.732 94.6387  15
  -1  -6   4 310.930 91.4185  14
   1   6  -4 136.445 73.1017  22
   1   6  -3 1215.71 365.331  29
   1   6  -3 957.734 125.258  22
  -1  -6   3 1152.59 165.804  14
   1   6  -3 1373.82 159.914  24
   1   6  -2 11.4497 50.8545  24
  -1  -6   2 18.9375 53.6151  14
   1   6  -2 20.8821 127.928  29
   1   6  -2-148.497 97.1294  22
   1   6  -1 780.347 300.299  29
  -1  -6   1 662.099 124.346  14
   1   6  -1 517.432 95.7797  24
  -1  -6   0 221.945 70.5164  19
  -1  -6   0 293.972 88.5005  14
   1   6   0 151.379 153.411  29
   1   6   0 169.771 59.2901  24
  -1  -6   0 186.697 56.6281   6
   1   6   1 479.801 107.136  13
   1   6   1 442.998 99.2005  12
  -1  -6  -1 342.193 76.7034  19
  -1  -6  -1 316.435 87.1117  14
   1   6   1 443.124 211.951  29
  -1  -6  -1 290.852 74.7891   6
   1   6   2 499.594 109.790  13
   1   6   2 452.391 100.788  12
   1   6   2 205.575 166.585  29
  -1  -6  -2 430.654 99.6451  19
  -1  -6  -2 404.498 85.2034   6
   1   6   3 2147.54 214.919  12
   1   6   3 2449.77 526.983  29
  -1  -6  -3 2091.43 190.601   6
   1   6   3 2328.05 221.634  13
   1   6   4 4284.51 289.332  12
   1   6   4 3960.59 683.652  29
  -1  -6  -4 4002.05 268.404   6
   1   6   4 4411.66 305.698  13
   1   6   5 351.830 99.9548  13
  -1  -6  -5 182.532 61.3234   6
   1   6   5 53.3019 160.337  29
  -1  -6  -6 1143.42 175.495  18
   1   6   6 1107.69 165.123  13
  -1  -6  -6 750.761 116.381   6
   1   6   7 78.8219 71.4298  13
  -1  -6  -7 14.0021 58.0526  18
  -1  -6  -7-15.6115 84.8409   6
  -1  -6  -8 1318.22 182.338  18
  -1  -6  -8 1291.08 190.379  20
   1   6   8 1286.94 179.209  13
  -1  -6  -9 201.000 80.1123  18
  -1  -6  -9 321.447 103.354  20
   1   6   9 280.937 84.8399  13
  -1  -6 -10-29.1594 51.9498  20
  -1  -6 -10 48.5463 46.4316  18
   1   6  10 32.1630 55.2098  13
  -1  -6 -11 100.883 48.0944  31
  -1  -6 -11 83.9756 44.8047  18
  -1  -6 -11 156.249 61.7210  20
   1   6  11 88.3280 38.2526   4
  -1  -7   8 15.1074 40.4591  16
   1   7  -8-21.6494 32.8295  24
   1   7  -7 40.1830 41.2482  24
  -1  -7   7-29.6831 55.1843  16
  -1  -7   7 24.9237 43.9500  14
  -1  -7   6 3049.13 242.942  16
  -1  -7   6 2726.67 241.369  14
   1   7  -6 2743.74 206.784  24
  -1  -7   5 1098.17 164.951  14
  -1  -7   5 1142.56 163.516  16
   1   7  -5 1088.68 136.343  24
   1   7  -4 853.840 128.326  24
  -1  -7   4 853.662 147.668  15
  -1  -7   4 816.489 148.154  14
  -1  -7   3 204.652 85.4765  15
  -1  -7   3 160.315 81.7963  14
   1   7  -3-12.7651 59.6177  24
  -1  -7   2 1950.16 225.946  14
   1   7  -2 1878.70 473.203  29
  -1  -7   2 2029.62 230.891  15
   1   7  -2 1591.98 172.634  24
  -1  -7   1 174.488 87.7634  14
   1   7  -1-88.4824 294.305  29
   1   7  -1 280.336 93.1690  13
   1   7   0 58.8754 64.0838  13
  -1  -7   0 33.3426 65.3231  14
   1   7   0 61.3009 64.6558  12
  -1  -7   0 29.6856 53.5011   6
   1   7   1 82.5300 62.6686  13
   1   7   1 103.089 175.212  29
   1   7   1 16.3624 61.6951  12
  -1  -7  -1 40.5405 51.0382   6
   1   7   2 887.464 141.044  12
   1   7   2 654.394 335.567  29
  -1  -7  -2 1139.10 157.299   6
   1   7   2 1168.19 168.479  13
  -1  -7  -3 3729.37 284.953  18
   1   7   3 3341.22 272.656  13
   1   7   3 3601.05 692.979  29
  -1  -7  -3 3256.91 265.174   6
   1   7   3 3282.47 258.687  12
   1   7   4 808.974 139.490  12
   1   7   4 759.759 138.171  13
   1   7   4 1110.17 387.305  29
  -1  -7  -4 827.097 162.708  15
  -1  -7  -4 858.551 157.942  18
  -1  -7  -4 761.363 140.247   6
   1   7   5 445.862 107.696  13
  -1  -7  -5 432.017 116.573  18
  -1  -7  -5 338.037 150.643   6
  -1  -7  -6 884.059 163.266  18
  -1  -7  -6 1117.73 172.118  20
  -1  -7  -6 859.765 136.873   6
   1   7   6 962.522 160.815  13
  -1  -7  -7 1567.77 203.826  20
  -1  -7  -7 1465.52 195.337  18
   1   7   7 1507.62 191.139  13
  -1  -7  -8-0.55613 60.5631  18
  -1  -7  -8 16.4113 57.3053  20
   1   7   8 23.3972 53.6832  13
  -1  -7  -9 605.710 114.494  20
  -1  -7  -9 548.405 101.533  18
   1   7   9 556.828 101.426  13
  -1  -7 -10 116.641 53.5872  20
  -1  -7 -10-32.2461 38.2623  18
   1   8  -6 406.974 75.7592  12
  -1  -8   6 226.420 65.3104  14
   1   8  -5-75.5558 46.3933  13
  -1  -8   5 59.8083 52.3557  14
   1   8  -4-26.2452 36.2454  13
  -1  -8   4-89.2517 63.7936  14
   1   8  -3 434.035 88.5427  13
   1   8  -3 450.274 101.502  12
  -1  -8   3 391.906 96.0361   7
  -1  -8   3 418.202 110.802  14
   1   8  -2 959.003 137.889  12
  -1  -8   2 811.347 150.414  14
   1   8  -2 853.621 130.384  13
   1   8  -1 374.739 92.7356  13
   1   8  -1 263.600 84.1595  12
  -1  -8   1 336.070 93.0777  15
  -1  -8   1 402.615 116.586  14
  -1  -8   0 191.886 85.4949  15
   1   8   0 95.1562 61.9259  13
   1   8   0 194.410 76.9716  12
  -1  -8   0 242.648 105.979  14
   1   8   1 52.9502 60.6209  13
   1   8   1-11.5825 45.7716  12
  -1  -8  -1-1.96986 59.2531  15
  -1  -8  -1-28.7815 55.5420   6
   1   8   2 366.282 91.5389  12
  -1  -8  -2 551.978 138.906  15
  -1  -8  -2 424.067 104.140   6
   1   8   2 445.110 103.706  13
   1   8   3 224.567 78.1364  13
   1   8   3 272.473 86.5689  12
  -1  -8  -3 309.088 96.2680   6
   1   8   4 7.84591 52.6855  13
  -1  -8  -4-7.72027 52.9529  18
   1   8   5 20.3059 50.7938  13
  -1  -8  -5-112.115 74.3940   7
  -1  -8  -5-53.0008 65.8222  18
   1   8   6-12.8284 46.7598  13
  -1  -8  -6-42.5887 68.2725  18
  -1  -8  -7 289.571 76.6296  18
   1   8   7 243.786 70.8967  13
  -1  -8  -8 565.879 92.8046  18
   1   8   8 525.317 87.9873  13
   1   9  -1 51.8858 42.6259  13
  -1  -9   1 92.8477 54.4885   7
   1   9  -1 17.6871 38.9789  12
   1   9   0-53.2473 45.1946  13
  -1  -9   0-3.35533 42.8161   7
   1   9   0-79.2584 52.5937  12
   1   9   1 587.752 89.6274  13
  -1  -9  -1 631.054 118.592   7
   1   9   2 389.004 79.1709  13
  -1  -9  -2 564.905 121.020   7
   1   9   3-25.7523 39.4371  13
  -1  -9  -3-14.4766 67.0151   7
   1   9   4 642.453 92.7510  13
  -1  -9  -4 682.486 111.300   7
   1   9   5 128.574 45.9916  13
  -2   8   5 41.2791 37.1569  23
  -2   8   4 36.1976 39.7885  23
   2  -8  -4-65.5197 57.6626   7
  -2   8   3 273.537 71.9834  13
  -2   8   3 249.845 70.2102  23
   2  -8  -3 333.849 92.4897   7
  -2   8   2 207.206 69.4521  13
  -2   8   2 173.576 58.0514  23
   2  -8  -2 194.219 71.2019   7
  -2   8   1 1012.79 127.017  23
   2  -8  -1 1281.97 170.585   7
  -2   8   1 1167.25 143.434  13
  -2   8   0-17.2612 42.6412  23
  -2   8   0-8.40260 53.4569  13
   2  -8   0 49.3286 50.8226   7
  -2   8  -1 480.916 103.784  13
  -2   8  -1 431.538 85.8753  23
   2  -8   1 508.789 103.546   7
  -2   8  -2 410.770 95.6425  13
  -2   8  -2 332.892 77.5318  23
   2  -8   2 209.626 62.6722   7
  -2   8  -3-6.30967 48.5103  13
   2  -8   3 9.78702 49.6798   8
  -2   8  -3-25.3210 46.8758  23
   2  -8   3-13.8008 38.5570   7
  -2   8  -4 46.1879 41.9279  13
   2  -8   4 35.2572 57.9308   8
   2  -8   5 944.124 119.191   8
   2  -7  -8 298.833 74.9452  18
   2  -7  -7 51.7556 44.0734  18
   2  -7  -7-19.2636 47.7306  20
  -2   7   7 9.85685 30.5680   4
  -2   7   6 397.133 95.2813  23
   2  -7  -6 404.972 91.4637  18
  -2   7   5 73.3735 53.3741  23
   2  -7  -5 103.261 57.7130  18
  -2   7   4 815.074 136.269  23
   2  -7  -4 1000.56 133.630  18
  -2   7   4 1031.77 137.943  13
   2  -7  -4 851.162 152.304   7
  -2   7   3 42.8716 53.5733  23
  -2   7   3-36.8850 46.1999  13
   2  -7  -3-18.0092 71.6717   7
  -2   7   2 1398.36 172.950  23
   2  -7  -2 1578.56 217.804   7
   2  -7  -2 1332.02 203.479  15
  -2   7   2 1445.48 170.398  13
  -2   7   1 452.301 105.921  13
  -2   7   1 559.339 118.555  23
   2  -7  -1 490.405 129.737   7
   2  -7  -1 489.440 119.147  15
  -2   7   0 1239.57 167.694  23
   2  -7   0 1074.22 185.017  15
   2  -7   0 1002.92 171.107   7
  -2   7   0 1216.24 174.152  13
  -2   7  -1 1520.73 182.370  23
   2  -7   1 1505.40 208.771  15
   2  -7   1 1640.52 210.743   7
  -2   7  -1 2096.80 221.290  13
  -2   7  -2 463.633 107.094  23
   2  -7   2 724.961 149.836  15
   2  -7   2 453.686 115.569  14
   2  -7   2 475.936 121.669   7
  -2   7  -2 605.623 125.054  21
  -2   7  -3 90.0220 67.6666  23
   2  -7   3 43.6766 58.5554  14
   2  -7   3 91.6133 57.2318   7
   2  -7   3 176.025 88.2898  15
  -2   7  -3 83.2062 67.7400  21
  -2   7  -4 586.431 120.200  23
  -2   7  -4 450.716 119.017  21
   2  -7   4 457.034 100.370   7
  -2   7  -5 864.405 133.963  23
   2  -7   5 949.092 169.101   8
  -2   7  -5 918.801 149.662  21
  -2   7  -6 47.5444 50.0279  21
   2  -7   6 96.3193 72.8209   8
  -2   7  -6 63.9136 50.7568  23
  -2   7  -7 205.492 57.4762  23
  -2   7  -7 207.802 58.9958  21
   2  -7   7 182.331 68.3331   8
  -2   6  10-35.1178 32.1473   4
   2  -6 -10 54.7258 43.8986  20
   2  -6 -10-2.51597 31.3844  18
  -2   6   9 82.6808 43.3478   4
   2  -6  -9 94.5841 62.9055  20
   2  -6  -9 51.4906 49.0058  18
   2  -6  -8-36.9834 61.2418  20
   2  -6  -8 14.2861 55.4130  18
  -2   6   8-12.5311 38.1776   4
  -2   6   7 791.259 143.301  23
   2  -6  -7 706.652 127.525  20
   2  -6  -7 702.744 136.357  18
  -2   6   6 93.0347 63.9012  23
   2  -6  -6 34.9770 55.0359  20
   2  -6  -6 107.591 67.1733  18
  -2   6   5 8807.83 445.602  23
   2  -6  -5 9178.95 426.875  20
   2  -6  -5 8889.53 446.451  18
  -2   6   4 11739.1 1227.70  29
  -2   6   4 11163.9 499.497  23
   2  -6  -4 12081.9 501.862  18
   2  -6  -4 11572.5 563.138   7
   2  -6  -3 712.947 152.013   7
   2  -6  -3 758.581 130.163  18
  -2   6   3 546.388 305.338  29
   2  -6  -3 825.045 159.804  15
  -2   6   3 835.547 141.634  23
  -2   6   3 932.591 142.477  13
  -2   6   2 633.923 323.826  29
  -2   6   2 633.845 117.586  13
  -2   6   2 676.926 132.170  23
   2  -6  -2 497.169 134.903  15
   2  -6  -2 607.234 141.600   7
  -2   6   1 407.897 96.3456  13
  -2   6   1 476.203 108.071  23
  -2   6   1 414.759 275.766  29
   2  -6  -1 599.878 144.852  15
   2  -6  -1 499.479 133.906   7
  -2   6   0 1818.59 201.716  23
  -2   6   0 1628.31 192.245  21
   2  -6   0 1696.07 228.348   7
  -2   6   0 2369.60 554.166  29
   2  -6   0 2007.10 250.096  15
   2  -6   0 2050.64 240.369  14
  -2   6  -1 780.134 136.040  23
  -2   6  -1 541.112 253.744  29
  -2   6  -1 699.067 137.071  21
   2  -6   1 951.135 175.996  15
   2  -6   1 725.196 154.980   7
   2  -6   1 919.939 163.219  14
  -2   6  -2 107.295 69.5091  21
  -2   6  -2 447.245 307.383  29
   2  -6   2 166.368 94.7453  15
   2  -6   2 234.342 97.8015   7
  -2   6  -2-23.6303 79.1177  22
   2  -6   2 296.197 101.388  14
  -2   6  -2 273.547 96.2242  23
  -2   6  -3 8016.52 432.853  23
  -2   6  -3 8372.24 455.877  21
   2  -6   3 7593.73 449.503   7
  -2   6  -3 7823.94 1029.76  29
   2  -6   3 7803.60 485.265  15
   2  -6   3 7281.57 453.666  14
  -2   6  -3 7519.86 387.385  22
  -2   6  -4 3541.07 298.094  23
   2  -6   4 3460.41 320.919  15
  -2   6  -4 4028.78 326.279  21
  -2   6  -4 3386.88 268.661  22
   2  -6   4 3198.10 286.472   7
   2  -6   4 3714.39 313.726  16
  -2   6  -4 3166.70 659.226  29
   2  -6   4 3151.80 304.355  14
   2  -6   5 245.345 99.2109  15
   2  -6   5 142.707 85.6240  16
  -2   6  -5 130.669 79.4450  22
   2  -6   5 104.178 73.3503  14
  -2   6  -5 352.858 115.922  21
  -2   6  -6 178.491 122.350  21
   2  -6   6-26.3690 54.1159  16
   2  -6   6 40.8557 86.4779   8
  -2   6  -6-9.70103 65.7647  22
   2  -6   6 45.9445 68.7776  14
  -2   6  -7 839.629 124.912  22
   2  -6   7 601.503 122.951  16
  -2   6  -7 1018.00 159.452  21
   2  -6   7 792.653 152.789   8
  -2   6  -8 182.419 75.2701  21
  -2   6  -8 95.8956 50.5320  22
   2  -6   8 131.370 71.0904   8
   2  -6   8 145.962 69.6163  16
  -2   6  -9 116.918 48.7114  23
  -2   6  -9 139.653 56.9232  21
  -2   6  -9-38.6090 47.7701  22
  -2   5  11 19.4294 30.1356   4
   2  -5 -11 100.185 54.8655  20
  -2   5  10 198.012 64.7369   4
   2  -5 -10 295.793 78.0181  18
  -2   5  10 259.011 65.1655  25
   2  -5 -10 318.204 83.8859  20
   2  -5  -9 1292.47 176.883  20
   2  -5  -9 1087.34 153.981  18
  -2   5   9 1137.19 138.928   4
  -2   5   9 1264.01 143.767  25
   2  -5  -8 360.196 109.213  18
   2  -5  -8 362.697 110.517  20
  -2   5   8 191.583 73.9915  25
  -2   5   7-9.57792 67.5654  23
   2  -5  -7-43.7482 70.7284  18
   2  -5  -7-90.8243 90.0992  20
  -2   5   7-69.4212 62.0546  25
  -2   5   6 1086.47 164.910  23
   2  -5  -6 951.648 166.048  18
   2  -5  -6 1147.09 171.101  20
  -2   5   6 925.941 141.372  25
  -2   5   5 21922.3 706.423  23
   2  -5  -5 23726.8 747.135  18
   2  -5  -5 23684.6 724.723  20
  -2   5   5 23039.5 1689.29  29
  -2   5   5 22055.9 641.416  25
  -2   5   4 3687.87 276.713  23
   2  -5  -4 3727.28 285.069  18
  -2   5   4 3623.04 664.536  29
   2  -5  -4 3441.92 299.875   7
  -2   5   4 3423.24 254.868  25
   2  -5  -4 3468.22 263.381  20
   2  -5  -3 3469.97 260.927  18
  -2   5   3 3556.38 273.660  23
  -2   5   3 2694.17 569.261  29
   2  -5  -3 3450.42 299.699  15
  -2   5   3 3285.29 256.102  25
   2  -5  -3 3377.18 297.830   7
   2  -5  -2 636.709 205.259  48
   2  -5  -2 644.634 140.673   7
  -2   5   2 813.701 313.721  29
  -2   5   2 796.674 125.205  23
  -2   5   2 576.569 119.752  25
   2  -5  -2 848.654 160.871  15
  -2   5   1 258.046 219.886  51
   2  -5  -1 248.486 80.0725   7
  -2   5   1 32.3519 49.8903  23
  -2   5   1 57.2338 172.643  29
   2  -5  -1-26.0729 70.3719  15
  -2   5   1-75.1626 71.8830  21
   2  -5  -1-146.285 126.334  48
  -2   5   0 576.022 107.744  21
   2  -5   0 609.870 223.454  48
  -2   5   0 742.373 304.070  51
   2  -5   0 670.616 140.963  14
  -2   5   0 578.120 268.110  29
  -2   5   0 777.096 123.704  23
   2  -5   0 776.041 153.862  15
   2  -5   0 651.045 132.543   7
  -2   5  -1 212.528 185.082  51
  -2   5  -1-37.8750 66.4989  22
  -2   5  -1 222.957 81.2767  23
  -2   5  -1 51.1445 56.0389  21
   2  -5   1 88.8735 61.1118  15
   2  -5   1 31.8593 126.320  48
  -2   5  -1-91.8132 172.554  29
   2  -5   1 26.0623 56.4133   7
   2  -5   1 90.0798 67.5995  14
  -2   5  -2 495.184 116.547  21
  -2   5  -2 405.490 82.7186  22
  -2   5  -2 489.090 260.552  29
   2  -5   2 442.081 110.034   7
   2  -5   2 536.978 124.676  14
   2  -5   2 419.925 122.411  15
  -2   5  -3 2597.97 209.422  22
   2  -5   3 2394.38 240.971  16
   2  -5   3 2437.09 252.655   7
  -2   5  -3 2234.48 473.854  29
   2  -5   3 2591.17 274.908  15
   2  -5   3 2607.88 273.839  14
  -2   5  -3 2887.71 245.840  21
   2  -5   4 2784.96 265.502   7
  -2   5  -4 2965.04 609.967  29
  -2   5  -4 3631.57 264.747  22
   2  -5   4 2806.59 285.578  15
   2  -5   4 2853.54 293.079  14
   2  -5   4 2855.21 271.306  16
  -2   5  -5 2594.64 248.784  22
  -2   5  -5 1706.35 504.532  29
   2  -5   5 1723.19 224.360  15
   2  -5   5 1745.04 236.967  14
   2  -5   5 1691.75 219.453  16
  -2   5  -6 7614.65 396.256  22
   2  -5   6 6180.62 407.694  16
  -2   5  -6 6925.72 963.768  29
   2  -5   6 6102.97 428.170  14
   2  -5   7 2917.83 298.311   8
   2  -5   7 3277.16 293.618  16
  -2   5  -7 3318.83 664.808  29
   2  -5   7 3160.10 295.484  14
   2  -5   8-36.8839 68.3927  16
   2  -5   8 58.4155 56.1782   8
  -2   5  -9 837.915 145.766  22
   2  -5   9 180.289 76.9568  16
  -2   5 -10 1445.81 134.638  22
   2  -5  10 1127.10 143.847  16
  -2   5 -11 99.4305 42.4022  22
  -2   5 -11 164.321 58.5614  21
  -2   4  12 20.4072 26.9707   4
   2  -4 -11 853.557 110.880  31
  -2   4  11 597.283 94.6916  25
   2  -4 -11 674.287 103.664  18
   2  -4 -11 616.390 105.601  20
  -2   4  11 663.795 100.080   4
   2  -4 -10 1884.94 208.552  20
  -2   4  10 1955.40 182.845   4
   2  -4 -10 2066.81 190.925  31
  -2   4  10 1945.09 181.664  25
   2  -4 -10 1801.33 189.223  18
   2  -4  -9 228.217 89.2386  20
   2  -4  -9 187.041 84.4337  31
   2  -4  -9 174.599 80.3452  18
  -2   4   9 102.882 67.0661  25
   2  -4  -8 4.43740 71.0133  20
  -2   4   8 22.6217 49.7383  25
   2  -4  -8 14.5066 58.5525  31
   2  -4  -8 52.0663 69.5390  18
  -2   4   7 1723.07 206.817  23
   2  -4  -7 1746.91 209.801  18
   2  -4  -7 1886.52 227.666  20
  -2   4   7 1308.46 171.921  25
  -2   4   6 502.042 112.599  23
   2  -4  -6 372.507 101.584  18
   2  -4  -6 469.140 123.230  20
  -2   4   6 291.525 92.2180  25
  -2   4   5 5078.84 312.619  23
  -2   4   5 4696.61 652.615  51
   2  -4  -5 5409.16 346.251  20
   2  -4  -5 5404.46 343.061  18
  -2   4   5 4586.76 710.120  29
  -2   4   5 5131.18 303.593  25
  -2   4   4 742.945 232.313  51
   2  -4  -4 986.239 381.860  52
  -2   4   4 467.280 278.658  29
   2  -4  -3 67.2722 105.567  48
  -2   4   3 161.440 119.760  51
   2  -4  -3 244.296 83.6813  15
  -2   4   3 187.570 148.562  29
   2  -4  -3 245.614 212.645  52
  -2   4   2 565.875 242.415  51
  -2   4   2 351.616 197.279  29
   2  -4  -2 674.614 213.978  48
   2  -4  -2 459.507 97.0155  15
   2  -4  -1 2308.13 227.797  15
  -2   4   1 2518.27 436.965  29
  -2   4   1 2527.93 446.710  51
   2  -4  -1 2488.40 375.371  48
  -2   4   0 342.988 169.994  29
   2  -4   0 409.628 172.813  48
   2  -4   0 404.742 104.585  15
  -2   4   0 409.883 174.646  51
   2  -4   1 27230.2 1268.55  48
  -2   4  -1 30805.1 1408.39  42
  -2   4  -1 29537.7 1414.99  29
  -2   4  -1 31082.5 1520.76  51
   2  -4   1 30137.5 805.967  15
  -2   4  -2 7358.59 734.079  42
   2  -4   2 6240.13 627.157  48
   2  -4   2 7124.57 398.915  15
  -2   4  -2 7111.59 716.629  51
  -2   4  -2 6396.54 687.783  29
   2  -4   3 9417.66 819.676  48
  -2   4  -3 10563.9 940.557  29
   2  -4   3 9405.37 464.576  15
  -2   4  -3 11096.8 991.113  42
   2  -4   4 1132.65 329.085  48
   2  -4   4 835.812 147.454  15
  -2   4  -4 938.933 368.045  29
  -2   4  -5 1449.09 485.003  43
   2  -4   5 1054.77 162.370  15
  -2   4  -5 1148.41 419.204  29
   2  -4   5 1239.29 181.953  16
   2  -4   5 1272.69 199.432  14
   2  -4   6 4351.61 338.541  16
  -2   4  -6 4753.18 862.157  43
  -2   4  -6 4238.03 731.447  29
   2  -4   6 4124.26 343.080  14
  -2   4  -7 753.181 406.715  43
   2  -4   7 569.225 144.060   8
   2  -4   7 760.585 153.984  16
   2  -4   7 659.241 142.142  14
  -2   4  -8 2715.46 633.087  43
   2  -4   8 2426.68 264.138   8
   2  -4   8 2392.86 263.730  16
  -2   4  -8 3311.73 256.564  24
   2  -4   9 45.4709 66.0877  16
  -2   4  -9 799.123 140.096  24
   2  -4  10 1036.63 164.138  16
   2  -4  10 972.533 151.511  10
  -2   4 -10 1048.94 134.599  24
   2  -4  11 81.6929 63.1896  10
   2  -4  11 26.6844 44.2368  16
  -2   4 -12 415.403 69.1841  22
  -2   3  12 50.4029 36.7635   4
   2  -3 -12-45.7602 43.5631  31
  -2   3  12 13.3834 36.4853  25
   2  -3 -11 57.7676 54.3186  20
   2  -3 -11 74.1210 63.5022  31
  -2   3  11 44.2810 47.1447   4
  -2   3  11-24.9091 52.1219  25
  -2   3  10 372.629 84.4396   4
   2  -3 -10 522.063 117.556  31
   2  -3 -10 270.760 89.3381  18
   2  -3 -10 348.694 101.781  20
  -2   3  10 390.460 100.308  25
   2  -3  -9 9.76817 53.0155  18
   2  -3  -9 54.3477 67.0329  31
   2  -3  -9 17.9718 76.3339  20
  -2   3   9-33.9613 58.5439  25
   2  -3  -8 90.8081 59.8356  18
   2  -3  -8-12.0950 73.7782  20
   2  -3  -8 57.8607 62.6910  31
  -2   3   8 75.0177 58.1038  25
  -2   3   7 8765.60 427.572  23
   2  -3  -7 8508.57 452.265  20
   2  -3  -7 8783.15 442.436  18
   2  -3  -7 8317.04 400.048  31
  -2   3   7 7049.71 367.568  25
  -2   3   6 193.051 73.3369  23
   2  -3  -6 206.541 232.049  52
   2  -3  -6 290.657 88.1648  20
   2  -3  -6 116.322 52.1668  18
  -2   3   6 159.539 157.531  50
  -2   3   6 155.197 67.1803  25
   2  -3  -5 3369.76 585.792  52
  -2   3   5 2949.28 453.948  51
  -2   3   5 3117.22 456.090  50
  -2   3   4 283.164 148.077  50
   2  -3  -4 450.838 228.573  52
  -2   3   4 207.498 130.676  29
  -2   3   4 346.501 193.794  51
   2  -3  -3 905.039 219.380  48
  -2   3   3 1038.01 271.272  51
  -2   3   3 1036.99 259.451  29
   2  -3  -3 1069.76 130.697  15
   2  -3  -3 680.972 238.424  52
  -2   3   2 993.461 252.613  29
   2  -3  -2 980.325 127.367  15
  -2   3   2 748.871 228.711  51
   2  -3  -2 724.675 176.631  48
   2  -3  -2 925.370 268.578  52
  -2   3   1 1209.86 268.452  41
  -2   3   1 1364.01 276.565  29
   2  -3  -1 1402.55 148.259  15
  -2   3   1 1364.79 286.682  51
   2  -3  -1 1361.67 240.116  48
  -2   3   0 1301.93 281.097  51
   2  -3   0 1078.11 210.434  48
  -2   3   0 1100.63 260.317  29
   2  -3   0 1317.09 148.523  15
   2  -3   1 29754.3 1200.79   2
   2  -3   1 32742.7 1189.65  48
  -2   3  -1 33525.2 1379.14  42
  -2   3  -1 32413.5 1248.59  29
   2  -3   1 33837.9 739.229  15
  -2   3  -1 33760.1 1350.19  51
  -2   3  -2 25876.0 1277.07  42
  -2   3  -2 26148.7 1167.45  51
   2  -3   2 24451.7 1077.66  48
  -2   3  -2 25626.2 1159.93  29
   2  -3   2 24895.6 644.568  15
  -2   3  -3 831.043 219.738  51
  -2   3  -3 939.157 300.911  43
   2  -3   3 771.466 123.505  15
   2  -3   3 1012.85 233.950  48
   2  -3   4 61.5028 108.821  48
  -2   3  -4 142.823 150.965  44
  -2   3  -4 31.7951 161.223  43
   2  -3   4 81.9436 64.2946  15
  -2   3  -5 92.8126 172.808  44
   2  -3   5-23.8222 133.661  48
  -2   3  -5 163.887 178.722  43
   2  -3   5 64.4824 44.7739  15
  -2   3  -6 35.1991 162.734  44
   2  -3   6 378.771 236.227  48
  -2   3  -6-218.320 200.487  43
   2  -3   7 2393.26 247.947  14
   2  -3   7 2606.38 271.033   8
  -2   3  -7 2280.63 565.956  43
  -2   3  -7 1966.77 515.849  44
   2  -3   8 1208.10 195.587  10
  -2   3  -8 893.674 416.597  43
   2  -3   8 841.382 155.408   8
   2  -3   8 1146.58 179.837  16
  -2   3  -8 815.227 352.916  44
   2  -3   9 155.370 93.6636  16
  -2   3  -9 316.665 289.061  44
   2  -3   9 251.519 110.285  10
  -2   3  -9 125.890 171.351  43
   2  -3  10 1127.18 190.782   9
   2  -3  10 1209.33 186.084  10
   2  -3  10 1019.57 165.971  16
   2  -3  11 179.336 79.6412  10
   2  -3  11 114.082 71.4171  16
   2  -3  12 43.5775 52.3195  10
  -2   3 -12 1038.19 123.810  24
   2  -2 -13-0.82941 33.6505  31
  -2   2  13 18.1228 30.2174  25
  -2   2  12 352.265 66.9983   4
   2  -2 -12 394.612 88.5535  31
  -2   2  12 304.833 66.2903  25
  -2   2  11 10.8738 43.0246   4
   2  -2 -11-59.2945 70.2080  31
  -2   2  11-62.4070 73.6106  25
  -2   2  10-17.3825 44.4314   4
   2  -2 -10 54.6091 69.5763  31
   2  -2 -10 33.1578 56.0315  20
  -2   2  10 77.5670 66.6069  25
  -2   2   9 884.926 141.657  25
   2  -2  -9 891.742 156.758  20
   2  -2  -9 1074.02 161.903  31
  -2   2   9 798.201 127.178   4
   2  -2  -8 1126.20 163.320  20
   2  -2  -8 1169.02 161.198  18
   2  -2  -8 1308.48 176.603  31
  -2   2   8 1006.71 144.763  25
  -2   2   7 3067.59 515.981  50
   2  -2  -7 3231.11 263.825  20
   2  -2  -7 2921.17 237.161  18
   2  -2  -7 3144.58 239.701  31
  -2   2   7 2879.50 225.889  25
   2  -2  -7 2842.58 605.520  52
   2  -2  -6 6671.44 835.617  52
  -2   2   6 6614.45 688.680  50
   2  -2  -5 1267.77 342.720  52
  -2   2   5 1222.06 270.921  50
  -2   2   5 1167.59 267.443  51
   2  -2  -4 588.318 224.195  52
  -2   2   4 382.099 145.858  50
  -2   2   4 561.089 187.829  51
   2  -2  -3 8602.36 732.301  52
  -2   2   3 8645.17 665.615  29
  -2   2   3 8627.31 585.069  50
  -2   2   3 8630.60 641.142  51
  -2   2   2 504.486 167.748  51
   2  -2  -2 564.245 193.155  52
   2  -2  -2 527.933 137.554  48
  -2   2   2 461.990 135.684  50
  -2   2   2 717.570 201.138  29
  -2   2   1 25556.4 806.841  50
  -2   2   1 27699.3 1097.88  51
   2  -2  -1 27376.8 1175.09  52
  -2   2   1 26848.6 1100.21  41
  -2   2   1 26473.8 986.897  29
   2  -2  -1 26583.9 845.477  48
  -2   2   0 42166.5 1338.67  51
   2  -2   0 42839.9 1075.22  48
  -2   2   0 42981.4 1408.33  42
  -2   2   0 43173.6 1205.70  29
   2  -2   1 65961.3 1722.97   2
   2  -2   1 68471.1 1426.61  48
  -2   2  -1 70711.4 1829.59  42
  -2   2  -1 69437.8 1552.77  29
   2  -2   1 68026.3 935.691  15
  -2   2  -1 66281.4 1652.53  51
   2  -2   2 139.557 70.1294  48
  -2   2  -2 160.748 92.2027  51
  -2   2  -2 256.830 126.836  43
   2  -2   2 281.231 64.1803  15
   2  -2   3 1096.62 234.041  48
  -2   2  -3 942.949 255.443  43
  -2   2  -3 954.439 225.530  45
  -2   2  -3 1117.27 247.474  44
   2  -2   3 880.360 198.048   2
  -2   2  -3 599.771 166.492  51
   2  -2   3 828.120 107.278  15
   2  -2   4 3415.90 455.005  48
  -2   2  -4 3120.69 406.565  47
  -2   2  -4 3087.45 445.649  45
  -2   2  -4 2746.18 463.069  44
   2  -2   4 2827.58 198.641  15
  -2   2  -4 3530.73 529.587  43
   2  -2   5 848.860 264.515  48
  -2   2  -5 626.387 254.011  45
   2  -2   5 697.889 104.357  15
  -2   2  -5 799.482 283.026  44
  -2   2  -6 24692.5 1501.18  45
  -2   2  -6 27045.6 1589.96  44
   2  -2   6 24616.6 1407.28  48
  -2   2  -7 1048.88 320.145  45
   2  -2   7 902.428 274.330  48
  -2   2  -7 344.654 267.582  44
  -2   2  -8 874.696 347.767  44
  -2   2  -8 891.075 339.175  45
   2  -2   8 971.672 123.079   4
   2  -2   8 1186.76 190.549  10
   2  -2   8 1056.70 159.101  16
  -2   2  -9 2812.58 603.304  44
  -2   2  -9 3024.07 614.069  45
   2  -2   9 3378.97 317.284  10
   2  -2   9 2688.60 207.021   4
   2  -2   9 3058.18 277.372  16
   2  -2  10 1102.32 194.587  10
  -2   2 -10 694.247 290.735  43
   2  -2  10 757.597 147.746   9
  -2   2 -10 665.860 296.635  44
   2  -2  11 229.815 94.4091  10
   2  -2  12 1703.06 206.968  10
   2  -2  13 8469.61 361.409  10
  -2   2 -13 8226.23 278.269  24
   2  -1 -13 300.796 67.5203  31
  -2   1  13 239.855 51.9018  25
   2  -1 -12 669.669 108.475  32
   2  -1 -12 543.665 103.144  31
  -2   1  12 607.043 94.7787  25
   2  -1 -11 536.685 98.4273  31
  -2   1  11 778.986 111.241  26
  -2   1  11 846.161 127.549  25
   2  -1 -10 2623.69 246.852  31
   2  -1 -10 2205.70 202.681  32
  -2   1  10 1970.64 181.123   4
  -2   1  10 1769.29 172.375  26
  -2   1  10 2420.51 218.194  25
  -2   1   9 642.694 116.604   4
   2  -1  -9 590.790 94.8741  32
   2  -1  -9 966.109 161.210  31
  -2   1   9 774.505 123.319  26
  -2   1   9 846.759 137.482  25
   2  -1  -8 951.878 152.870  20
  -2   1   8 1121.47 142.150  26
   2  -1  -8 1032.46 148.861  31
  -2   1   8 1027.89 148.305  25
   2  -1  -7 7181.34 946.064  52
  -2   1   7 6218.82 715.918  50
   2  -1  -6 65.2390 150.346  52
  -2   1   6 52.1529 93.2440  50
   2  -1  -5 618.741 227.183  52
  -2   1   5 618.569 197.369  50
  -2   1   5 552.629 182.069  51
  -2   1   4 1374.16 270.446  50
   2  -1  -4 1473.06 315.959  52
   2  -1  -3 15647.7 892.587  52
  -2   1   3 15940.3 803.505  50
  -2   1   3 13919.0 600.295  40
   2  -1  -2 1933.44 301.313  52
  -2   1   2 2042.32 260.209  50
   2  -1  -1 51360.7 851.239  48
  -2   1   1 52608.0 1451.56  41
   2  -1  -1 52094.8 1365.48  52
  -2   1   1 51685.2 1171.77  50
   2  -1   0 169945. 1732.17  48
  -2   1   0 174195. 2644.68  42
  -2   1   0 173538. 2618.82  41
   2  -1   0 170205. 2438.28  52
   2  -1   1 228.843 121.731   2
   2  -1   1 430.360 96.9183  48
  -2   1  -1 46.1404 100.854  42
  -2   1  -1 385.773 122.065  43
  -2   1  -2 15492.6 724.330  47
  -2   1  -2 14933.9 676.977  45
  -2   1  -2 14165.3 766.178  43
   2  -1   2 16495.5 684.859  48
  -2   1  -2 15702.5 708.804  46
   2  -1   2 14616.8 770.966   2
   2  -1   3 135.734 86.2948  48
  -2   1  -3 291.352 120.931  46
  -2   1  -3 226.624 82.6218  36
   2  -1   3 104.016 76.8081   2
  -2   1  -3 117.578 74.7336  45
   2  -1   3 208.305 82.7939  50
  -2   1  -3 162.364 109.060  44
   2  -1   4 27829.8 898.259  50
  -2   1  -4 32796.2 1322.56  45
   2  -1   4 30713.9 1200.96  48
  -2   1  -4 34374.0 1334.93  46
  -2   1  -4 29365.2 1001.13  36
   2  -1   4 27470.2 1111.50   2
  -2   1  -5 84403.2 2292.08  46
  -2   1  -5 82709.4 2306.14  45
   2  -1   5 72779.3 2022.13  48
  -2   1  -5 74897.7 1814.46  36
   2  -1   5 75011.4 1914.56   2
   2  -1   6 6842.47 671.501  48
  -2   1  -6 7083.05 715.456  45
  -2   1  -6 7509.18 637.564  36
  -2   1  -6 8020.16 763.432  46
  -2   1  -7 2942.51 510.708  49
  -2   1  -7 3407.22 538.603  46
  -2   1  -7 3236.90 465.967  36
   2  -1   7 2931.89 470.384  48
  -2   1  -7 3280.54 530.193  45
  -2   1  -8 1449.97 394.164  49
  -2   1  -8 1623.70 364.622  36
   2  -1   8 1614.82 150.586   4
  -2   1  -8 1908.22 436.837  45
   2  -1   8 2252.68 271.052  10
  -2   1  -8 1883.70 430.770  46
   2  -1   8 1540.11 365.440  48
  -2   1  -9-3.72332 152.063  45
   2  -1   9 82.5311 82.1321  10
  -2   1  -9 88.2880 117.467  36
   2  -1   9-28.2145 73.9509   9
   2  -1   9 29.6815 47.5166   4
  -2   1 -10 463.571 213.285  45
   2  -1  10 534.527 143.451  10
   2  -1  10 410.797 111.361   9
  -2   1 -10 302.845 211.870  44
   2  -1  10 321.255 72.7041   4
   2  -1  11 1444.00 214.841  10
   2  -1  11 1155.94 130.209   4
   2  -1  12 185.216 94.1881  10
  -2   1 -12 58.9711 46.9813  32
   2  -1  12 140.806 53.7419   4
   2  -1  13 49.4098 63.6355  10
   2   0 -13 138.255 53.8652  31
   2   0 -13 241.843 63.0698  32
  -2   0  13 154.724 47.4309  25
   2   0 -12 289.719 77.6379  32
   2   0 -12 247.930 78.7660  31
  -2   0  12 277.790 74.4051  25
   2   0 -11 4447.01 285.583  32
   2   0 -11 3648.84 266.544  31
  -2   0  11 3910.00 250.566  26
  -2   0  11 3906.65 254.481  25
  -2   0  10 59.1741 65.6667  26
   2   0 -10-64.9943 93.8944  31
   2   0 -10 30.8715 83.9464  32
  -2   0  10 46.9337 63.5800  25
   2   0  -9 2213.57 205.360  32
   2   0  -9 1982.97 214.241  31
  -2   0   9 2134.50 204.596  26
  -2   0   9 1987.65 213.164  25
   2   0  -8 1090.13 143.125  32
   2   0  -8 1348.60 167.477  31
  -2   0   8 1307.17 155.232  26
  -2   0   8 1164.79 156.061  25
  -2   0   7 92.0284 146.795  50
   2   0  -7-63.4785 145.069  49
   2   0  -6 620.451 268.988  49
  -2   0   6 755.414 235.171  50
   2   0  -5-39.7278 83.8518  49
  -2   0   5 24.9550 82.3295  50
  -2   0   4 239.092 138.229  50
   2   0  -4 139.256 143.953  49
   2   0  -3 520.231 174.065  49
  -2   0   3 508.915 125.433  39
  -2   0   3 581.126 177.533  50
   2   0  -2 52133.3 1354.07  52
  -2   0   2 50005.9 1208.40  40
  -2   0   2 49002.3 1389.25   1
   2   0  -1 414865. 3717.21  52
  -2   0   1 413026. 4436.21   1
  -2   0   1 410300. 4025.65  40
  -2   0   0 336181. 2368.44  46
   2   0   0 344107. 2950.63  52
  -2   0  -1 333781. 3538.02  42
   2   0   1 331376. 2551.28  48
  -2   0  -1 335919. 3851.13   1
   2   0   2 8372.59 420.152  48
   2   0   2 7953.03 462.169  50
   2   0   2 8338.08 591.399   2
  -2   0  -2 7294.37 498.839   1
  -2   0  -2 7927.27 522.429  47
   2   0   3 18784.5 764.178  50
   2   0   3 18897.8 773.033  48
   2   0   3 20608.3 954.037   2
   2   0   4 4131.25 397.738  50
   2   0   4 4127.16 391.304  48
   2   0   4 4698.48 475.728   2
   2   0   5 27889.7 1102.90  50
   2   0   5 28649.4 1176.90  48
  -2   0  -5 30646.7 1310.33  49
   2   0   6 5590.18 532.636  50
  -2   0  -6 6156.73 640.003  49
  -2   0  -6 5583.46 454.211  37
  -2   0  -6 7133.95 587.719  35
   2   0   6 6047.14 586.839  48
  -2   0  -7 27199.5 1248.92  33
   2   0   7 22085.5 1159.83  50
   2   0   7 22303.8 1223.91  48
  -2   0  -7 27877.4 1255.37  35
  -2   0  -7 20148.8 1266.97  49
  -2   0  -7 25606.1 1420.41  46
  -2   0  -8 551.992 261.103  49
  -2   0  -8 560.896 257.380  46
  -2   0  -8 542.591 219.429  36
  -2   0  -8 629.742 216.053  33
   2   0   8 710.307 256.264  48
  -2   0  -8 627.196 227.842  35
   2   0   9 2183.52 179.020   4
   2   0   9 2400.13 219.022   3
  -2   0  -9 2467.77 503.114  46
   2   0   9 2017.46 226.071   9
  -2   0  -9 1959.75 413.117  36
  -2   0  -9 2208.32 419.568  33
   2   0   9 2313.36 248.624  10
   2   0   9 1833.11 179.398  25
  -2   0 -10 4652.14 663.594  36
  -2   0 -10 4741.06 644.082  33
   2   0  10 4833.63 376.271  10
   2   0  10 4397.43 337.529   9
   2   0  10 4071.74 250.215   4
   2   0  11 26647.5 807.001   9
   2   0  11 23658.8 620.104   4
   2   0  11 25610.2 868.323  10
   2   0  12 9837.52 516.334  10
   2   0  12 8828.75 349.003   4
   2   0  13 1573.13 127.990   4
  -2   0 -13 1905.32 151.612  32
   2   1 -13 173.293 54.6464  32
   2   1 -12-59.5029 60.7454  32
   2   1 -12-18.3664 44.9966  31
  -2  -1  12 29.0593 40.6995  25
  -2  -1  11 403.857 110.786  10
   2   1 -11 654.597 130.843  32
   2   1 -11 596.804 111.505  31
  -2  -1  11 399.719 94.4714  25
   2   1 -10 2607.95 230.670  31
   2   1 -10 3423.61 262.378  32
  -2  -1  10 2717.84 228.722  26
  -2  -1  10 2763.91 234.815  25
   2   1  -9 298.090 128.667  32
   2   1  -9 97.3505 68.5761  31
  -2  -1   9 143.727 76.9547  26
  -2  -1   9 80.8337 59.5536  25
   2   1  -8 63.7291 60.8147  31
   2   1  -8 131.943 83.6972  32
  -2  -1   8-18.9930 59.2313  26
  -2  -1   8 6.99814 60.2204  25
  -2  -1   7 2768.52 472.846  50
   2   1  -7 3433.34 656.816  49
  -2  -1   6 313.314 173.075  50
   2   1  -6 224.426 173.501  49
  -2  -1   5 40839.2 1546.57  50
   2   1  -5 46275.9 1843.07  49
   2   1  -4 22053.3 1099.58  49
  -2  -1   4 18992.3 867.020   1
  -2  -1   4 21795.7 1055.79  50
   2   1  -3 5333.82 465.289  49
  -2  -1   3 5034.05 472.430   1
  -2  -1   2 15474.5 485.179  48
   2   1  -2 14435.7 697.998  17
   2   1  -2 12036.6 609.087  49
  -2  -1   2 12663.2 627.533  39
   2   1  -2 11927.1 684.957   2
   2   1  -1 439476. 4373.93   2
  -2  -1   1 437343. 4117.03  40
  -2  -1   1 436383. 4020.58  39
   2   1   0 177676. 1380.25  52
  -2  -1   0 181304. 1355.20  48
  -2  -1  -1 40515.3 1145.29  47
  -2  -1  -1 42460.0 1126.94  41
  -2  -1  -1 40982.4 1179.94  40
  -2  -1  -1 39522.3 996.922  42
   2   1   1 41329.6 1284.48   2
  -2  -1  -2 0.35017 30.4012  49
   2   1   2 23.4021 92.2037   2
   2   1   2-26.4741 62.4462  50
   2   1   3 2407.31 307.583  50
  -2  -1  -3 2488.13 263.954  49
   2   1   3 2784.29 377.457   2
  -2  -1  -4 2991.34 349.340  49
   2   1   4 3295.49 422.001   2
   2   1   4 2638.62 332.355  50
  -2  -1  -5 14998.0 771.285  37
   2   1   5 15832.6 901.950  50
  -2  -1  -5 17531.1 963.213  49
  -2  -1  -6 369.566 161.422  49
  -2  -1  -6 386.901 152.421  34
  -2  -1  -6 175.296 98.1639  37
   2   1   6 535.572 191.095  50
  -2  -1  -7 327.468 162.971  34
   2   1   7 210.659 146.855  50
  -2  -1  -7 343.178 221.404  49
  -2  -1  -7 348.373 148.929  35
  -2  -1  -8 655.300 206.602  35
   2   1   8 675.368 240.849  50
   2   1   9 298.645 97.6342   9
  -2  -1  -9 433.796 254.480  46
  -2  -1  -9 311.151 197.467  33
  -2  -1  -9 218.343 130.923  35
   2   1   9 391.757 104.318   3
   2   1   9 307.653 99.8850  10
   2   1   9 230.421 73.5843  25
   2   1   9 241.092 72.6252   4
   2   1  10 503.154 108.526  25
  -2  -1 -10 528.937 303.822  36
  -2  -1 -10 245.333 167.661  33
   2   1  10 546.955 150.587  10
   2   1  10 587.315 110.345   4
   2   1  11 3048.81 303.888  10
  -2  -1 -11 3676.29 588.904  33
   2   1  11 3504.35 244.812   4
   2   1  12 746.404 147.292  10
   2   1  12 592.800 101.636   4
   2   1  13 565.797 84.2566   4
  -2  -1 -14 382.806 61.0299  32
   2   1  14 366.701 54.6509   4
   2   2 -12 117.981 62.2145  32
  -2  -2  12 49.6382 50.8407  10
   2   2 -11 254.766 96.5959  32
  -2  -2  11-10.2986 53.2841  10
   2   2 -10 3624.34 271.132  32
   2   2 -10 3303.21 586.107  17
  -2  -2  10 3899.77 253.803  25
   2   2  -9 374.663 128.954  32
   2   2  -9 363.019 267.527  17
   2   2  -9 368.931 95.2099  31
  -2  -2   9 346.024 90.3843  16
  -2  -2   9 328.634 99.1352  26
   2   2  -8 78.3963 212.599  17
   2   2  -8 150.877 91.6444  32
   2   2  -8 261.673 96.6166  31
  -2  -2   8 70.6478 62.7350  16
  -2  -2   8 58.1232 63.2035  26
  -2  -2   7 603.892 231.642  50
   2   2  -7 812.259 128.855  32
   2   2  -7 911.564 361.343  49
  -2  -2   7 729.624 122.918  16
   2   2  -7 755.367 118.427  31
  -2  -2   7 791.108 124.288  26
  -2  -2   6 12951.7 937.482  50
   2   2  -6 16780.8 1270.07  49
  -2  -2   5 28467.4 1301.00  50
   2   2  -5 35204.2 1637.75  49
  -2  -2   4 5204.13 522.449  50
   2   2  -4 4879.34 534.312  49
   2   2  -4 5533.79 552.452  17
  -2  -2   4 4920.72 503.104   1
   2   2  -3 26194.9 1048.61  49
   2   2  -3 26884.7 1128.31  17
  -2  -2   3 27267.1 895.568  38
   2   2  -2 13781.2 647.092  49
  -2  -2   2 14592.9 573.422  48
  -2  -2   2 14423.7 652.211  38
   2   2  -2 16709.4 830.039  17
   2   2  -2 14896.7 755.422   2
   2   2  -1 1605.01 168.668  49
  -2  -2   1 2255.67 199.721  48
  -2  -2   1 1857.10 236.889  38
   2   2  -1 2071.89 304.449   2
   2   2   0 1865.76 267.164  17
  -2  -2   0 1602.93 236.685  39
  -2  -2   0 1577.91 229.737  38
  -2  -2   0 1535.10 171.209  48
   2   2   0 1612.46 287.043   2
  -2  -2  -1 11104.4 623.975  38
  -2  -2  -1 11446.0 603.748  47
  -2  -2  -1 9704.15 576.035  39
   2   2   1 12997.9 694.600  17
   2   2   1 12793.0 796.631   2
   2   2   2 21040.5 980.088  50
  -2  -2  -2 19192.5 789.699  40
  -2  -2  -2 21735.6 912.301  38
   2   2   2 23290.3 1122.04   2
  -2  -2  -2 19491.7 808.964  39
  -2  -2  -3 28280.2 1071.70  38
   2   2   3 27904.4 1165.70  50
  -2  -2  -3 26147.9 946.775  40
  -2  -2  -3 26291.7 960.182  39
  -2  -2  -4 15926.6 849.354  37
   2   2   4 15168.3 898.172  50
  -2  -2  -4 14773.6 773.323  38
   2   2   5 26943.1 1269.95  50
  -2  -2  -5 29307.6 1187.18  37
  -2  -2  -6 2062.16 358.729  34
   2   2   6 1901.68 359.920  50
  -2  -2  -6 1908.68 327.732  37
   2   2   7 158.095 168.390  50
  -2  -2  -7 236.611 145.396  34
   2   2   8 478.643 201.938  50
   2   2   8 702.196 115.390   3
  -2  -2  -8 725.310 239.290  34
  -2  -2  -8 806.557 253.089  35
   2   2   8 906.634 131.200  13
   2   2   9 20134.0 585.245  11
   2   2   9 19267.5 628.966   3
  -2  -2  -9 20451.5 1341.49  35
  -2  -2  -9 20789.9 1372.46  33
   2   2   9 18821.6 699.528  10
   2   2   9 20487.0 607.150   4
   2   2  10 45396.4 901.169  11
   2   2  10 44314.3 989.575   3
  -2  -2 -10 47674.9 2133.87  35
  -2  -2 -10 46347.6 2113.01  33
   2   2  10 43578.8 1088.51  10
   2   2  10 46421.8 946.829   4
  -2  -2 -11 8459.69 893.363  33
   2   2  11 9278.44 405.214   4
   2   2  11 8690.56 373.447  25
   2   2  12 286.076 79.7567   4
  -2  -2 -13 126.847 55.0115  31
   2   2  13 105.378 50.0612   4
   2   2  14-30.1542 29.6628   4
  -2  -3  12 7.61077 33.5946  10
   2   3 -12-28.1740 44.2182  32
   2   3 -11 988.729 135.228  32
  -2  -3  11 784.721 141.287  10
   2   3 -10 194.418 72.2311  24
  -2  -3  10 102.385 66.2196  16
   2   3  -9 692.152 300.612  17
  -2  -3   9 834.375 137.026  16
   2   3  -9 1231.56 177.338  32
   2   3  -8 276.912 214.993  17
   2   3  -8 375.608 108.647  32
  -2  -3   8 383.255 109.108  16
  -2  -3   8 432.228 118.553  26
   2   3  -7 78.5399 67.0241  32
  -2  -3   7 383.272 101.622  16
   2   3  -7-21.7787 193.069  17
  -2  -3   7 194.206 80.8344  26
   2   3  -6 2410.64 466.302  17
  -2  -3   6 2847.69 240.657  16
   2   3  -6 2683.88 214.390  32
  -2  -3   6 2231.69 204.205  26
   2   3  -6 3212.16 216.974  24
  -2  -3   5 4242.65 504.297  50
   2   3  -5 4397.92 571.622  17
  -2  -3   4 25353.4 1185.93  50
   2   3  -4 27213.8 1319.82  17
  -2  -3   3 20976.6 428.506  30
   2   3  -3 20336.9 1072.93  17
  -2  -3   2-12.7584 65.8394  48
   2   3  -2 12.5680 121.221  17
  -2  -3   2 31.5790 30.8264  30
  -2  -3   1 1806.87 239.293  48
  -2  -3   1 2278.07 238.346  37
  -2  -3   1 2152.51 129.568  30
  -2  -3   1 2117.82 296.998  38
   2   3  -1 2136.75 331.251  17
  -2  -3   0 2515.55 284.369  37
  -2  -3   0 1765.16 273.336  38
  -2  -3   0 2114.87 261.002  48
   2   3   0 2416.12 364.720   2
   2   3   0 2083.45 323.524  17
  -2  -3   0 1982.87 125.716  30
   2   3   1 41.8691 66.7059  29
  -2  -3  -1 176.205 96.6777  48
  -2  -3  -1 186.997 87.5237  38
  -2  -3  -1 52.8708 68.3526  37
   2   3   1 166.034 135.008   2
  -2  -3  -1 216.877 46.5133  30
   2   3   1 82.7493 112.573  17
  -2  -3  -1 135.492 66.6308  47
   2   3   2 6709.97 588.112  17
   2   3   2 6580.86 618.654  50
  -2  -3  -2 7858.27 597.939  37
  -2  -3  -2 6856.37 565.032  38
  -2  -3  -2 6886.70 246.364  30
   2   3   2 5788.71 510.610  29
  -2  -3  -2 6648.68 518.304  47
  -2  -3  -3 414.271 158.613  38
   2   3   3 296.304 137.521  50
  -2  -3  -3 415.447 171.003  37
  -2  -3  -3 566.029 74.3930  30
   2   3   3 357.197 177.619  29
   2   3   4 6194.61 650.654  50
  -2  -3  -4 6340.40 569.833  38
  -2  -3  -4 6816.21 633.772  37
  -2  -3  -4 6340.58 246.236  30
   2   3   5 4435.98 558.739  50
   2   3   6 131.048 151.273  50
  -2  -3  -6 79.1309 120.233  34
   2   3   7 704.848 279.914  50
  -2  -3  -7 661.435 242.670  34
   2   3   8 5102.97 285.342  11
  -2  -3  -8 4835.06 631.192  34
  -2  -3  -8 4861.47 656.767  35
   2   3   8 5959.44 324.578   4
   2   3   8 5367.51 317.256   3
   2   3   8 4707.79 313.347  13
   2   3   9 742.913 131.484   4
   2   3   9 794.974 143.099   3
   2   3   9 671.743 117.995  11
  -2  -3  -9 945.035 327.453  35
   2   3   9 639.217 130.276  13
   2   3  10 187.518 60.3225   4
   2   3  10 677.680 160.766   3
  -2  -3 -10 252.767 186.305  35
   2   3  10 291.827 77.5605  11
  -2  -3 -10 511.774 267.676  33
  -2  -3 -11 308.580 223.919  33
   2   3  11-14.2814 48.5253   4
   2   3  12 65.1219 49.8173   4
  -2  -3 -13-12.7050 45.4133  31
   2   3  13 3.31896 30.3814   4
   2   4 -11 952.431 112.241  32
  -2  -4  11 730.279 101.885  16
  -2  -4  11 1043.11 132.221  10
   2   4 -11 971.381 96.9196  24
   2   4 -10 321.997 83.4377  32
  -2  -4  10 324.496 83.9211  16
   2   4  -9-57.2750 79.0644  24
   2   4  -9 96.4420 73.8018  32
  -2  -4   9 126.816 75.0530  16
   2   4  -8-52.8519 70.1356  24
  -2  -4   8 36.5666 58.1621  16
   2   4  -7 251.588 85.1821  24
   2   4  -7 441.819 116.058  32
   2   4  -7 543.161 329.548  17
  -2  -4   7 284.108 97.0209  16
   2   4  -6 3090.43 249.399  32
   2   4  -6 2670.18 508.387  17
  -2  -4   6 3529.66 281.274  16
   2   4  -6 2581.43 205.770  24
   2   4  -5 3786.83 266.334  32
  -2  -4   5 4278.01 293.120  16
   2   4  -5 3511.19 551.700  17
   2   4  -5 3605.09 231.869  24
   2   4  -4 1496.93 356.376  17
   2   4  -3 273.020 162.860  17
  -2  -4   3 142.223 49.7381  30
  -2  -4   2 10.3899 64.9480  48
   2   4  -2 17.1214 104.372  17
  -2  -4   2 24.3587 27.2368  30
  -2  -4   1 6689.90 556.040  48
   2   4  -1 7945.78 681.605  17
  -2  -4   1 7008.58 273.348  30
  -2  -4   0 7833.26 594.628  48
   2   4   0 9386.48 737.458  17
  -2  -4   0 8751.47 305.853  30
  -2  -4  -1 3530.72 199.663  30
   2   4   1 3459.67 431.012  29
  -2  -4  -1 3027.81 386.984  48
   2   4   1 3424.85 474.640  17
  -2  -4  -2 246.095 168.510  48
  -2  -4  -2 244.234 56.1632  30
   2   4   2 272.727 147.724  29
   2   4   3 7601.67 778.893  50
  -2  -4  -3 8085.07 315.578  30
   2   4   3 7607.64 705.870  29
   2   4   4 458.347 216.338  50
  -2  -4  -4 512.631 88.5411  30
   2   4   4 384.277 201.145  29
  -2  -4  -4 504.667 222.992  34
   2   4   5 441.853 229.938  50
  -2  -4  -5 313.077 189.046  34
   2   4   6 2056.41 460.559  50
  -2  -4  -6 2612.18 473.087  34
   2   4   7 24036.4 637.813  11
   2   4   7 24821.6 677.373   3
  -2  -4  -7 26293.1 1503.44  34
   2   4   7 24976.8 707.205  13
   2   4   8 27340.6 695.157  11
   2   4   8 29123.3 773.276   3
  -2  -4  -8 29411.8 1651.80  34
   2   4   8 27140.8 707.667   4
   2   4   8 27701.9 783.473  13
  -2  -4  -8 27245.3 1564.20  35
   2   4   9 16551.1 540.683  11
   2   4   9 18261.2 626.773   3
  -2  -4  -9 16047.2 574.630  18
  -2  -4  -9 17407.8 1293.59  35
   2   4   9 19456.4 601.493   4
   2   4   9 17815.6 633.366  13
   2   4  10 127.970 64.0695   4
  -2  -4 -10 44.2350 114.404  33
  -2  -4 -11 126.178 68.4226  20
   2   4  11 116.653 56.8171   4
  -2  -4 -12 246.566 75.0138  20
   2   4  12 394.980 78.2088   4
  -2  -4 -13 128.375 52.9112  31
   2   4  13 338.863 61.4480   4
   2   5 -10-8.42934 32.6505  24
  -2  -5  10-80.5923 50.6227  10
   2   5 -10-29.7908 36.0480  32
  -2  -5  10 36.3269 38.8258  16
   2   5  -9 73.5982 46.0127  24
   2   5  -9-83.7862 75.5608  32
  -2  -5   9 37.7981 52.2220  16
   2   5  -8 500.429 102.934  24
  -2  -5   8 300.964 106.184  16
   2   5  -8 264.972 80.9001  32
   2   5  -7 126.381 62.8984  24
  -2  -5   7 17.0742 73.0612  16
   2   5  -7-69.4130 81.5940  32
  -2  -5   7-11.8990 47.1894  14
  -2  -5   6 13031.2 553.258  16
   2   5  -6 13189.1 502.967  32
  -2  -5   6 12330.0 503.554  14
   2   5  -6 12332.4 467.662  24
  -2  -5   5 290.361 99.8034  16
   2   5  -5 272.230 80.1182  32
   2   5  -4 926.353 136.061  32
  -2  -5   4 1246.04 168.205  16
   2   5  -4 1465.59 164.276  24
   2   5  -3 427.446 93.8050  24
   2   5  -3 422.099 94.9627  32
  -2  -5   3 367.681 100.457  16
  -2  -5   2 1595.56 153.526  30
   2   5  -2 1163.90 310.840  17
  -2  -5   2 1560.23 152.621  27
   2   5  -2 1752.35 165.710  24
   2   5  -1 1102.01 293.743  17
  -2  -5   1 860.441 236.071  48
  -2  -5   1 1052.17 135.587  30
   2   5   0-44.4528 120.959  17
  -2  -5   0 41.5356 37.7787  30
  -2  -5  -1 351.508 164.072  48
  -2  -5  -1 585.657 98.2073  30
   2   5   1 383.740 200.912  29
  -2  -5  -2 3823.25 540.181  48
  -2  -5  -2 4755.87 602.980  34
  -2  -5  -2 4048.92 258.989  30
   2   5   2 4015.48 569.793  29
  -2  -5  -3 442.859 231.151  48
   2   5   3 276.591 191.232  29
  -2  -5  -3 169.625 157.974  34
  -2  -5  -3 373.720 89.2015  30
   2   5   4 1741.13 177.401  12
  -2  -5  -4 1745.43 396.615  34
   2   5   4 1834.32 450.010  50
  -2  -5  -4 1648.32 167.555  30
   2   5   4 1387.66 377.293  29
   2   5   5 2972.96 242.168  12
   2   5   5 3031.99 602.897  50
   2   5   5 3238.87 257.203  32
  -2  -5  -5 3319.16 545.309  34
   2   5   5 2969.40 237.366  13
  -2  -5  -6 5161.14 272.951   6
   2   5   6 5045.74 323.986  13
   2   5   7 1842.00 187.724  11
  -2  -5  -7 2012.78 459.173  34
   2   5   7 1935.45 214.070  13
   2   5   8 60.8416 53.6611  11
   2   5   8 344.348 105.041   3
  -2  -5  -8 164.237 119.554  35
   2   5   8 61.1124 68.0915  13
   2   5   9 474.817 93.5419   4
   2   5   9 512.226 100.968  11
  -2  -5  -9 353.045 237.750  33
  -2  -5  -9 430.653 97.6850  18
   2   5   9 499.740 116.820  13
  -2  -5 -10 1136.67 146.781  18
   2   5  10 1142.36 133.341   4
   2   5  10 1265.78 163.584  13
  -2  -5 -11 863.294 134.048  20
   2   5  11 840.469 107.247   4
  -2  -5 -12 14.5014 41.9539  20
   2   5  12-7.58802 27.7085   4
   2   6  -9-77.1444 42.8348  24
  -2  -6   9-24.9796 41.2046  16
  -2  -6   9 70.9075 47.0137  10
   2   6  -8-12.4880 34.3324  24
  -2  -6   8-6.57660 52.2708  16
   2   6  -7 4466.60 269.328  32
  -2  -6   7 4893.92 318.729  16
  -2  -6   7 4061.24 273.001  14
   2   6  -7 4500.48 265.683  24
   2   6  -6 716.481 121.770  24
   2   6  -6 599.693 116.209  32
  -2  -6   6 625.236 130.558  16
  -2  -6   6 419.464 102.033  14
   2   6  -5 185.188 73.8569  24
   2   6  -5 317.497 102.277  32
  -2  -6   5 75.1180 64.2661  16
  -2  -6   5 81.2636 59.8702  14
   2   6  -4-35.2406 59.0314  24
   2   6  -4 53.2178 60.0431  32
  -2  -6   4 25.3127 63.0557  16
  -2  -6   4-66.0957 85.0191  14
   2   6  -3 214.344 74.7480  24
  -2  -6   3 316.218 84.4038  19
   2   6  -3 301.039 87.7647  32
   2   6  -2 415.568 87.2565  24
  -2  -6   2 325.311 82.7233  19
   2   6  -2 465.225 105.207  32
  -2  -6   1 908.620 128.983  19
  -2  -6   1 1087.24 137.541   6
   2   6  -1 717.261 117.530  24
   2   6   0 157.575 86.4296  13
  -2  -6   0 43.5097 48.2804  19
  -2  -6  -1 133.919 72.4864  19
   2   6   1 174.633 75.2511  12
   2   6   2 297.149 83.2746  13
   2   6   2 221.438 78.2311  12
  -2  -6  -2 339.985 96.4398  19
   2   6   3 1470.46 178.972  12
  -2  -6  -3 1215.90 345.915  34
   2   6   3 1282.11 178.556  32
   2   6   3 1688.53 431.745  29
  -2  -6  -3 1374.10 172.660  19
  -2  -6  -3 1279.21 162.538   6
   2   6   3 1401.17 173.901  13
  -2  -6  -4 20140.5 629.566  19
   2   6   4 18996.9 629.347  32
   2   6   4 19643.4 1489.52  29
   2   6   4 20353.7 653.497  12
  -2  -6  -4 20271.2 620.580   6
   2   6   4 18869.8 634.202  13
  -2  -6  -5 25377.8 678.722  19
   2   6   5 25657.3 746.464  12
  -2  -6  -5 27472.3 717.242   6
   2   6   5 26685.4 764.438  13
  -2  -6  -6 5704.47 313.887   6
   2   6   6 6059.25 373.665  13
   2   6   7 9818.21 442.056  11
  -2  -6  -7 9641.25 394.521   6
   2   6   7 10365.6 486.825  13
   2   6   8 4779.69 296.519  11
  -2  -6  -8 5158.28 338.375  18
   2   6   8 5407.11 346.150  13
   2   6   9 382.640 84.7207  11
  -2  -6  -9 437.883 100.118  18
   2   6   9 547.453 114.713  13
  -2  -6 -10-2.58174 36.2644  18
  -2  -6 -10 41.8464 53.5564  20
   2   6  10-12.2833 48.8784  13
  -2  -6 -11 39.6162 41.9535  20
  -2  -6 -11 85.8995 40.9880  18
  -2  -7   7 748.026 109.958  16
  -2  -7   7 693.934 101.162  14
   2   7  -7 558.562 85.5372  24
  -2  -7   6 217.632 75.1237  16
  -2  -7   6 308.383 87.9694  14
   2   7  -6 295.800 71.3590  24
  -2  -7   5 42.2230 54.0225  16
  -2  -7   5-16.8346 56.3851  14
   2   7  -5 44.8602 58.3032  24
  -2  -7   4 29.0843 58.8297  14
   2   7  -4-2.53518 63.3759  24
  -2  -7   3 417.841 110.091  14
   2   7  -3 176.324 64.1809  24
  -2  -7   2-20.7544 61.6591  14
   2   7  -1 97.3203 64.8351  13
  -2  -7   1 70.3224 71.0416  14
   2   7   0 5645.08 361.233  12
  -2  -7   0 5845.37 381.882  14
  -2  -7   0 5468.02 295.434   6
   2   7   0 5343.88 334.814  13
   2   7   1-7.86904 61.8470  13
  -2  -7  -1 22.2696 66.5303  19
   2   7   1-29.8728 65.5670  12
  -2  -7  -1-37.8630 61.4982  14
  -2  -7  -1 20.0088 62.4298   6
   2   7   2 377.655 88.1017  13
   2   7   2 358.507 93.6061  12
  -2  -7  -2 388.561 116.127  19
  -2  -7  -2 350.932 100.865   6
  -2  -7  -3 3384.40 272.263   6
   2   7   3 2952.23 257.981  13
   2   7   3 3174.47 266.910  12
   2   7   4 1935.82 215.629  12
  -2  -7  -4 2440.05 236.836   6
   2   7   4 2011.65 216.231  13
  -2  -7  -5 6948.83 375.091   6
   2   7   5 6337.50 376.049  13
   2   7   6 704.869 138.570  13
  -2  -7  -6 660.466 123.827   6
   2   7   7 456.959 98.7109  11
  -2  -7  -7 407.865 113.114  18
  -2  -7  -7 453.035 96.6898   6
   2   7   7 365.768 102.792  13
   2   7   8-36.2757 50.7041  11
  -2  -7  -8 21.6438 54.7607  18
  -2  -7  -8 13.8472 51.8801  20
   2   7   8 12.3079 48.8014  13
  -2  -7  -9 377.597 91.3563  20
  -2  -7  -9 266.562 71.9097  18
   2   7   9 412.269 94.6982  13
  -2  -7 -10 62.4062 44.5459  20
  -2  -7 -10 13.2905 32.5414  18
   2   8  -5 86.7580 49.4793  12
  -2  -8   5 77.4828 44.5373  14
   2   8  -4 27.5683 47.2154  12
  -2  -8   4-46.1647 53.4581  14
   2   8  -3 310.472 82.0762  12
  -2  -8   3 97.8296 61.4334  14
   2   8  -2 1752.15 180.343  12
  -2  -8   2 1605.70 193.518  14
   2   8  -1 1215.50 158.342  12
  -2  -8   1 1314.16 178.907  14
   2   8  -1 1069.55 135.246  13
   2   8   0 227.519 69.5370  13
   2   8   0 224.694 78.0294  12
  -2  -8   0 165.513 79.9299  15
  -2  -8   0 219.956 96.2634  14
  -2  -8   0 169.362 61.9203   6
   2   8   1 74.8443 54.4878  13
   2   8   1 23.6282 48.9006  12
  -2  -8  -1 68.1684 54.8961   6
   2   8   2-53.4777 69.6517  13
   2   8   2 0.52183 50.5623  12
  -2  -8  -2 94.5077 69.6833   6
   2   8   3-57.5290 63.2574  13
   2   8   3 142.211 64.3889  12
  -2  -8  -3 91.2661 69.2941   6
  -2  -8  -4 4508.87 306.088  18
  -2  -8  -4 4665.57 311.497   6
  -2  -8  -5 9984.32 446.258  18
  -2  -8  -5 9561.67 420.979   6
   2   8   6 764.775 109.067  11
  -2  -8  -6 1073.74 144.440  18
   2   8   6 820.671 121.496  13
   2   8   7-17.7127 38.7293  11
  -2  -8  -7-5.66937 48.3538  20
  -2  -8  -7-48.7977 45.1120  18
   2   8   7-21.2315 44.0571  13
  -2  -8  -8 87.7684 46.4304  18
   2   8   8 172.696 53.3397  13
   2   9  -1 187.730 57.2228  12
  -2  -9   1 299.955 69.8660   7
   2   9   0 15.8379 32.7771  12
  -2  -9   0 50.1203 52.7905   7
   2   9   1 59.8245 33.4806  13
   2   9   1 64.1258 43.7887  12
  -2  -9  -1 107.111 64.3422   7
   2   9   2 38.7342 33.4387  13
  -2  -9  -2 243.747 89.6698   7
  -2  -9  -3 1128.70 156.205   7
   2   9   3 964.499 104.848  13
   2   9   4 367.026 69.0252  13
  -2  -9  -4 290.345 79.3088   7
  -3   8   3-0.70271 37.3373  23
   3  -8  -3 84.8347 47.7908   5
  -3   8   2 630.260 102.168  23
   3  -8  -2 556.319 91.6454   5
   3  -8  -2 663.618 114.744   7
  -3   8   1 77.9626 55.4045  23
   3  -8  -1 90.9004 54.1027   7
   3  -8   0 10.1309 40.3152   7
  -3   8   0 41.8569 43.5174  23
  -3   8  -1 65.0482 46.8774  23
   3  -8   1-3.53457 35.6602   7
   3  -8   2 28.1380 36.1969   7
  -3   8  -2 13.0306 36.0563  23
  -3   7   6 148.395 56.7554  23
   3  -7  -6 241.383 69.3966  18
  -3   7   5-34.1895 53.3327  23
   3  -7  -5 45.8730 41.1377  18
  -3   7   4 182.498 69.2087  23
   3  -7  -4 122.040 59.3698   7
  -3   7   3 5194.20 305.297  23
   3  -7  -3 5514.96 354.852   7
  -3   7   2 10720.5 455.061  23
   3  -7  -2 11407.8 529.011   7
  -3   7   1 6759.13 367.412  23
   3  -7  -1 6460.66 405.528   7
   3  -7   0 76.9110 66.9744   5
   3  -7   0 19.4461 65.6536   7
  -3   7   0-27.0232 64.9525  23
  -3   7  -1 1575.49 193.042  23
   3  -7   1 1331.57 187.404   8
   3  -7   1 1135.04 168.279   7
  -3   7  -2 724.557 125.508  13
   3  -7   2 542.503 118.164   7
  -3   7  -2 550.848 123.022  23
   3  -7   2 512.002 123.616   8
  -3   7  -3 659.853 126.558  13
  -3   7  -3 562.572 121.862  23
   3  -7   3 489.934 122.468   8
   3  -7   3 540.049 110.369   7
  -3   7  -4 525.191 110.320  23
  -3   7  -4 542.565 113.669  21
   3  -7   4 435.334 116.632   8
   3  -7   4 438.134 93.9040   7
  -3   7  -5 68.5725 59.9458  23
  -3   7  -5 53.2142 53.0191  21
   3  -7   5 199.173 79.0535   8
  -3   7  -6 13.8723 39.7926  23
  -3   7  -6 68.7173 54.4040  21
   3  -7   6-3.48034 44.1459   8
  -3   6   8-7.14488 29.4553   4
   3  -6  -8-92.2242 55.0203  20
   3  -6  -8-5.63894 40.6853  18
  -3   6   8 25.1272 32.6824  25
  -3   6   7 15.0007 57.4856  23
   3  -6  -7 101.627 54.7783  20
   3  -6  -7 108.278 56.2963  18
  -3   6   7 109.797 45.2203  25
  -3   6   6 467.930 104.779  23
   3  -6  -6 570.270 112.307  18
   3  -6  -6 524.088 105.232  20
  -3   6   6 380.158 75.7019  25
  -3   6   5 392.978 109.667  23
   3  -6  -5 271.767 86.0801  18
  -3   6   5 416.338 92.2460  25
  -3   6   4 1114.57 163.850  23
   3  -6  -4 1131.84 151.982  18
   3  -6  -4 742.394 147.582   7
  -3   6   4 1265.13 157.885  25
  -3   6   3 2701.74 250.644  23
   3  -6  -3 2726.08 289.143   7
  -3   6   3 2414.78 215.259  25
  -3   6   2 1945.40 212.174  23
   3  -6  -2 1836.48 242.825  15
   3  -6  -2 1958.18 251.112   7
  -3   6   2 1785.61 189.398  25
  -3   6   1-18.3592 72.9174  23
  -3   6   1-62.4320 220.112  29
   3  -6  -1 72.7230 88.0004   7
   3  -6  -1 98.6451 94.7861  15
  -3   6   1-93.6512 78.0243  25
  -3   6   0 200.403 232.299  29
   3  -6   0 128.026 85.0165   7
   3  -6   0 350.826 122.714  15
  -3   6   0 49.3205 69.6391  23
  -3   6   0 178.049 79.2201  25
  -3   6  -1 1669.17 205.290  23
  -3   6  -1 1238.39 174.068  21
   3  -6   1 1644.51 228.643   7
  -3   6  -1 1797.57 502.525  29
   3  -6   1 1320.03 216.798  15
  -3   6  -1 1016.10 171.988  25
  -3   6  -2 36.3632 65.3826  23
  -3   6  -2-65.9908 103.928  21
  -3   6  -2-0.75813 208.335  29
   3  -6   2-42.5376 60.1291   7
   3  -6   2 63.8495 88.3752  15
  -3   6  -3 2765.57 279.760  23
  -3   6  -3 2612.47 260.101  21
   3  -6   3 2388.35 262.220   7
   3  -6   3 2309.33 270.851  15
  -3   6  -4 9444.38 493.125  23
  -3   6  -4 8219.51 408.882  22
  -3   6  -4 9084.70 477.789  21
   3  -6   4 8643.87 530.072   8
   3  -6   4 7541.48 432.771   7
   3  -6   4 7711.65 476.710  15
  -3   6  -5 1494.21 170.740  22
  -3   6  -5 1563.25 199.073  21
   3  -6   5 1548.10 227.359   8
   3  -6   5 1326.41 193.539  15
  -3   6  -6 1136.15 164.895  23
  -3   6  -6 754.889 120.253  22
  -3   6  -6 1028.81 165.283  21
   3  -6   6 833.606 164.512   8
  -3   6  -7-65.3111 67.3610  22
  -3   6  -7 78.9926 59.7811  21
  -3   6  -7 155.490 71.2475  23
   3  -6   7-40.6790 57.3174   8
  -3   6  -8-100.138 58.3619  22
  -3   6  -8-9.96461 40.6635  21
   3  -6   8 14.4897 47.2952   8
  -3   5  10 39.1027 33.6242   4
   3  -5 -10 89.5530 50.2273  20
  -3   5  10-6.08042 28.0719  25
  -3   5   9 16.4360 36.5233   4
   3  -5  -9 18.0819 51.1263  20
  -3   5   9 44.8772 39.9202  25
   3  -5  -9-11.7350 43.3453  18
   3  -5  -8 9.76330 59.0167  20
   3  -5  -8 9.78519 58.3346  18
  -3   5   8-14.7242 46.5747  25
  -3   5   7-0.24843 70.5314  23
   3  -5  -7 6.87771 62.8590  18
   3  -5  -7-33.9865 66.5735  20
  -3   5   7-94.5764 71.3947  25
  -3   5   6 153.005 79.8816  23
   3  -5  -6 365.941 106.579  20
   3  -5  -6 226.224 89.8821  18
  -3   5   6 144.215 70.7803  25
  -3   5   5 5950.03 372.466  23
   3  -5  -5 6394.88 380.026  20
   3  -5  -5 6188.54 386.826  18
  -3   5   5 6450.28 360.826  25
  -3   5   4 45235.0 1001.76  23
   3  -5  -4 44342.8 974.492  20
   3  -5  -4 44747.2 1115.50   7
   3  -5  -4 43719.2 1008.81  18
  -3   5   4 42136.4 963.859  25
  -3   5   3 9810.69 461.424  23
   3  -5  -3 10001.9 458.330  18
   3  -5  -3 10105.7 548.358   7
  -3   5   3 9542.44 454.210  25
  -3   5   2 1527.15 186.532  23
   3  -5  -2 1500.82 216.860   7
  -3   5   2 1121.18 323.303  29
   3  -5  -2 1522.36 215.309  15
  -3   5   2 1374.86 184.021  25
  -3   5   1-7.79375 68.6949  23
   3  -5  -1-18.3397 63.1155  15
  -3   5   1 234.684 187.735  29
   3  -5  -1-34.8158 78.8771   7
  -3   5   1-78.9854 90.6691  25
  -3   5   0 1435.84 177.101  23
  -3   5   0 1572.05 410.155  29
   3  -5   0 1368.02 206.399   7
   3  -5   0 1589.51 233.496  15
  -3   5   0 1198.18 159.899  21
  -3   5  -1 141.912 84.4125  23
  -3   5  -1-42.9325 70.2430  21
  -3   5  -1 145.201 195.435  29
   3  -5   1 6.57700 65.4428   7
   3  -5   1 95.0111 85.6387  15
  -3   5  -2 279.370 110.425  23
  -3   5  -2 103.686 73.4042  21
  -3   5  -2-5.64025 192.371  29
   3  -5   2 71.1538 68.1423   7
   3  -5   2 100.668 93.1140  15
  -3   5  -3 2558.54 247.141  21
   3  -5   3 2371.25 262.982   7
  -3   5  -3 2237.19 513.424  29
   3  -5   3 2769.36 304.372  15
  -3   5  -3 2463.75 211.467  22
  -3   5  -4 2275.54 214.271  22
  -3   5  -4 2223.51 245.707  21
   3  -5   4 2270.22 254.566   7
   3  -5   4 2321.23 278.525  15
  -3   5  -4 1786.04 489.859  29
  -3   5  -5 8521.26 458.640  21
  -3   5  -5 9124.94 428.637  22
   3  -5   5 8709.99 558.287   8
   3  -5   5 7664.15 463.123  16
  -3   5  -5 7937.23 1000.78  29
   3  -5   5 7391.64 469.374  15
  -3   5  -6 4920.74 319.845  22
   3  -5   6 5051.68 413.651   8
   3  -5   6 4293.53 341.406  16
  -3   5  -6 4626.76 782.698  29
  -3   5  -7 771.707 150.773  22
   3  -5   7 145.328 90.2713   8
  -3   5  -8 1612.67 165.617  22
   3  -5   8 1252.10 199.142   8
  -3   5  -9 316.180 76.0071  22
  -3   5  -9 442.060 100.037  21
  -3   5 -10 1099.01 102.311  22
  -3   5 -10 973.718 106.539  21
   3  -5  10 912.303 114.758   9
  -3   4  11 140.343 43.1722   4
  -3   4  11 130.941 41.7051  25
   3  -4 -11 179.854 59.2278  20
  -3   4  10 183.116 63.1258   4
   3  -4 -10 211.085 71.9444  20
  -3   4  10 253.454 70.9533  25
   3  -4  -9 38.9989 58.6764  20
   3  -4  -9 30.7888 50.5198  18
  -3   4   9 37.2777 47.3420  25
   3  -4  -8 1183.01 179.921  20
   3  -4  -8 1018.20 169.500  18
  -3   4   8 932.864 144.342  25
  -3   4   7 546.561 120.553  23
   3  -4  -7 565.034 135.957  20
   3  -4  -7 656.394 146.012  18
  -3   4   7 553.105 111.720  25
  -3   4   6 121.600 75.4453  23
   3  -4  -6 219.183 94.7937  20
   3  -4  -6 242.500 92.7129  18
  -3   4   6 115.150 78.3281  25
  -3   4   5 63.8993 63.3179  23
   3  -4  -5 156.816 91.2209  20
   3  -4  -5 59.3145 73.1669  18
  -3   4   5 113.817 94.0966  25
  -3   4   4 936.459 152.237  23
   3  -4  -4 1096.24 167.003  20
   3  -4  -4 1096.76 164.060  18
  -3   4   4 1026.71 165.175  25
  -3   4   3 499.728 111.678  23
   3  -4  -3 724.934 128.245  20
   3  -4  -3 490.820 106.474  18
   3  -4  -3 597.855 126.744   7
  -3   4   3 594.938 126.982  25
  -3   4   2 2587.22 224.927  23
   3  -4  -2 2967.45 275.163   7
   3  -4  -2 2973.58 279.664  15
  -3   4   2 2351.19 489.218  51
  -3   4   2 2561.22 236.893  25
  -3   4   1-60.9241 141.894  51
  -3   4   1 4.76382 188.787  29
   3  -4  -1 53.0992 50.6756   7
   3  -4  -1 274.194 102.526  15
  -3   4   0 1360.72 357.811  51
  -3   4   0 677.522 255.893  29
   3  -4   0 1065.61 179.867  15
  -3   4  -1 33329.3 1833.51  41
  -3   4  -1 33291.1 1609.16  29
   3  -4   1 34375.7 971.449  15
  -3   4  -1 34907.4 1768.34  51
  -3   4  -2 15932.5 1183.00  51
  -3   4  -2 14569.9 488.392  21
   3  -4   2 14533.4 602.414   7
  -3   4  -2 15125.9 1100.65  29
   3  -4   2 15475.4 650.769  15
  -3   4  -2 16429.2 1254.65  42
  -3   4  -3 3540.70 624.620  42
  -3   4  -3 3229.96 252.335  21
   3  -4   3 3373.64 296.988  16
   3  -4   3 3265.24 286.158   7
  -3   4  -3 3315.63 536.311  29
   3  -4   3 3359.33 308.512  15
   3  -4   3 3765.71 585.984  48
  -3   4  -4 9307.24 389.611  22
   3  -4   4 8159.41 467.624  16
   3  -4   4 7690.30 433.558   7
  -3   4  -4 8881.92 966.959  29
   3  -4   4 7905.29 468.973  15
  -3   4  -4 7909.40 1027.15  42
  -3   4  -5 20429.8 1647.17  42
   3  -4   5 17875.0 779.053   8
   3  -4   5 17090.1 694.625  16
  -3   4  -5 19694.4 1490.44  29
   3  -4   5 16138.1 673.173  15
  -3   4  -6 2526.27 619.476  42
   3  -4   6 3061.84 324.339   8
   3  -4   6 3147.05 304.538  16
  -3   4  -6 3702.32 728.349  29
   3  -4   7 1367.40 219.589   8
   3  -4   7 1155.28 190.876  16
  -3   4  -7 1189.97 408.417  29
   3  -4   8 3365.37 313.718   8
   3  -4   8 4064.16 338.138  16
   3  -4   9 1186.55 171.693   8
   3  -4  10 151.818 72.2633   9
  -3   4 -11 647.330 92.9106  22
   3  -4  11 59.9440 44.9587   9
   3  -3 -11 6.09052 46.0052  20
   3  -3 -11-1.18582 41.1538  31
  -3   3  11-2.16506 31.5338   4
  -3   3  11-2.70677 39.1115  25
  -3   3  10-27.1764 43.7336   4
   3  -3 -10 14.7823 55.0273  20
   3  -3 -10 88.0585 49.7771  31
  -3   3  10 68.5666 58.0704  25
   3  -3  -9 198.164 87.4664  20
   3  -3  -9 92.0137 67.7094  31
  -3   3   9 103.400 71.4006  25
   3  -3  -9 90.0600 76.0087  18
   3  -3  -8 350.170 122.480  20
   3  -3  -8 421.697 116.196  18
   3  -3  -8 320.011 88.8864  31
  -3   3   8 220.199 84.9396  25
  -3   3   7 10209.0 468.667  23
   3  -3  -7 9811.22 506.740  20
   3  -3  -7 8940.98 472.947  18
  -3   3   7 8836.04 424.166  25
   3  -3  -7 9619.86 427.716  31
  -3   3   6 29175.4 777.737  23
   3  -3  -6 30355.5 870.571  20
   3  -3  -6 29853.1 847.647  18
  -3   3   6 27884.2 755.051  25
  -3   3   5 53735.4 992.446  23
  -3   3   5 55695.2 2192.12  51
   3  -3  -5 52431.1 1102.77  20
   3  -3  -5 52549.0 1086.70  18
  -3   3   5 52940.8 1016.53  25
   3  -3  -4 5457.03 753.605  52
  -3   3   4 5842.36 693.657  51
  -3   3   3 154.689 122.961  51
   3  -3  -3 202.462 124.748  52
  -3   3   2 4070.48 567.615  51
   3  -3  -2 4974.30 318.086  15
  -3   3   1 8416.27 793.789  51
   3  -3  -1 8882.61 431.426  15
  -3   3   1 8342.24 856.622  41
  -3   3   0 14232.1 1013.03  51
   3  -3   0 13455.1 1056.40   2
   3  -3   0 14770.8 554.370  15
  -3   3   0 14084.7 1075.60  41
  -3   3  -1 880.741 295.418  42
  -3   3  -1 988.182 270.007  51
  -3   3  -1 895.448 238.377  29
   3  -3   1 1034.05 157.214  15
   3  -3   1 1076.09 293.474   2
  -3   3  -2 861.882 256.506  51
   3  -3   2 1011.76 245.424  48
  -3   3  -2 977.413 316.456  42
  -3   3  -2 705.083 205.717  29
   3  -3   2 918.987 145.151  15
   3  -3   3 457.476 186.599  48
  -3   3  -3 353.340 211.348  42
  -3   3  -3 531.294 232.257  29
   3  -3   3 448.346 106.330  15
   3  -3   4 858.656 300.623  48
  -3   3  -4 964.786 353.225  42
  -3   3  -4 766.881 360.318  43
   3  -3   4 933.513 150.515  15
  -3   3  -4 486.505 196.497  29
   3  -3   5 3011.93 549.896  48
   3  -3   5 2214.21 258.450   8
   3  -3   5 3415.84 227.612   4
   3  -3   5 1854.96 218.468  16
  -3   3  -5 1835.84 533.649  43
   3  -3   5 1967.75 219.898  15
  -3   3  -6 3073.01 678.294  43
   3  -3   6 2793.66 296.472   8
   3  -3   6 2497.80 266.594  16
   3  -3   6 1872.09 169.957   4
   3  -3   7 2468.94 194.006   4
   3  -3   7 3735.71 348.512   8
   3  -3   7 3752.57 324.937  16
  -3   3  -7 3617.65 717.146  43
  -3   3  -8 6127.12 978.626  43
   3  -3   8 5928.12 424.227   8
   3  -3   8 6141.96 414.565  16
   3  -3   9 55.0580 69.1078   8
   3  -3   9 33.2335 74.0934  16
   3  -3  10 452.094 123.770  10
   3  -3  10 354.274 121.641   9
   3  -3  11 339.024 91.8407  10
   3  -3  11 176.752 66.8369   9
   3  -2 -12 549.283 85.4824  31
  -3   2  12 354.369 61.7004  25
   3  -2 -11 22.7920 50.6968  31
  -3   2  11-27.2875 49.4028  25
  -3   2  10 26.2062 44.8332   4
   3  -2 -10 24.3384 56.7712  20
   3  -2 -10 42.6284 59.0259  31
  -3   2  10 45.3579 54.9932  25
   3  -2  -9 2768.47 263.920  20
   3  -2  -9 2819.26 253.193  31
  -3   2   9 2703.41 211.726  26
  -3   2   9 2628.63 230.226  25
   3  -2  -8 92.4674 67.9305  18
   3  -2  -8 119.370 87.7417  20
   3  -2  -8 156.686 88.2713  31
  -3   2   8-18.8495 56.0043  26
  -3   2   8 60.0079 66.0797  25
   3  -2  -7 300.168 110.808  18
   3  -2  -7 278.890 107.605  20
   3  -2  -7 421.573 110.861  31
  -3   2   7 292.825 89.3988  26
  -3   2   7 193.776 86.1047  25
  -3   2   6 517.669 221.644  50
   3  -2  -6 425.914 110.729  20
   3  -2  -6 330.515 102.756  18
   3  -2  -6 271.923 94.5104  31
  -3   2   6 418.893 90.2337  26
  -3   2   6 240.400 80.6330  25
   3  -2  -5 12673.9 1109.42  52
  -3   2   5 13573.2 979.978  51
  -3   2   5 11076.8 886.236  50
  -3   2   4 17691.7 1099.55  51
  -3   2   4 15677.0 976.583  50
   3  -2  -4 15943.5 1174.27  52
  -3   2   3 4568.74 546.229  51
  -3   2   3 4262.94 473.230  50
   3  -2  -3 4694.40 606.652  52
   3  -2  -2 4001.22 551.235  52
  -3   2   2 4591.88 551.679  51
   3  -2  -2 4235.81 272.625  15
  -3   2   1 14548.1 1019.15  41
   3  -2  -1 15490.0 516.310  15
   3  -2   0 95071.8 2697.27   2
  -3   2   0 96007.7 2594.82  41
   3  -2   0 99245.6 1349.66  15
   3  -2   1 25071.1 1310.75   2
  -3   2  -1 25439.2 1315.53  42
   3  -2   1 25703.7 661.566  15
  -3   2  -2 11466.9 797.537  51
   3  -2   2 13365.5 783.171  48
  -3   2  -2 11742.4 911.977  42
  -3   2  -2 10733.6 842.057  43
   3  -2   2 12614.6 468.554  15
   3  -2   2 10688.3 838.684   2
  -3   2  -3 21095.5 1292.86  42
  -3   2  -3 21602.5 1278.41  43
   3  -2   3 20993.7 623.777  15
   3  -2   3 19645.1 1143.99   2
  -3   2  -3 20630.5 1049.28  51
   3  -2   4 297.346 181.780  48
  -3   2  -4 134.991 135.435  44
  -3   2  -4 207.919 214.043  43
   3  -2   4 135.240 67.0518  15
   3  -2   5 6539.57 713.827  48
  -3   2  -5 6121.46 751.084  45
  -3   2  -5 5751.52 715.350  44
  -3   2  -5 6500.58 842.231  43
   3  -2   5 5993.09 350.700  15
   3  -2   6 17676.5 1248.76  48
  -3   2  -6 18112.3 1328.42  44
  -3   2  -6 19944.1 1534.11  43
  -3   2  -6 17968.8 1358.48  45
  -3   2  -7 7416.31 909.141  45
  -3   2  -7 6185.16 814.663  44
  -3   2  -7 8185.16 1004.77  43
   3  -2   7 7739.86 439.078  10
   3  -2   7 7248.93 454.442   8
   3  -2   7 6089.68 298.715   4
   3  -2   7 6284.78 390.744  16
  -3   2  -8 3093.80 620.465  45
  -3   2  -8 3254.52 621.172  44
  -3   2  -8 3937.64 717.571  43
   3  -2   8 3623.33 316.285  10
   3  -2   8 3430.94 353.017   8
   3  -2   8 2927.32 205.927   4
   3  -2   8 3125.08 281.361  16
   3  -2   9 8.65886 63.4838   8
  -3   2  -9 235.701 193.895  44
  -3   2  -9-22.9666 200.264  43
   3  -2   9 22.6905 58.2076  16
   3  -2   9 0.08306 42.9773   4
   3  -2   9 21.1396 57.7236  10
   3  -2  10 34.3785 70.7022  10
   3  -2  10-22.2534 93.3961   9
   3  -2  10 62.8880 42.6936   4
   3  -2  11 112.098 79.8522  10
   3  -2  11 31.7354 59.1446   9
   3  -2  12 455.576 95.9140   9
   3  -1 -12 79.0423 49.7285  31
  -3   1  12-7.31514 32.3811  25
   3  -1 -11 168.859 75.7704  31
  -3   1  11 143.723 55.2800  26
  -3   1  11 168.293 55.8465  25
   3  -1 -10 4652.20 313.023  31
  -3   1  10 4106.98 257.271  26
  -3   1  10 4935.81 296.071  25
   3  -1  -9 15476.0 591.520  20
   3  -1  -9 17776.8 614.902  31
  -3   1   9 15427.1 520.232  26
  -3   1   9 16990.2 579.687  25
   3  -1  -8 7358.63 413.833  20
   3  -1  -8 8162.66 415.191  31
  -3   1   8 7397.70 360.918  26
  -3   1   8 7492.78 384.861  25
   3  -1  -7 46364.3 1025.30  20
   3  -1  -7 45121.1 994.286  18
   3  -1  -7 48412.2 980.911  31
  -3   1   7 46750.1 901.944  26
  -3   1   7 47754.4 976.967  25
   3  -1  -6 39170.9 2002.31  52
  -3   1   6 35174.9 1678.92  50
   3  -1  -6 37259.6 871.203  20
   3  -1  -6 38916.7 818.886  31
  -3   1   6 38683.1 773.587  26
  -3   1   6 38061.4 813.070  25
   3  -1  -5 11694.7 1003.07  52
  -3   1   5 10979.1 867.738  50
  -3   1   4 1627.40 332.100  50
   3  -1  -4 2051.51 405.065  52
   3  -1  -3 466.325 208.350  52
  -3   1   3 412.017 161.766  50
  -3   1   3 328.935 143.032  40
   3  -1  -2 6384.04 612.351  52
  -3   1   2 5594.90 511.382  50
  -3   1   2 6015.62 539.881  40
   3  -1  -1 1775.86 300.941  52
  -3   1   1 2210.28 313.565  50
  -3   1   1 1946.68 366.736  41
   3  -1  -1 2552.43 197.652  15
  -3   1   0-42.9788 107.628  41
   3  -1   0 15.4411 43.7040  15
  -3   1  -1 868.591 250.734  42
  -3   1  -1 1057.79 273.981  41
   3  -1   1 1107.32 131.165  15
   3  -1   1 921.031 272.823   2
  -3   1  -2 1547.00 285.814  43
   3  -1   2 1763.98 252.254  48
  -3   1  -2 1364.25 288.835  42
   3  -1   2 1408.40 149.969  15
   3  -1   2 1165.23 295.192   2
   3  -1   3 875.542 195.278  48
  -3   1  -3 715.486 223.410  43
   3  -1   3 751.588 221.730   2
  -3   1  -3 950.523 220.685  45
   3  -1   3 818.535 116.075  15
  -3   1  -3 913.260 234.063  47
  -3   1  -3 1149.38 254.017  46
  -3   1  -4 82.4818 86.4367  45
   3  -1   4 25.1159 78.8576  48
  -3   1  -4-24.4958 85.1144  44
  -3   1  -4 8.72756 70.7512  46
  -3   1  -4-45.5285 191.665  43
   3  -1   4 47.7543 111.310   2
   3  -1   4 11.0399 40.4691  15
  -3   1  -4-2.52632 87.8927  47
  -3   1  -5 19630.7 1225.16  46
   3  -1   5 16247.5 998.191  48
  -3   1  -5 19084.8 1195.60  45
  -3   1  -5 17931.3 1109.31  44
   3  -1   5 15317.9 1038.23   2
  -3   1  -5 16309.2 1078.84  47
  -3   1  -6 43457.0 1862.77  47
  -3   1  -6 48896.6 1976.05  44
  -3   1  -6 48487.4 2036.02  45
  -3   1  -6 50666.1 1715.36  36
   3  -1   6 44288.8 1810.40  48
  -3   1  -6 51384.8 2113.34  46
  -3   1  -7 110.312 140.339  46
  -3   1  -7 117.226 184.786  49
   3  -1   7 113.961 116.854  48
  -3   1  -7 49.3330 120.148  36
  -3   1  -7-81.2509 116.273  45
  -3   1  -7-52.2887 170.197  44
   3  -1   7-38.8356 52.9232   4
  -3   1  -8-147.028 147.997  46
  -3   1  -8 71.2019 111.242  45
   3  -1   8 44.9409 67.1091  10
  -3   1  -8 4.84652 135.978  36
  -3   1  -8 66.8295 104.429  44
   3  -1   8-18.7481 65.4483   8
   3  -1   8-8.45940 47.0860   4
  -3   1  -9 159.361 157.716  44
  -3   1  -9 312.930 234.217  45
  -3   1  -9 252.090 195.649  36
   3  -1   9 104.397 84.4649   9
   3  -1   9 281.062 112.947  10
   3  -1   9 160.617 55.6370   4
  -3   1 -10 171.061 139.329  44
   3  -1  10 149.205 88.7818  10
   3  -1  10 66.6581 74.5604   9
   3  -1  10 193.020 58.5463   4
   3  -1  11 3556.39 329.490  10
   3  -1  11 3826.54 318.393   9
   3  -1  11 2867.10 194.751   4
   3  -1  12 5194.77 232.642   4
   3  -1  12 7293.38 383.288   9
   3  -1  13 1031.41 88.7970   4
   3   0 -12 138.485 54.0709  32
   3   0 -12 69.2989 54.4542  31
  -3   0  12 49.5294 36.8402  25
   3   0 -11 459.225 91.5251  32
   3   0 -11 290.026 90.5207  31
  -3   0  11 369.336 78.0448  26
  -3   0  11 301.796 73.2610  25
   3   0 -10 11383.2 431.961  32
   3   0 -10 10818.2 474.281  31
  -3   0  10 10559.9 421.588  26
  -3   0  10 11375.8 436.189  25
   3   0  -9 9476.65 455.011  31
   3   0  -9 9482.63 419.000  32
   3   0  -9 8586.50 943.254  17
  -3   0   9 9298.18 415.913  26
  -3   0   9 9513.56 439.623  25
   3   0  -8 877.245 136.409  32
   3   0  -8 702.166 141.038  31
  -3   0   8 760.523 130.446  26
  -3   0   8 827.886 142.378  25
   3   0  -7 184.978 94.4742  32
   3   0  -7 63.6384 66.1930  31
  -3   0   7 91.3831 61.5964  26
  -3   0   7 60.4879 62.7167  25
   3   0  -6 1641.83 423.333  52
  -3   0   6 2082.52 416.016  50
   3   0  -5 1095.34 324.737  52
  -3   0   5 797.929 256.318  50
   3   0  -4 3665.59 510.579  52
  -3   0   4 2878.35 436.588  50
   3   0  -3 969.900 256.573  52
  -3   0   3 1264.26 268.258  50
  -3   0   3 981.895 220.218  39
   3   0  -3 1221.24 252.389  17
   3   0  -2 100440. 2154.40  52
  -3   0   2 93000.9 2132.48  40
   3   0  -2 99914.4 2071.77  17
  -3   0   2 90160.7 2076.86  39
   3   0  -1 124424. 2163.95  52
   3   0  -1 124579. 2915.84   2
   3   0  -1 121003. 2145.79  17
  -3   0   1 118664. 2502.20  40
   3   0   0 11287.7 835.165   2
  -3   0   0 11077.3 787.303  41
  -3   0   0 12049.8 914.904   1
   3   0   0 11547.5 598.704  17
  -3   0  -1 37325.7 1552.99   1
  -3   0  -1 34157.8 1303.41  42
  -3   0  -1 34908.0 1378.61  41
   3   0   1 35422.0 1468.30   2
  -3   0  -2 2803.29 327.414  43
  -3   0  -2 3252.46 404.405  47
  -3   0  -2 3966.33 404.482  46
  -3   0  -2 2761.96 407.688   1
  -3   0  -2 2901.60 393.599  42
   3   0   2 2860.10 432.629   2
   3   0   3 822.475 165.405  48
  -3   0  -3 1427.10 279.795  46
  -3   0  -3 1153.99 259.004  47
   3   0   3 989.077 267.925   2
  -3   0  -3 823.756 221.877   1
   3   0   4 25627.1 1126.30  50
   3   0   4 26501.4 1052.03  48
  -3   0  -4 25438.3 1254.88  47
   3   0   4 25839.6 1339.46   2
   3   0   5 55117.0 1762.91  50
   3   0   5 57950.5 1738.82  48
   3   0   5 60564.9 2134.46   2
   3   0   6 5959.02 613.920  48
  -3   0  -6 6795.78 719.674  46
   3   0   6 6228.55 717.429   2
   3   0   7 640.166 229.677  48
  -3   0  -7 924.302 292.384  46
  -3   0  -8 298.942 141.021  46
  -3   0  -8 266.165 199.383  36
   3   0   8 415.360 115.666  10
   3   0   8 372.183 107.197   9
   3   0   8 320.050 71.5795   4
   3   0   9 48.5651 68.1747  10
  -3   0  -9 46.1180 151.931  36
   3   0   9-3.87619 72.5500   9
   3   0   9-7.28637 47.1349   4
  -3   0 -10 309.639 155.718  36
   3   0  10 235.757 94.7386   9
   3   0  10 328.886 132.894  10
   3   0  10 241.394 76.3384   4
   3   0  11 11353.9 576.667  10
   3   0  11 11664.2 558.968   9
   3   0  11 10161.9 392.763   4
   3   0  12 1855.00 154.582   4
   3   0  13 67.4709 36.0189   4
   3   1 -12 11.8510 39.2752  32
   3   1 -12-30.8830 40.1642  31
   3   1 -11 400.282 94.0920  32
   3   1 -11 296.037 88.5043  31
  -3  -1  11 273.894 75.5939  26
  -3  -1  11 205.306 54.5197  25
   3   1 -10 15535.3 553.794  31
   3   1 -10 15950.3 528.699  32
  -3  -1  10 16244.2 537.138  26
  -3  -1  10 15926.4 493.766  25
   3   1  -9 19565.6 652.954  31
   3   1  -9 20850.8 625.557  32
   3   1  -9 19928.7 1454.01  17
  -3  -1   9 21682.5 650.279  26
  -3  -1   9 23025.1 636.761  25
   3   1  -8 9186.39 407.846  32
   3   1  -8 8672.92 935.361  17
   3   1  -8 8633.04 425.677  31
  -3  -1   8 10188.3 445.754  26
  -3  -1   8 8787.54 405.728  25
   3   1  -7 1794.24 190.027  32
   3   1  -7 1826.15 198.283  31
   3   1  -7 1475.11 384.490  17
  -3  -1   7 1808.74 173.342  28
  -3  -1   7 1939.49 206.857  26
  -3  -1   6-12.3263 79.9427  50
   3   1  -6 155.556 184.089  17
   3   1  -6 41.4555 53.1558  31
  -3  -1   6 26.4026 52.3270  26
  -3  -1   5 2672.76 449.068  50
   3   1  -5 3276.55 479.732  17
  -3  -1   4 1144.23 286.140  50
   3   1  -4 986.296 292.196   2
   3   1  -4 748.141 217.502  17
   3   1  -3 3125.02 475.860   2
  -3  -1   3 2987.91 455.808   1
   3   1  -3 3063.48 425.343  17
  -3  -1   3 3013.93 390.651  39
   3   1  -2 7377.53 682.751   2
  -3  -1   2 7196.25 595.180  39
   3   1  -2 7819.12 618.857  17
  -3  -1   2 8094.51 776.664   1
  -3  -1   1 17643.1 937.734  40
   3   1  -1 18762.2 910.344  17
  -3  -1   1 17461.3 918.067  39
   3   1  -1 17650.7 1025.18   2
  -3  -1   0 1756.26 383.352   1
  -3  -1   0 1563.34 292.276  40
  -3  -1   0 1523.73 283.081  39
   3   1   0 1846.44 287.944  17
   3   1   0 1255.48 281.908   2
  -3  -1  -1 7109.18 608.048  41
  -3  -1  -1 6706.42 608.450  40
   3   1   1 7236.70 530.009  17
   3   1   1 6500.82 625.847   2
  -3  -1  -2 906.949 212.126  42
  -3  -1  -2 901.556 222.948  41
  -3  -1  -2 1014.74 240.319  47
   3   1   2 992.183 214.047  17
   3   1   2 978.710 273.757   2
  -3  -1  -2 1013.21 254.171  40
  -3  -1  -3 59772.0 1723.71  42
  -3  -1  -3 64336.5 1989.20   1
   3   1   3 65430.9 2099.86   2
  -3  -1  -3 65526.6 1912.69  47
  -3  -1  -4 33817.1 1397.32   1
   3   1   4 33844.7 1445.80  50
   3   1   4 37605.5 1641.47   2
   3   1   5 11167.6 864.106  50
   3   1   5 12776.6 998.868   2
   3   1   6 3428.36 514.266  50
  -3  -1  -6 3306.36 423.543  37
   3   1   7 1227.04 346.731  50
  -3  -1  -7 1065.92 258.720  37
   3   1   8 1521.25 171.167  11
   3   1   8 1664.65 207.833  10
   3   1   8 1758.44 180.791   3
   3   1   8 1455.12 194.886   9
  -3  -1  -8 1118.35 299.887  35
   3   1   8 1366.18 142.867   4
   3   1   9 1949.20 239.002  10
   3   1   9 2053.67 198.927   3
   3   1   9 2176.93 251.114   9
  -3  -1  -9 1716.89 389.656  35
  -3  -1  -9 1621.72 360.845  33
   3   1   9 1548.45 161.016   4
   3   1  10 58367.1 1103.54   3
   3   1  10 61014.1 1328.54   9
  -3  -1 -10 62037.1 2444.37  36
  -3  -1 -10 57123.7 2248.87  35
  -3  -1 -10 60110.2 2286.36  33
   3   1  10 54118.0 994.749   4
   3   1  11 1479.93 162.066   4
   3   1  12 386.077 81.4909   4
   3   1  13 25.6974 34.3932   4
   3   2 -12 1.71587 34.5031  32
   3   2 -11 55.8405 61.6099  32
  -3  -2  11-6.99289 44.2183  10
   3   2 -10 1203.64 153.682  31
   3   2 -10 1421.48 171.018  32
  -3  -2  10 1146.49 156.033  26
   3   2  -9 2291.41 220.393  31
   3   2  -9 2134.75 487.024  17
   3   2  -9 2965.32 248.521  32
  -3  -2   9 1732.93 180.083  16
  -3  -2   9 2585.66 233.627  26
   3   2  -8 215.098 97.7831  32
   3   2  -8 281.190 203.815  17
   3   2  -8 18.5445 71.5296  31
  -3  -2   8 180.476 80.4864  16
  -3  -2   8 124.167 84.0052  26
   3   2  -7 1537.68 180.275  31
   3   2  -7 1571.91 184.716  32
   3   2  -7 1226.76 369.942  17
  -3  -2   7 1647.26 197.018  26
   3   2  -6 1699.11 177.587  32
   3   2  -6 1681.59 180.854  31
   3   2  -6 1488.88 411.317  17
  -3  -2   6 1761.80 171.659  28
  -3  -2   6 2010.26 198.108  26
  -3  -2   5 3190.29 505.698  50
   3   2  -5 2734.57 487.479  17
  -3  -2   4 31741.4 1498.12  50
   3   2  -4 33535.9 1549.24  17
  -3  -2   3 48835.2 1449.29  38
   3   2  -3 45097.1 1731.93  17
  -3  -2   3 46860.2 1939.37   1
  -3  -2   3 48152.2 672.162  30
  -3  -2   2 14589.5 798.841  38
   3   2  -2 14024.5 913.243  17
   3   2  -2 13339.5 899.875   2
  -3  -2   1 386.702 149.000  39
   3   2  -1 397.481 196.113  17
   3   2  -1 329.536 164.198   2
  -3  -2   0 6124.50 553.313  39
   3   2   0 6416.94 569.913  17
   3   2   0 5532.82 599.763   2
  -3  -2  -1 182.642 138.461  40
  -3  -2  -1 184.068 123.079  39
   3   2   1 118.671 94.0880   2
   3   2   1 199.521 119.236  17
  -3  -2  -2 57695.0 1762.33  39
  -3  -2  -2 62113.4 1793.27  47
  -3  -2  -2 59393.9 1796.99  40
   3   2   2 64293.8 2087.58   2
   3   2   2 63914.5 1812.08  17
   3   2   3 26410.8 1323.14  50
  -3  -2  -3 27788.2 1264.33  47
  -3  -2  -3 25404.7 1174.90  39
   3   2   3 28295.1 1461.97   2
  -3  -2  -3 26465.6 1207.76  40
  -3  -2  -4 2097.46 347.101  40
   3   2   4 2398.81 425.259  50
  -3  -2  -4 2013.82 333.273  39
   3   2   4 2187.43 430.514   2
   3   2   5 51585.1 2043.08  50
  -3  -2  -5 50537.9 1666.45  38
  -3  -2  -5 52397.5 1745.62  37
   3   2   6 5924.10 725.860  50
  -3  -2  -6 6276.84 624.956  37
   3   2   7 2405.97 480.090  50
  -3  -2  -7 2354.45 399.963  34
  -3  -2  -7 2217.59 382.336  37
   3   2   8 15513.2 526.783  11
   3   2   8 15614.4 555.696   3
   3   2   8 17231.5 683.997   9
  -3  -2  -8 13388.2 1067.16  35
  -3  -2  -8 13816.2 1013.54  34
   3   2   8 14237.7 481.517   4
   3   2   9 857.330 138.492  11
  -3  -2  -9 658.220 274.160  35
   3   2   9 754.324 136.924   3
   3   2   9 787.686 123.788   4
   3   2  10 33273.8 802.588  11
   3   2  10 33838.0 851.452   3
  -3  -2 -10 31061.9 1684.98  35
  -3  -2 -10 29631.8 1646.24  33
   3   2  10 32189.2 773.950   4
  -3  -2 -11 284.510 183.177  33
   3   2  11 361.760 90.1382   4
   3   2  12 25.4716 42.4603   4
   3   2  13-13.2671 32.4739   4
  -3  -3  11 6181.17 307.672  10
   3   3 -11 6698.20 284.139  32
   3   3 -10 5771.58 302.744  32
  -3  -3  10 4279.32 252.886  16
   3   3  -9 1883.02 197.308  32
  -3  -3   9 1414.39 168.797  16
  -3  -3   9 1779.12 194.424  26
   3   3  -8 367.370 123.891  32
  -3  -3   8 202.427 88.7379  16
  -3  -3   8 238.720 93.5175  26
   3   3  -7 119.781 106.922  32
   3   3  -7 254.232 237.083  17
   3   3  -7 76.3464 65.4573  31
  -3  -3   7 50.8357 77.6461  16
  -3  -3   7-14.2682 65.4114  26
   3   3  -6-133.053 244.300  17
   3   3  -6 123.454 97.7855  32
   3   3  -6 81.8022 75.0673  31
  -3  -3   6-42.5626 75.1118  26
  -3  -3   5 197.324 140.097  50
   3   3  -5 119.664 91.2301  32
   3   3  -5 14.7289 174.733  17
   3   3  -5 67.7902 69.2006  31
  -3  -3   5 116.269 63.5863  28
  -3  -3   5-62.7760 66.3361  26
  -3  -3   4 213.824 174.530  50
   3   3  -4-7.18971 172.990  17
   3   3  -3 8761.16 818.892  17
  -3  -3   3 8429.71 300.826  30
  -3  -3   2 2657.51 379.310  38
   3   3  -2 3079.20 470.140  17
  -3  -3   2 2852.71 175.207  30
  -3  -3   1 1699.37 298.510  38
   3   3  -1 1898.45 368.766  17
  -3  -3   1 1723.26 135.413  30
  -3  -3   0 3683.93 455.013  38
   3   3   0 3770.39 493.632  17
   3   3   0 3447.48 499.508   2
  -3  -3   0 3780.50 203.506  30
  -3  -3  -1 15905.6 968.869  38
   3   3   1 15349.7 975.376  17
  -3  -3  -1 15429.6 424.490  30
  -3  -3  -2 33653.6 1342.46  47
  -3  -3  -2 37591.3 1547.27  38
  -3  -3  -2 41651.7 1591.55  37
   3   3   2 35829.7 1512.22  17
   3   3   2 41424.6 1853.03   2
  -3  -3  -2 36133.0 674.087  30
  -3  -3  -3 71745.0 2104.74  47
  -3  -3  -3 79350.4 2332.65  38
  -3  -3  -3 86596.7 2384.27  37
   3   3   3 86587.6 2791.30   2
  -3  -3  -3 78825.4 1048.76  30
   3   3   4 13710.3 1087.22  50
  -3  -3  -4 13240.8 961.666  47
  -3  -3  -4 14464.7 990.509  38
  -3  -3  -4 15707.6 1031.23  37
  -3  -3  -4 14254.3 426.730  30
   3   3   5 13857.1 1139.80  50
  -3  -3  -5 15002.9 1028.89  37
  -3  -3  -5 13865.8 958.194  38
  -3  -3  -5 14686.5 422.996  30
   3   3   6 1014.72 340.531  50
  -3  -3  -6 543.298 207.445  37
   3   3   7 2951.82 562.281  50
   3   3   7 3289.32 241.495  11
   3   3   7 3447.72 267.173   3
  -3  -3  -7 2584.94 457.758  34
   3   3   7 2958.79 215.424   4
   3   3   7 3023.36 250.913  13
   3   3   8 9934.29 427.814  11
  -3  -3  -8 8804.24 857.573  34
   3   3   8 9934.35 455.444   3
   3   3   8 9116.64 394.409   4
   3   3   8 8962.51 425.468  13
   3   3   9 21819.2 639.568  11
   3   3   9 23192.9 717.476   3
  -3  -3  -9 20730.0 1394.91  35
   3   3   9 22623.3 636.916   4
   3   3  10 860.600 132.311  11
   3   3  10 1040.23 165.192   3
   3   3  10 846.545 127.971   4
   3   3  11 416.976 91.4893   4
   3   3  12 1307.20 136.624   4
  -3  -3 -13-42.6218 45.7762  31
   3   3  13-47.1331 33.9889   4
   3   4 -10-125.284 70.8046  32
  -3  -4  10 119.989 56.5155  16
   3   4  -9-291.900 87.3477  32
  -3  -4   9 63.3502 55.8160  16
   3   4  -8 234.588 68.2846  24
   3   4  -8 165.377 81.5954  32
  -3  -4   8 226.045 93.9874  16
   3   4  -7 915.173 116.887  24
   3   4  -7 800.471 142.192  32
   3   4  -7 635.024 317.001  17
  -3  -4   7 641.442 139.434  16
  -3  -4   7 589.551 126.935  26
   3   4  -6 1439.46 182.597  32
   3   4  -6 1646.87 430.892  17
  -3  -4   6 1606.41 198.826  16
   3   4  -6 1459.39 151.126  24
   3   4  -5 20069.3 1419.68  17
   3   4  -5 22618.0 664.422  32
  -3  -4   5 20906.1 689.142  16
  -3  -4   5 20719.2 550.032  27
   3   4  -5 20566.3 563.951  24
   3   4  -4 5317.50 319.413  32
   3   4  -4 5263.17 717.118  17
  -3  -4   4 5029.65 303.554  28
  -3  -4   4 5145.76 271.006  27
   3   4  -4 5264.31 278.042  24
   3   4  -3-13.4159 66.1546  32
   3   4  -3 105.286 137.990  17
  -3  -4   3-23.8164 35.1848  30
  -3  -4   3 61.6864 58.7363  28
  -3  -4   3 5.51034 50.4353  27
   3   4  -2 64.5664 140.457  17
  -3  -4   2 9.61225 35.6388  30
   3   4  -1 3757.93 546.350  17
  -3  -4   1 4109.31 232.506  30
  -3  -4   0 26631.4 1333.56  38
   3   4   0 25785.9 1385.22  17
  -3  -4   0 27715.0 616.795  30
  -3  -4  -1 650.767 233.281  38
  -3  -4  -1 613.754 209.577  37
   3   4   1 351.332 198.099  17
  -3  -4  -1 769.771 109.126  30
  -3  -4  -2 22839.6 1326.08  38
  -3  -4  -2 21765.8 581.301  30
   3   4   2 20377.8 1256.30  17
  -3  -4  -3 2753.79 487.820  38
  -3  -4  -3 2493.70 440.766  37
  -3  -4  -3 2899.53 218.162  30
   3   4   4 836.621 329.519  50
  -3  -4  -4 1127.90 316.402  38
  -3  -4  -4 1677.25 374.459  37
  -3  -4  -4 1492.58 158.088  30
   3   4   5 2168.67 505.707  50
  -3  -4  -5 2397.33 191.865  30
   3   4   6 629.439 109.872  11
  -3  -4  -6 513.740 207.367  34
   3   4   6 506.399 120.325  32
   3   4   6 612.939 120.403   3
   3   4   6 529.833 107.760  13
   3   4   7 3742.97 265.908  11
   3   4   7 3992.23 291.740   3
  -3  -4  -7 3482.46 556.273  34
   3   4   7 3503.49 273.184  13
   3   4   8 16399.1 556.926  11
  -3  -4  -8 15222.7 1182.35  34
   3   4   8 16394.3 594.612   3
   3   4   8 15851.6 589.907  13
   3   4   9 3286.65 246.164  11
   3   4   9 3684.00 284.727   3
  -3  -4  -9 3284.12 552.749  35
   3   4   9 3571.85 240.914   4
   3   4   9 3321.62 268.794  13
   3   4  10 136.098 61.4741  11
  -3  -4 -10 30.2963 98.1296  33
   3   4  10 249.651 106.892   3
   3   4  10 140.497 58.4003   4
   3   4  11-18.1912 46.3287  11
   3   4  11 113.809 54.4771   4
   3   4  12 10.1179 30.7581   4
  -3  -4 -13-35.3042 31.5812  31
   3   5  -9-63.9899 42.9289  24
   3   5  -9-12.9977 44.3727  32
  -3  -5   9 34.7654 47.4583  16
   3   5  -8-0.22863 36.4326  24
   3   5  -8 34.6602 54.9245  32
  -3  -5   8 90.6649 74.4620  16
   3   5  -7 541.658 96.1698  24
   3   5  -7 419.930 106.420  32
  -3  -5   7 435.168 114.216  16
   3   5  -6 1451.18 176.224  32
   3   5  -6 916.972 334.706  17
  -3  -5   6 1377.15 195.557  16
  -3  -5   6 1201.93 157.848  14
   3   5  -6 1416.46 158.714  24
   3   5  -5 7817.73 407.776  32
   3   5  -5 6804.55 849.009  17
  -3  -5   5 7423.64 418.349  16
   3   5  -5 7534.87 357.444  24
   3   5  -4 2808.05 245.524  32
   3   5  -4 2262.09 498.636  17
  -3  -5   4 2268.30 235.375  16
   3   5  -4 2472.35 209.045  24
   3   5  -3 69.3049 44.8432  24
   3   5  -3 268.378 87.7442  32
   3   5  -3 157.735 147.416  17
  -3  -5   3 187.898 75.9282  30
  -3  -5   3 68.9638 79.1850  16
  -3  -5   3 135.618 65.2987  27
   3   5  -2 173.797 62.9502  24
  -3  -5   2 199.967 71.6367  19
   3   5  -2 113.641 50.8805  32
   3   5  -2 74.2313 134.303  17
  -3  -5   2 132.392 59.6291  30
  -3  -5   2 188.577 88.3975  16
  -3  -5   2 205.152 75.0790  27
   3   5  -1 276.212 81.4224  32
   3   5  -1 77.2630 132.778  17
  -3  -5   1 326.348 83.8306  30
  -3  -5   1 293.983 80.7898  27
   3   5  -1 208.788 64.3431  24
   3   5   0 29541.5 741.253  32
  -3  -5   0 29406.6 708.473  30
  -3  -5   0 27627.9 664.458  27
   3   5   1 13152.8 498.566  12
   3   5   1 12315.3 478.193  32
  -3  -5  -1 12652.1 478.535  30
  -3  -5  -1 12261.3 444.745  27
   3   5   2 143.847 56.5888  12
   3   5   2 161.189 74.0233  32
  -3  -5  -2 62.5814 65.7973  30
   3   5   3 1089.80 144.057  12
   3   5   3 1172.02 158.773  32
  -3  -5  -3 1172.37 154.717  30
   3   5   4-34.6064 52.5101  12
  -3  -5  -4 53.1348 153.044  34
   3   5   4 41.6224 53.5227  32
  -3  -5  -4-8.73851 56.3386  30
   3   5   5 336.093 94.8513  13
   3   5   5 414.539 105.347  12
  -3  -5  -5 330.042 91.1194  19
  -3  -5  -5 263.452 184.839  34
   3   5   5 441.876 111.832  32
  -3  -5  -5 271.037 84.3121  30
   3   5   6 6045.52 353.335   3
  -3  -5  -6 5541.87 733.484  34
   3   5   6 5638.45 353.439  13
   3   5   6 6215.64 393.911  32
   3   5   7 10207.8 451.153  11
   3   5   7 10031.5 455.298   3
  -3  -5  -7 9975.51 985.896  34
   3   5   7 10345.8 479.326  13
   3   5   8 3542.32 264.563  11
   3   5   8 3754.01 280.704   3
  -3  -5  -8 3118.41 550.088  34
   3   5   8 3564.80 281.898  13
   3   5   9 216.566 71.7631  11
   3   5   9 249.209 87.0180   3
   3   5   9 201.974 81.9138  13
   3   5  10 1023.69 129.230  11
   3   5  11 100.436 50.1021  11
  -3  -5 -11 74.0254 52.6820  20
  -3  -5 -12 91.2218 44.3595  20
   3   6  -8 308.573 69.4193  32
  -3  -6   8 275.191 72.9771  16
   3   6  -8 118.929 40.6441  24
   3   6  -7 994.662 134.042  32
  -3  -6   7 1013.35 147.534  16
  -3  -6   7 784.251 111.109  14
   3   6  -7 932.132 111.927  24
  -3  -6   6 10156.0 454.625  16
  -3  -6   6 9530.09 415.282  14
   3   6  -6 9536.30 381.504  24
   3   6  -6 10446.0 431.991  32
   3   6  -5 1297.77 160.479  32
  -3  -6   5 1274.53 174.562  16
  -3  -6   5 1460.56 182.242  14
   3   6  -5 1350.81 156.287  24
   3   6  -4 20.7602 50.8407  24
   3   6  -4 136.764 78.1794  32
  -3  -6   4 215.910 89.5630  16
   3   6  -3-7.24493 70.5052  32
  -3  -6   3 42.6995 73.6457  16
   3   6  -3-98.2071 61.3876  24
  -3  -6   2 5.20752 50.3781  19
   3   6  -2-19.1890 66.8076  32
   3   6  -2 32.2642 47.5145  24
  -3  -6   1 1753.30 180.380  19
   3   6  -1 1607.15 188.844  32
   3   6  -1 1122.93 348.885  17
  -3  -6   1 1575.37 176.326  30
   3   6   0 3269.68 270.887  12
  -3  -6   0 3100.38 251.470  19
   3   6   0 2990.31 256.944  32
  -3  -6   0 2932.82 248.598  30
  -3  -6   0 2993.59 245.591  27
   3   6   1 275.857 101.175  12
  -3  -6  -1 347.270 110.175  19
   3   6   1 365.539 103.606  32
  -3  -6  -1 281.452 93.0084  30
  -3  -6  -1 324.510 87.8369  27
   3   6   2 207.381 87.4254  12
  -3  -6  -2 190.773 92.7800  19
   3   6   2 117.178 61.6080  32
  -3  -6  -2 161.249 72.0007  30
  -3  -6  -2 285.934 85.9353  27
   3   6   3 143.583 77.4518  12
  -3  -6  -3 84.4036 67.6326  19
  -3  -6  -3 221.238 243.793  34
   3   6   3 97.3080 72.4940  32
  -3  -6  -3 180.520 86.9074  30
   3   6   4 1265.88 173.792  12
  -3  -6  -4 1179.12 162.124  19
  -3  -6  -4 1183.34 367.341  34
   3   6   4 988.223 154.623  32
  -3  -6  -4 1192.95 169.359  30
   3   6   4 1094.64 156.798  13
  -3  -6  -5 3977.65 272.627  19
  -3  -6  -5 3818.00 648.411  34
   3   6   5 3805.01 302.282  32
  -3  -6  -5 3938.02 275.517   6
   3   6   5 3696.41 288.273  13
  -3  -6  -6 9151.38 387.515   6
   3   6   6 9594.28 463.311  13
   3   6   7 3469.20 269.155  11
  -3  -6  -7 2718.36 199.557   6
   3   6   7 3308.92 274.519  13
   3   6   8 262.096 85.5364  11
   3   6   8 277.856 90.9005  13
  -3  -6  -9 33.4713 46.1214  18
   3   6   9 66.8984 51.4221  11
   3   6   9 74.6967 54.6101  13
   3   6  10 56.6968 34.6764  11
  -3  -6 -10-49.5609 46.7305  18
  -3  -6 -11 7.80560 37.4312  20
  -3  -7   6 616.422 100.382  16
  -3  -7   6 400.521 82.2990  14
   3   7  -5 31.4095 45.7801  32
  -3  -7   5 1.55204 54.5536  16
  -3  -7   5 78.1484 65.1019  14
   3   7  -4 246.185 71.6333  32
  -3  -7   4 269.012 91.3983  14
   3   7  -3 583.084 111.961  32
  -3  -7   3 577.015 131.715  14
   3   7  -2 3689.02 274.212  32
  -3  -7   2 4264.50 317.324  14
   3   7  -1 1232.31 178.528  12
  -3  -7   1 1220.07 160.864  19
   3   7  -1 932.095 143.041  32
   3   7   0 2322.15 237.222  12
  -3  -7   0 2467.63 229.511  19
   3   7   0 2301.41 217.748  32
  -3  -7   0 2400.80 202.231   6
   3   7   1 286.750 90.2370  12
  -3  -7  -1 393.871 105.878  19
   3   7   1 200.640 72.7055  32
  -3  -7  -1 318.168 91.3172   6
   3   7   2 1036.68 160.770  12
  -3  -7  -2 1238.40 177.368  19
   3   7   2 910.369 139.751  32
  -3  -7  -2 1305.55 171.733   6
  -3  -7  -3 1615.99 202.958  19
   3   7   3 1170.94 161.044  32
   3   7   3 1523.32 191.823  12
  -3  -7  -3 1714.51 196.045   6
   3   7   4 3501.00 281.076  12
  -3  -7  -4 3929.27 291.974  19
   3   7   4 3486.57 268.254  32
   3   7   4 3363.22 261.392  13
  -3  -7  -5 2661.68 228.896   6
   3   7   5 2122.51 207.756  13
   3   7   6 3515.47 268.132  11
  -3  -7  -6 3178.53 226.979   6
   3   7   6 3136.44 251.163  13
   3   7   7 150.918 68.1819  11
  -3  -7  -7 90.1491 51.2971   6
   3   7   7 99.2016 60.1700  13
   3   7   8 225.294 65.8508  11
  -3  -7  -8 233.628 71.5496  18
   3   7   8 244.286 71.0325  13
   3   7   9 29.9020 38.0231  11
  -3  -7  -9 34.5242 48.4283  20
  -3  -7  -9-33.0255 34.9786  18
   3   7   9 27.1605 38.8301  13
  -3  -7 -10 23.1050 33.5313  20
   3   8  -4 15.7417 34.5541  12
  -3  -8   4-36.2307 57.3153  14
   3   8  -3 385.180 83.1377  12
  -3  -8   3 454.401 94.7921  14
   3   8  -2 240.680 73.1145  12
  -3  -8   2 90.5045 62.0273  14
   3   8  -1 994.156 140.510  12
  -3  -8   1 1021.60 156.542  14
   3   8   0-22.9849 53.4062  12
  -3  -8   0 123.612 68.6936  14
  -3  -8   0-2.74688 43.3069   6
   3   8   1 116.577 67.5852  12
  -3  -8  -1 195.969 76.3249  14
  -3  -8  -1 171.075 65.1258   6
   3   8   2-33.3642 56.5250  12
  -3  -8  -2-45.6737 57.4212   6
   3   8   3 624.385 110.470  12
  -3  -8  -3 626.553 111.158   6
  -3  -8  -4 3690.38 247.450   6
  -3  -8  -5 2225.01 200.582  18
  -3  -8  -5 2279.06 189.781   6
   3   8   5 1778.24 162.497  13
   3   8   6 1033.09 124.188  11
  -3  -8  -6 1061.81 134.265  18
  -3  -8  -6 918.485 113.625   6
   3   8   6 885.670 116.670  13
   3   8   7 0.62779 35.1693  11
  -3  -8  -7 69.0790 47.3232  20
  -3  -8  -7 85.5450 53.2230  18
   3   8   7 15.2964 34.9498  13
  -3  -8  -8 154.976 48.0016  18
   3   9   0 4.33574 27.5569  12
   3   9   1 109.838 42.1486  12
  -4   7   4 69.7889 43.1148  23
   4  -7  -4 144.720 63.5928   5
  -4   7   3 1255.82 133.705  23
   4  -7  -3 1087.02 139.747   5
   4  -7  -3 1165.09 140.565   7
  -4   7   2 468.389 94.9122  23
   4  -7  -2 246.579 67.1345   5
   4  -7  -2 552.520 112.277   7
  -4   7   1 87.6486 57.0278  23
   4  -7  -1 47.1337 44.1086   5
   4  -7  -1 75.3477 55.2009   7
  -4   7   0 47.0903 58.0848  23
   4  -7   0 21.3278 48.2325   5
   4  -7   0 19.7253 50.4720   7
  -4   7   0 22.0936 49.6834  25
  -4   7  -1 2188.40 200.530  23
   4  -7   1 1775.92 184.515   7
  -4   7  -2 202.164 85.7921  23
   4  -7   2 90.2315 56.0761   7
  -4   7  -3-18.4863 56.0906  23
   4  -7   3 40.9378 44.5839   8
   4  -7   3 74.9282 49.4946   7
  -4   7  -4 139.413 64.6255  23
   4  -7   4 121.606 56.6023   8
  -4   6   6-20.9968 46.7409  23
   4  -6  -6-55.2971 60.0671   5
  -4   6   6 70.7603 44.5454  25
  -4   6   5 465.051 95.4363  23
   4  -6  -5 389.050 101.770   5
  -4   6   5 295.209 68.1993  25
  -4   6   4 8720.54 383.779  23
   4  -6  -4 7889.15 424.602   5
  -4   6   4 8321.67 353.602  25
  -4   6   3 1120.20 153.725  23
   4  -6  -3 1247.38 184.089   7
  -4   6   3 1256.41 149.934  25
  -4   6   2 4274.46 290.067  23
   4  -6  -2 3701.65 308.224   5
   4  -6  -2 4597.25 357.572   7
  -4   6   2 4035.10 274.156  25
  -4   6   1 500.191 114.346  23
   4  -6  -1 496.261 129.640   5
   4  -6  -1 681.758 143.226   7
   4  -6  -1 632.769 141.466  15
  -4   6   1 342.703 98.8046  25
  -4   6   0 3874.50 293.187  23
   4  -6   0 3169.02 284.430   5
   4  -6   0 3931.56 339.704   7
   4  -6   0 3429.68 321.246  15
  -4   6   0 3141.70 261.414  25
  -4   6  -1 715.797 137.257  23
   4  -6   1 733.826 146.302   5
   4  -6   1 714.331 150.522   7
   4  -6   1 693.296 152.998  15
  -4   6  -1 377.116 116.603  25
  -4   6  -2 678.648 140.463  23
   4  -6   2 583.906 135.895   8
   4  -6   2 856.815 158.372   7
   4  -6   2 884.393 170.261  15
  -4   6  -2 295.046 110.880  25
  -4   6  -3 232.309 91.1979  23
   4  -6   3 172.393 88.4297   8
   4  -6   3 221.159 91.3111   7
  -4   6  -4 8.98204 67.8241  23
  -4   6  -4-55.7520 79.3274  21
   4  -6   4-3.20709 65.0977   8
   4  -6   4 85.6229 66.4267   7
  -4   6  -5 107.269 70.6797  23
  -4   6  -5-51.8876 61.7885  21
   4  -6   5 130.757 72.2351   8
  -4   6  -6 100.068 62.2638  23
   4  -6   6 24.0687 61.1132   8
  -4   6  -6-30.6321 47.9688  21
  -4   6  -7 31.1087 51.4237  23
  -4   6  -7-74.9037 43.7853  21
   4  -6   7-15.8081 48.1160   8
   4  -5  -8 185.941 66.4683  20
  -4   5   8 151.231 57.6568  25
   4  -5  -7 100.027 64.5878  20
  -4   5   7 50.2411 46.3802  25
  -4   5   6 1856.33 186.055  23
   4  -5  -6 1640.26 199.721   5
   4  -5  -6 2037.22 203.149  20
  -4   5   6 1866.55 180.542  25
  -4   5   5 1507.85 176.057  23
   4  -5  -5 1517.15 177.417  20
   4  -5  -5 1646.51 198.052  18
  -4   5   5 1504.63 177.379  25
  -4   5   4 17687.9 586.744  23
   4  -5  -4 18026.5 600.896  20
   4  -5  -4 18016.2 625.402  18
  -4   5   4 18514.1 612.881  25
  -4   5   3 42.3854 56.6623  23
   4  -5  -3-82.8416 73.2705  18
   4  -5  -3 63.1629 71.0531   7
  -4   5   3 15.5145 69.9486  25
  -4   5   2 39.1335 52.8066  23
   4  -5  -2 147.292 99.1162   7
   4  -5  -2 86.1224 71.5546  15
  -4   5   2 200.086 91.1528  25
  -4   5   1-58.4497 81.3162  23
   4  -5  -1 67.8405 79.8619   7
   4  -5  -1 64.4361 76.0857  15
  -4   5   1 20.1686 67.1319  25
  -4   5   0 164.546 71.6735  23
   4  -5   0 280.223 100.806   5
   4  -5   0 422.192 133.574   7
   4  -5   0 349.265 125.645  15
  -4   5   0 433.284 123.059  25
  -4   5  -1-49.6849 71.0806  23
   4  -5   1-5.55712 75.8444   5
   4  -5   1 25.7638 74.2141   7
   4  -5   1 4.74669 79.8576  15
  -4   5  -2 49.1581 63.9291  21
   4  -5   2 41.8440 67.2447   5
  -4   5  -2-1.07419 68.1733  23
   4  -5   2 30.3385 75.0201   8
   4  -5   2-25.0041 81.8960   7
   4  -5   2 2.75665 89.5740  15
  -4   5  -3 956.426 168.986  23
  -4   5  -3 654.660 121.425  21
   4  -5   3 646.528 163.559   8
   4  -5   3 680.905 152.475   7
   4  -5   3 573.875 159.184  15
  -4   5  -4 19.8096 62.6039  21
  -4   5  -4 202.164 111.896  23
   4  -5   4-51.3970 88.9352   8
   4  -5   4 52.1343 66.7118   7
   4  -5   4 80.1771 79.8771  15
  -4   5  -5-24.7468 54.4606  21
   4  -5   5 34.2111 93.4481   8
   4  -5   5-18.7046 62.6002  15
  -4   5  -6 2327.80 204.365  21
   4  -5   6 2759.02 299.931   8
  -4   5  -7 1661.63 161.604  21
   4  -5   7 2232.82 249.511   8
  -4   5  -8-66.3601 50.8136  22
  -4   5  -8 32.7575 41.8340  21
   4  -5   8 85.1248 61.1032   8
  -4   5  -9 8.56704 31.6778  21
   4  -5   9 21.8878 47.2323   9
   4  -5   9 48.8722 42.3056   8
  -4   4   9 238.968 59.7930   4
   4  -4  -9 318.074 86.8450  20
  -4   4   9 352.663 75.8653  25
   4  -4  -8 648.290 130.263  20
  -4   4   8 568.779 105.882  25
   4  -4  -7-36.1642 61.2646  20
  -4   4   7-32.7789 63.2769  25
   4  -4  -6 75.7784 75.9251  20
   4  -4  -6 24.9523 79.1842  18
  -4   4   6-21.3760 68.7786  25
  -4   4   5 19699.1 621.162  23
   4  -4  -5 19788.3 703.313  20
   4  -4  -5 19395.7 702.888  18
  -4   4   5 20956.6 674.390  25
  -4   4   4 4052.22 286.175  23
   4  -4  -4 4436.68 324.144  20
   4  -4  -4 3672.79 304.936  18
  -4   4   4 4300.87 315.626  25
  -4   4   3 346.365 97.0931  23
   4  -4  -3 597.500 124.774  20
   4  -4  -3 338.492 102.625  18
   4  -4  -3 422.195 116.289   7
  -4   4   3 437.549 118.158  25
  -4   4   2 469.127 111.116  23
   4  -4  -2 371.365 101.675  18
   4  -4  -2 603.727 154.386   7
   4  -4  -2 638.423 144.829  15
  -4   4   2 634.159 138.282  25
  -4   4   1 57.2953 53.0564  23
   4  -4  -1 123.025 84.5513   7
   4  -4  -1 136.136 85.6549  15
  -4   4   1 218.781 96.2923  25
  -4   4   0 1231.24 169.914  23
  -4   4   0 1229.17 409.437  41
   4  -4   0 1475.85 214.660   7
   4  -4   0 1663.86 237.934  15
  -4   4  -1 93.0738 72.9917  23
  -4   4  -1-30.3979 132.538  41
   4  -4   1-14.5447 78.5179   5
   4  -4   1 6.02311 67.5782   7
   4  -4   1 50.9718 80.1526  15
  -4   4  -2 387.291 127.727  23
  -4   4  -2 307.859 247.967  41
   4  -4   2 307.571 111.456   5
   4  -4   2 427.812 132.017   8
   4  -4   2 401.247 118.303   7
   4  -4   2 247.595 106.066  15
  -4   4  -3 472.278 296.593  41
   4  -4   3 636.953 140.844   5
   4  -4   3 682.081 160.837   8
   4  -4   3 421.983 128.923   7
   4  -4   3 709.419 165.969  15
  -4   4  -4 48.9575 59.5769  21
  -4   4  -4 68.0106 146.668  42
   4  -4   4 82.4613 88.5291   8
   4  -4   4 93.5682 65.2368   7
   4  -4   4 27.4332 80.2207  15
  -4   4  -5 2151.80 206.877  21
   4  -4   5 2231.85 283.068   8
   4  -4   5 2107.73 263.708  15
  -4   4  -6 3642.67 261.899  21
   4  -4   6 4215.19 383.099   8
   4  -4   7 620.454 152.274   8
  -4   4  -8 1237.95 142.610  22
   4  -4   8 1042.43 177.752   8
  -4   4  -9 268.634 72.7735  21
   4  -4   9 274.454 91.0945   8
  -4   4 -10 137.591 49.6486  22
  -4   4 -10 128.401 50.1329  21
   4  -4  10 10.3523 38.6190   8
  -4   3  10 471.498 72.4300   4
   4  -3 -10 602.558 101.422  20
   4  -3 -10 601.653 89.2786  31
  -4   3  10 493.589 84.5410  25
  -4   3   9 19.3056 40.5541   4
   4  -3  -9 14.4926 56.9394  20
   4  -3  -9 113.247 56.7831  31
  -4   3   9 18.4406 61.6099  25
   4  -3  -8 209.558 84.9612  20
  -4   3   8 281.027 95.9918  25
   4  -3  -7 686.366 150.390  20
  -4   3   7 668.699 132.172  25
   4  -3  -6 7802.86 456.886  20
   4  -3  -6 7973.54 459.309  18
  -4   3   6 7434.98 362.419  26
  -4   3   6 7730.61 410.749  25
   4  -3  -5 3038.62 282.900  20
   4  -3  -5 3106.77 285.777  18
  -4   3   5 3194.16 242.698  26
  -4   3   5 3244.46 271.439  25
   4  -3  -4 255.252 94.0815  20
   4  -3  -4 314.061 107.120  18
  -4   3   4 318.918 100.213  26
  -4   3   4 373.470 103.055  25
   4  -3  -3 1789.22 202.424  20
   4  -3  -3 1726.95 200.976  18
   4  -3  -3 2176.29 253.331   7
  -4   3   3 2063.31 215.103  25
   4  -3  -2 735.413 131.702  20
   4  -3  -2 438.809 108.621  18
   4  -3  -2 673.753 143.021   7
   4  -3  -2 689.425 142.779  15
  -4   3   2 607.872 125.203  25
   4  -3  -1 222.269 198.253   2
  -4   3   1 253.220 209.411  51
   4  -3  -1 222.199 84.7114   7
   4  -3  -1 323.334 109.735  15
  -4   3   1 352.480 107.760  25
  -4   3   0 1137.22 353.350  51
  -4   3   0 1124.88 355.834  41
   4  -3   0 1538.62 200.123   7
   4  -3   0 1385.41 201.676  15
   4  -3   0 1367.14 398.145   2
  -4   3  -1 5743.58 731.272  51
   4  -3   1 4801.15 356.272   5
  -4   3  -1 4774.65 707.379  41
   4  -3   1 5404.93 372.245   7
   4  -3   1 5338.53 385.436  15
   4  -3   1 4525.74 699.479   2
  -4   3  -2-35.6869 126.174  51
  -4   3  -2-51.8906 133.725  41
   4  -3   2 48.6784 52.4130   5
   4  -3   2-27.7998 67.2666   8
   4  -3   2 73.9144 74.3514   7
   4  -3   2 7.52786 66.9738  15
   4  -3   3 819.031 158.153   5
  -4   3  -3 433.997 272.876  42
   4  -3   3 869.192 166.208   8
   4  -3   3 759.958 157.546   7
   4  -3   3 822.802 164.013  15
  -4   3  -4 290.095 176.886  42
   4  -3   4 424.092 124.200   5
   4  -3   4 325.830 118.547   8
   4  -3   4 303.620 97.5181   7
   4  -3   4 228.612 89.8711  15
  -4   3  -5 88.2350 166.520  42
   4  -3   5 38.6086 70.4351  15
  -4   3  -6 922.089 364.986  42
   4  -3   6 870.760 186.159   8
  -4   3  -7 422.129 326.757  43
   4  -3   7 71.4345 99.6387   8
   4  -3   8 13885.1 408.921   4
   4  -3   8 377.475 120.611   8
   4  -3   9 14209.5 373.165   4
   4  -3   9 486.146 122.231   8
   4  -3  10 12990.6 303.641   4
   4  -3  10 365.803 92.3344   8
   4  -3  11 239.392 71.3690   9
   4  -2 -11 7.33563 39.1864  31
  -4   2  11 26.9236 29.6689  25
   4  -2 -10 57.2319 60.7189  20
   4  -2 -10 59.2975 61.7586  31
  -4   2  10 21.4320 39.2055  25
   4  -2  -9-90.2040 73.6756  20
   4  -2  -9 50.9895 67.0968  31
  -4   2   9-46.5101 56.2949  26
  -4   2   9 16.3190 53.7260  25
   4  -2  -8 207.614 101.453  20
   4  -2  -8 165.409 91.7076  31
  -4   2   8 77.0733 56.0011  26
  -4   2   8 43.7550 55.6761  25
   4  -2  -7 9292.02 492.998  20
   4  -2  -7 8917.95 430.493  31
  -4   2   7 8892.44 395.699  26
  -4   2   7 8876.52 422.381  25
   4  -2  -6 11374.7 537.178  20
   4  -2  -6 10473.3 456.354  31
  -4   2   6 10980.5 449.116  26
  -4   2   6 10233.7 461.274  25
   4  -2  -5 1505.35 202.576  20
   4  -2  -5 1422.96 195.073  18
  -4   2   5 1785.48 187.644  26
  -4   2   5 1557.27 182.704  25
   4  -2  -4 537.535 118.501  20
   4  -2  -4 603.728 124.392  18
  -4   2   4 570.870 107.173  26
  -4   2   4 597.437 114.755  25
   4  -2  -3 105.154 189.346  52
  -4   2   3-24.2484 103.337  51
   4  -2  -3 237.692 83.4278  20
   4  -2  -3 272.640 81.2606  18
  -4   2   3 234.312 81.7064  25
  -4   2   2 1265.20 347.721  51
   4  -2  -2 1030.21 350.136   2
  -4   2   1 3001.71 540.111  51
   4  -2  -1 2305.89 525.117   2
   4  -2  -1 2851.56 266.479  15
  -4   2   0 127.290 161.865  41
   4  -2   0 17.1843 53.0647  15
   4  -2   0-136.227 175.531   2
  -4   2  -1 1486.81 376.983  51
  -4   2  -1 1379.67 377.147  41
   4  -2   1 1482.43 195.300  15
   4  -2   1 1730.95 418.018   2
  -4   2  -2 1965.43 404.116  51
  -4   2  -2 1705.59 408.146  42
  -4   2  -2 1444.18 397.032  41
   4  -2   2 1712.52 208.488  15
   4  -2   2 1628.57 426.057   2
  -4   2  -3 62.7405 125.769  51
  -4   2  -3 43.1387 108.789  42
   4  -2   3-231.344 188.099   2
   4  -2   3 45.4293 51.1160  15
  -4   2  -4 234.165 195.743  43
  -4   2  -4 76.6959 149.291  42
   4  -2   4 1.22490 53.4142   8
   4  -2   4 61.4026 69.4572  15
  -4   2  -5 182.741 219.356  43
  -4   2  -5 40.6154 111.819  42
   4  -2   5 35.4117 70.5820   8
  -4   2  -6 5423.76 837.205  43
  -4   2  -6 5678.26 847.810  42
   4  -2   6 6056.71 431.359   8
  -4   2  -7 2125.70 542.491  43
  -4   2  -7 1743.28 485.015  42
   4  -2   7 1865.57 253.426   8
   4  -2   7 1340.43 139.976   4
  -4   2  -8 963.003 368.410  43
   4  -2   8 762.175 169.464   8
   4  -2   8 1173.84 133.276   4
   4  -2   9 1662.07 254.385   9
   4  -2   9 1402.75 202.172   8
   4  -2   9 1637.32 157.497   4
   4  -2  10 148.659 83.3821   8
   4  -2  10 1913.71 154.480   4
   4  -2  11-72.6369 65.4655   9
   4  -2  11 5338.33 205.976   4
   4  -2  12 225.634 71.5350   9
   4  -2  12 8222.49 200.489   4
   4  -1 -11 89.7090 57.0611  31
  -4   1  11 75.7387 35.0926  26
  -4   1  11 19.3471 30.9918  25
   4  -1 -10 172.799 76.8296  31
  -4   1  10 120.732 59.7887  26
  -4   1  10 153.391 63.3633  25
   4  -1  -9 1094.32 159.578  20
   4  -1  -9 1111.75 160.440  31
  -4   1   9 1026.52 138.062  26
  -4   1   9 1153.03 150.166  25
   4  -1  -8 5739.00 373.714  20
   4  -1  -8 6478.03 381.646  31
  -4   1   8 5650.23 322.304  26
  -4   1   8 5709.98 331.673  25
   4  -1  -7 3629.70 302.722  20
   4  -1  -7 4123.59 300.639  31
  -4   1   7 3716.21 266.840  26
  -4   1   7 3747.18 274.430  25
   4  -1  -6 3417.37 291.357  20
   4  -1  -6 3405.81 269.635  31
  -4   1   6 3730.81 263.311  26
  -4   1   6 3512.85 260.799  25
   4  -1  -5 1328.34 182.033  20
   4  -1  -5 1252.29 162.717  31
  -4   1   5 1492.89 168.201  26
  -4   1   5 1243.41 158.760  25
   4  -1  -4 3099.35 258.307  20
  -4   1   4 3216.18 230.552  26
  -4   1   3 1929.87 367.867  50
   4  -1  -3 2537.59 554.126   2
  -4   1   2 956.329 264.903  50
   4  -1  -2 1350.16 445.881   2
  -4   1   2 914.563 282.314  40
   4  -1  -1 1972.83 464.032   2
  -4   1   1 1629.90 361.177  40
  -4   1   0 1978.23 434.357  41
   4  -1   0 1823.99 430.324   2
  -4   1  -1 3466.40 565.427  41
   4  -1   1 3779.84 607.582   2
  -4   1  -2 839.610 295.820  42
  -4   1  -2 467.568 220.216  41
   4  -1   2 1136.56 343.797   2
  -4   1  -3 36.9937 134.197  42
   4  -1   3 99.0349 119.996   2
  -4   1  -4-18.8402 94.7057  43
  -4   1  -4 73.2962 112.914  42
   4  -1   4 204.193 207.936   2
  -4   1  -5 12387.7 1052.12  43
  -4   1  -5 11076.3 1056.35  42
  -4   1  -5 13209.8 1087.73  47
   4  -1   5 11510.1 1050.00   2
  -4   1  -6 11374.3 1045.28  47
  -4   1  -6 12807.2 1140.08  43
  -4   1  -6 10011.1 1056.69  42
   4  -1   6 12263.2 579.612   8
   4  -1   6 9971.45 383.808   4
  -4   1  -7 3.79855 109.508  45
  -4   1  -7-4.97813 142.391  43
   4  -1   7-1.16390 78.4925   8
   4  -1   7 49.4866 48.8885   4
  -4   1  -8 250.107 239.559  45
  -4   1  -8 300.888 278.923  43
   4  -1   8-74.3388 89.5487   9
   4  -1   8 98.2611 72.1570   8
   4  -1   8 75.0590 50.4551   4
   4  -1   9 114.160 85.6978   8
   4  -1   9 63.7347 47.0952   4
   4  -1  10 795.342 167.725   9
   4  -1  10 612.336 91.4582   4
   4  -1  11 167.968 88.8510   9
   4  -1  11 27.0912 41.0109   4
   4  -1  12 557.333 76.5068   4
   4   0 -11 688.009 107.202  31
  -4   0  11 467.837 76.2281  26
   4   0 -10 816.035 139.970  31
  -4   0  10 599.295 106.375  26
  -4   0  10 613.600 93.4417  25
   4   0  -9 2922.80 259.862  31
  -4   0   9 2768.47 222.548  26
  -4   0   9 2634.01 209.539  25
   4   0  -8 4556.88 714.609  17
   4   0  -8 4518.29 321.427  31
  -4   0   8 4778.74 306.711  26
  -4   0   8 4816.85 300.099  25
   4   0  -7 4535.94 333.133  20
   4   0  -7 4377.77 677.417  17
   4   0  -7 4514.69 314.521  31
  -4   0   7 4752.56 303.082  26
  -4   0   7 4499.47 296.162  25
   4   0  -6 169.069 94.7355  20
   4   0  -6 95.5575 135.546  17
   4   0  -6 87.5922 66.0224  31
  -4   0   6 144.951 76.5276  26
  -4   0   6 137.754 54.3284  25
   4   0  -5 429.212 109.374  20
   4   0  -5 566.306 251.710  17
   4   0  -5 537.274 123.773  31
  -4   0   5 499.895 88.3473  28
  -4   0   5 449.617 103.269  26
  -4   0   4 1840.97 383.623  50
   4   0  -4 1448.25 430.022   2
   4   0  -4 1665.57 368.164  17
   4   0  -3 4902.91 736.668   2
  -4   0   3 5365.73 627.561  50
  -4   0   3 5336.80 574.340  39
   4   0  -3 5542.58 619.164  17
   4   0  -2 102.998 152.079   2
  -4   0   2 192.322 140.513  50
  -4   0   2 154.798 101.485  40
  -4   0   2 276.278 158.753  39
   4   0  -2 571.922 220.233  17
   4   0  -1 19419.6 1382.52   2
  -4   0   1 18699.2 1124.79  40
  -4   0   0 56014.2 2195.74  41
  -4   0   0 57814.8 2075.81  40
   4   0   0 56375.5 2331.60   2
  -4   0  -1 40100.2 1790.06  41
   4   0   1 37194.7 1886.09   2
  -4   0  -2 6800.79 710.358  42
  -4   0  -2 7569.90 777.399  41
   4   0   2 7058.99 820.921   2
  -4   0  -3 4268.38 557.505  47
  -4   0  -3 3942.15 554.104  42
  -4   0  -3 3605.50 547.898  41
   4   0   3 3852.03 613.094   2
  -4   0  -4 969.523 287.959  47
  -4   0  -4 1162.21 325.138  42
   4   0   4 1038.81 347.484   2
  -4   0  -5 39258.8 1855.29  47
  -4   0  -5 35929.9 1783.48  42
   4   0   5 40180.8 1998.89   2
  -4   0  -6 60.6085 109.985  47
   4   0   6 39.7692 135.745   2
  -4   0  -6 195.529 172.510  46
   4   0   6 66.4011 55.6729   8
   4   0   6 97.0581 38.1458   4
  -4   0  -7 2298.79 472.522  46
   4   0   7 2438.54 270.661   9
   4   0   7 1955.11 229.759   8
   4   0   7 1691.22 157.802   4
  -4   0  -7 1936.05 446.136  47
  -4   0  -8-44.6524 184.635  45
   4   0   8 57.3837 75.9581   8
   4   0   8 22.7610 43.3244   4
  -4   0  -9 384.309 220.381  45
   4   0   9 251.630 114.993   9
   4   0   9 216.523 63.9887   4
   4   0  10 158.331 99.8530   9
   4   0  10 14.9768 44.4979   4
   4   0  11 158.322 96.9695   9
   4   0  11 106.377 63.9066   4
   4   0  12 256.983 61.0991   4
   4   0  13 42.5062 31.0808   4
   4   1 -11 73.1886 51.5011  31
   4   1 -10 1479.39 142.544  32
   4   1 -10 1750.77 181.528  31
  -4  -1  10 1529.73 150.826  26
   4   1  -9 6354.45 318.643  32
   4   1  -9 6699.69 376.381  31
  -4  -1   9 6825.93 351.925  26
   4   1  -8 2589.92 221.223  32
   4   1  -8 2386.78 237.871  31
   4   1  -8 2576.48 537.900  17
  -4  -1   8 2597.99 233.023  26
   4   1  -7 1064.42 148.168  32
   4   1  -7 873.006 150.538  31
  -4  -1   7 782.303 122.640  28
  -4  -1   7 915.956 153.815  26
   4   1  -6 952.785 136.477  32
   4   1  -6 510.060 274.006  17
   4   1  -6 697.564 129.670  31
  -4  -1   6 651.597 116.595  28
  -4  -1   6 702.907 134.870  26
   4   1  -5 3005.26 265.000  20
   4   1  -5 2987.98 245.090  31
   4   1  -5 2306.31 473.087  17
  -4  -1   5 3376.12 230.316  28
  -4  -1   5 2855.63 228.477  26
  -4  -1   4 1821.95 397.885  50
   4   1  -4 1303.78 359.284  17
  -4  -1   3 874.139 303.218  50
  -4  -1   3 895.082 258.396  39
   4   1  -3 637.741 234.461  17
   4   1  -3 1037.31 343.351   2
  -4  -1   2 1282.89 373.382   1
  -4  -1   2 1320.60 315.925  39
   4   1  -2 1277.41 313.262  17
   4   1  -2 1042.16 322.583   2
  -4  -1   1 55429.0 1959.23  40
  -4  -1   1 53148.0 1891.57  39
   4   1  -1 55592.9 1871.03  17
   4   1  -1 51451.8 2190.32   2
  -4  -1   0 139128. 3785.67   1
  -4  -1   0 132790. 3127.43  40
  -4  -1   0 131687. 3068.83  39
   4   1   0 129571. 2767.83  17
   4   1   0 122851. 3393.56   2
  -4  -1  -1 28355.7 1463.88  41
  -4  -1  -1 26851.8 1433.51  40
   4   1   1 24742.5 1162.87  17
   4   1   1 24854.7 1506.83   2
  -4  -1  -1 27047.6 1595.81   1
  -4  -1  -2 1007.48 284.615  41
  -4  -1  -2 470.493 203.135  40
  -4  -1  -2 535.495 229.949   1
   4   1   2 541.527 181.076  17
   4   1   2 641.869 260.056   2
  -4  -1  -3 1411.90 324.650  47
  -4  -1  -3 872.039 284.590  42
  -4  -1  -3 1401.16 355.372  41
  -4  -1  -3 1104.77 318.975  40
   4   1   3 1083.77 341.906   2
  -4  -1  -3 1386.08 355.134   1
  -4  -1  -4 197.506 180.220  41
  -4  -1  -4 37.0736 75.9360  47
  -4  -1  -4 62.1195 121.440  42
  -4  -1  -4-66.5437 101.479  40
   4   1   4 95.5339 184.933   2
  -4  -1  -4-44.9977 95.0542   1
  -4  -1  -5 2045.29 414.944  47
   4   1   5 2359.14 506.944   2
  -4  -1  -5 1581.61 360.154  42
  -4  -1  -5 2259.99 450.609  40
   4   1   6 2146.01 487.626   2
  -4  -1  -6 1112.49 309.314  47
  -4  -1  -6 1487.08 340.048  42
  -4  -1  -6 1088.18 331.039  40
   4   1   7 633.242 115.656   5
   4   1   7 640.999 110.584  11
  -4  -1  -7 594.360 272.767  47
  -4  -1  -7 671.212 292.604  46
  -4  -1  -7 436.461 181.765  37
   4   1   7 532.639 135.060   9
   4   1   7 508.139 104.660   3
   4   1   7 336.855 72.0822   4
   4   1   8-3.53349 51.6554  11
   4   1   8 45.8651 70.4586   9
   4   1   8-69.3479 74.8963   3
   4   1   8-151.538 62.0387   4
  -4  -1  -9 274.843 224.250  45
  -4  -1  -9 293.892 277.368  36
   4   1   9 145.535 110.401   9
   4   1   9-77.4758 83.3587   3
   4   1   9 100.590 55.3151   4
   4   1  10 731.018 169.954   9
   4   1  10 444.068 105.897   3
   4   1  10 476.068 94.8296   4
   4   1  11 1762.34 162.544   4
   4   1  12 153.966 51.1277   4
   4   1  13 215.190 50.5680   4
   4   2 -10 4410.74 242.994  32
   4   2 -10 4024.64 247.632  31
  -4  -2  10 4441.41 244.273  26
   4   2  -9 1634.36 170.494  32
   4   2  -9 1944.52 203.710  31
  -4  -2   9 1327.97 146.273  16
  -4  -2   9 1711.95 182.216  26
   4   2  -8 191.110 80.9284  32
   4   2  -8 225.144 264.718  17
   4   2  -8 75.9690 82.4399  31
  -4  -2   8 63.7212 58.8114  16
  -4  -2   8 87.0897 76.5194  26
   4   2  -7 150.348 83.7200  32
   4   2  -7 205.995 100.919  31
  -4  -2   7 108.040 57.4807  28
  -4  -2   7 81.6773 68.5289  26
   4   2  -6 4155.42 281.264  32
   4   2  -6 4012.14 658.196  17
   4   2  -6 4312.47 318.202  31
  -4  -2   6 4709.02 292.287  28
  -4  -2   6 4365.53 301.754  26
   4   2  -5 2812.78 226.049  32
   4   2  -5 3245.92 578.244  17
   4   2  -5 2956.60 255.437  31
  -4  -2   5 3249.36 239.060  28
  -4  -2   5 3045.32 244.994  26
  -4  -2   4 6656.98 786.411  50
   4   2  -4 7678.67 354.494  32
   4   2  -4 7573.96 837.632  17
   4   2  -4 7705.18 394.519  31
  -4  -2   4 8388.23 368.127  28
  -4  -2   4 7794.94 364.137  26
   4   2  -3 54.4652 191.534  17
  -4  -2   3 178.040 204.489   1
  -4  -2   2 4501.94 538.735  38
   4   2  -2 4395.94 602.907  17
  -4  -2   2 4915.20 722.330   1
   4   2  -2 3618.03 586.589   2
  -4  -2   1 14740.7 1035.39  39
   4   2  -1 13521.9 1005.84  17
  -4  -2   1 13963.4 1221.02   1
   4   2  -1 11688.3 1019.94   2
  -4  -2   0 2607.27 443.108  39
  -4  -2   0 3238.92 583.577   1
   4   2   0 3238.47 481.249  17
   4   2   0 2857.86 524.268   2
  -4  -2  -1 31.3778 95.8467  39
  -4  -2  -1-69.0063 163.669   1
   4   2   1-20.1692 164.262   2
   4   2   1 27.0035 108.312  17
  -4  -2  -2 9636.34 863.785  40
  -4  -2  -2 10037.7 861.931  39
   4   2   2 9279.34 778.081  17
   4   2   2 10380.0 968.001   2
  -4  -2  -3 13514.1 1002.87  47
  -4  -2  -3 12302.6 1042.08   1
  -4  -2  -3 14320.5 1057.04  40
  -4  -2  -3 13662.4 1013.92  39
   4   2   3 13367.8 1123.38   2
  -4  -2  -4 1067.96 315.214  47
   4   2   4 1336.88 394.032   2
  -4  -2  -4 1226.06 324.719  40
  -4  -2  -4 1088.79 300.928  39
  -4  -2  -4 1225.06 325.880   1
   4   2   5 269.562 210.595   2
  -4  -2  -5 90.5679 115.309  47
  -4  -2  -5 155.530 174.146  40
  -4  -2  -5 185.506 148.154  39
  -4  -2  -5 180.935 113.711  37
   4   2   6 20.0985 59.6208   5
   4   2   6 44.7350 38.0946  11
  -4  -2  -6-33.5966 140.909  47
  -4  -2  -6-2.24826 87.8610  38
  -4  -2  -6-67.4128 101.598  37
   4   2   6 54.2818 54.6935   9
   4   2   6 40.3786 52.4648   3
   4   2   7 304.296 96.6186   5
   4   2   7 221.527 77.5550  11
  -4  -2  -7 117.831 155.528  37
   4   2   7 384.252 126.358   9
   4   2   7 270.724 92.7957   3
   4   2   7 121.432 53.0021   4
   4   2   8 1383.57 172.385  11
   4   2   8 1262.29 173.278   3
  -4  -2  -8 1215.57 316.397  37
   4   2   8 1129.19 139.173   4
   4   2   8 1524.21 190.093   5
   4   2   9 1147.98 169.077  11
  -4  -2  -9 525.230 230.467  35
   4   2   9 1069.57 138.550   4
   4   2   9 575.413 102.984   3
  -4  -2 -10-68.5828 150.030  33
   4   2  10-60.1085 87.7312   3
   4   2  10-3.55104 57.9604   4
   4   2  11 1414.04 168.309   3
   4   2  11 1247.99 141.622   4
   4   2  12 815.833 104.935   4
   4   2  13 471.924 66.4657   4
   4   3 -10 2937.77 187.980  32
  -4  -3  10 2017.92 147.139  16
   4   3  -9-102.992 72.0459  32
   4   3  -9 72.1853 57.9459  31
  -4  -3   9 7.53110 48.4907  16
  -4  -3   9 79.7575 58.7534  26
   4   3  -8-92.5527 93.5768  32
   4   3  -8 85.3433 64.2125  31
  -4  -3   8 23.4530 52.9298  16
  -4  -3   8-4.77909 60.2008  26
   4   3  -7 425.805 97.5899  32
   4   3  -7 718.322 347.870  17
   4   3  -7 471.559 118.930  31
  -4  -3   7 448.381 114.447  16
  -4  -3   7 460.932 114.972  26
   4   3  -6 2835.20 238.206  32
   4   3  -6 3015.88 601.076  17
   4   3  -6 3020.82 265.162  31
  -4  -3   6 2885.44 248.899  28
  -4  -3   6 2887.93 252.158  26
   4   3  -5 737.980 126.113  32
   4   3  -5 1114.82 369.921  17
   4   3  -5 796.158 141.750  31
  -4  -3   5 845.994 146.355  28
  -4  -3   5 940.434 146.563  26
   4   3  -4 516.322 101.101  32
   4   3  -4 612.058 307.338  17
   4   3  -4 531.507 118.133  31
  -4  -3   4 638.069 118.189  28
  -4  -3   4 615.651 99.7680  27
  -4  -3   3-91.4865 140.069   1
   4   3  -3 97.3731 54.8632  32
   4   3  -3 232.993 207.750  17
   4   3  -3 110.526 62.5829  31
  -4  -3   3 75.5495 43.2199  30
  -4  -3   3 119.861 61.5698  28
  -4  -3   2 1632.58 474.536   1
  -4  -3   2 1758.32 358.002  38
   4   3  -2 1700.03 423.000  17
  -4  -3   2 2195.93 172.468  30
  -4  -3   1 140.773 132.297  38
   4   3  -1 7.04538 134.082  17
  -4  -3   1 30.9210 45.0230  30
  -4  -3   0 195.097 177.133  38
   4   3   0 111.800 180.709  17
  -4  -3   0 25.4041 43.8695  30
   4   3   1 1171.98 356.842   2
  -4  -3  -1 1375.16 337.056  38
   4   3   1 1190.98 309.494  17
  -4  -3  -1 1363.63 143.409  30
   4   3   2 1022.92 337.400   2
  -4  -3  -2 650.035 277.885  39
  -4  -3  -2 16.0675 112.370  38
   4   3   2 386.219 181.123  17
  -4  -3  -3 8008.91 795.977  47
  -4  -3  -3 7924.26 801.621  39
  -4  -3  -3 7948.77 803.938  38
  -4  -3  -3 8984.92 818.177  37
   4   3   3 8679.79 945.699   2
   4   3   4-71.5974 186.066   2
  -4  -3  -4 213.011 169.466  47
  -4  -3  -4-30.3175 97.3012  39
  -4  -3  -4 170.595 153.423  38
  -4  -3  -4 55.4354 86.5726  37
  -4  -3  -4 83.7880 45.1264  30
   4   3   5 823.859 120.972  11
  -4  -3  -5 740.105 249.039  47
  -4  -3  -5 409.311 200.434  38
  -4  -3  -5 720.064 244.552  37
   4   3   5 934.202 152.724   3
  -4  -3  -5 758.396 108.250  30
   4   3   5 904.049 154.106   5
   4   3   6 288.096 100.754   5
  -4  -3  -6 411.675 230.970  47
   4   3   6 299.389 82.3779  11
  -4  -3  -6 135.567 162.616  38
  -4  -3  -6 352.048 184.820  37
   4   3   6 228.193 72.8407  32
   4   3   6 261.999 95.9234   3
   4   3   7 206.123 81.5844  11
  -4  -3  -7 315.270 174.696  37
  -4  -3  -7-63.0883 190.367  34
   4   3   7 273.704 97.3075   3
   4   3   8 179.317 80.9345  11
  -4  -3  -8 43.5514 150.258  34
   4   3   8 77.2871 70.6719   3
   4   3   8-30.6703 56.8319   4
   4   3   9 28.7245 57.9707  11
  -4  -3  -9 51.5093 140.724  35
   4   3   9-87.1699 97.7866   3
   4   3   9-46.7034 63.3295   4
   4   3  10 37.4501 64.8607  11
   4   3  10-44.6552 75.5366   3
   4   3  10-107.653 69.8196   4
   4   3  11 107.069 86.7469   3
   4   3  11 5.21531 39.4535   4
   4   3  12 428.835 73.6514   4
   4   4  -9 583.739 99.6958  32
  -4  -4   9 189.959 66.2336  16
   4   4  -8-322.668 90.6543  32
  -4  -4   8 15.5470 52.4747  16
   4   4  -7-30.8462 76.2427  32
  -4  -4   7 184.512 79.4203  16
   4   4  -6-130.867 118.998  32
   4   4  -6 96.0859 65.6518  31
  -4  -4   6 46.0147 64.4983  16
   4   4  -5-139.792 117.200  32
  -4  -4   5 18.7429 46.6977  27
   4   4  -4-137.531 75.8140  32
   4   4  -4-106.605 85.6766  31
  -4  -4   4-4.62316 59.8779  28
  -4  -4   4-21.7165 51.7563  27
   4   4  -3 190.820 90.2616  32
   4   4  -3 66.1151 154.333  17
   4   4  -3-10.9749 76.8080  31
  -4  -4   3 77.3898 40.1408  30
  -4  -4   3 101.310 66.4885  28
  -4  -4   3 75.6394 58.9734  27
   4   4  -2-16.5344 52.1881  32
   4   4  -2-229.527 256.788  17
   4   4  -2-11.6440 54.8647  31
  -4  -4   2-5.81341 40.8704  30
  -4  -4   2-24.7795 64.4077  28
  -4  -4   2 13.8535 55.8847  27
  -4  -4   1 212.515 154.480  38
   4   4  -1 26.7403 53.5601  32
   4   4  -1 150.234 236.691  17
  -4  -4   1 58.8489 49.6986  30
  -4  -4   1 116.289 61.0574  28
  -4  -4   0 2715.68 489.903  38
   4   4   0 2832.28 232.293  32
   4   4   0 2311.81 508.767  17
  -4  -4   0 3011.25 222.706  30
  -4  -4  -1 2958.53 538.667  38
  -4  -4  -1 4040.48 554.468  37
   4   4   1 3359.69 253.073  32
   4   4   1 2652.89 519.190  17
  -4  -4  -1 3755.27 256.389  30
  -4  -4  -2 4696.41 669.746  38
  -4  -4  -2 5500.18 681.047  37
   4   4   2 5021.13 308.712  32
   4   4   2 4317.85 666.767  17
  -4  -4  -2 5468.12 314.440  30
   4   4   3 243.304 80.3854   3
  -4  -4  -3 228.218 186.273  38
  -4  -4  -3 231.506 163.727  37
   4   4   3 284.108 84.2710  32
  -4  -4  -3 346.550 94.9613  30
   4   4   3 584.776 137.956   5
   4   4   4 387.092 90.5259  12
   4   4   4 261.341 103.214   3
  -4  -4  -4 419.205 231.053  38
  -4  -4  -4 287.390 169.039  37
   4   4   4 571.976 121.428  32
  -4  -4  -4 379.040 90.8381  30
   4   4   4 397.156 122.711   5
   4   4   5 140.258 72.8345  11
  -4  -4  -5 80.9667 103.418  38
  -4  -4  -5 60.8416 116.636  37
   4   4   5 160.705 79.9568  32
  -4  -4  -5 16.0609 43.0650  30
   4   4   5 34.3911 59.8253   3
   4   4   6 2432.87 225.678  11
   4   4   6 2221.24 239.992   3
   4   4   6 2220.28 224.396  32
   4   4   7 63.3798 62.7454  11
  -4  -4  -7-90.1463 147.792  34
   4   4   7 137.084 81.5648   3
   4   4   8 1138.77 162.831  11
  -4  -4  -8 916.124 306.927  34
   4   4   8 966.964 150.406   3
   4   4   9 277.428 86.8098  11
   4   4   9 309.241 90.2561   3
   4   4  10 750.638 118.645  11
   4   4  10 989.296 155.345   3
   4   4  11 338.616 104.642   3
   4   4  11 7.46811 28.2864   4
   4   4  12 99.5504 36.5137   4
   4   5  -8-20.3386 49.6750  32
  -4  -5   8 68.1932 46.5326  16
   4   5  -7 86.5951 63.4676  32
  -4  -5   7 41.9720 61.2701  16
   4   5  -6 2127.62 210.807  32
  -4  -5   6 1680.78 201.914  16
   4   5  -5 167.851 87.0261  32
  -4  -5   5 49.8937 79.3205  16
   4   5  -4 25.1087 72.4701  32
   4   5  -4-10.3853 213.084  17
  -4  -5   4-75.4895 82.2431  16
  -4  -5   4 2.67636 53.7213  27
   4   5  -3-10.2584 59.0500  32
   4   5  -3-45.3425 171.113  17
  -4  -5   3 36.0701 44.9915  30
  -4  -5   3 12.4855 57.5416  27
   4   5  -3 1.84765 39.8208  24
   4   5  -2 280.498 99.8070  32
   4   5  -2 491.509 284.967  17
  -4  -5   2 218.362 69.2426  30
  -4  -5   2 311.632 85.0327  27
   4   5  -1 1362.27 184.038  32
   4   5  -1 1213.12 379.093  17
  -4  -5   1 1351.93 162.954  30
  -4  -5   1 1313.21 169.352  27
   4   5   0 1336.75 176.187  12
   4   5   0 1424.21 182.159  32
   4   5   0 1099.70 384.386  17
  -4  -5   0 1385.58 168.029  30
  -4  -5   0 1420.13 170.298  27
   4   5   1 1491.90 180.661  12
   4   5   1 1930.75 215.287  32
  -4  -5  -1 1660.18 186.499  30
  -4  -5  -1 1607.40 178.978  27
   4   5   2-25.8329 73.1852  12
   4   5   2 135.397 73.5364  32
  -4  -5  -2 73.6679 75.4329  30
  -4  -5  -2 89.1546 68.1586  27
   4   5   3 41.7948 59.4301   3
   4   5   3-15.0569 52.5702  12
   4   5   3-39.5153 58.3133  32
  -4  -5  -3 11.9261 52.2200  30
   4   5   4 374.629 97.4754  12
   4   5   4 398.410 115.614  32
  -4  -5  -4 288.582 86.5794  30
   4   5   4 335.006 100.184   3
  -4  -5  -5 678.005 263.377  34
   4   5   5 965.044 161.189  32
  -4  -5  -5 777.362 126.067  30
   4   5   5 819.177 147.968   3
   4   5   6-45.3828 61.7195  11
  -4  -5  -6 64.8756 159.527  34
   4   5   6 1.52087 57.7242  32
   4   5   6 41.8628 66.3215   3
   4   5   7 191.285 68.4431  11
  -4  -5  -7 160.944 175.674  34
   4   5   7 68.5518 76.4019   3
   4   5   8 322.623 90.6963  11
   4   5   8 231.367 83.6678   3
   4   5   9 218.129 74.4236  11
   4   5   9 118.295 65.6783   3
   4   5  10 1161.14 131.756  11
   4   5  10 1375.22 157.919   3
   4   5  11 380.910 71.0449  11
   4   6  -7 428.071 81.9101  32
  -4  -6   7 445.434 84.1274  16
   4   6  -6 1560.44 164.573  32
  -4  -6   6 1268.74 154.976  16
  -4  -6   6 1171.38 131.354  14
   4   6  -5 185.828 84.7263  32
  -4  -6   5 198.234 81.7423  16
  -4  -6   5 112.720 58.4489  14
   4   6  -4-78.9134 65.3663  32
  -4  -6   4-58.5082 69.3619  16
   4   6  -3-30.6500 61.4917  32
   4   6  -3 17.0408 141.454  17
  -4  -6   3-3.21103 59.6817  16
   4   6  -2-13.7523 49.6661  12
  -4  -6   2 35.2642 52.7364  19
   4   6  -2-12.2710 77.3132  32
   4   6  -2 1.24428 215.866  17
  -4  -6   2-19.9592 58.8712  30
   4   6  -1 762.371 137.666  12
  -4  -6   1 892.830 136.419  19
   4   6  -1 376.898 247.801  17
   4   6  -1 877.227 149.572  32
  -4  -6   1 676.018 119.526  30
  -4  -6   1 747.989 129.352  27
   4   6   0 699.059 133.732  12
  -4  -6   0 775.316 134.555  19
   4   6   0 727.042 134.732  32
  -4  -6   0 647.388 119.054  30
  -4  -6   0 658.580 124.912  27
   4   6   1 143.901 84.0522  12
  -4  -6  -1 98.0658 82.8439  19
   4   6   1 73.5370 69.4845  32
  -4  -6  -1 22.5337 62.5921  30
  -4  -6  -1 25.9291 59.2314  27
   4   6   2-29.8053 65.3968  12
  -4  -6  -2 34.6975 77.1550  19
   4   6   2-96.4375 73.4774  32
  -4  -6  -2 20.0283 54.6187  30
  -4  -6  -2-10.2974 68.9620  27
   4   6   3 2421.79 231.266  12
  -4  -6  -3 2731.45 251.640  19
  -4  -6  -3 2057.11 473.657  34
   4   6   3 2357.81 237.826  32
  -4  -6  -3 2341.29 231.067  30
   4   6   4 6627.76 377.195  12
  -4  -6  -4 7814.75 402.700  19
  -4  -6  -4 7063.84 852.139  34
   4   6   4 7829.43 433.766  32
  -4  -6  -4 7402.58 395.228  30
  -4  -6  -5 3432.90 250.663  19
  -4  -6  -5 2996.42 561.849  34
   4   6   5 3378.47 294.338  32
  -4  -6  -5 2931.66 232.611  30
   4   6   6 2596.47 236.669  11
  -4  -6  -6 2090.14 182.311   6
   4   6   7 380.994 100.847  11
  -4  -6  -7 256.581 69.3498   6
   4   6   8 5.56959 51.9233  11
   4   6   8 168.735 67.0684   3
   4   6   9 786.039 111.114  11
  -4  -6  -9 706.116 104.345  18
   4   6  10 711.516 93.5244  11
  -4  -6 -10 388.180 74.2502  18
   4   7  -5 62.4729 41.5930  12
  -4  -7   5-17.0468 41.9772  14
   4   7  -4-25.8413 40.5221  12
   4   7  -4-20.0860 40.3748  32
  -4  -7   4 55.6133 55.9846  14
   4   7  -3 137.026 55.0382  12
   4   7  -3 124.454 65.9029  32
  -4  -7   3 170.373 79.3718  14
   4   7  -2 210.755 78.7614  12
  -4  -7   2 138.489 57.1216  19
   4   7  -2 179.567 75.1622  32
   4   7  -1 1157.41 154.985  12
  -4  -7   1 880.338 126.899  19
   4   7  -1 1063.36 154.279  32
   4   7   0 299.667 90.7896  12
  -4  -7   0 262.009 87.7866  19
   4   7   0 211.079 80.5435  32
  -4  -7   0 297.924 79.6101   6
   4   7   1-0.82143 54.5730  12
  -4  -7  -1 150.889 83.4566  19
   4   7   1 102.444 59.9342  32
   4   7   2 87.7625 57.0522  12
  -4  -7  -2 48.1114 63.5322  19
   4   7   2 44.5268 65.9073  32
   4   7   3 1886.54 201.287  12
  -4  -7  -3 2187.53 216.111  19
   4   7   3 1792.05 207.681  32
  -4  -7  -3 2539.41 219.731   6
  -4  -7  -4 5454.08 315.800  19
   4   7   4 5165.43 329.907  32
  -4  -7  -4 6053.15 323.197   6
   4   7   5 2631.75 229.811  11
  -4  -7  -5 2155.78 190.198  19
  -4  -7  -5 2312.73 189.867   6
   4   7   6 0.88446 58.1958  11
  -4  -7  -6 18.2907 41.1870   6
   4   7   7 267.597 74.6349  11
  -4  -7  -7 318.187 66.7876   6
   4   7   8 22.7402 47.0557  11
  -4  -7  -8-19.1576 34.6668  18
   4   7   9 26.6189 28.8627  11
  -4  -7  -9 26.5234 31.6568  18
  -4  -8   3 100.616 49.4711  14
   4   8  -2 462.999 81.0292  12
   4   8  -2 436.112 76.5802  32
  -4  -8   2 559.209 99.4053  14
   4   8  -1 310.903 70.1783  12
   4   8  -1 303.284 70.6878  32
  -4  -8   1 427.397 93.6897  14
   4   8   0 295.979 69.2601  12
   4   8   0 308.012 73.8884  32
  -4  -8   0 250.130 79.4925  14
  -4  -8   0 230.361 60.6863   6
   4   8   1 48.6484 43.2229  12
   4   8   1 84.0380 48.8239  32
  -4  -8  -1 174.218 65.7021  14
  -4  -8  -1 96.2992 48.8396   6
   4   8   2 106.823 57.8958  12
   4   8   2 69.3258 43.6836  32
  -4  -8  -2 52.3140 51.9125   6
   4   8   3 591.950 101.719  32
  -4  -8  -3 749.897 106.240   6
   4   8   4 116.932 63.6288  11
  -4  -8  -4-47.1344 52.8586   6
   4   8   5 31.1439 47.1567  11
  -4  -8  -5-7.54624 39.2334   6
   4   8   6 377.841 70.6243  11
  -4  -8  -6 375.642 73.8690  18
  -4  -8  -6 370.843 64.5532   6
   4   8   7-44.8676 38.4892  11
  -4  -8  -7 37.1830 27.0718  18
   5  -6  -4 573.303 105.513   5
  -5   6   4 556.291 81.0098  25
  -5   6   3 345.207 71.4588  23
   5  -6  -3 415.040 102.412   5
   5  -6  -3 399.634 97.1992   7
  -5   6   3 356.650 74.9147  25
  -5   6   2 367.065 73.8838  23
   5  -6  -2 405.769 100.251   5
   5  -6  -2 428.284 99.3506   7
  -5   6   2 380.464 79.7176  25
  -5   6   1-1.02621 39.1327  23
   5  -6  -1 94.1862 67.6181   5
   5  -6  -1 132.121 66.5672   7
  -5   6   1 29.5629 53.1175  25
  -5   6   0-54.2398 53.4237  23
   5  -6   0-15.2592 57.7505   5
   5  -6   0-8.17064 49.9428   7
  -5   6   0-52.7740 71.8284  25
  -5   6  -1 857.687 120.945  23
   5  -6   1 829.155 132.620   5
   5  -6   1 907.501 143.895   7
  -5   6  -1 574.096 114.179  25
  -5   6  -2 367.840 87.8530  23
   5  -6   2 251.816 74.4361   5
   5  -6   2 317.474 89.8562   7
  -5   6  -2 234.147 78.6457  25
  -5   6  -3 104.400 51.1283  23
   5  -6   3 128.668 61.5034   7
  -5   6  -3 20.2323 52.7654  25
  -5   6  -4 88.4962 43.4938  23
   5  -6   4 277.451 71.2643   8
   5  -6   4 390.175 83.2991   7
  -5   6  -4 169.972 68.9136  25
  -5   6  -5-15.7647 37.8310  23
   5  -6   5 63.3780 43.5671   8
  -5   6  -5 66.7708 49.0319  25
   5  -5  -6 1183.97 127.617  20
  -5   5   6 1168.67 120.665  25
   5  -5  -5 419.703 84.0869  20
   5  -5  -5 427.678 106.212   5
  -5   5   5 394.249 82.1207  25
   5  -5  -4 1310.47 183.727   5
  -5   5   4 1181.60 143.097  25
   5  -5  -3 443.623 122.429   5
   5  -5  -3 645.386 130.655   7
  -5   5   3 616.833 110.497  25
  -5   5   2 107.006 58.9681  23
   5  -5  -2 256.885 107.435   5
   5  -5  -2 212.944 92.0559   7
  -5   5   2 104.570 63.4718  25
  -5   5   1-23.7866 52.1138  23
   5  -5  -1 31.4261 80.8038   5
   5  -5  -1 7.13279 71.4909   7
  -5   5   1 34.1121 59.9704  25
  -5   5   0 110.812 68.9530  23
   5  -5   0 65.2363 72.9228   5
   5  -5   0 46.2709 73.8988   7
  -5   5   0 201.715 90.0880  25
  -5   5  -1 412.844 94.9698  23
   5  -5   1 556.612 143.709   5
   5  -5   1 495.835 136.096   7
  -5   5  -1 428.825 122.799  25
  -5   5  -2-63.1841 76.1181  23
   5  -5   2-0.79561 76.2032   5
   5  -5   2 20.9317 69.3889   7
  -5   5  -2 49.2974 71.8790  25
  -5   5  -3 685.866 121.568  23
   5  -5   3 666.894 133.702   5
   5  -5   3 1027.70 172.976   8
   5  -5   3 766.626 151.479   7
  -5   5  -4 126.747 68.4375  23
   5  -5   4 44.9425 66.5595   8
   5  -5   4 152.958 79.7009   7
  -5   5  -5 1853.23 180.734  23
   5  -5   5 1786.21 210.947   8
  -5   5  -6 3252.31 219.446  23
   5  -5   6 3228.89 266.049   8
  -5   5  -7 1331.87 129.080  23
   5  -5   7 1715.94 177.073   8
   5  -4  -8 16.0912 39.4118  20
  -5   4   8 50.3366 36.9983  25
   5  -4  -7 23.0095 46.7333  20
  -5   4   7 42.3529 41.7339  25
   5  -4  -6 912.770 138.436  20
  -5   4   6 944.573 135.322  25
   5  -4  -5 304.856 98.5108  20
   5  -4  -5 226.561 86.5605   5
  -5   4   5 311.984 90.3010  25
   5  -4  -4 492.955 119.271  20
   5  -4  -4 562.557 137.068   5
  -5   4   4 281.186 83.9026  26
  -5   4   4 530.687 119.062  25
   5  -4  -3-67.7987 78.3716  20
   5  -4  -3-20.9911 83.6368   5
   5  -4  -3-29.8036 66.9801   7
  -5   4   3 46.2823 62.5947  26
  -5   4   3 32.2971 63.1735  25
   5  -4  -2 617.571 162.909   5
   5  -4  -2 675.645 163.581   7
  -5   4   2 362.375 107.650  26
  -5   4   2 838.746 142.842  25
   5  -4  -1 9.22532 96.1728   5
   5  -4  -1 5.66979 69.3937   7
  -5   4   1 48.5174 70.5119  25
   5  -4   0 483.895 158.378   5
   5  -4   0 610.523 154.574   7
  -5   4   0 494.850 133.184  25
  -5   4  -1 825.105 131.565  23
   5  -4   1 931.393 195.038   5
   5  -4   1 933.697 184.845   7
  -5   4  -2 36.8280 48.9223  23
   5  -4   2 141.029 115.495   5
   5  -4   2 99.9453 115.893   7
  -5   4  -3 148.956 78.6567  23
   5  -4   3 161.385 102.481   5
   5  -4   3 191.114 91.2907   8
   5  -4   3 172.887 98.3197   7
  -5   4  -4 1360.53 178.042  23
   5  -4   4 1214.89 182.963   5
   5  -4   4 1256.58 203.961   8
   5  -4   4 1263.97 202.007   7
  -5   4  -5 6572.51 352.945  23
   5  -4   5 6059.74 430.625   8
   5  -4   5 6658.36 404.960   7
   5  -4   6 3322.96 315.465   8
   5  -4   7 18.5704 76.3262   8
   5  -4   8 125.620 77.1757   9
   5  -4   8 118.469 64.7121   8
  -5   4  -9 145.645 48.9692  23
   5  -4   9 128.427 56.6404   8
   5  -3  -9 201.986 57.4020  20
  -5   3   9 120.119 42.8209  25
   5  -3  -8 643.548 124.428  20
  -5   3   8 619.866 98.8166  25
   5  -3  -7 376.152 105.647  20
  -5   3   7 358.171 79.1279  26
  -5   3   7 436.483 95.6906  25
   5  -3  -6 41.9135 67.4431  20
  -5   3   6 104.755 64.8611  26
  -5   3   6 74.7831 61.9089  25
   5  -3  -5 881.917 163.004  20
  -5   3   5 797.307 126.064  26
  -5   3   5 758.450 134.219  25
   5  -3  -4 42.3226 62.0337  20
   5  -3  -4-32.4124 72.6472   5
  -5   3   4 37.1881 52.3302  26
  -5   3   4 49.9205 64.8904  25
   5  -3  -3 424.817 124.906  20
   5  -3  -3 171.651 100.658   5
   5  -3  -3 312.789 119.761   7
  -5   3   3 330.260 98.1432  26
  -5   3   3 223.663 77.5708  25
   5  -3  -2-6.07385 63.6487  20
   5  -3  -2 35.5802 71.8964   5
   5  -3  -2 19.3067 71.3665   7
  -5   3   2-3.67496 66.1210  25
   5  -3  -1 1737.18 246.953   5
   5  -3  -1 2150.68 273.458   7
  -5   3   1 1968.44 220.866  25
   5  -3   0 5237.64 419.439   5
   5  -3   0 6029.88 437.171   7
  -5   3   0 5720.12 359.512  25
  -5   3  -1 115.990 239.340  41
   5  -3   1 195.276 107.055   5
   5  -3   1 166.516 104.391   7
  -5   3  -2 381.341 291.918  41
   5  -3   2 794.127 174.869   5
   5  -3   2 555.614 141.349   8
   5  -3   2 775.749 171.283   7
   5  -3   3 39.2821 85.7431   5
  -5   3  -3 85.4244 151.042  41
   5  -3   3 33.9836 72.3921   8
   5  -3   3-24.3383 68.3833   7
   5  -3   4 1153.64 186.762   5
  -5   3  -4 779.571 369.940  41
   5  -3   4 1012.10 185.808   8
   5  -3   4 1043.75 178.591   7
   5  -3   5 12472.4 556.530   5
   5  -3   5 13733.4 658.779   8
   5  -3   5 13874.8 607.888   7
   5  -3   6 7638.32 491.310   8
   5  -3   7 6530.22 439.590   8
   5  -3   8 110.839 79.8006   9
   5  -3   8 171.948 94.1803   8
   5  -3   9 14.3753 48.6605   8
   5  -3  10-65.5719 58.9779   9
   5  -2  -9 356.724 91.3842  20
   5  -2  -9 419.021 77.7580  31
  -5   2   9 319.236 66.8316  26
  -5   2   9 272.009 64.3846  25
   5  -2  -8 644.693 124.934  20
   5  -2  -8 586.960 104.996  31
  -5   2   8 543.130 94.9448  26
  -5   2   8 520.906 98.6766  25
   5  -2  -7 209.758 99.6667  20
   5  -2  -7 90.8919 76.0672  31
  -5   2   7 78.0040 63.8783  26
  -5   2   7 18.7759 59.3741  25
   5  -2  -6 127.890 79.6600  20
  -5   2   6-29.6033 72.8633  26
  -5   2   6 132.367 63.5706  25
   5  -2  -5 1460.28 209.777  20
  -5   2   5 1663.95 186.464  26
  -5   2   5 1382.65 172.646  25
   5  -2  -4 3259.69 300.225  20
  -5   2   4 3096.18 256.590  26
  -5   2   4 3178.85 253.612  25
   5  -2  -3 902.338 160.251  20
   5  -2  -3 748.768 159.860   5
  -5   2   3 670.162 127.135  26
  -5   2   3 750.066 131.806  25
   5  -2  -2 107.340 73.6698  20
   5  -2  -2-5.87454 83.9379   5
   5  -2  -2 192.953 105.706   7
  -5   2   2 36.0096 59.6026  25
   5  -2  -1 2326.44 273.042   5
   5  -2  -1 2253.36 239.096  20
  -5   2   1 1923.66 446.264  40
   5  -2  -1 2328.96 269.760   7
  -5   2   1 2104.99 217.621  25
   5  -2   0 3277.52 321.146   5
   5  -2   0 3263.25 280.090  20
  -5   2   0 2777.20 539.885  40
   5  -2   0 3355.80 322.606   7
  -5   2   0 3231.22 265.568  25
  -5   2  -1 169.726 136.162  41
   5  -2   1 499.699 142.821   5
   5  -2   1 386.863 123.742   7
  -5   2  -2-105.573 128.968  41
   5  -2   2 121.089 94.4594   5
   5  -2   2 75.6668 66.4980   8
   5  -2   2 54.2458 84.1295   7
   5  -2   3 3072.49 322.095   5
  -5   2  -3 2387.23 545.637  41
   5  -2   3 3100.40 297.328   8
   5  -2   3 2813.73 289.726   7
   5  -2   4 263.228 103.705   5
  -5   2  -4 164.462 148.061  42
  -5   2  -4 153.219 172.990  41
   5  -2   4 422.225 134.340   8
   5  -2   4 400.088 126.016   7
   5  -2   5 947.475 164.892   5
  -5   2  -5 566.731 332.785  42
  -5   2  -5 975.601 417.572  41
   5  -2   5 930.893 182.274   8
  -5   2  -6 91.8752 179.789  41
   5  -2   6 46.4876 92.7068   8
   5  -2   7 18215.3 472.914   4
   5  -2   7 496.886 141.755   8
   5  -2   8 50.5824 84.1708   9
   5  -2   8 143.898 93.2897   8
   5  -2   9-30.6482 68.5147   8
   5  -2   9 16318.1 383.561   4
   5  -2  10 76.4379 75.8387   9
   5  -2  10 14261.6 317.249   4
   5  -2  11 2689.17 211.426   9
   5  -2  11 10515.4 232.882   4
   5  -1  -9 188.422 71.0118  20
   5  -1  -9 279.665 82.5548  31
  -5   1   9 222.755 65.7379  26
  -5   1   9 198.917 64.5589  25
   5  -1  -8 1563.60 189.453  20
   5  -1  -8 1548.65 175.213  31
  -5   1   8 1468.35 159.491  26
  -5   1   8 1271.45 141.700  25
   5  -1  -7 304.452 108.092  20
   5  -1  -7 428.714 115.377  31
  -5   1   7 328.663 91.9178  26
  -5   1   7 233.737 69.6132  25
   5  -1  -6 1918.05 235.007  20
   5  -1  -6 1706.90 200.226  31
  -5   1   6 1810.14 190.655  26
  -5   1   6 1664.76 183.265  25
   5  -1  -5 5103.91 370.649  20
   5  -1  -5 5019.71 328.253  31
  -5   1   5 5585.97 331.532  26
  -5   1   5 4604.17 304.539  25
   5  -1  -4 2062.91 240.142  20
   5  -1  -4 2293.84 219.237  31
  -5   1   4 2377.17 220.249  26
  -5   1   4 1927.89 193.559  25
   5  -1  -3 95.5942 81.3654  20
  -5   1   3 122.096 78.9642  26
  -5   1   3 89.2842 61.1052  25
   5  -1  -2 1463.34 210.325   5
   5  -1  -2 1369.58 194.601  20
  -5   1   2 1349.30 341.187  40
  -5   1   2 1373.71 351.099  39
  -5   1   2 1408.52 165.991  25
   5  -1  -1 893.124 166.536  20
  -5   1   1 723.910 276.903  40
   5  -1  -1 895.994 165.108   5
   5  -1   0 715.487 138.111  20
   5  -1   0 799.652 168.198   5
  -5   1   0 281.560 194.650  40
   5  -1   0 708.879 150.181   7
   5  -1   1 34.5573 54.7035  20
  -5   1  -1 57.4313 171.164  41
   5  -1   1 22.7534 70.4786   5
  -5   1  -1 42.8988 173.328  40
   5  -1   1 52.7115 69.5070   7
   5  -1   2 825.217 177.844   5
  -5   1  -2 634.522 300.495  41
   5  -1   2 974.274 164.331   8
   5  -1   2 819.794 159.362   7
   5  -1   3 8202.66 504.763   5
  -5   1  -3 7272.18 924.250  41
   5  -1   3 8624.59 470.282   8
   5  -1   4 21709.2 795.328   5
  -5   1  -4 18085.7 1433.72  42
  -5   1  -4 18705.9 1465.03  41
   5  -1   4 23408.4 526.792   4
   5  -1   4 20156.7 745.445   8
   5  -1   5 20369.0 734.248   5
  -5   1  -5 15976.1 1369.20  42
  -5   1  -5 16700.7 1392.37  41
   5  -1   5 21024.3 780.773   8
   5  -1   5 18465.4 482.351   4
   5  -1   6 1219.38 173.805   5
  -5   1  -6 503.898 256.815  42
  -5   1  -6 905.482 319.598  41
   5  -1   6 1259.88 205.054   9
   5  -1   6 1069.71 196.455   8
   5  -1   7 1341.72 213.367   9
   5  -1   7 893.710 177.608   8
   5  -1   8 123.128 85.7334   8
   5  -1   8 1868.92 173.839   4
   5  -1   9 135.022 89.7035   9
   5  -1   9 2773.54 185.388   4
   5  -1  10 344.882 118.145   9
   5  -1  10 4244.27 211.448   4
   5  -1  11 165.136 83.4120   9
   5  -1  11 7296.48 233.778   4
   5   0 -10 5383.62 251.879  31
  -5   0  10 3956.28 195.158  26
   5   0  -9 1730.52 175.738  31
  -5   0   9 1376.81 141.022  26
   5   0  -8 431.170 109.415  20
   5   0  -8 514.909 117.222  31
  -5   0   8 544.016 113.211  26
   5   0  -7-80.7240 73.9461  20
   5   0  -7 79.1695 81.7200  31
  -5   0   7 54.7491 76.5472  26
   5   0  -6 719.591 149.904  20
   5   0  -6 732.228 142.024  31
  -5   0   6 688.862 112.424  28
  -5   0   6 684.543 123.740  26
   5   0  -5 1780.33 222.498  20
   5   0  -5 1571.30 193.589  31
  -5   0   5 1766.03 170.695  28
  -5   0   5 1707.67 187.793  26
   5   0  -4 53.4534 77.0418  20
   5   0  -4 128.647 89.0072  31
  -5   0   4 32.4650 48.0773  28
  -5   0   4 54.9029 67.2091  26
   5   0  -3 2657.30 266.251  20
   5   0  -3 2520.17 232.512  31
  -5   0   3 2409.91 214.691  26
  -5   0   2 1963.50 432.384  50
   5   0  -2 2111.40 233.250  20
  -5   0   2 1682.83 381.885  39
   5   0  -2 1981.38 203.001  31
  -5   0   2 2025.23 201.432  26
  -5   0   1 766.608 302.864  50
   5   0  -1 618.158 130.016  20
   5   0  -1 634.111 145.042   5
  -5   0   1 586.950 236.072  40
  -5   0   1 441.047 194.229  39
   5   0  -1 623.848 312.085   2
   5   0   0 82.8017 60.2895  20
   5   0   0 37.9984 65.9466   5
  -5   0   0 136.586 133.003  40
  -5   0   0 4.64630 119.338  39
   5   0   0 182.940 212.647   2
   5   0   1 6001.73 407.806   5
  -5   0  -1 5952.16 771.189  40
   5   0   1 5563.02 869.401   2
   5   0   2 1655.27 218.141   5
  -5   0  -2 1444.98 411.632  41
  -5   0  -2 1086.65 307.844  40
   5   0   2 1729.59 484.973   2
   5   0   3 283.405 101.691   5
  -5   0  -3 257.658 226.127  41
  -5   0  -3 249.670 219.745  40
   5   0   3 372.457 238.932   2
   5   0   3 317.220 104.205   8
   5   0   4 660.933 144.146   5
  -5   0  -4 226.151 173.661  42
  -5   0  -4 656.803 297.100  41
   5   0   4 606.914 138.994   8
   5   0   5 45.0111 63.2859   5
  -5   0  -5-9.11383 197.821  42
  -5   0  -5-179.544 185.045  41
   5   0   5 85.2389 97.7479   8
   5   0   5 399.479 93.1910   4
   5   0   6 2138.90 223.341   5
  -5   0  -6 1746.70 462.384  42
  -5   0  -6 1902.58 468.831  41
   5   0   6 2642.36 279.184   9
   5   0   7 186.680 77.2852   5
  -5   0  -7-58.7449 169.046  41
   5   0   7 118.550 77.9492   9
   5   0   7 0.24430 54.2427   4
   5   0   8 198.927 100.777   9
   5   0   8 95.6090 43.3547   4
   5   0   9 3144.65 319.087   9
   5   0   9 1673.87 151.280   4
   5   0  10 10073.6 535.235   9
   5   0  10 4963.50 238.750   4
   5   0  11 1145.81 118.244   4
   5   1 -10 624.153 91.4162  31
  -5  -1  10 546.764 79.2576  26
   5   1  -9 82.1397 73.0434  31
  -5  -1   9 144.257 60.6452  26
   5   1  -8-9.90679 59.8054  31
  -5  -1   8-77.2783 95.3289  26
   5   1  -7 123.787 94.6603  31
  -5  -1   7 137.994 63.1599  28
  -5  -1   7 125.749 81.7596  26
   5   1  -6 113.045 89.5394  20
   5   1  -6 247.496 185.771  17
   5   1  -6 90.5173 79.5861  31
  -5  -1   6-27.7903 47.2068  28
  -5  -1   6 44.2244 73.9058  26
   5   1  -5 208.161 94.2254  20
   5   1  -5 47.0562 128.792  17
   5   1  -5 360.044 121.637  31
  -5  -1   5 304.755 91.1258  28
  -5  -1   5 150.448 87.4265  26
   5   1  -4 49.8860 70.3605  20
   5   1  -4 242.238 197.241  17
   5   1  -4 161.927 92.5808  31
  -5  -1   4-34.8098 64.5962  28
  -5  -1   4 76.8008 67.8140  26
   5   1  -3 838.958 159.203  20
   5   1  -3 637.932 275.291  17
   5   1  -3 735.054 144.484  31
  -5  -1   3 909.090 131.736  28
  -5  -1   3 899.549 140.470  26
   5   1  -2 4829.30 353.987  20
  -5  -1   2 4344.54 611.400  39
   5   1  -2 3874.14 609.178  17
   5   1  -2 4102.88 295.324  31
  -5  -1   2 4616.72 287.896  26
   5   1  -1 2184.68 242.479  20
  -5  -1   1 2225.59 442.022  39
   5   1  -1 940.238 285.454  17
   5   1  -1 1877.53 199.780  31
   5   1  -1 2177.77 545.775   2
  -5  -1   1 2120.48 198.326  26
   5   1   0 422.588 108.226  20
  -5  -1   0 278.954 185.901  40
  -5  -1   0 364.431 201.165  39
   5   1   0-126.678 187.168   2
  -5  -1   0 765.573 315.108   1
  -5  -1  -1 7979.95 884.040  40
  -5  -1  -1 7789.36 864.420  39
   5   1   1 7173.21 992.445   2
  -5  -1  -1 8004.94 990.836   1
  -5  -1  -2 17309.4 1316.31  40
  -5  -1  -2 16664.6 1277.50  39
   5   1   2 16606.4 1470.71   2
  -5  -1  -2 15280.1 1327.10   1
   5   1   3 22210.2 720.088   5
   5   1   3 23165.0 749.592  20
  -5  -1  -3 23149.5 1515.48  41
  -5  -1  -3 22063.2 1521.69  40
  -5  -1  -3 21415.9 1437.62  39
   5   1   3 22042.0 673.453   3
   5   1   3 21872.9 1682.11   2
  -5  -1  -3 20778.3 1492.90   1
   5   1   4 16583.1 614.828   5
   5   1   4 17374.5 647.237  20
  -5  -1  -4 17985.8 1341.92  41
  -5  -1  -4 15175.6 1254.44  40
   5   1   4 16577.3 583.050   3
   5   1   5 655.154 126.331   3
   5   1   5 642.664 127.416   5
  -5  -1  -5 581.995 284.505  40
   5   1   6 175.503 66.5997  11
   5   1   6 271.050 91.9151   5
  -5  -1  -6 260.112 167.274  40
  -5  -1  -6 78.6116 108.693  39
   5   1   6 387.138 121.158   9
   5   1   6 273.945 77.6768   4
   5   1   6 185.200 90.0211   3
   5   1   7-23.8763 58.5061   5
   5   1   7 58.2019 76.6999   9
   5   1   7 29.2652 45.5898   4
   5   1   7-9.46443 57.8066   3
   5   1   8 84.9398 63.7865   5
   5   1   8 242.597 122.457   9
   5   1   8 128.868 62.3125   3
   5   1   8 62.3500 50.5971   4
   5   1   9 3523.60 248.308   3
   5   1   9 3142.84 213.052   4
   5   1  10 4184.73 254.949   3
   5   1  10 3598.23 219.798   4
   5   1  11 774.233 91.3072   4
   5   1  12 245.933 51.8292   4
   5   2  -9 167.730 59.7216  31
  -5  -2   9 238.401 68.2351  26
   5   2  -8 59.2062 65.3592  31
  -5  -2   8 43.8947 51.8876  16
  -5  -2   8 64.7408 56.7084  26
   5   2  -7 262.697 75.4977  32
   5   2  -7 449.687 111.179  31
  -5  -2   7 302.510 91.8168  26
   5   2  -6 482.109 101.092  32
   5   2  -6 645.738 299.224  17
   5   2  -6 760.405 149.294  31
  -5  -2   6 854.305 134.793  28
  -5  -2   6 584.936 127.398  26
   5   2  -5 91.0606 89.6853  31
  -5  -2   5 101.490 74.9090  28
  -5  -2   5 97.7323 81.2468  26
   5   2  -4 209.629 102.068  20
   5   2  -4 126.754 164.949  17
   5   2  -4 353.964 113.103  31
  -5  -2   4 339.450 104.414  28
  -5  -2   4 278.242 82.3651  26
   5   2  -3 22.2268 80.6586  20
   5   2  -3 246.996 204.519  17
   5   2  -3-9.44180 74.8622  31
  -5  -2   3 1.17158 60.1942  28
  -5  -2   3-27.6223 60.5420  26
   5   2  -2 482.750 137.972  20
  -5  -2   2 441.744 200.861  38
   5   2  -2 539.904 273.710  17
   5   2  -2 437.648 115.389  31
  -5  -2   2 570.075 114.457  28
   5   2  -1 2041.74 236.442  20
  -5  -2   1 2363.65 488.623  39
  -5  -2   1 2780.81 490.776  38
   5   2  -1 2029.39 443.327  17
   5   2  -1 1972.74 215.146  31
   5   2   0 321.298 103.720  20
  -5  -2   0-226.478 191.171   1
  -5  -2   0 241.158 190.765  39
   5   2   0 631.088 306.656   2
   5   2   0-5.19820 150.613  17
   5   2   0 241.538 89.7479  31
   5   2   1 1002.82 148.203   5
  -5  -2  -1 925.565 341.485   1
   5   2   1 967.815 166.044  20
  -5  -2  -1 898.339 343.756  39
   5   2   1 155.397 193.575   2
   5   2   1 605.140 241.291  17
   5   2   2 7462.73 397.083   5
   5   2   2 7756.28 449.777  20
  -5  -2  -2 6966.58 822.683  39
   5   2   2 6201.95 730.237  17
   5   2   2 7699.20 420.640   3
   5   2   2 6560.99 901.020   2
  -5  -2  -2 6294.82 838.341   1
   5   2   3 1043.91 155.730   5
   5   2   3 810.770 158.418  20
  -5  -2  -3 1014.56 334.195  40
  -5  -2  -3 653.663 290.869  39
   5   2   3 1111.74 166.965   3
  -5  -2  -3 642.624 268.174   1
   5   2   4 1979.36 209.751   5
  -5  -2  -4 2060.20 463.656  40
  -5  -2  -4 1594.84 409.651  39
   5   2   4 2240.10 225.497   3
   5   2   5 4153.54 303.797   5
   5   2   5 4015.95 250.215  11
  -5  -2  -5 3595.23 595.451  40
  -5  -2  -5 4170.37 624.051  39
   5   2   5 4312.02 316.582   3
   5   2   6 1281.18 151.288  11
  -5  -2  -6 1104.71 306.739  38
  -5  -2  -6 1228.26 320.939  37
   5   2   6 1205.52 168.904   3
   5   2   6 1273.07 178.831   5
   5   2   7 2322.99 217.640  11
   5   2   7 2360.65 234.356   3
   5   2   7 1846.91 167.835   4
   5   2   7 2703.70 255.064   5
   5   2   8 1071.44 148.406  11
   5   2   8 880.863 150.368   3
   5   2   8 908.825 118.932   4
   5   2   8 1310.13 183.847   5
   5   2   9 24966.0 692.997   3
   5   2   9 21406.6 558.201   4
   5   2  10 1276.16 148.361   3
   5   2  10 1371.32 132.473   4
   5   2  11 556.251 95.7308   3
   5   2  11 520.543 81.1629   4
   5   2  12-167.930 48.6577   4
   5   3  -9-101.673 56.8973  31
   5   3  -8 52.7473 51.7312  32
   5   3  -8-23.6844 57.3876  31
  -5  -3   8 26.2068 42.5445  16
  -5  -3   8 14.4926 44.5664  26
   5   3  -7 329.968 86.4358  32
   5   3  -7 240.181 79.0471  31
  -5  -3   7 298.782 84.7191  16
  -5  -3   7 314.183 87.2181  26
   5   3  -6 133.885 67.7155  32
   5   3  -6 32.7563 63.1221  31
  -5  -3   6 48.9558 63.6257  28
  -5  -3   6 48.5595 59.0877  26
   5   3  -5 255.342 89.0500  32
   5   3  -5 35.6985 165.832  17
   5   3  -5 140.762 92.0106  31
  -5  -3   5 168.365 91.8528  28
   5   3  -4 365.580 101.012  32
   5   3  -4 426.053 234.485  17
   5   3  -4 394.384 115.808  31
  -5  -3   4 315.715 99.2396  28
  -5  -3   4 256.219 77.2245  27
   5   3  -3 355.358 94.0779  32
   5   3  -3 231.274 209.603  17
   5   3  -3 291.976 93.9907  31
  -5  -3   3 339.231 102.145  28
   5   3  -2 226.888 103.997  20
  -5  -3   2 154.069 101.670  38
   5   3  -2 241.403 76.9131  32
   5   3  -2 356.492 221.012  17
   5   3  -2 243.856 104.016  31
  -5  -3   2 274.869 76.8703  30
  -5  -3   2 323.211 100.912  28
   5   3  -1 137.534 98.0586  20
  -5  -3   1 168.935 147.885  38
   5   3  -1 10.4221 68.5604  32
   5   3  -1-80.7118 205.375  17
   5   3  -1-2.35550 63.6636  31
  -5  -3   1 92.6798 60.3922  30
  -5  -3   1 117.973 73.1767  28
   5   3   0 12522.8 582.969  20
  -5  -3   0 14959.9 1168.13  38
   5   3   0 14067.5 524.755  32
   5   3   0 12943.2 1169.08  17
  -5  -3   0 15211.5 515.459  30
  -5  -3   0 14835.9 517.836  28
   5   3   1 23853.2 693.064   5
   5   3   1 20680.0 743.754  20
  -5  -3  -1 24645.7 1518.68  38
   5   3   1 22249.7 653.035  32
   5   3   1 20962.2 1456.18  17
  -5  -3  -1 24588.5 668.170  30
   5   3   2 13448.5 531.546   5
   5   3   2 12997.5 589.512  20
  -5  -3  -2 13860.5 1168.95  39
  -5  -3  -2 13601.4 1137.26  38
   5   3   2 13043.2 497.353  32
   5   3   2 10849.4 1032.21  17
   5   3   2 12619.9 559.472   3
   5   3   3 92.2146 60.3198   5
   5   3   3 34.6638 66.9829   3
  -5  -3  -3-20.8890 128.825  39
  -5  -3  -3 184.612 150.973  38
  -5  -3  -3 22.1363 159.895  37
   5   3   3-60.5110 80.4130  32
  -5  -3  -4 6783.26 799.652  39
  -5  -3  -4 7124.52 816.483  38
  -5  -3  -4 7468.47 799.891  37
   5   3   4 7621.69 439.454   3
   5   3   4 6802.15 368.130  32
  -5  -3  -4 7543.86 360.860  30
   5   3   4 8432.73 435.212   5
   5   3   5 8666.95 390.447  11
  -5  -3  -5 7914.93 829.398  38
  -5  -3  -5 8815.78 880.541  37
   5   3   5 9335.82 484.552   3
   5   3   5 8578.68 420.020  32
  -5  -3  -5 8269.12 368.293  30
   5   3   5 10255.8 492.968   5
   5   3   6 167.406 93.3585   5
   5   3   6 74.2481 59.8497  11
  -5  -3  -6-22.5724 112.866  38
  -5  -3  -6 52.1064 43.0556  30
   5   3   6 104.465 85.9300   3
   5   3   7 26.7049 59.6078  11
   5   3   7 53.5501 74.2021   3
   5   3   7 145.827 96.0484   5
   5   3   8 847.093 138.505  11
   5   3   8 912.523 158.863   3
   5   3   9 2920.88 239.639  11
   5   3   9 2478.20 225.919   3
   5   3  10 256.064 74.7345   3
   5   3  10 243.973 57.4758   4
   5   3  11 222.087 73.1172   3
   5   3  11 107.327 39.1312   4
   5   4  -8-25.0910 41.4979  32
  -5  -4   8 41.4676 35.9578  16
   5   4  -7 45.5998 40.4532  32
   5   4  -7-76.8138 66.1530  31
  -5  -4   7 77.3550 58.4632  16
   5   4  -6-5.32680 53.3499  32
   5   4  -6 12.3953 54.1059  31
  -5  -4   6 46.3569 65.2094  16
   5   4  -5 939.384 143.400  32
   5   4  -5 918.406 146.917  31
  -5  -4   5 946.583 116.168  27
   5   4  -4-0.34720 59.7581  32
   5   4  -4 134.204 158.474  17
   5   4  -4-71.9803 79.5198  31
  -5  -4   4 9.55952 66.1376  28
  -5  -4   4-14.3403 60.6000  27
   5   4  -3 1686.79 193.622  32
   5   4  -3 1076.53 357.155  17
   5   4  -3 1288.97 179.943  31
  -5  -4   3 1460.49 191.627  28
  -5  -4   3 1546.95 173.184  27
   5   4  -2 414.329 108.445  32
   5   4  -2 342.837 275.312  17
  -5  -4   2 345.390 87.5400  30
  -5  -4   2 332.121 100.057  28
  -5  -4   2 371.971 100.640  27
   5   4  -1 44.3281 81.7782  20
  -5  -4   1 30.0379 177.212  38
   5   4  -1 82.4515 68.9641  32
   5   4  -1 106.957 179.924  17
  -5  -4   1 155.622 81.9274  30
  -5  -4   1 67.3539 58.4902  28
  -5  -4   0 9101.52 952.628  38
   5   4   0 8748.69 439.469  32
   5   4   0 8498.78 999.341  17
  -5  -4   0 9758.68 436.967  30
  -5  -4   0 8849.98 412.451  28
   5   4   1 356.966 129.577   3
  -5  -4  -1 492.571 243.819  38
   5   4   1 470.192 125.555  32
   5   4   1-32.7186 140.480  17
  -5  -4  -1 435.291 101.848  30
   5   4   2 438.238 116.529   5
   5   4   2 359.458 118.623   3
  -5  -4  -2 285.688 214.723  38
  -5  -4  -2 381.974 197.068  37
   5   4   2 254.338 93.9708  32
  -5  -4  -2 391.278 104.082  30
   5   4   3 647.491 147.603   3
  -5  -4  -3 1095.88 340.181  38
  -5  -4  -3 783.368 277.776  37
   5   4   3 739.918 133.366  32
  -5  -4  -3 1105.28 153.248  30
   5   4   3 1193.04 179.275   5
   5   4   4 2778.58 234.227  11
  -5  -4  -4 2629.18 526.900  38
   5   4   4 3027.69 291.939   3
   5   4   4 2784.33 256.357  32
  -5  -4  -4 3031.85 241.788  30
   5   4   4 3719.44 316.665   5
   5   4   5 3030.39 251.648  11
  -5  -4  -5 3370.08 559.158  38
   5   4   5 3268.47 291.588   3
   5   4   5 3025.22 262.821  32
  -5  -4  -5 3160.06 234.618  30
   5   4   6 4302.33 299.533  11
  -5  -4  -6 3983.89 585.017  38
   5   4   6 4322.55 327.431   3
   5   4   6 3971.85 304.032  32
   5   4   7 8476.79 418.719  11
   5   4   7 8277.84 439.792   3
   5   4   8 1263.36 163.183  11
   5   4   8 1243.95 167.841   3
   5   4   9 33.2132 54.5587  11
   5   4   9-86.1292 77.8859   3
   5   4  10 136.114 57.1266  11
   5   4  10 145.213 63.4675   3
   5   4  11 184.086 74.5512   3
   5   5  -7 271.142 66.2717  32
  -5  -5   7 219.875 65.8509  16
   5   5  -6 1112.79 135.189  32
  -5  -5   6 939.600 134.335  16
   5   5  -5 1753.21 181.769  32
  -5  -5   5 1617.28 182.537  16
   5   5  -4 634.435 124.109  32
  -5  -5   4 396.970 106.868  16
  -5  -5   4 609.735 107.793  27
   5   5  -3 64.6274 65.2058  32
   5   5  -3 109.808 190.018  17
  -5  -5   3-4.11609 54.1335  27
   5   5  -2 958.550 158.867  32
   5   5  -2 1102.93 355.637  17
  -5  -5   2 685.245 112.184  30
  -5  -5   2 734.717 129.920  28
  -5  -5   2 852.074 135.299  27
   5   5  -1 17104.5 627.508  32
  -5  -5   1 16893.3 569.934  30
  -5  -5   1 17008.3 572.415  27
   5   5   0 2470.83 249.260  32
   5   5   0 1865.38 220.313   3
   5   5   0 2458.80 575.884  17
  -5  -5   0 2430.77 226.368  30
  -5  -5   0 2341.38 222.508  27
   5   5   1 3916.75 311.428  32
  -5  -5  -1 4285.77 299.393  30
  -5  -5  -1 4335.77 293.935  27
   5   5   2 73.1656 64.8155   3
   5   5   2 163.455 84.3364  32
  -5  -5  -2 241.331 89.8214  30
  -5  -5  -2 212.869 92.1470  27
   5   5   3 249.253 94.8357   3
   5   5   3 357.331 93.9168  11
   5   5   3 471.021 117.821  32
  -5  -5  -3 577.293 123.337  30
  -5  -5  -3 483.725 110.351  27
   5   5   4 166.088 64.9880  11
   5   5   4 85.7439 66.0220  32
  -5  -5  -4 136.422 61.8418  30
   5   5   4 165.715 67.7027   3
   5   5   5 0.46703 65.3055  11
   5   5   5 51.5783 89.0101  32
  -5  -5  -5 30.5081 56.1158  30
   5   5   5-24.9687 62.3000   3
   5   5   6 44.6042 59.4110  11
   5   5   6 22.6685 69.0208  32
   5   5   6 202.737 92.8326   3
   5   5   7 233.200 82.6288  11
   5   5   7 285.705 90.3220   3
   5   5   8-24.4092 69.0837  11
   5   5   8-128.147 85.3747   3
   5   5   9 20.1839 41.5280  11
   5   5   9-52.2049 62.2163   3
   5   5  10 141.579 57.2591  11
   5   5  10 149.581 64.4613   3
   5   6  -6 1613.83 135.999  32
   5   6  -5 2761.90 197.915  32
  -5  -6   5 3044.45 201.979  14
   5   6  -4 277.104 79.6988  32
  -5  -6   4 107.806 60.2705  16
   5   6  -3 264.247 91.1110  32
  -5  -6   3 149.032 67.9942  16
  -5  -6   2 390.784 90.5730  19
   5   6  -2 572.310 133.688  32
  -5  -6   1 1588.29 173.370  19
   5   6  -1 1590.51 203.463  32
  -5  -6   1 1251.03 152.701  30
  -5  -6   1 1241.91 156.494  27
  -5  -6   0 52.7731 74.5102  19
   5   6   0-0.90199 64.4653  32
  -5  -6   0-53.7978 55.3165  30
  -5  -6   0 71.7422 75.4738  27
  -5  -6  -1 65.2257 75.1177  19
   5   6   1 37.3277 67.1663  32
  -5  -6  -1 98.9070 62.0959  30
  -5  -6  -1 6.10655 63.4431  27
   5   6   2 304.548 89.3947  12
  -5  -6  -2 260.560 88.4779  19
   5   6   2 249.593 87.0474  32
  -5  -6  -2 437.002 107.774  30
  -5  -6  -2 362.598 88.3942  27
   5   6   3-34.7963 48.1696  11
  -5  -6  -3-16.6132 70.8621  19
   5   6   3 53.8784 67.2874  32
  -5  -6  -3 82.8560 59.0506  30
  -5  -6  -3 106.692 63.5868  27
   5   6   4 3331.81 251.935  11
  -5  -6  -4 3412.82 250.399  19
   5   6   4 3331.75 287.203  32
  -5  -6  -4 3300.63 248.083  30
   5   6   5 3470.47 255.357  11
  -5  -6  -5 3416.53 229.913  19
   5   6   5 3480.57 248.281   3
   5   6   5 3766.82 300.428  32
  -5  -6  -5 3012.62 223.156  30
   5   6   6 1119.45 148.262  11
   5   6   6 1195.34 144.114   3
   5   6   7 141.891 54.4502  11
   5   6   7 39.8769 47.0542   3
  -5  -6  -7 90.0076 41.4799   6
   5   6   8 183.373 59.1278  11
   5   6   8 82.8844 46.3092   3
   5   6   9 72.8600 43.5696  11
  -5  -6  -9 17.7981 31.3542  18
   5   6   9 87.5496 52.6545   3
   5   7  -4 433.676 76.2737  32
   5   7  -3 1166.27 130.405  32
  -5  -7   3 1048.57 129.068  14
  -5  -7   2 1829.89 142.060  19
   5   7  -2 2154.73 185.195  32
  -5  -7   1 1627.34 149.134  19
   5   7  -1 1849.98 184.992  32
   5   7   0-45.5203 47.8733  12
  -5  -7   0 37.5267 49.0505  19
   5   7   0 36.8079 53.8354  32
  -5  -7   0 12.1616 37.5382   6
   5   7   1 36.3992 45.1459  12
  -5  -7  -1 84.9827 62.8312  19
   5   7   1 1.58555 62.0727  32
   5   7   2 6.58660 40.1099  11
  -5  -7  -2 65.0905 59.7967  19
   5   7   2 44.2015 60.0068  32
   5   7   3 617.564 100.545  11
  -5  -7  -3 594.201 106.944  19
   5   7   3 720.739 128.608  32
   5   7   4 898.859 123.983  11
  -5  -7  -4 938.722 124.333  19
   5   7   4 933.051 153.139  32
  -5  -7  -4 964.300 127.149   6
   5   7   5 31.2867 50.0717  11
  -5  -7  -5-18.3732 49.1392  19
  -5  -7  -5-14.3026 36.9090   6
   5   7   6 25.3618 40.0177  11
  -5  -7  -6 79.2551 40.4420   6
   5   7   7-33.4936 43.3296  11
  -5  -7  -7 33.5469 28.7356   6
   5   7   8 68.0050 32.6486  11
   5   8   1 14.0945 34.1970  32
   5   8   2 81.9478 48.5678  32
  -5  -8  -2 100.107 40.1625   6
  -5  -8  -3 2132.54 141.022   6
  -5  -8  -4 414.373 64.6347   6
   6  -5  -3 1112.62 143.969   5
  -6   5   3 897.109 101.532  25
   6  -5  -2 17.4219 54.0070   5
  -6   5   2-15.2647 40.7826  25
   6  -5  -1 44.9428 52.4391   5
  -6   5   1 7.46643 40.2983  25
   6  -5   0 1735.80 192.723   5
  -6   5   0 1111.99 132.713  25
   6  -5   1 461.301 103.562   5
  -6   5  -1 303.339 77.2090  25
   6  -5   2 53.2557 59.4344   5
  -6   5  -2 39.4907 58.8128  25
   6  -5   3 334.443 75.0976   5
  -6   5  -3 116.900 62.6274  25
  -6   5  -4-32.8937 47.9745  25
  -6   5  -5-18.2250 33.2138  25
   6  -4  -5 1754.79 155.914  20
  -6   4   5 1709.07 139.005  25
   6  -4  -4 1229.20 164.992   5
   6  -4  -4 1220.33 137.173  20
  -6   4   4 1270.70 131.633  25
   6  -4  -3 4.27688 80.2185   5
  -6   4   3 14.3303 42.4739  26
  -6   4   3 67.4639 55.3507  25
   6  -4  -2-72.6616 87.3536   5
  -6   4   2 58.7825 51.0665  26
  -6   4   2-41.7398 54.8546  25
   6  -4  -1 479.329 132.568   5
  -6   4   1 142.791 72.0405  26
  -6   4   1 387.474 98.6416  25
   6  -4   0 2222.70 269.399   5
   6  -4   0 2042.40 246.086   7
  -6   4   0 1545.82 180.872  25
   6  -4   1 727.431 156.530   5
   6  -4   1 699.271 152.444   7
  -6   4  -1 521.113 118.590  25
   6  -4   2 73.1553 91.5413   5
   6  -4   2 69.3636 61.3490   7
  -6   4  -2 23.9811 59.7921  25
   6  -4   3 237.022 92.7529   5
  -6   4  -3 179.045 81.5970  25
   6  -4   4 70.0888 55.6214   5
   6  -4   4 99.8282 60.0205   8
   6  -4   5 128.614 73.4163   8
   6  -4   6 9463.40 409.951   8
   6  -3  -7 2534.61 185.185  20
   6  -3  -6 2154.76 199.737  20
  -6   3   6 1970.73 144.478  26
  -6   3   6 1938.54 151.140  25
   6  -3  -5 13.5130 61.6980  20
  -6   3   5 6.50821 45.7459  26
  -6   3   5 38.2367 44.7056  25
   6  -3  -4 108.606 72.4541  20
   6  -3  -4 91.0994 75.0837   5
  -6   3   4-6.40189 46.3795  26
  -6   3   4 44.3039 47.1321  25
   6  -3  -3 324.794 102.829  20
   6  -3  -3 411.114 124.767   5
  -6   3   3 70.4089 60.3484  26
  -6   3   3 199.637 69.2206  25
   6  -3  -2 662.519 135.757  20
   6  -3  -2 550.556 154.436   5
  -6   3   2 371.754 106.976  26
  -6   3   2 588.776 117.363  25
   6  -3  -1 507.109 147.875   5
  -6   3   1 362.679 115.662  26
  -6   3   1 576.511 117.875  25
   6  -3   0 529.316 168.909   5
  -6   3   0 208.457 80.2887  25
   6  -3   1 1853.36 263.897   5
  -6   3  -1 1620.05 193.718  25
   6  -3   2 211.371 121.651   5
  -6   3  -2 226.597 95.3388  25
   6  -3   3 24.7470 73.2279   5
   6  -3   3 42.5041 70.3628   8
   6  -3   4 281.370 105.060   5
   6  -3   4 303.197 104.483   8
   6  -3   5 1266.63 166.293   5
   6  -3   5 1420.56 198.735   8
   6  -3   6 7133.98 414.137   8
   6  -3   7 1039.77 165.443   9
   6  -3   8-18.3862 50.5233   9
   6  -2  -7 183.361 77.3304  20
  -6   2   7 111.984 51.2576  26
  -6   2   7 65.1839 40.8998  25
   6  -2  -6 83.9105 69.2437  20
  -6   2   6-9.43324 48.6990  26
  -6   2   6 69.0354 50.2476  25
   6  -2  -5 28.0257 75.4306  20
  -6   2   5 56.4728 48.1831  26
  -6   2   5 54.9063 47.6836  25
   6  -2  -4 230.738 101.105  20
  -6   2   4 361.018 97.6077  26
  -6   2   4 259.927 80.7770  25
   6  -2  -3 1048.88 180.646  20
   6  -2  -3 975.838 181.659   5
  -6   2   3 961.818 144.938  26
  -6   2   3 639.280 118.190  25
   6  -2  -2 2583.63 293.862   5
   6  -2  -2 2371.73 262.435  20
  -6   2   2 2473.11 233.391  26
  -6   2   2 2111.75 206.663  25
   6  -2  -1 2129.76 276.107   5
   6  -2  -1 2112.86 248.361  20
  -6   2   1 1808.46 195.418  25
   6  -2   0 57.1397 74.5755  20
   6  -2   0 13.8499 88.4608   5
  -6   2   0 21.1048 52.6764  25
   6  -2   1-1.34858 101.311   5
  -6   2  -1 8.86606 54.3317  25
   6  -2   2-31.4588 100.876   5
  -6   2  -2 83.8283 74.2859  25
   6  -2   3 1404.59 225.505   5
   6  -2   3 1525.88 209.041   8
   6  -2   4 6264.56 432.042   5
   6  -2   4 6317.24 410.400   8
   6  -2   5 12549.3 554.225   5
   6  -2   5 13036.5 593.113   8
   6  -2   6 3574.11 268.487   5
   6  -2   6 3705.53 321.136   8
   6  -2   7 118.670 80.4797   9
   6  -2   8 620.495 128.338   9
   6  -2   9 37.3148 52.1306   9
   6  -1  -8 1426.76 143.630  20
  -6   1   8 1141.47 106.043  26
   6  -1  -7 729.022 121.076  20
   6  -1  -7 563.992 93.1610  31
  -6   1   7 623.810 93.8566  26
   6  -1  -6 82.8221 65.9924  20
   6  -1  -6 68.5770 61.4294  31
  -6   1   6 181.874 66.0979  26
   6  -1  -5 82.0224 76.6531  20
  -6   1   5 107.779 67.6895  26
   6  -1  -4 1206.74 196.228  20
  -6   1   4 1062.57 127.954  28
  -6   1   4 1199.07 155.141  26
   6  -1  -3 271.003 107.467  20
  -6   1   3 244.140 91.8631  26
   6  -1  -2 1033.07 187.037  20
   6  -1  -2 932.424 179.584   5
  -6   1   2 923.218 150.092  26
   6  -1  -1 1152.48 189.541  20
   6  -1  -1 1216.74 204.750   5
  -6   1   1 637.518 262.751  39
  -6   1   1 1149.98 168.035  26
   6  -1   0 97.8008 70.9380  20
   6  -1   0 156.426 84.6202   5
  -6   1   0 56.1606 114.094  39
   6  -1   1 30.4559 64.2472  20
   6  -1   1 226.014 93.5197   5
   6  -1   2 206.688 93.1174  20
   6  -1   2 42.2708 93.8101   5
  -6   1  -2 38.5057 150.912  40
   6  -1   3 7060.05 473.044   5
  -6   1  -3 6074.70 894.128  41
  -6   1  -3 6060.99 817.117  40
   6  -1   4 8937.94 515.383   5
  -6   1  -4 7012.34 943.865  41
   6  -1   5 13145.1 587.615   5
   6  -1   6 294.673 96.2020   5
   6  -1   6 19873.0 465.240   4
   6  -1   7 2.35825 56.6829   5
   6  -1   7-18.6479 75.3125   9
   6  -1   8 504.057 116.512   9
   6  -1   8 18419.7 419.507   4
   6  -1   9 26.3117 59.1299   9
   6  -1   9 16180.4 347.330   4
   6   0  -8-33.7258 51.3615  31
  -6   0   8 39.4575 41.2841  26
   6   0  -7 72.6399 59.9192  20
   6   0  -7-84.1452 66.8606  31
  -6   0   7-59.6573 52.8445  26
   6   0  -6 180.590 90.7363  20
   6   0  -6 27.1609 63.2144  31
  -6   0   6 144.387 71.6480  26
   6   0  -5 30.8713 81.3994  20
   6   0  -5 44.9832 58.7850  31
  -6   0   5 96.2913 54.8782  28
  -6   0   5 127.756 80.0706  26
   6   0  -4 3051.62 295.680  20
   6   0  -4 3017.93 257.137  31
  -6   0   4 3374.85 235.801  28
  -6   0   4 3129.54 247.956  26
   6   0  -3 2976.45 296.724  20
   6   0  -3 2459.33 232.964  31
  -6   0   3 3093.06 235.052  28
  -6   0   3 2740.03 238.127  26
   6   0  -2 745.582 156.058  20
  -6   0   2 1016.83 314.535  39
  -6   0   2 826.128 137.687  26
   6   0  -1 812.822 158.385  20
   6   0  -1 1002.08 171.421   5
  -6   0   1 1035.69 329.346  39
  -6   0   1 941.623 152.421  26
   6   0   0 4615.49 364.639   5
   6   0   0 4333.77 355.156  20
  -6   0   0 4454.98 662.128  40
  -6   0   0 4875.36 692.272  39
   6   0   1 10800.3 567.434   5
   6   0   1 10316.3 539.516  20
  -6   0  -1 9493.87 998.815  40
  -6   0  -1 8593.11 941.475  39
   6   0   1 9994.01 480.873   3
   6   0   2 2349.75 270.776   5
   6   0   2 2058.01 251.098  20
  -6   0  -2 1908.36 453.185  40
  -6   0  -2 2050.69 487.471  39
   6   0   3 10982.3 571.092   5
   6   0   3 9962.57 522.708  20
  -6   0  -3 10185.2 1052.04  40
  -6   0  -3 8989.44 962.234  39
   6   0   4 24406.7 831.124   5
  -6   0  -4 23534.8 1667.03  41
  -6   0  -4 20591.5 1496.61  40
   6   0   5 656.236 150.984   5
  -6   0  -5 387.061 247.497  41
   6   0   6 53.8193 66.3411   5
  -6   0  -6 300.900 181.829  39
   6   0   7 292.979 89.9740   5
   6   0   7 437.430 121.594   9
   6   0   8 11.2573 50.2431   5
   6   0   8-65.3998 58.6133   9
   6   1  -8 25.1017 48.8060  31
  -6  -1   8 50.5951 43.5332  26
   6   1  -7 76.2105 55.1374  31
  -6  -1   7 49.7489 47.2944  26
   6   1  -6 73.0811 65.8131  20
   6   1  -6 72.9636 72.0740  31
  -6  -1   6 240.686 71.0187  28
  -6  -1   6 37.4739 55.3384  26
   6   1  -5 185.319 96.8144  20
   6   1  -5 101.009 80.0492  31
  -6  -1   5 83.1901 63.9183  28
  -6  -1   5 56.8168 62.1299  26
   6   1  -4 2137.22 248.360  20
   6   1  -4 1973.02 216.256  31
  -6  -1   4 2621.70 217.981  28
  -6  -1   4 2105.92 210.181  26
   6   1  -3 167.931 88.8185  20
   6   1  -3 38.0493 63.5040  31
  -6  -1   3 173.909 78.4411  28
  -6  -1   3 133.826 88.0381  26
   6   1  -2 123.232 83.8323  20
   6   1  -2 246.316 84.7675  31
  -6  -1   2 219.414 85.0580  26
   6   1  -1 9925.68 536.925  20
  -6  -1   1 9218.25 968.648  39
   6   1  -1 8110.88 429.590  31
  -6  -1   1 8620.40 412.107  26
   6   1   0 19351.7 697.384   5
   6   1   0 19620.8 762.291  20
  -6  -1   0 19403.7 1417.52  39
  -6  -1   0 18316.2 592.829  26
   6   1   1 27786.4 852.483   5
   6   1   1 27773.7 907.933  20
  -6  -1  -1 27146.2 1679.91  39
   6   1   2 13643.4 605.074   5
   6   1   2 13277.7 624.676  20
  -6  -1  -2 12278.1 1156.37  40
  -6  -1  -2 11860.1 1125.97  39
   6   1   2 12778.0 562.116   3
   6   1   3 9424.21 502.742   5
   6   1   3 8927.17 512.822  20
  -6  -1  -3 8438.41 963.663  40
  -6  -1  -3 8004.90 930.838  39
   6   1   3 8616.90 459.136   3
   6   1   4 5888.82 392.909   5
  -6  -1  -4 4790.36 738.707  40
  -6  -1  -4 5119.46 731.390  39
   6   1   4 5364.40 352.125   3
   6   1   5 1172.44 176.108   5
  -6  -1  -5 899.340 314.126  39
   6   1   5 1302.06 172.321   3
   6   1   6 541.243 116.737   5
   6   1   6 513.885 112.715   3
   6   1   7 12.6798 58.5617   5
   6   1   7-61.0916 67.0806   3
   6   1   8 6859.39 266.926   4
   6   1   8 1132.57 160.439   5
   6   2  -8-4.60555 40.9868  31
   6   2  -7 28.9659 51.6421  31
  -6  -2   7 41.8108 43.6991  16
  -6  -2   7 88.1451 55.7357  26
   6   2  -6 2755.14 229.948  31
  -6  -2   6 2578.14 195.794  28
  -6  -2   6 2656.72 200.901  26
   6   2  -5 40.4836 65.6176  20
   6   2  -5-21.3409 62.7746  31
  -6  -2   5 114.740 68.4657  28
  -6  -2   5 27.2541 54.9597  26
   6   2  -4 5024.15 362.294  20
   6   2  -4 5089.56 340.313  31
  -6  -2   4 5839.46 332.506  28
  -6  -2   4 4544.56 288.090  26
   6   2  -3-7.53425 76.7459  20
   6   2  -3 28.9671 141.521  17
   6   2  -3-42.0814 86.2581  31
  -6  -2   3-15.7049 63.1946  28
  -6  -2   3-19.9942 64.0304  26
   6   2  -2 1998.00 244.316  20
   6   2  -2 1714.71 446.993  17
   6   2  -2 1701.43 211.085  31
  -6  -2   2 2152.69 187.614  30
  -6  -2   2 2264.46 217.971  28
   6   2  -1 3854.08 350.139  20
  -6  -2   1 3968.35 620.052  38
   6   2  -1 3024.91 564.681  17
  -6  -2   1 4191.48 292.822  28
   6   2   0 16552.2 709.207  20
  -6  -2   0 18466.5 1398.52  39
  -6  -2   0 16613.1 1275.45  38
   6   2   1 5824.04 369.686   5
   6   2   1 5773.26 430.771  20
  -6  -2  -1 5842.07 813.323  39
   6   2   1 6374.00 420.060   3
   6   2   2 8776.35 460.873   5
   6   2   2 8656.08 515.143  20
  -6  -2  -2 8817.30 986.051  39
   6   2   2 8205.39 484.990   3
   6   2   3 3529.76 297.851   5
   6   2   3 3158.73 313.489  20
  -6  -2  -3 3114.05 615.600  39
   6   2   3 3435.03 306.333   3
   6   2   4-60.4679 93.9086   3
   6   2   4 16.8027 71.2707   5
  -6  -2  -4 120.201 202.092  39
  -6  -2  -4-93.4047 140.932  38
   6   2   5 596.783 130.348   3
   6   2   5 806.822 153.558   5
  -6  -2  -5 713.491 305.452  39
  -6  -2  -5 870.164 291.703  38
   6   2   6 5.17010 60.6916   5
   6   2   6-47.9647 62.0164   3
   6   2   7 884.699 143.800   3
   6   2   7 987.157 162.961   5
   6   2   8 617.153 112.934   3
   6   2   8 893.366 149.186   5
   6   2   9 3582.83 179.503   4
   6   2   9 79.6695 47.8848   3
   6   2  10 843.400 106.996   3
   6   2  10 5033.79 184.898   4
  -6  -3   7 400.369 74.2883  16
   6   3  -6 92.2835 61.2074  31
  -6  -3   6 334.809 90.6361  16
   6   3  -5 1972.60 202.989  31
  -6  -3   5 2161.49 196.219  28
   6   3  -4-8.00249 69.9558  31
  -6  -3   4 51.5655 71.2656  28
  -6  -3   4 6.65251 46.3779  27
   6   3  -3-8.03846 68.8719  20
   6   3  -3-72.2089 94.7681  31
  -6  -3   3-4.14433 59.7223  28
  -6  -3   3 5.63893 49.8104  27
   6   3  -2 20.1087 80.2856  20
   6   3  -2-56.8423 165.188  17
  -6  -3   2 57.8575 51.6690  30
  -6  -3   2 16.6833 65.1734  28
   6   3  -1 1010.80 181.628  20
  -6  -3   1 1369.60 366.502  38
   6   3  -1 1039.85 372.593  17
  -6  -3   1 1220.98 152.133  30
  -6  -3   1 1001.00 153.993  28
   6   3   0 10777.2 570.156  20
  -6  -3   0 12021.9 1092.33  38
   6   3   0 10191.1 1086.88  17
  -6  -3   0 12955.7 499.314  30
  -6  -3   0 12264.9 497.174  28
   6   3   1 20695.9 791.172  20
  -6  -3  -1 20296.2 1445.53  38
   6   3   1 20431.9 766.222   3
  -6  -3  -1 22299.5 667.299  30
  -6  -3  -1 20588.5 636.214  28
  -6  -3  -2 3581.06 615.906  38
   6   3   2 3627.09 328.109   3
  -6  -3  -2 3705.25 274.421  30
  -6  -3  -2 3411.63 253.182  28
   6   3   2 3438.47 286.203   5
   6   3   3 277.725 92.4182   5
   6   3   3 300.951 91.0339   3
  -6  -3  -3 352.038 206.067  38
  -6  -3  -3 331.871 87.7590  30
   6   3   4 96.5665 86.7551   3
   6   3   4 138.476 73.3010   5
  -6  -3  -4 126.439 167.095  38
  -6  -3  -4 158.940 68.9309  30
   6   3   5 4.25788 86.5344   3
   6   3   5 89.3372 86.0335   5
  -6  -3  -5-103.343 130.726  38
  -6  -3  -5 16.4855 49.9300  30
   6   3   6 883.768 125.596  11
  -6  -3  -6 905.275 121.094  30
   6   3   6 935.233 153.599   3
   6   3   6 1357.18 195.426   5
   6   3   7 546.156 105.634  11
   6   3   7 361.421 105.112   3
   6   3   8 252.867 76.7994   3
   6   3   9 69.4395 47.2582   3
   6   3  10 501.342 84.7444   3
   6   4  -6 322.905 66.6112  32
  -6  -4   6 326.319 77.1818  16
   6   4  -5 346.057 80.5559  32
  -6  -4   5 250.853 77.5704  16
   6   4  -4-44.0726 53.9279  32
  -6  -4   4-31.4440 57.8755  28
  -6  -4   4 21.7140 37.8655  27
   6   4  -3 105.871 67.2888  32
  -6  -4   3 143.572 83.0653  28
  -6  -4   3 145.434 60.3745  27
   6   4  -2 845.990 136.755  32
  -6  -4   2 779.041 135.796  28
  -6  -4   2 822.620 132.771  27
   6   4  -1 2807.98 249.026  32
   6   4  -1 2711.37 558.882  17
   6   4  -1 2890.50 279.441   3
  -6  -4   1 3289.15 247.393  30
  -6  -4   1 3121.05 255.939  28
  -6  -4   1 3627.37 267.712  27
   6   4   0 5649.22 350.728  32
   6   4   0 5373.97 389.298   3
  -6  -4   0 6445.67 352.262  30
  -6  -4   0 5954.92 338.251  28
  -6  -4  -1 2521.67 505.454  38
   6   4   1 2470.54 239.693  32
   6   4   1 2843.51 287.821   3
  -6  -4  -1 2943.45 246.110  30
   6   4   2-118.800 107.474   3
  -6  -4  -2 210.639 160.608  38
   6   4   2-128.388 102.171  32
  -6  -4  -2 54.5379 60.8781  30
   6   4   2 133.039 76.1822   5
   6   4   3-24.5516 95.4851   3
  -6  -4  -3 196.846 168.517  38
  -6  -4  -3 53.1395 52.6203  30
   6   4   3 81.4258 65.9995   5
   6   4   4 154.371 78.2699   3
   6   4   4 116.809 77.4776  32
  -6  -4  -4 204.385 79.5027  30
   6   4   5 263.785 83.8077  32
  -6  -4  -5 292.632 84.8713  30
   6   4   5 256.706 92.4767   3
   6   4   6 515.444 101.163  11
   6   4   6 642.579 134.827   3
   6   4   7 1369.09 153.095  11
   6   4   7 1332.15 174.476   3
   6   4   8 8.46549 48.0099  11
   6   4   8-174.881 94.0243   3
   6   4   9-70.8825 61.8414   3
   6   4  10 133.771 51.7896   3
   6   5  -5-6.53000 34.4616  32
  -6  -5   5-19.9479 42.5052  16
   6   5  -4-7.92499 42.2037  32
  -6  -5   4 10.2083 46.3020  16
   6   5  -3 450.317 99.7542  32
  -6  -5   3 307.045 88.0834  16
  -6  -5   3 424.336 85.7977  27
   6   5  -2 3119.51 240.859  32
   6   5  -2 2936.04 239.975   3
  -6  -5   2 3200.66 222.536  27
   6   5  -1 10418.9 448.600  32
   6   5  -1 10097.8 457.504   3
  -6  -5   1 9629.22 401.592  28
  -6  -5   1 11077.5 434.791  27
   6   5   0 2420.83 235.388   3
   6   5   0 2378.01 227.336  32
  -6  -5   0 2884.95 228.174  30
  -6  -5   0 3031.19 238.087  27
   6   5   1 14.8052 70.8572   3
   6   5   1-26.2317 81.1722  32
  -6  -5  -1 99.1433 65.7533  30
  -6  -5  -1 203.082 83.1585  27
   6   5   2 104.917 76.7096   3
   6   5   2 111.634 59.8481  32
  -6  -5  -2 285.409 84.2466  27
   6   5   3 8.98636 67.7941   3
   6   5   3-64.8404 87.8972  32
  -6  -5  -3 125.556 62.3463  30
  -6  -5  -3 112.126 61.4807  27
   6   5   4 23.9789 52.7863  32
  -6  -5  -4 19.1946 43.7512  30
  -6  -5  -4 35.0965 49.0142  27
   6   5   4 26.0437 58.8804   3
   6   5   5 739.909 135.036  32
   6   5   5 878.192 140.584   3
   6   5   6 333.765 74.7405  11
   6   5   6 324.209 96.1467   3
   6   5   7 226.815 66.7761  11
   6   5   7 279.288 81.3516   3
   6   5   8 22.3742 40.7747  11
   6   5   8-30.8204 52.9578   3
   6   5   9 573.768 85.3790   3
   6   6  -3 425.139 80.9337  32
   6   6  -2 1743.03 166.386  32
  -6  -6   1 716.123 104.276  19
   6   6  -1 817.209 127.976  32
  -6  -6   1 799.042 115.011  27
  -6  -6   0 252.217 78.3458  19
   6   6   0 180.058 69.9747  32
  -6  -6   0 322.733 85.6194  27
  -6  -6  -1 161.299 71.6947  19
   6   6   1 11.3533 56.1755  32
  -6  -6  -1 74.9054 57.2243  27
  -6  -6  -2 222.324 74.1936  19
   6   6   2 102.029 64.5938  32
  -6  -6  -2 188.709 62.7429  27
  -6  -6  -3 1016.58 127.928  19
   6   6   3 917.500 121.514   3
   6   6   3 981.266 143.713  32
  -6  -6  -3 872.932 107.356  27
  -6  -6  -4 135.356 46.3680  19
   6   6   4 256.134 78.9927  32
  -6  -6  -5 3295.85 193.746  19
   6   6   5 3368.31 215.866   3
   6   6   6 34.6517 38.9082  11
   6   6   6-45.9345 50.9784   3
  -6  -6  -6 19.8940 33.8769   6
   6   6   7 2.00465 32.8064  11
   6   6   7-63.0007 47.7594   3
   6   7  -1-2.98652 38.2523  32
  -6  -7   0 29.8310 33.8901  19
   6   7   0-62.8619 55.8546  32
  -6  -7  -1 177.101 53.5678  19
   6   7   1 94.6285 45.7516  32
  -6  -7  -1 178.095 48.7517   6
  -6  -7  -2 329.453 67.9889  19
   6   7   2 297.737 67.1694  32
  -6  -7  -2 323.617 62.1069   6
  -6  -7  -3 422.287 72.4066  19
   6   7   3 344.628 76.7632  32
  -6  -7  -3 413.972 69.8417   6
  -6  -7  -4 3222.02 172.375  19
  -6  -7  -4 3495.06 174.577   6
  -6  -7  -5 1083.44 91.3328   6
   7  -4   0-41.6754 42.7446   5
   7  -4   1 56.4044 46.4639   5
  -7   4  -1-16.7833 29.8815  26
   7  -4   2 24.2109 33.2791   5
  -7   4  -2 53.3474 41.5337  26
  -7   3   3-44.0045 35.7334  26
   7  -3  -2 559.775 105.210   5
  -7   3   2 418.305 75.0976  26
  -7   3   2 538.512 83.2433  25
   7  -3  -1 2419.82 222.261   5
  -7   3   1 1888.75 149.755  25
   7  -3   0-12.9092 58.9099   5
  -7   3   0 28.9154 43.8484  26
  -7   3   0 12.8845 43.4573  25
  -7   3  -1 488.884 96.6791  26
  -7   3  -1 734.844 101.775  25
   7  -3   2 203.907 81.4287   5
  -7   3  -2 41.8616 41.7970  25
   7  -3   3 178.603 76.3220   5
  -7   3  -3 149.744 61.5580  25
   7  -3   4 1187.14 140.191   5
  -7   3  -4 667.967 92.1845  25
   7  -3   5 1232.81 121.100   5
   7  -2  -5 517.777 90.3214  20
   7  -2  -4 268.397 75.0067  20
  -7   2   4 274.724 62.5015  26
   7  -2  -3 28.3751 59.8770  20
  -7   2   3-9.27396 42.3748  26
   7  -2  -2 198.191 79.0426  20
   7  -2  -2 154.384 74.1669   5
  -7   2   2 95.9911 39.2519  28
  -7   2   2 99.5128 55.6964  26
   7  -2  -1 667.232 129.295  20
   7  -2  -1 817.478 145.044   5
  -7   2   1 542.342 105.532  26
   7  -2   0 1405.19 192.652   5
  -7   2   0 1075.55 141.905  26
   7  -2   1 60.3606 72.3156   5
  -7   2  -1-9.52067 67.5004  26
   7  -2   2 296.841 102.845   5
   7  -2   3 11.0817 59.5233   5
   7  -2   4 65.4862 71.6314   5
   7  -2   5 1009.10 132.082   5
   7  -2   6 23.6349 38.0400   5
   7  -1  -5 818.376 127.008  20
  -7   1   5 783.021 94.4363  26
   7  -1  -4 2026.22 208.233  20
  -7   1   4 2149.00 165.727  26
   7  -1  -3 804.830 142.104  20
  -7   1   3 808.229 100.866  28
  -7   1   3 729.198 111.421  26
   7  -1  -2 1731.83 207.476  20
  -7   1   2 1806.34 159.774  28
  -7   1   2 1738.42 169.120  26
   7  -1  -1 186.434 89.0971   5
   7  -1  -1 88.4329 83.4402  20
  -7   1   1 105.916 64.7214  26
   7  -1   0 144.645 84.2856   5
   7  -1   0 27.3107 70.0065  20
  -7   1   0 106.793 68.9312  26
   7  -1   1 74.5598 72.5229   5
   7  -1   1-11.7206 64.1515  20
  -7   1  -1 124.338 72.1794  26
   7  -1   2 185.952 95.7853   5
   7  -1   3 26.4492 67.2407   5
   7  -1   4 50.1573 61.6616   5
   7  -1   5-100.168 74.2482   5
   7  -1   6 368.918 85.6855   5
   7  -1   7-53.6263 48.3171   5
  -7   0   6 447.107 68.0595  26
   7   0  -5 580.667 112.034  20
  -7   0   5 501.062 73.9318  28
  -7   0   5 485.568 83.8341  26
   7   0  -4 152.269 75.4403  20
  -7   0   4 189.627 60.0612  28
  -7   0   4 226.063 68.4033  26
   7   0  -3 254.553 94.4831  20
  -7   0   3 380.309 82.8956  28
  -7   0   3 283.104 78.6840  26
   7   0  -2 278.624 105.905  20
  -7   0   2 190.181 60.6123  28
  -7   0   2 291.590 91.8103  26
   7   0  -1 192.692 71.4137   5
   7   0  -1 54.2657 70.2769  20
   7   0  -1-8.94554 55.5651   3
  -7   0   1 74.4051 66.6621  26
   7   0   0 238.392 87.6265   5
   7   0   0 208.036 105.229  20
   7   0   0 94.6158 90.3202   3
  -7   0   0 186.569 73.2136  26
   7   0   1 98.9207 77.4204   5
   7   0   1 59.2767 77.7470  20
  -7   0  -1 49.0244 50.4006  26
   7   0   2 798.793 148.551   5
   7   0   2 788.844 158.788  20
  -7   0  -2 545.324 111.839  26
   7   0   3 454.609 115.435  20
   7   0   3 463.360 124.992   5
   7   0   4 190.117 89.8172   5
   7   0   5-32.7826 56.8336   5
   7   0   6 1001.88 142.779   5
   7   0   7-29.1719 41.5204   5
   7   0   8 214.568 63.2934   5
   7   1  -5 938.442 133.896  20
  -7  -1   5 776.292 96.0012  28
  -7  -1   5 844.977 102.352  26
   7   1  -4 1873.67 203.763  20
  -7  -1   4 2104.90 165.787  28
  -7  -1   4 1843.42 157.617  26
   7   1  -3 366.195 114.241  20
  -7  -1   3 374.711 85.0302  28
  -7  -1   3 315.433 77.4647  26
   7   1  -2-7.76770 68.9332  20
  -7  -1   2-2.67491 49.4364  28
  -7  -1   2 92.8998 60.7952  26
   7   1  -1 295.929 110.768  20
   7   1  -1 130.160 89.6059   3
  -7  -1   1 29.8140 65.7827  28
  -7  -1   1 146.875 71.1708  26
   7   1   0-13.7776 64.8931   5
   7   1   0 112.125 84.9431  20
   7   1   0 63.3805 78.6556   3
  -7  -1   0 154.967 69.7478  26
   7   1   1 103.347 65.6160   5
   7   1   1 157.988 104.375  20
   7   1   1 92.7559 86.1684   3
   7   1   2 116.242 66.9573   5
   7   1   2 224.882 89.3614   3
   7   1   2 258.546 108.470  20
   7   1   3-25.0801 70.2194   3
   7   1   3-16.1157 57.8450   5
   7   1   4 100.078 72.1961   3
   7   1   4 15.4399 64.4304   5
   7   1   5 189.064 76.3316   5
   7   1   5 154.841 67.2694   3
   7   1   6 49.7305 59.2594   5
   7   1   7 487.010 107.334   5
   7   1   8 143.851 59.3694   5
  -7  -2   5 4.35764 35.0956  28
   7   2  -4-22.6112 53.0909  20
  -7  -2   4 28.7502 51.3808  28
   7   2  -3-19.5165 62.8437  20
  -7  -2   3-10.1449 47.8203  28
   7   2  -2 902.032 163.680  20
  -7  -2   2 1110.69 138.799  28
   7   2  -1 19.0902 95.5489  20
   7   2  -1 96.7814 98.5592   3
  -7  -2   1 20.7785 53.0956  28
   7   2   0 33.1231 78.7341  20
   7   2   0 25.7278 73.4873   3
  -7  -2   0-5.44774 45.5616  30
  -7  -2   0 21.1057 59.5860  28
   7   2   1 963.162 141.045   5
   7   2   1 962.192 182.500  20
   7   2   1 756.833 157.231   3
  -7  -2  -1 909.208 129.524  30
  -7  -2  -1 834.834 132.526  28
   7   2   2 1151.08 165.019   5
   7   2   2 728.424 160.605   3
   7   2   3 130.654 80.9137   3
   7   2   3 331.427 90.9532   5
   7   2   4 310.657 106.239   3
  -7  -2  -4 417.740 86.9889  30
   7   2   5 189.817 85.8417   5
   7   2   5 187.775 88.3450   3
   7   2   6 89.9806 77.2376   5
   7   2   6-8.93060 44.6605   3
   7   2   7 140.581 71.5452   5
   7   2   7 132.451 57.1997   3
   7   2   8 468.505 73.3809   3
   7   3  -5 303.549 72.8809   3
  -7  -3   5 423.467 72.7792  16
   7   3  -4 113.825 66.2466   3
  -7  -3   4 69.1614 51.8991  28
   7   3  -3 0.93440 68.0953   3
  -7  -3   3-16.0747 44.8640  28
  -7  -3   3-6.58342 32.5982  27
   7   3  -2 14.2950 67.9213  20
   7   3  -2 33.7488 62.6804   3
  -7  -3   2-5.95522 49.7455  28
  -7  -3   2 7.99341 39.7985  27
   7   3  -1 217.986 97.5827  20
   7   3  -1 205.676 94.8888   3
  -7  -3   1 289.404 88.0418  28
   7   3   0 10.9929 71.3694   3
  -7  -3   0-51.0500 55.2934  28
   7   3   1-15.9862 70.4659   3
  -7  -3  -1-27.8028 42.8521  30
  -7  -3  -1-28.8686 63.7372  28
   7   3   2 130.459 73.7211   5
   7   3   2 62.6962 78.3458   3
  -7  -3  -2 59.0770 44.2692  30
  -7  -3  -2-9.88408 50.1836  28
   7   3   3 135.784 74.5664   3
   7   3   3 290.142 92.5979   5
  -7  -3  -3 246.515 77.5535  30
   7   3   4 1190.97 173.410   3
   7   3   4 1576.13 190.556   5
   7   3   5 722.320 136.066   3
   7   3   5 1019.12 159.337   5
   7   3   6 517.463 107.436   3
   7   3   7 52.6942 48.8957   3
   7   3   8 1521.50 136.126   3
  -7  -4   4 16.5737 32.0174  16
   7   4  -3-39.9679 46.4278   3
  -7  -4   3-1.22952 31.8900  27
   7   4  -2 374.117 97.4684   3
  -7  -4   2 476.274 88.7866  28
  -7  -4   2 450.982 76.7929  27
   7   4  -1 43.7181 66.7400   3
  -7  -4   1 1.34529 47.1932  28
  -7  -4   1-43.3520 57.5528  27
   7   4   0 1583.37 185.453   3
  -7  -4   0 1882.06 166.044  28
  -7  -4   0 1995.77 172.797  27
   7   4   1 68.9316 68.2788   3
  -7  -4  -1 33.2197 51.3045  27
   7   4   2-102.959 83.7362   3
  -7  -4  -2-51.2452 63.2420  27
   7   4   3 903.032 149.811   3
   7   4   4 1737.11 192.112   3
   7   4   5 156.878 71.2488   3
   7   4   6 140.123 68.7464   3
   7   4   7 27.7062 40.9544   3
   7   4   8-53.6162 41.2763   3
  -7  -5   2 300.247 55.2930  27
   7   5  -1 228.899 70.7124   3
  -7  -5   1 287.651 62.4143  19
  -7  -5   1 320.566 67.1493  27
   7   5   0 424.435 88.8196   3
   7   5   0 474.287 84.6650  32
  -7  -5   0 445.575 81.2749  27
   7   5   1 89.7157 57.9616   3
   7   5   1 41.1428 43.3245  32
  -7  -5  -1 125.974 51.4945  27
   7   5   2 14.7862 38.9035  32
  -7  -5  -2 98.6261 47.6696  27
   7   5   2-11.0303 47.3252   3
   7   5   3 31.8994 48.2056  32
  -7  -5  -3 134.179 47.6930  27
   7   5   3 85.1131 56.8803   3
  -7  -5  -4-20.4412 35.8643  27
   7   5   4 35.7320 46.8001   3
  -7  -5  -5-34.8157 44.3379  19
   7   5   5 4.81615 43.7472   3
   7   5   6 104.054 51.1028   3
  -7  -6  -1 65.6504 38.9275  19
  -7  -6  -2 70.0625 37.7468  19
  -7  -6  -3 55.5669 40.9517  19
  -8   1   0 57.5018 35.7834  28
  -8   1   0 30.2859 31.9244  26
   8  -1   1 295.310 69.3192   5
  -8   1  -1 335.066 63.7161  26
   8  -1   2 1632.49 148.701   5
  -8   1  -2 1174.26 102.976  26
   8  -1   3 2036.85 164.178   5
   8  -1   4 1968.70 154.386   5
   8   0  -1 37.3718 50.6093  20
  -8   0   1 5.82940 31.0586  28
  -8   0   1 3.17614 30.7731  26
   8   0   0 968.511 139.418  20
  -8   0   0 1213.17 112.618  28
  -8   0   0 952.529 96.0010  26
   8   0   1 421.976 85.4573   5
  -8   0  -1 315.148 64.5787  28
  -8   0  -1 422.255 70.9980  26
   8   0   3-24.4901 42.9369   5
   8   0   4 630.711 98.7161   5
   8   0   5 912.293 109.534   5
   8   1  -2 144.105 59.6135  20
  -8  -1   2 117.624 43.7315  28
   8   1  -1 822.757 132.454  20
   8   1  -1 673.070 97.3992   3
  -8  -1   1 959.617 101.522  28
   8   1   0 6207.56 288.069   3
  -8  -1   0 8809.33 299.357  28
   8   1   1 107.412 57.1700   3
   8   1   1 141.192 62.7670   5
  -8  -1  -1 10.5926 41.8064  28
  -8  -1  -2 2962.43 175.472  28
   8   1   2 3567.53 222.635   5
  -8  -1  -3 896.968 96.8704  28
   8   1   3 1137.96 130.927   5
   8   1   4 378.333 85.2572   5
   8   1   5 104.173 55.0643   5
   8   1   6 185.143 58.5415   5
  -8  -2   2 155.679 44.6493  28
  -8  -2   1 2256.75 147.818  28
  -8  -2   1 2408.24 137.984  27
   8   2   0 2226.34 184.590   3
  -8  -2   0 3025.36 175.310  28
   8   2   1 88.4995 58.7584   3
  -8  -2  -1 40.1166 35.4776  28
   8   2   2 119.771 66.4631   3
   8   2   2 103.090 52.3583   5
  -8  -2  -2 30.9132 36.6382  28
   8   2   3 38.2418 46.9829   5
  -8  -2  -3 17.1656 35.3676  28
   8   2   3 60.9286 49.3051   3
   8   2   4 67.7858 54.0441   5
   8   2   4-8.01558 40.7160   3
   8   2   5 139.170 55.9532   5
   8   3   0 890.674 111.412   3
  -8  -3   0 895.307 91.1392  28
  -8  -3   0 1022.84 95.5761  27
   8   3   1 197.978 63.2856   3
  -8  -3  -1 400.198 64.1042  28
  -8  -3  -1 402.933 65.3972  27
   8   3   2 82.6317 57.6624   3
  -8  -3  -2 167.151 46.1634  27
   8   3   3-25.1999 40.4606   3
   8   3   4 91.7131 52.3486   3
   0   0   0    0.00    0.00   0
TITL tube3 in P-1
REM P-1 (#2 in standard setting)
CELL 1.54184   6.924346   7.726217  11.816799  84.5500  81.8521  83.0233
ZERR    2.00   0.000643   0.000758   0.000623   0.0065   0.0063   0.0079
LATT  1
SFAC C H O
UNIT 32.00 26.00 8.00
TREF
HKLF 4
END
;
_shelx_hkl_checksum              77832
_shelx_res_file
;
TITL tube3 in P-1
CELL  0.71073   6.9243   7.7262  11.8168   84.550   81.852   83.023
ZERR     2.00   0.0006   0.0008   0.0006    0.006    0.006    0.008
LATT   1
SFAC  C    H    O
UNIT  32   20   8
MERG   2
FMAP   2
BOND $H
PLAN   20
ACTA
CONF
LIST   3
L.S.  10
WGHT    0.099800    0.026300
FVAR       9.82443
H10   2    0.993853    0.657521    0.393122    11.00000    0.06779
H4    2    0.825181    0.121160    0.015746    11.00000    0.09284
H3    2    0.789440    0.243138   -0.168303    11.00000    0.07576
H1    2    0.710542    0.727980   -0.046757    11.00000    0.06267
H5    2    0.790299    0.285002    0.171047    11.00000    0.06813
H2    2    0.731451    0.548406   -0.201706    11.00000    0.07093
H13   2    0.400582    0.915959    0.687950    11.00000    0.07305
H16   2    1.079304    0.799901    0.564733    11.00000    0.07310
H15   2    0.976950    0.946461    0.731559    11.00000    0.08346
H14   2    0.634140    1.000088    0.790524    11.00000    0.06991
MOLE    1
O2    3    0.466495    0.753219    0.511611    11.00000    0.04681    0.06461 =
         0.04923   -0.00449   -0.00543   -0.00376
O4    3    0.762660    0.543141    0.273491    11.00000    0.07521    0.06104 =
         0.04516   -0.00447   -0.00631    0.00669
O1    3    0.379250    0.627951    0.368989    11.00000    0.06442    0.07493 =
         0.06381   -0.00641   -0.01623   -0.01188
C8    1    0.720792    0.636624    0.370137    11.00000    0.06050    0.05605 =
         0.04284    0.00037   -0.00360    0.00115
C11   1    0.807127    0.766434    0.529777    11.00000    0.05120    0.05279 =
         0.05001    0.00239   -0.00734   -0.00374
O3    3    0.697786    0.791252    0.164160    11.00000    0.08360    0.05949 =
         0.05170   -0.00425   -0.00619    0.00268
C6    1    0.750341    0.519812    0.076798    11.00000    0.03900    0.05954 =
         0.04977   -0.00524   -0.00470   -0.00453
C9    1    0.511755    0.669950    0.412183    11.00000    0.05789    0.05236 =
         0.04776    0.00252   -0.00779   -0.00398
C12   1    0.608424    0.802730    0.569334    11.00000    0.05271    0.04777 =
         0.04669    0.00400   -0.00749   -0.00500
C13   1    0.543051    0.888960    0.667328    11.00000    0.06054    0.05759 =
         0.05048   -0.00263   -0.00332   -0.00264
C10   1    0.860425    0.680131    0.425251    11.00000    0.04839    0.06400 =
         0.05132    0.00030   -0.00001    0.00063
C7    1    0.732041    0.636116    0.171336    11.00000    0.04776    0.05993 =
         0.04590   -0.00153   -0.00224   -0.00066
C1    1    0.733820    0.596997   -0.032794    11.00000    0.05124    0.06300 =
         0.05198   -0.00465   -0.00637   -0.00790
C5    1    0.780007    0.339697    0.095374    11.00000    0.05749    0.06402 =
         0.06299   -0.00188   -0.00773   -0.00522
C3    1    0.778716    0.315622   -0.105606    11.00000    0.05908    0.08222 =
         0.07018   -0.02725   -0.00870   -0.01322
C16   1    0.942863    0.819970    0.592523    11.00000    0.05447    0.06724 =
         0.06975   -0.00183   -0.01204   -0.00366
C2    1    0.748928    0.492827   -0.123953    11.00000    0.05877    0.08350 =
         0.05147   -0.01128   -0.00764   -0.01400
C15   1    0.878086    0.906678    0.690391    11.00000    0.07539    0.06449 =
         0.06729   -0.00334   -0.02538   -0.00851
C4    1    0.793284    0.237070    0.002730    11.00000    0.06744    0.05944 =
         0.09051   -0.01558   -0.01105   -0.00712
C14   1    0.680184    0.940400    0.726881    11.00000    0.08324    0.05630 =
         0.05471   -0.00607   -0.01017   -0.00258
HKLF 4
REM  tube3 in P-1
REM R1 =  0.0509 for    1724 Fo > 4sig(Fo)  and  0.0750 for all    2283 data
REM    221 parameters refined using      0 restraints
END
WGHT      0.0998      0.0263
REM Highest difference peak  0.222,  deepest hole -0.279,  1-sigma level  0.052
Q1    1   0.3226  0.7620  0.5411  11.00000  0.05    0.22
Q2    1   0.6272  0.6937  0.3722  11.00000  0.05    0.22
Q3    1   0.7210  0.8542  0.5282  11.00000  0.05    0.21
Q4    1   0.3605  0.8752  0.5132  11.00000  0.05    0.20
Q5    1   0.7810  0.8409  0.7224  11.00000  0.05    0.19
Q6    1   0.6802  0.4267  0.1021  11.00000  0.05    0.18
Q7    1   0.7106  0.7359  0.5576  11.00000  0.05    0.17
Q8    1   0.4787  0.5166  0.3845  11.00000  0.05    0.17
Q9    1   0.8347  0.8640  0.1468  11.00000  0.05    0.16
Q10   1   0.2340  0.5951  0.3931  11.00000  0.05    0.16
Q11   1   0.8387  0.7474  0.1568  11.00000  0.05    0.16
Q12   1   0.9963  0.5988  0.4219  11.00000  0.05    0.16
Q13   1   1.0081  0.7276  0.3882  11.00000  0.05    0.15
Q14   1   0.5813  0.7349  0.1836  11.00000  0.05    0.15
Q15   1   0.8478  0.4327  0.0724  11.00000  0.05    0.14
Q16   1   0.4370  0.7474  0.3477  11.00000  0.05    0.14
Q17   1   0.9214  0.5705  0.2368  11.00000  0.05    0.14
Q18   1   0.8569  0.6919 -0.0570  11.00000  0.05    0.14
Q19   1   0.3091  0.7591  0.3596  11.00000  0.05    0.13
Q20   1   0.5440  0.6253  0.5261  11.00000  0.05    0.13
;
_shelx_res_checksum              21651
_shelxl_version_number           .2013
loop_
_space_group_symop_operation_xyz
'x, y, z'
'-x, -y, -z'
loop_
_atom_site_type_symbol
_atom_site_label
_atom_site_fract_x
_atom_site_fract_y
_atom_site_fract_z
_atom_site_U_iso_or_equiv
_atom_site_adp_type
_atom_site_calc_flag
_atom_site_occupancy
H H10 0.994(4) 0.658(3) 0.393(2) 0.068(6) Uiso d 1
H H4 0.825(4) 0.121(4) 0.016(3) 0.093(8) Uiso d 1
H H3 0.789(3) 0.243(3) -0.168(2) 0.076(7) Uiso d 1
H H1 0.711(3) 0.728(3) -0.0468(19) 0.063(6) Uiso d 1
H H5 0.790(3) 0.285(3) 0.171(2) 0.068(6) Uiso d 1
H H2 0.731(3) 0.548(3) -0.202(2) 0.071(7) Uiso d 1
H H13 0.401(4) 0.916(3) 0.688(2) 0.073(6) Uiso d 1
H H16 1.079(4) 0.800(3) 0.565(2) 0.073(7) Uiso d 1
H H15 0.977(4) 0.946(3) 0.732(2) 0.083(7) Uiso d 1
H H14 0.634(3) 1.000(3) 0.791(2) 0.070(6) Uiso d 1
O O2 0.46650(18) 0.75322(17) 0.51161(11) 0.0538(4) Uani d 1
O O4 0.7627(2) 0.54314(18) 0.27349(11) 0.0618(4) Uani d 1
O O1 0.3793(2) 0.6280(2) 0.36899(13) 0.0666(4) Uani d 1
C C8 0.7208(3) 0.6366(2) 0.37014(15) 0.0543(5) Uani d 1
C C11 0.8071(3) 0.7664(2) 0.52978(16) 0.0518(5) Uani d 1
O O3 0.6978(2) 0.79125(18) 0.16416(12) 0.0661(4) Uani d 1
C C6 0.7503(2) 0.5198(2) 0.07680(15) 0.0496(4) Uani d 1
C C9 0.5118(3) 0.6699(2) 0.41218(16) 0.0532(5) Uani d 1
C C12 0.6084(3) 0.8027(2) 0.56933(15) 0.0495(4) Uani d 1
C C13 0.5431(3) 0.8890(2) 0.66733(16) 0.0570(5) Uani d 1
C C10 0.8604(3) 0.6801(3) 0.42525(17) 0.0561(5) Uani d 1
C C7 0.7320(3) 0.6361(2) 0.17134(15) 0.0522(4) Uani d 1
C C1 0.7338(3) 0.5970(3) -0.03279(17) 0.0553(5) Uani d 1
C C5 0.7800(3) 0.3397(3) 0.0954(2) 0.0618(5) Uani d 1
C C3 0.7787(3) 0.3156(3) -0.1056(2) 0.0686(6) Uani d 1
C C16 0.9429(3) 0.8200(3) 0.5925(2) 0.0639(5) Uani d 1
C C2 0.7489(3) 0.4928(3) -0.12395(18) 0.0636(5) Uani d 1
C C15 0.8781(4) 0.9067(3) 0.6904(2) 0.0676(6) Uani d 1
C C4 0.7933(3) 0.2371(3) 0.0027(2) 0.0718(6) Uani d 1
C C14 0.6802(4) 0.9404(3) 0.72688(18) 0.0650(6) Uani d 1
loop_
_atom_site_aniso_label
_atom_site_aniso_U_11
_atom_site_aniso_U_22
_atom_site_aniso_U_33
_atom_site_aniso_U_12
_atom_site_aniso_U_13
_atom_site_aniso_U_23
O2 0.0468(7) 0.0646(8) 0.0492(7) -0.0038(5) -0.0054(5) -0.0045(6)
O4 0.0752(9) 0.0610(8) 0.0452(7) 0.0067(6) -0.0063(6) -0.0045(6)
O1 0.0644(9) 0.0749(9) 0.0638(9) -0.0119(7) -0.0162(7) -0.0064(7)
C8 0.0605(11) 0.0560(10) 0.0428(9) 0.0012(8) -0.0036(8) 0.0004(7)
C11 0.0512(10) 0.0528(9) 0.0500(10) -0.0037(7) -0.0073(8) 0.0024(7)
O3 0.0836(10) 0.0595(8) 0.0517(8) 0.0027(7) -0.0062(7) -0.0043(6)
C6 0.0390(8) 0.0595(10) 0.0498(10) -0.0045(7) -0.0047(7) -0.0052(8)
C9 0.0579(11) 0.0524(9) 0.0478(10) -0.0040(8) -0.0078(8) 0.0025(8)
C12 0.0527(10) 0.0478(9) 0.0467(9) -0.0050(7) -0.0075(8) 0.0040(7)
C13 0.0605(12) 0.0576(10) 0.0505(10) -0.0026(8) -0.0033(9) -0.0026(8)
C10 0.0484(10) 0.0640(11) 0.0513(10) 0.0006(8) 0.0000(8) 0.0003(8)
C7 0.0478(9) 0.0599(11) 0.0459(9) -0.0007(7) -0.0022(7) -0.0015(8)
C1 0.0512(10) 0.0630(11) 0.0520(10) -0.0079(8) -0.0064(8) -0.0046(8)
C5 0.0575(11) 0.0640(11) 0.0630(12) -0.0052(8) -0.0077(9) -0.0019(9)
C3 0.0591(12) 0.0822(14) 0.0702(14) -0.0132(10) -0.0087(10) -0.0273(12)
C16 0.0545(11) 0.0672(12) 0.0698(13) -0.0037(9) -0.0120(10) -0.0018(10)
C2 0.0588(11) 0.0835(14) 0.0515(11) -0.0140(10) -0.0076(9) -0.0113(10)
C15 0.0754(14) 0.0645(12) 0.0673(13) -0.0085(10) -0.0254(11) -0.0033(10)
C4 0.0674(13) 0.0594(12) 0.0905(17) -0.0071(9) -0.0110(11) -0.0156(11)
C14 0.0832(15) 0.0563(11) 0.0547(11) -0.0026(9) -0.0102(10) -0.0061(9)
loop_
_atom_type_symbol
_atom_type_description
_atom_type_scat_dispersion_real
_atom_type_scat_dispersion_imag
_atom_type_scat_source
C C 0.0033 0.0016 'International Tables Vol C Tables 4.2.6.8 and 6.1.1.4'
H H 0.0000 0.0000 'International Tables Vol C Tables 4.2.6.8 and 6.1.1.4'
O O 0.0106 0.0060 'International Tables Vol C Tables 4.2.6.8 and 6.1.1.4'
loop_
_geom_angle_atom_site_label_1
_geom_angle_atom_site_label_2
_geom_angle_atom_site_label_3
_geom_angle
C9 O2 C12 122.54(14)
C7 O4 C8 115.88(14)
C10 C8 O4 122.46(17)
C10 C8 C9 122.72(17)
O4 C8 C9 114.61(17)
C12 C11 C16 117.93(18)
C12 C11 C10 118.13(17)
C16 C11 C10 123.92(18)
C5 C6 C1 120.07(18)
C5 C6 C7 122.07(18)
C1 C6 C7 117.85(17)
O1 C9 O2 118.14(17)
O1 C9 C8 125.95(18)
O2 C9 C8 115.89(17)
O2 C12 C13 116.78(16)
O2 C12 C11 120.95(16)
C13 C12 C11 122.27(18)
C14 C13 C12 118.38(19)
C14 C13 H13 123.6(14)
C12 C13 H13 117.9(14)
C8 C10 C11 119.75(17)
C8 C10 H10 119.1(14)
C11 C10 H10 121.1(14)
O3 C7 O4 121.79(17)
O3 C7 C6 126.62(18)
O4 C7 C6 111.59(15)
C6 C1 C2 119.8(2)
C6 C1 H1 120.5(12)
C2 C1 H1 119.7(13)
C6 C5 C4 119.3(2)
C6 C5 H5 120.7(13)
C4 C5 H5 120.0(13)
C2 C3 C4 120.8(2)
C2 C3 H3 120.4(14)
C4 C3 H3 118.8(14)
C15 C16 C11 120.0(2)
C15 C16 H16 121.2(14)
C11 C16 H16 118.8(14)
C3 C2 C1 120.1(2)
C3 C2 H2 120.4(13)
C1 C2 H2 119.5(13)
C14 C15 C16 120.4(2)
C14 C15 H15 121.3(15)
C16 C15 H15 118.3(15)
C3 C4 C5 119.9(2)
C3 C4 H4 122.2(19)
C5 C4 H4 117.5(19)
C13 C14 C15 120.99(19)
C13 C14 H14 117.2(15)
C15 C14 H14 121.8(15)
loop_
_geom_bond_atom_site_label_1
_geom_bond_atom_site_label_2
_geom_bond_distance
O2 C9 1.372(2)
O2 C12 1.381(2)
O4 C7 1.374(2)
O4 C8 1.386(2)
O1 C9 1.202(2)
C8 C10 1.331(3)
C8 C9 1.462(3)
C11 C12 1.392(3)
C11 C16 1.398(3)
C11 C10 1.440(3)
O3 C7 1.191(2)
C6 C5 1.383(3)
C6 C1 1.387(3)
C6 C7 1.481(3)
C12 C13 1.384(3)
C13 C14 1.374(3)
C13 H13 0.98(3)
C10 H10 0.95(2)
C1 C2 1.390(3)
C1 H1 1.01(2)
C5 C4 1.398(3)
C5 H5 0.96(2)
C3 C2 1.361(3)
C3 C4 1.375(4)
C3 H3 0.96(2)
C16 C15 1.384(3)
C16 H16 0.95(3)
C2 H2 0.99(2)
C15 C14 1.378(3)
C15 H15 0.99(3)
C4 H4 0.90(3)
C14 H14 0.92(2)
loop_
_geom_hbond_atom_site_label_D
_geom_hbond_atom_site_label_H
_geom_hbond_atom_site_label_A
_geom_hbond_site_symmetry_A
_geom_hbond_distance_DH
_geom_hbond_distance_HA
_geom_hbond_distance_DA
_geom_hbond_angle_DHA
_geom_hbond_publ_flag
C2 H2 Cg3 1_556 1.00(2) 2.94(2) 3.841(2) 150.5(2) yes
C9 O1 Cg1 2_665 1.202(3) 3.1510(2) 3.464(2) 94.750(10) yes
loop_
_geom_torsion_atom_site_label_1
_geom_torsion_atom_site_label_2
_geom_torsion_atom_site_label_3
_geom_torsion_atom_site_label_4
_geom_torsion
C7 O4 C8 C10 -107.8(2)
C7 O4 C8 C9 77.3(2)
C12 O2 C9 O1 178.33(15)
C12 O2 C9 C8 -0.2(3)
C10 C8 C9 O1 -176.93(19)
O4 C8 C9 O1 -2.0(3)
C10 C8 C9 O2 1.4(3)
O4 C8 C9 O2 176.31(15)
C9 O2 C12 C13 178.71(15)
C9 O2 C12 C11 -1.4(3)
C16 C11 C12 O2 -179.87(16)
C10 C11 C12 O2 1.7(3)
C16 C11 C12 C13 0.0(3)
C10 C11 C12 C13 -178.40(17)
O2 C12 C13 C14 -179.91(16)
C11 C12 C13 C14 0.2(3)
O4 C8 C10 C11 -175.59(16)
C9 C8 C10 C11 -1.1(3)
C12 C11 C10 C8 -0.5(3)
C16 C11 C10 C8 -178.80(17)
C8 O4 C7 O3 9.9(3)
C8 O4 C7 C6 -170.95(15)
C5 C6 C7 O3 -176.40(19)
C1 C6 C7 O3 2.6(3)
C5 C6 C7 O4 4.5(2)
C1 C6 C7 O4 -176.48(15)
C5 C6 C1 C2 -0.6(3)
C7 C6 C1 C2 -179.64(16)
C1 C6 C5 C4 0.1(3)
C7 C6 C5 C4 179.10(18)
C12 C11 C16 C15 -0.2(3)
C10 C11 C16 C15 178.12(19)
C4 C3 C2 C1 0.3(3)
C6 C1 C2 C3 0.4(3)
C11 C16 C15 C14 0.2(3)
C2 C3 C4 C5 -0.8(3)
C6 C5 C4 C3 0.6(3)
C12 C13 C14 C15 -0.2(3)
C16 C15 C14 C13 0.0(3)

_cod_database_fobs_code 1546656
