#------------------------------------------------------------------------------
#$Date: 2017-07-20 09:08:56 +0300 (Thu, 20 Jul 2017) $
#$Revision: 198836 $
#$URL: file:///home/coder/svn-repositories/cod/cif/1/54/65/1546550.cif $
#------------------------------------------------------------------------------
#
# This file is available in the Crystallography Open Database (COD),
# http://www.crystallography.net/. The original data for this entry
# were provided by IUCr Journals, http://journals.iucr.org/.
#
# The file may be used within the scientific community so long as
# proper attribution is given to the journal article from which the
# data were obtained.
#
data_1546550
loop_
_publ_author_name
'Maragatham, Gunasekaran'
'Selvarani, Sivasamy'
'Rajakumar, Perumal'
'Lakshmi, Srinivasakannan'
_publ_section_title
;
 1,4-Bis(4-bromobutoxy)benzene
;
_journal_coeditor_code           HB4156
_journal_issue                   7
_journal_name_full               IUCrData
_journal_page_first              x171004
_journal_paper_doi               10.1107/S2414314617010045
_journal_volume                  2
_journal_year                    2017
_chemical_formula_iupac          'C14 H20 Br2 O2'
_chemical_formula_moiety         'C14 H20 Br2 O2'
_chemical_formula_sum            'C14 H20 Br2 O2'
_chemical_formula_weight         380.12
_chemical_name_systematic
;
1,4-Bis(4-bromobutoxy)benzene
;
_space_group_crystal_system      monoclinic
_space_group_IT_number           14
_space_group_name_Hall           '-P 2yn'
_space_group_name_H-M_alt        'P 1 21/n 1'
_symmetry_space_group_name_Hall  '-P 2yn'
_symmetry_space_group_name_H-M   'P 1 21/n 1'
_atom_sites_solution_hydrogens   geom
_audit_creation_method           SHELXL-2014/7
_cell_angle_alpha                90
_cell_angle_beta                 95.567(4)
_cell_angle_gamma                90
_cell_formula_units_Z            2
_cell_length_a                   9.0845(10)
_cell_length_b                   5.3436(5)
_cell_length_c                   15.3509(15)
_cell_measurement_reflns_used    3047
_cell_measurement_temperature    296(2)
_cell_measurement_theta_max      24.91
_cell_measurement_theta_min      2.66
_cell_volume                     741.68(13)
_computing_cell_refinement
;
SAINT (Bruker, 2004)
;
_computing_data_collection
;
APEX2 (Bruker, 2004)
;
_computing_data_reduction
;
SAINT (Bruker, 2004)
;
_computing_molecular_graphics
;
ORTEP-3 for Windows (Farrugia, 2012) and Mercury (Bruno <i>et al.</i>,
2002)
;
_computing_publication_material
;
publCIF (Westrip, 2010)
;
_computing_structure_refinement
;
SHELXL2014 (Sheldrick, 2015)
;
_computing_structure_solution
;
SIR92 (Altomare <i>et al.</i>,  1993)
;
_diffrn_ambient_temperature      296(2)
_diffrn_measured_fraction_theta_full 1.000
_diffrn_measured_fraction_theta_max 1.000
_diffrn_measurement_device_type  'Bruker Kappa APEXII CCD'
_diffrn_measurement_method       '\w and \f scan'
_diffrn_radiation_monochromator  graphite
_diffrn_radiation_source         'fine-focus sealed tube'
_diffrn_radiation_type           MoK\a
_diffrn_radiation_wavelength     0.71073
_diffrn_reflns_av_R_equivalents  0.0269
_diffrn_reflns_limit_h_max       10
_diffrn_reflns_limit_h_min       -10
_diffrn_reflns_limit_k_max       6
_diffrn_reflns_limit_k_min       -6
_diffrn_reflns_limit_l_max       18
_diffrn_reflns_limit_l_min       -18
_diffrn_reflns_number            7040
_diffrn_reflns_theta_full        25.000
_diffrn_reflns_theta_max         25.000
_diffrn_reflns_theta_min         2.504
_exptl_absorpt_coefficient_mu    5.457
_exptl_absorpt_correction_T_max  0.7449
_exptl_absorpt_correction_T_min  0.5245
_exptl_absorpt_correction_type   multi-scan
_exptl_absorpt_process_details
;
(SADABS; Bruker, 2004)
;
_exptl_crystal_colour            colourless
_exptl_crystal_density_diffrn    1.702
_exptl_crystal_description       block
_exptl_crystal_F_000             380
_exptl_crystal_size_max          0.350
_exptl_crystal_size_mid          0.250
_exptl_crystal_size_min          0.200
_refine_diff_density_max         0.318
_refine_diff_density_min         -0.325
_refine_ls_extinction_method     none
_refine_ls_goodness_of_fit_ref   1.056
_refine_ls_hydrogen_treatment    constr
_refine_ls_matrix_type           full
_refine_ls_number_parameters     82
_refine_ls_number_reflns         1310
_refine_ls_number_restraints     0
_refine_ls_restrained_S_all      1.056
_refine_ls_R_factor_all          0.0324
_refine_ls_R_factor_gt           0.0237
_refine_ls_shift/su_max          0.001
_refine_ls_shift/su_mean         0.000
_refine_ls_structure_factor_coef Fsqd
_refine_ls_weighting_details
'w=1/[\s^2^(Fo^2^)+(0.0214P)^2^+0.4039P] where P=(Fo^2^+2Fc^2^)/3'
_refine_ls_weighting_scheme      calc
_refine_ls_wR_factor_gt          0.0489
_refine_ls_wR_factor_ref         0.0517
_reflns_number_gt                1126
_reflns_number_total             1310
_reflns_threshold_expression     'I > 2\s(I)'
_cod_data_source_file            hb4156sup1.cif
_cod_data_source_block           I
_cod_database_code               1546550
_shelx_space_group_comment
;
The symmetry employed for this shelxl refinement is uniquely defined
by the following loop, which should always be used as a source of
symmetry information in preference to the above space-group names.
They are only intended as comments.
;
_shelx_estimated_absorpt_t_min   0.251
_shelx_estimated_absorpt_t_max   0.408
_shelx_hkl_file
;
   2   0   0  776.20   20.20
   2   0   0  766.98   19.70
  -2   0   0  784.02   19.62
  -2   0   0  769.52   20.18
   3   0   0    0.11    0.21
   3   0   0   -0.19    0.14
  -3   0   0   -0.13    0.13
  -3   0   0    0.08    0.19
   4   0   0  136.08    3.70
   4   0   0  139.59    3.58
  -4   0   0  135.09    3.56
   5   0   0   -0.12    0.27
   5   0   0    0.18    0.32
   6   0   0  155.13    4.31
   6   0   0  155.41    4.14
   7   0   0    0.25    0.36
   7   0   0    0.27    0.57
   8   0   0    3.76    0.63
   8   0   0    3.16    0.64
   9   0   0   -0.77    0.67
   9   0   0   -0.47    0.58
  10   0   0    2.53    0.86
  10   0   0    2.80    1.05
  11   0   0   -2.07    1.09
 -11   0   0   -0.57    0.75
  11   0   0    0.02    0.68
  12   0   0    0.31    0.98
 -12   0   0   -1.16    1.15
   0  -1   0   -0.19    0.06
   0  -1   0   -0.18    0.07
   0  -1   0   -0.11    0.06
   0   1   0   -0.17    0.06
   0   1   0   -0.23    0.06
   0   1   0   -0.19    0.06
  -1  -1   0   44.77    1.18
  -1  -1   0   47.15    1.21
   1  -1   0   46.78    1.19
   1  -1   0   44.44    1.23
   1  -1   0   45.03    1.20
  -1  -1   0   45.82    1.18
   1   1   0   45.98    1.18
   1   1   0   44.00    1.22
  -1   1   0   46.07    1.19
  -1   1   0   44.32    1.23
   1   1   0   45.16    1.21
  -1   1   0   46.77    1.20
   1   1   0   45.88    1.18
  -2  -1   0  280.04    7.12
   2  -1   0  275.35    7.32
  -2  -1   0  297.48    7.31
   2  -1   0  270.46    7.11
   2   1   0  272.31    7.12
   2   1   0  289.67    7.32
  -2   1   0  289.99    7.32
  -2   1   0  284.59    7.11
  -2   1   0  282.12    7.11
   3  -1   0    6.57    0.39
  -3  -1   0    6.36    0.37
  -3  -1   0    6.85    0.40
   3  -1   0    7.08    0.33
   3   1   0    5.90    0.40
  -3   1   0    6.65    0.32
  -3   1   0    7.01    0.38
   3   1   0    7.00    0.37
   4  -1   0   82.86    2.19
   4  -1   0   81.21    2.27
  -4  -1   0   78.10    2.18
   4   1   0   77.80    2.27
   4   1   0   82.60    2.19
   5  -1   0    6.71    0.50
   5  -1   0    5.14    0.44
  -5  -1   0    6.51    0.49
   5   1   0    5.91    0.45
   5   1   0    6.19    0.53
   6  -1   0   11.49    0.63
   6  -1   0   11.30    0.68
   6   1   0   11.49    0.81
   6   1   0   13.16    0.70
   7  -1   0   -0.32    0.58
   7  -1   0   -0.44    0.51
   7   1   0   -0.09    0.41
   7   1   0   -0.02    0.45
   8  -1   0   40.86    1.57
   8  -1   0   40.55    1.46
   8   1   0   40.17    1.49
   8   1   0   39.48    1.67
   9  -1   0    0.94    0.66
   9  -1   0   -0.07    0.54
   9   1   0   -1.17    0.80
  -9   1   0   -0.15    0.80
   9   1   0   -0.08    0.63
  10  -1   0    4.70    0.77
  10  -1   0    6.40    1.16
  10   1   0    3.88    1.05
  10   1   0    4.64    0.84
 -10   1   0    4.58    1.04
  11  -1   0    1.22    0.77
  11  -1   0   -0.95    1.16
  11   1   0    0.15    0.85
 -11   1   0   -1.43    1.06
  12  -1   0   -2.18    1.30
  12  -1   0   -0.40    1.09
  12   1   0   -0.81    1.24
 -12   1   0   -1.93    1.17
   0  -2   0  269.50    6.78
   0  -2   0  273.55    6.98
   0  -2   0  267.70    6.79
   0   2   0  269.19    6.78
   0   2   0  271.71    6.78
   0   2   0  268.02    6.98
   0   2   0  270.35    6.98
   1  -2   0   18.49    0.57
  -1  -2   0   18.44    0.55
   1  -2   0   18.32    0.59
  -1  -2   0   18.20    0.54
   1  -2   0   18.76    0.56
  -1  -2   0   17.39    0.58
   1   2   0   18.65    0.55
  -1   2   0   19.14    0.57
  -1   2   0   19.06    0.60
   1   2   0   18.11    0.57
   1   2   0   19.13    0.54
  -1   2   0   18.52    0.57
   1   2   0   19.05    0.57
  -2  -2   0   55.58    1.43
   2  -2   0   54.71    1.46
  -2  -2   0   54.49    1.46
   2  -2   0   52.19    1.52
   2  -2   0   52.44    1.46
  -2   2   0   54.01    1.52
   2   2   0   54.12    1.42
   2   2   0   53.19    1.49
   2   2   0   54.71    1.48
  -2   2   0   54.33    1.46
   2   2   0   53.32    1.45
  -3  -2   0   35.72    0.98
   3  -2   0   32.47    1.05
  -3  -2   0   33.34    0.97
   3  -2   0   32.91    0.99
   3   2   0   32.51    1.02
  -3   2   0   33.49    1.04
  -3   2   0   32.93    0.98
   3   2   0   32.78    1.00
   4  -2   0   68.96    2.00
  -4  -2   0   72.54    1.95
   4  -2   0   69.32    1.93
   4   2   0   65.67    2.01
  -4   2   0   70.58    1.93
   4   2   0   72.10    1.95
   5  -2   0    2.45    0.44
  -5  -2   0    1.05    0.36
   5  -2   0    1.73    0.45
   5   2   0    1.61    0.42
   5   2   0    2.15    0.36
  -5   2   0    2.18    0.34
   6  -2   0  110.10    3.15
   6  -2   0  109.51    3.04
  -6  -2   0  112.97    3.04
  -6   2   0  107.47    3.05
   6   2   0  113.01    3.03
   6   2   0  107.72    3.18
   7  -2   0   23.52    1.03
   7  -2   0   25.51    1.25
   7   2   0   24.27    1.22
   7   2   0   25.24    1.05
  -7   2   0   24.74    1.18
   8  -2   0    7.59    0.92
   8  -2   0    8.30    0.86
  -8   2   0    5.50    0.83
   8   2   0    7.20    0.89
   8   2   0    7.48    0.71
   9  -2   0    6.42    0.85
   9  -2   0    5.77    0.77
  -9   2   0    4.57    0.73
   9   2   0    5.57    0.96
   9   2   0    6.34    0.74
  10  -2   0    5.85    1.19
  10  -2   0    4.99    1.02
  10   2   0    6.90    1.12
 -10   2   0    4.01    1.06
  11  -2   0   -0.74    0.89
  11  -2   0   -1.07    1.05
  11   2   0    0.70    1.11
 -11   2   0   -2.16    1.07
   0  -3   0    0.03    0.19
   0  -3   0    0.05    0.20
   0  -3   0    0.15    0.18
   0   3   0    0.10    0.18
   0   3   0   -0.05    0.16
   0   3   0    0.05    0.23
  -1  -3   0   39.48    1.08
  -1  -3   0   39.03    1.11
   1  -3   0   39.53    1.11
  -1  -3   0   37.65    1.14
   1  -3   0   38.75    1.16
   1  -3   0   38.35    1.12
  -1   3   0   39.02    1.16
   1   3   0   39.33    1.15
   1   3   0   40.03    1.09
   1   3   0   40.80    1.14
  -1   3   0   39.29    1.11
  -2  -3   0   86.18    2.26
   2  -3   0   83.46    2.36
   2  -3   0   85.06    2.29
  -2  -3   0   85.65    2.23
   2  -3   0   85.99    2.27
   2   3   0   86.90    2.25
  -2   3   0   86.60    2.36
   2   3   0   85.18    2.31
   2   3   0   83.38    2.32
  -2   3   0   85.17    2.28
   3  -3   0    4.00    0.40
  -3  -3   0    3.72    0.27
   3  -3   0    3.78    0.40
   3   3   0    4.12    0.33
   3   3   0    3.94    0.32
   3   3   0    3.54    0.33
  -3   3   0    3.76    0.38
   4  -3   0   40.20    1.32
   4  -3   0   40.23    1.29
  -4  -3   0   40.46    1.20
   4   3   0   39.13    1.23
   4   3   0   38.42    1.26
  -4   3   0   39.05    1.22
   4   3   0   40.55    1.29
  -5  -3   0    5.18    0.48
   5  -3   0    5.47    0.60
   5  -3   0    5.45    0.47
   5   3   0    6.20    0.54
   5   3   0    5.02    0.53
   5   3   0    5.13    0.49
  -5   3   0    4.26    0.54
   6  -3   0    0.39    0.55
  -6  -3   0    0.10    0.41
   6  -3   0    0.34    0.54
  -6   3   0    0.92    0.55
   6   3   0    0.62    0.38
   6   3   0    0.18    0.50
   7  -3   0    0.62    0.66
   7  -3   0    0.97    0.48
   7   3   0    1.26    0.45
  -7   3   0    1.05    0.66
   7   3   0    0.66    0.62
   8  -3   0   10.94    0.84
   8  -3   0   10.68    1.01
  -8   3   0    8.88    0.96
   8   3   0    8.83    0.96
   9  -3   0    3.38    0.93
   9  -3   0    3.09    0.78
   9   3   0    2.07    0.88
  -9   3   0    2.50    0.93
  10  -3   0    1.50    1.12
  10  -3   0    1.69    1.03
  10   3   0    1.27    0.98
 -10   3   0    0.08    0.77
  11  -3   0    0.65    1.14
  11  -3   0   -1.24    1.23
 -11   3   0   -1.73    1.15
  11   3   0    0.36    1.21
   0  -4   0   51.41    1.47
   0  -4   0   50.47    1.43
   0  -4   0   51.13    1.50
   0   4   0   50.51    1.50
   0   4   0   52.25    1.44
   0   4   0   50.18    1.52
   1  -4   0   19.09    0.76
   1  -4   0   19.03    0.72
  -1  -4   0   17.91    0.70
  -1  -4   0   18.93    0.65
  -1  -4   0   18.42    0.71
   1  -4   0   18.87    0.67
   1   4   0   18.85    0.70
   1   4   0   17.84    0.72
  -1   4   0   19.22    0.77
  -1   4   0   18.56    0.68
  -1   4   0   19.44    0.77
   1   4   0   18.35    0.66
   2  -4   0    7.46    0.55
   2  -4   0    8.36    0.47
  -2  -4   0    7.08    0.42
  -2  -4   0    7.42    0.51
   2  -4   0    7.32    0.53
  -2   4   0    7.44    0.54
   2   4   0    7.98    0.49
   2   4   0    7.27    0.44
  -2   4   0    7.53    0.56
   2   4   0    7.81    0.51
   3  -4   0   33.90    1.18
  -3  -4   0   34.38    1.03
   3  -4   0   34.47    1.16
  -3   4   0   32.78    1.12
   3   4   0   34.64    1.13
   3   4   0   34.60    1.09
   3   4   0   33.97    1.07
  -4  -4   0    4.31    0.38
   4  -4   0    5.50    0.57
   4  -4   0    5.45    0.57
  -4   4   0    5.10    0.53
   4   4   0    4.43    0.43
   4   4   0    5.43    0.48
   5  -4   0    0.30    0.54
   5  -4   0   -0.21    0.51
   5   4   0    0.63    0.48
  -5   4   0    0.55    0.51
   6  -4   0    3.94    0.68
   6  -4   0    3.75    0.69
  -6   4   0    4.21    0.54
   6   4   0    4.04    0.70
   7  -4   0   20.50    1.28
   7  -4   0   20.56    1.08
  -7   4   0   18.46    1.02
   7   4   0   20.11    1.29
   8  -4   0    0.87    0.83
   8  -4   0    0.57    0.83
  -8   4   0   -0.68    0.81
   8   4   0   -0.19    0.71
   9  -4   0    6.03    1.08
   9  -4   0    5.75    1.11
  -9   4   0    4.36    1.04
   9   4   0    8.21    1.03
  10  -4   0   -1.56    1.09
  10  -4   0   -0.36    1.09
  10   4   0    0.40    0.93
 -10   4   0   -0.66    1.07
   0  -5   0   -0.06    0.39
   0   5   0    0.05    0.37
  -1  -5   0   24.12    0.94
   1  -5   0   24.50    1.00
   1  -5   0   25.03    1.04
  -1   5   0   23.65    0.93
  -1   5   0   24.96    1.01
   1   5   0   25.04    0.98
  -2  -5   0   10.03    0.67
   2  -5   0   11.17    0.73
   2  -5   0   10.60    0.69
   2   5   0   11.61    0.71
  -2   5   0   12.22    0.81
  -2   5   0   10.53    0.73
   3  -5   0    1.36    0.51
   3  -5   0    1.26    0.53
   3   5   0    1.82    0.45
  -3   5   0    1.09    0.45
   4  -5   0   12.71    0.87
   4  -5   0   12.05    0.85
  -4   5   0   10.33    0.81
   4   5   0   13.12    0.82
   5  -5   0   12.89    0.97
   5  -5   0   15.11    1.02
  -5   5   0   12.48    0.92
   5   5   0   12.13    0.93
   6  -5   0    1.69    0.72
   6  -5   0    1.44    0.68
  -6   5   0   -0.39    0.66
   6   5   0    1.05    0.57
   7  -5   0    1.99    0.64
   7   5   0    2.48    0.77
  -7   5   0    0.58    0.79
   8  -5   0   -0.04    0.91
   8   5   0    0.72    0.74
   9  -5   0   -1.58    0.99
   9   5   0    0.89    0.83
   0  -6   0    3.89    0.58
   0   6   0    3.38    0.57
   1  -6   0    3.32    0.63
  -1  -6   0    3.74    0.58
   1   6   0    4.41    0.55
  -1   6   0    4.71    0.64
  -2  -6   0    1.19    0.50
   2  -6   0    1.11    0.63
  -2   6   0    1.05    0.60
   2   6   0    0.84    0.52
   3  -6   0   11.35    0.90
   3   6   0   13.20    0.91
  -3   6   0   12.43    0.94
   4  -6   0    1.13    0.67
   4   6   0    0.30    0.54
  -4   6   0    0.34    0.75
   5  -6   0    1.28    0.75
   5   6   0    1.71    0.62
   6  -6   0   -0.84    0.75
   6   6   0    1.78    0.68
   7  -6   0    1.65    0.87
   7   6   0    2.54    0.81
   0  -7   0    0.21    0.67
   0   7   0   -0.20    0.69
  -1  -7   0    4.65    0.70
   1  -7   0    2.95    0.73
  -1   7   0    4.20    0.76
   1   7   0    2.99    0.71
   2  -7   0    0.90    0.66
   2   7   0    0.10    0.64
  -2   7   0    0.94    0.73
   3  -7   0   -0.72    0.69
   3   7   0    0.40    0.65
  -3   7   0   -0.96    0.78
  12   0  -1   -0.67    1.26
 -12   0   1   -0.61    1.13
 -11   0   1    4.25    1.08
  11   0  -1    6.69    1.05
  11   0  -1    5.77    0.99
  10   0  -1   -0.22    0.74
  10   0  -1    0.03    0.94
 -10   0   1   -1.03    0.81
   9   0  -1   -0.02    0.79
   9   0  -1    1.00    0.66
   8   0  -1   -0.61    0.65
   8   0  -1   -0.49    0.52
   7   0  -1   66.73    1.98
   7   0  -1   63.98    2.11
   6   0  -1    0.55    0.38
   6   0  -1    0.19    0.43
  -5   0   1   35.05    1.09
   5   0  -1   35.32    1.11
   5   0  -1   34.89    1.14
   4   0  -1    0.12    0.22
  -4   0   1    0.20    0.22
   4   0  -1    0.33    0.27
   3   0  -1   52.32    1.43
  -3   0   1   52.62    1.42
   3   0  -1   53.75    1.49
  -3   0   1   53.21    1.48
  -2   0   1    0.05    0.11
  -2   0   1   -0.06    0.10
   2   0  -1   -0.09    0.11
   2   0  -1    0.03    0.08
   1   0  -1   69.30    1.77
  -1   0   1   69.81    1.77
  -1   0   1   68.83    1.82
   0   0  -1   -0.06    0.01
   0   0  -1   -0.04    0.01
   0   0  -1   -0.03    0.01
   0   0   1   -0.05    0.01
   0   0   1   -0.07    0.01
   0   0   1   -0.04    0.01
   0   0  -1   -0.08    0.01
   0   0   1   -0.05    0.00
   1   0   1    2.97    0.20
   1   0   1    3.32    0.19
  -1   0  -1    3.16    0.20
  -1   0  -1    3.23    0.17
  -2   0  -1    0.08    0.12
   2   0   1   -0.20    0.13
   2   0   1   -0.21    0.13
  -2   0  -1   -0.21    0.12
   3   0   1   24.05    0.81
  -3   0  -1   25.01    0.76
   3   0   1   25.33    0.80
  -3   0  -1   25.39    0.82
   4   0   1   -0.11    0.24
   4   0   1   -0.26    0.28
  -4   0  -1    0.04    0.18
   5   0   1   71.14    2.15
   5   0   1   72.11    2.05
   6   0   1    0.52    0.51
   6   0   1    0.13    0.41
   7   0   1    6.71    0.66
   7   0   1    6.08    0.66
   8   0   1   -0.85    0.59
   8   0   1    0.51    0.74
   9   0   1    3.43    0.80
   9   0   1    4.55    0.96
  10   0   1    0.04    0.76
  10   0   1   -0.75    0.79
  11   0   1    1.07    0.98
  11   0   1    0.35    1.19
  12   0   1   -0.15    0.99
  12   0   1   -0.41    1.01
 -12   0  -1   -1.87    1.13
  12  -1  -1   -0.97    0.96
 -12  -1   1   -1.91    1.05
  12  -1  -1   -1.08    1.06
  12   1  -1   -1.91    1.22
 -12   1   1   -1.41    1.14
  11  -1  -1    6.07    1.04
  11  -1  -1    5.46    1.08
  11   1  -1    3.53    1.18
 -11   1   1    1.95    1.06
  10  -1  -1   -0.03    0.82
  10  -1  -1   -0.17    0.72
  10   1  -1    0.19    0.70
  10   1  -1   -1.53    0.90
 -10   1   1   -0.61    0.64
   9  -1  -1   24.62    1.52
   9  -1  -1   23.86    1.32
   9   1  -1   24.29    1.46
   9   1  -1   24.92    1.21
  -9   1   1   22.91    1.18
   8  -1  -1    7.57    0.88
   8  -1  -1    8.89    0.68
   8   1  -1    7.26    0.69
   8   1  -1    7.36    0.86
  -8   1   1    7.36    0.80
   7  -1  -1    0.47    0.50
   7  -1  -1    0.06    0.55
  -7   1   1   -0.42    0.39
   7   1  -1   -0.04    0.39
   7   1  -1   -0.77    0.41
   6  -1  -1    9.02    0.60
  -6  -1   1    9.50    0.58
   6  -1  -1    8.49    0.54
   6   1  -1    7.07    0.57
  -6   1   1    8.07    0.61
   6   1  -1    8.31    0.58
   5  -1  -1  189.30    5.11
  -5  -1   1  186.29    4.93
   5  -1  -1  196.11    4.95
   5   1  -1  199.31    4.93
  -5   1   1  184.55    4.92
   5   1  -1  186.80    5.10
  -4  -1   1   10.03    0.47
   4  -1  -1   10.22    0.54
   4  -1  -1   10.33    0.46
  -4   1   1   10.73    0.52
   4   1  -1   10.31    0.46
   4   1  -1   10.49    0.54
   3  -1  -1  355.70    9.28
   3  -1  -1  355.02    9.02
  -3  -1   1  341.60    9.26
  -3  -1   1  354.32    9.00
  -3   1   1  356.08    9.01
  -3   1   1  367.08    9.28
   3   1  -1  355.22    9.28
   3   1  -1  367.27    9.09
  -3   1   1  365.92    9.01
  -2  -1   1   69.15    1.78
  -2  -1   1   61.29    1.73
   2  -1  -1   64.95    1.81
   2  -1  -1   67.58    1.74
   2  -1  -1   71.24    1.76
   2   1  -1   67.25    1.73
  -2   1   1   67.71    1.75
   2   1  -1   62.13    1.79
  -2   1   1   66.73    1.75
  -2   1   1   67.48    1.81
   1  -1  -1    0.35    0.13
   1  -1  -1    0.20    0.10
   1  -1  -1    0.38    0.11
  -1  -1   1    0.40    0.06
  -1   1   1    0.38    0.10
   1   1  -1    0.60    0.08
   1   1  -1    0.55    0.08
  -1   1   1    0.24    0.12
   1   1  -1    0.45    0.07
  -1   1   1    0.18    0.09
   0  -1  -1   10.47    0.34
   0  -1  -1   10.49    0.33
   0  -1  -1   10.49    0.32
   0  -1  -1   10.64    0.32
   0  -1   1   10.53    0.29
   0   1   1   10.41    0.32
   0   1   1   10.58    0.34
   0   1   1   10.45    0.32
   0   1  -1   10.47    0.29
   0   1   1   10.54    0.33
   0   1  -1   10.45    0.30
   0   1  -1   10.34    0.29
  -1  -1  -1  295.94    7.94
  -1  -1  -1  307.23    7.76
   1  -1   1  302.06    7.88
  -1  -1  -1  310.40    8.01
  -1  -1  -1  318.22    7.84
   1  -1   1  299.98    8.01
   1   1   1  308.98    8.03
   1   1   1  311.59    7.86
  -1   1  -1  307.32    7.97
   1   1   1  309.83    7.79
   1   1   1  311.88    7.95
  -1   1  -1  305.72    7.75
  -1   1  -1  310.00    7.84
  -2  -1  -1    5.60    0.29
   2  -1   1    5.19    0.26
   2  -1   1    5.72    0.29
  -2  -1  -1    5.40    0.30
  -2   1  -1    5.20    0.29
  -2   1  -1    5.06    0.28
   2   1   1    5.74    0.30
   2   1   1    5.16    0.27
   2   1   1    5.13    0.27
  -3  -1  -1  166.91    4.27
  -3  -1  -1  159.81    4.15
   3  -1   1  161.35    4.25
   3  -1   1  161.34    4.13
  -3   1  -1  159.60    4.24
  -3   1  -1  163.36    4.12
   3   1   1  151.38    4.27
   3   1   1  159.05    4.14
   4  -1   1    0.87    0.24
   4  -1   1    0.73    0.32
  -4  -1  -1    0.53    0.27
   4   1   1    0.55    0.34
   4   1   1    0.48    0.31
  -5  -1  -1    5.74    0.45
   5  -1   1    5.20    0.52
   5  -1   1    5.44    0.49
   5   1   1    4.66    0.47
   5   1   1    4.60    0.47
   6  -1   1    0.73    0.38
   6  -1   1    0.65    0.46
   6   1   1   -0.73    0.48
   6   1   1   -0.13    0.42
   7  -1   1   41.77    1.48
   7  -1   1   42.68    1.49
   7   1   1   38.72    1.44
   7   1   1   36.02    1.55
   8  -1   1    1.44    0.78
   8  -1   1    1.07    0.68
   8   1   1    1.51    0.75
   8   1   1    0.55    0.60
   9  -1   1    1.61    0.94
   9  -1   1    2.57    0.84
   9   1   1    0.14    0.83
   9   1   1    1.76    0.73
  10  -1   1    5.06    1.00
  10  -1   1    4.01    1.14
  10   1   1    3.53    0.86
 -10   1  -1    3.59    0.80
  10   1   1    3.49    0.84
  11  -1   1   -0.18    1.21
  11  -1   1    1.00    1.03
 -11   1  -1   -0.68    1.09
  11   1   1    0.74    1.14
  12  -1   1    0.66    1.37
  12  -1   1   -0.04    0.85
 -12   1  -1   -0.41    1.25
  12   1   1    0.00    1.30
 -12   2   1   -2.37    1.20
  11  -2  -1   -0.23    1.17
  11  -2  -1   -0.51    1.00
  11   2  -1    0.90    1.02
 -11   2   1    0.13    1.11
  10  -2  -1    0.54    1.04
  10  -2  -1   -0.01    0.67
 -10   2   1   -0.80    0.69
  10   2  -1   -0.91    0.90
   9  -2  -1   -0.56    0.85
   9  -2  -1    0.94    0.79
   9   2  -1   -0.73    0.77
  -9   2   1    0.12    0.82
   8  -2  -1    0.58    0.49
   8  -2  -1   -0.20    0.54
   8   2  -1    0.16    0.53
   8   2  -1   -0.31    0.64
  -8   2   1   -0.26    0.50
   7  -2  -1   17.84    0.90
  -7  -2   1   20.96    0.90
   7  -2  -1   19.98    0.98
  -7   2   1   19.50    0.92
   7   2  -1   18.70    1.07
   7   2  -1   20.46    0.94
   6  -2  -1    4.81    0.62
  -6  -2   1    5.39    0.48
   6  -2  -1    4.39    0.46
   6   2  -1    4.86    0.63
   6   2  -1    5.57    0.50
  -6   2   1    4.42    0.57
  -5  -2   1   23.52    0.85
   5  -2  -1   22.96    0.90
   5  -2  -1   22.24    0.95
   5   2  -1   23.98    0.81
   5   2  -1   23.42    0.93
  -5   2   1   21.49    0.83
  -4  -2   1   13.44    0.60
   4  -2  -1   14.89    0.68
   4  -2  -1   13.67    0.57
  -4   2   1   15.22    0.66
   4   2  -1   14.10    0.57
   4   2  -1   12.28    0.65
   3  -2  -1   24.06    0.85
  -3  -2   1   25.13    0.75
  -3  -2   1   25.77    0.73
   3  -2  -1   24.69    0.78
   3   2  -1   24.50    0.75
  -3   2   1   23.53    0.77
  -3   2   1   25.17    0.84
   3   2  -1   23.49    0.80
   3   2  -1   24.50    0.72
  -2  -2   1    2.45    0.17
   2  -2  -1    3.07    0.25
  -2  -2   1    2.95    0.17
   2  -2  -1    3.37    0.25
   2  -2  -1    2.85    0.23
   2   2  -1    3.17    0.17
   2   2  -1    2.56    0.20
  -2   2   1    3.30    0.25
  -2   2   1    3.01    0.26
   2   2  -1    2.90    0.22
   2   2  -1    2.97    0.21
  -1  -2   1  226.63    5.73
   1  -2  -1  218.29    5.77
   1  -2  -1  224.18    5.95
   1  -2  -1  230.37    5.77
  -1   2   1  230.34    5.77
   1   2  -1  231.94    5.73
   1   2  -1  233.87    5.72
  -1   2   1  231.16    5.95
  -1   2   1  222.88    5.77
   1   2  -1  234.09    5.89
   1   2  -1  226.89    5.90
   0  -2  -1    5.96    0.30
   0  -2   1    6.02    0.25
   0  -2  -1    5.48    0.27
   0  -2   1    5.98    0.23
   0  -2  -1    5.70    0.26
   0  -2   1    4.80    0.22
   0   2  -1    6.37    0.26
   0   2  -1    5.91    0.23
   0   2  -1    5.99    0.24
   0   2   1    5.86    0.26
   0   2   1    5.77    0.29
   0   2   1    6.03    0.26
   0   2   1    5.54    0.29
  -1  -2  -1   23.05    0.73
  -1  -2  -1   23.44    0.69
   1  -2   1   22.57    0.69
   1  -2   1   22.70    0.69
  -1  -2  -1   22.12    0.68
   1  -2   1   23.19    0.67
  -1  -2  -1   23.82    0.67
  -1   2  -1   23.27    0.67
   1   2   1   23.25    0.71
  -1   2  -1   23.85    0.68
   1   2   1   22.88    0.70
   1   2   1   23.76    0.67
  -1   2  -1   23.50    0.71
   1   2   1   23.29    0.68
  -2  -2  -1    6.81    0.36
  -2  -2  -1    7.50    0.33
   2  -2   1    7.81    0.38
  -2  -2  -1    8.34    0.34
   2  -2   1    7.14    0.33
  -2   2  -1    7.96    0.38
   2   2   1    7.63    0.35
   2   2   1    7.49    0.34
   2   2   1    8.24    0.40
  -2   2  -1    7.96    0.37
   2   2   1    7.91    0.36
   3  -2   1   82.42    2.31
   3  -2   1   84.17    2.25
  -3  -2  -1   85.13    2.24
  -3   2  -1   85.27    2.31
   3   2   1   81.92    2.31
   3   2   1   83.31    2.33
  -3   2  -1   83.88    2.22
   3   2   1   82.43    2.25
  -4  -2  -1   -0.23    0.29
   4  -2   1   -0.09    0.32
   4  -2   1    0.37    0.34
  -4   2  -1    0.51    0.34
   4   2   1    0.15    0.29
   4   2   1    0.00    0.31
   5  -2   1   61.50    1.86
  -5  -2  -1   61.32    1.78
   5  -2   1   59.27    1.75
  -5   2  -1   58.89    1.78
   5   2   1   57.06    1.86
   5   2   1   61.87    1.79
   6  -2   1    0.92    0.42
   6  -2   1   -0.01    0.36
   6   2   1    0.91    0.43
  -6   2  -1    1.00    0.53
   6   2   1    0.69    0.48
   7  -2   1    0.37    0.60
   7  -2   1    0.55    0.48
  -7   2  -1   -0.63    0.61
   7   2   1   -0.47    0.59
   7   2   1    0.13    0.47
   8  -2   1    0.34    0.53
   8  -2   1   -0.03    0.74
   8   2   1   -0.38    0.56
   8   2   1    0.48    0.73
  -8   2  -1   -0.52    0.53
   9  -2   1    5.25    1.03
   9  -2   1    5.54    0.95
   9   2   1    4.05    0.74
   9   2   1    6.65    1.02
  -9   2  -1    3.55    0.94
  10  -2   1   -0.11    0.96
  10  -2   1   -1.43    1.05
 -10   2  -1    0.81    1.01
  10   2   1    0.72    1.00
  11  -2   1   -0.43    1.09
  11  -2   1    0.93    0.96
 -11   2  -1    0.10    1.13
  11   2   1    1.82    1.16
  11  -3  -1    1.64    1.17
  11  -3  -1   -1.97    1.20
 -11   3   1   -1.03    1.16
  11   3  -1   -0.40    1.02
  10  -3  -1   -0.29    1.07
  10  -3  -1    0.38    0.74
  10   3  -1    0.06    0.91
 -10   3   1   -0.82    0.73
   9  -3  -1    5.84    1.04
   9  -3  -1    5.37    0.97
  -9   3   1    5.88    0.79
   9   3  -1    7.42    0.97
   8  -3  -1    1.88    0.82
   8  -3  -1    1.25    0.76
   8   3  -1    0.93    0.69
  -8   3   1    1.01    0.57
   7  -3  -1   -0.35    0.60
   7  -3  -1    0.03    0.48
   7   3  -1   -1.34    0.53
  -7   3   1   -0.74    0.61
   6  -3  -1    7.78    0.63
  -6  -3   1    5.71    0.52
   6  -3  -1    7.38    0.67
   6   3  -1    6.04    0.63
   6   3  -1    6.82    0.52
  -6   3   1    7.23    0.57
   5  -3  -1   36.20    1.32
  -5  -3   1   36.20    1.16
   5  -3  -1   36.01    1.20
   5   3  -1   37.17    1.24
   5   3  -1   32.65    1.23
  -5   3   1   36.73    1.19
   5   3  -1   36.82    1.13
   4  -3  -1    0.48    0.38
  -4  -3   1    0.12    0.24
   4  -3  -1    0.28    0.41
  -4   3   1    0.45    0.29
   4   3  -1    0.54    0.29
   4   3  -1    0.36    0.26
   4   3  -1    0.11    0.27
   3  -3  -1   51.92    1.56
  -3  -3   1   51.92    1.39
   3  -3  -1   50.56    1.50
   3   3  -1   48.81    1.42
   3   3  -1   52.05    1.48
   3   3  -1   51.64    1.47
  -3   3   1   52.44    1.49
  -2  -3   1   54.66    1.49
   2  -3  -1   56.41    1.53
   2  -3  -1   54.74    1.55
   2  -3  -1   53.83    1.60
  -2  -3   1   54.61    1.45
   2   3  -1   54.75    1.48
  -2   3   1   55.59    1.59
  -2   3   1   55.38    1.54
   2   3  -1   55.47    1.52
   2   3  -1   53.66    1.52
  -1  -3   1    5.81    0.28
   1  -3  -1    5.74    0.34
   1  -3  -1    5.58    0.39
   1  -3  -1    5.79    0.40
  -1  -3   1    5.57    0.31
   1   3  -1    6.18    0.32
   1   3  -1    6.08    0.30
  -1   3   1    5.48    0.42
  -1   3   1    5.92    0.39
  -1   3   1    6.10    0.37
   1   3  -1    5.93    0.32
   0  -3   1   30.44    0.90
   0  -3  -1   29.89    0.91
   0  -3  -1   31.42    0.96
   0  -3   1   30.08    0.86
   0  -3   1   30.43    0.88
   0  -3  -1   28.97    0.88
   0   3  -1   30.27    0.86
   0   3  -1   30.37    0.91
   0   3  -1   29.69    0.90
   0   3   1   31.39    0.95
   0   3   1   30.89    0.96
   0   3   1   30.79    0.90
   1  -3   1  119.82    3.05
  -1  -3  -1  113.23    3.16
   1  -3   1  121.24    3.15
  -1  -3  -1  118.72    3.05
   1  -3   1  113.61    3.05
  -1  -3  -1  119.12    3.07
   1   3   1  120.17    3.17
   1   3   1  117.32    3.15
   1   3   1  119.15    3.05
  -1   3  -1  117.81    3.15
  -1   3  -1  117.92    3.05
   2  -3   1   57.58    1.62
   2  -3   1   57.69    1.67
  -2  -3  -1   58.53    1.59
  -2  -3  -1   57.34    1.61
   2   3   1   58.01    1.60
   2   3   1   59.20    1.67
  -2   3  -1   59.48    1.68
   2   3   1   58.43    1.67
  -2   3  -1   61.23    1.62
  -3  -3  -1   69.06    1.85
   3  -3   1   66.13    1.89
   3  -3   1   68.58    1.95
   3   3   1   70.11    1.95
  -3   3  -1   65.39    1.93
   3   3   1   65.80    1.92
  -3   3  -1   68.27    1.88
   3   3   1   67.78    1.88
   4  -3   1  110.27    3.00
   4  -3   1  113.82    3.10
  -4  -3  -1  115.42    2.96
  -4   3  -1  111.71    2.98
   4   3   1  105.12    3.07
   4   3   1  113.25    3.09
   4   3   1  105.28    2.98
   5  -3   1    0.46    0.35
  -5  -3  -1    0.10    0.41
   5  -3   1    0.66    0.34
  -5   3  -1    1.30    0.48
   5   3   1    1.51    0.41
   5   3   1    1.04    0.43
   5   3   1    1.21    0.43
   6  -3   1   13.47    0.92
  -6  -3  -1   13.00    0.86
   6  -3   1   14.39    0.94
   6   3   1   13.61    0.89
   6   3   1   14.46    0.85
  -6   3  -1   13.15    0.92
   7  -3   1   21.31    1.21
   7  -3   1   21.52    1.23
   7   3   1   20.84    1.00
  -7   3  -1   20.39    1.18
   7   3   1   20.91    1.20
   8  -3   1    0.58    0.61
   8  -3   1    0.92    0.79
   8   3   1    0.43    0.82
  -8   3  -1    0.24    0.75
   9  -3   1    4.22    0.78
   9  -3   1    2.62    0.79
   9   3   1    3.61    0.94
  -9   3  -1    2.25    0.94
  10  -3   1   -1.04    1.06
  10  -3   1    0.23    1.04
  10   3   1    0.08    0.99
 -10   3  -1    0.76    1.05
  11  -3   1   -0.56    0.86
  11  -3   1   -1.67    1.26
 -11   3  -1   -1.81    1.17
  11   3   1    0.81    1.14
  10  -4  -1   -0.40    1.11
  10  -4  -1    0.50    0.80
 -10   4   1   -0.70    1.06
  10   4  -1    1.23    1.04
   9  -4  -1    1.71    0.74
   9  -4  -1    1.32    1.00
   9   4  -1    0.66    0.90
  -9   4   1    0.15    0.95
   8  -4  -1    0.12    0.60
   8  -4  -1    0.41    0.63
  -8   4   1    0.92    0.82
   8   4  -1    1.28    0.79
   7  -4  -1   21.16    1.26
   7  -4  -1   18.64    1.25
   7   4  -1   18.80    1.22
  -7   4   1   19.32    1.23
   6  -4  -1    3.47    0.66
   6  -4  -1    3.07    0.55
   6   4  -1    2.02    0.62
  -6   4   1    2.95    0.66
   5  -4  -1    6.61    0.70
   5  -4  -1    7.97    0.69
  -5   4   1    6.67    0.64
   5   4  -1    7.31    0.63
  -4  -4   1   19.50    0.68
   4  -4  -1   19.05    0.91
   4  -4  -1   20.52    0.94
  -4   4   1   19.51    0.88
   4   4  -1   17.44    0.72
   4   4  -1   20.02    0.83
   3  -4  -1   20.36    0.89
  -3  -4   1   20.19    0.66
   3  -4  -1   21.05    0.88
   3   4  -1   19.97    0.74
   3   4  -1   20.42    0.77
  -3   4   1   20.47    0.84
   3   4  -1   19.40    0.71
  -2  -4   1    3.83    0.34
   2  -4  -1    4.64    0.45
   2  -4  -1    4.68    0.37
   2  -4  -1    3.95    0.43
  -2  -4   1    4.56    0.34
   2   4  -1    3.53    0.34
  -2   4   1    4.06    0.41
   2   4  -1    4.12    0.34
   2   4  -1    3.99    0.30
  -2   4   1    3.48    0.45
   1  -4  -1   56.84    1.61
  -1  -4   1   55.80    1.54
   1  -4  -1   57.23    1.69
  -1  -4   1   55.90    1.57
   1  -4  -1   56.98    1.64
   1   4  -1   57.92    1.63
  -1   4   1   58.48    1.69
   1   4  -1   57.52    1.55
  -1   4   1   57.21    1.70
  -1   4   1   55.65    1.61
   1   4  -1   55.95    1.62
   0  -4   1   11.17    0.51
   0  -4  -1   10.56    0.49
   0  -4  -1   11.18    0.56
   0  -4  -1   10.88    0.60
   0  -4   1   11.04    0.50
   0  -4   1   11.22    0.48
   0   4   1   11.33    0.59
   0   4  -1   10.82    0.57
   0   4  -1   11.17    0.51
   0   4   1   10.56    0.51
   0   4  -1   11.33    0.48
   0   4   1   11.81    0.57
  -1  -4  -1   10.49    0.58
   1  -4   1   10.26    0.54
   1  -4   1   10.02    0.57
  -1  -4  -1    9.81    0.57
   1  -4   1   10.71    0.50
  -1  -4  -1   10.67    0.50
   1   4   1   10.71    0.58
  -1   4  -1   10.02    0.53
   1   4   1    9.86    0.54
   1   4   1   10.41    0.52
  -1   4  -1    9.64    0.52
   2  -4   1   21.24    0.82
   2  -4   1   22.17    0.82
  -2  -4  -1   22.93    0.76
  -2  -4  -1   20.83    0.83
   2   4   1   22.40    0.81
   2   4   1   22.80    0.85
  -2   4  -1   22.20    0.83
   2   4   1   21.40    0.78
  -2   4  -1   22.40    0.79
   3  -4   1   11.40    0.67
  -3  -4  -1   11.54    0.53
   3  -4   1   11.22    0.66
   3   4   1   12.49    0.63
   3   4   1   12.21    0.62
  -3   4  -1   11.37    0.64
   3   4   1   12.45    0.64
   4  -4   1    0.54    0.46
   4  -4   1    1.15    0.45
  -4   4  -1    0.69    0.43
   4   4   1    1.40    0.41
   4   4   1    1.54    0.38
   5  -4   1   31.09    1.22
   5  -4   1   29.02    1.12
  -5   4  -1   29.99    1.18
   5   4   1   29.71    1.24
   6  -4   1    3.63    0.68
   6  -4   1    3.22    0.55
  -6   4  -1    2.83    0.65
   6   4   1    2.85    0.61
   7  -4   1    2.99    0.77
   7  -4   1    2.14    0.76
   7   4   1    3.23    0.73
  -7   4  -1    2.89    0.74
   8  -4   1    0.70    0.85
   8  -4   1    1.85    0.86
   8   4   1    2.16    0.90
  -8   4  -1    0.65    0.84
   9  -4   1    1.20    1.01
   9  -4   1    0.89    0.99
   9   4   1    2.83    1.03
  -9   4  -1    0.94    0.97
  10  -4   1   -2.19    1.08
  10  -4   1   -1.54    1.10
 -10   4  -1   -0.01    1.11
  10   4   1    0.01    1.07
   9  -5  -1   -1.53    1.00
   9   5  -1   -0.35    0.85
   8  -5  -1    3.86    0.98
  -8   5   1    4.90    0.96
   8   5  -1    4.91    0.90
   7  -5  -1   -0.15    0.76
   7  -5  -1    0.17    0.78
   7   5  -1    0.18    0.66
  -7   5   1   -0.01    0.77
   6  -5  -1   11.27    0.93
   6  -5  -1   10.32    0.93
   6   5  -1   11.21    0.86
  -6   5   1   10.90    0.89
   5  -5  -1    3.54    0.70
   5  -5  -1    4.16    0.68
  -5   5   1    3.59    0.67
   5   5  -1    3.36    0.58
   4  -5  -1   -0.38    0.55
   4  -5  -1   -0.18    0.52
  -4   5   1    0.07    0.52
   4   5  -1   -0.02    0.42
   3  -5  -1    5.26    0.60
   3  -5  -1    6.24    0.61
   3   5  -1    6.24    0.51
  -3   5   1    5.18    0.64
  -3   5   1    5.14    0.57
  -2  -5   1   23.36    0.91
   2  -5  -1   22.50    1.05
   2  -5  -1   23.92    1.00
  -2   5   1   23.93    1.08
   2   5  -1   24.97    0.91
  -2   5   1   24.51    1.00
  -1  -5   1    0.41    0.36
   1  -5  -1    0.38    0.41
   1  -5  -1    0.53    0.45
  -1   5   1    0.26    0.45
   1   5  -1    0.34    0.37
  -1   5   1   -0.16    0.35
   0  -5  -1   15.31    0.77
   0  -5  -1   14.87    0.82
   0  -5   1   16.11    0.73
   0   5   1   15.18    0.72
   0   5  -1   15.18    0.79
   0   5   1   15.52    0.80
   1  -5   1   16.64    0.79
  -1  -5  -1   14.55    0.75
   1   5   1   16.28    0.84
  -1   5  -1   16.02    0.87
  -2  -5  -1    0.37    0.39
   2  -5   1    0.26    0.41
  -2   5  -1    0.84    0.47
   2   5   1    0.58    0.40
   3  -5   1    9.15    0.70
   3   5   1   10.15    0.77
   4  -5   1   10.69    0.77
   4   5   1   12.05    0.79
   5  -5   1    0.05    0.59
   5   5   1    0.75    0.58
   6  -5   1    2.57    0.75
   6   5   1    2.54    0.70
   7  -5   1    3.53    0.87
   7   5   1    4.55    0.78
   8  -5   1    0.19    0.92
   8   5   1    2.17    0.92
   9  -5   1    1.38    1.04
   9   5   1    2.39    1.02
   7  -6  -1    0.92    0.88
   7   6  -1    1.91    0.75
   6  -6  -1   -0.11    0.80
   6   6  -1    1.24    0.64
   5  -6  -1   -0.34    0.72
   5   6  -1    0.43    0.56
  -5   6   1   -0.43    0.81
   4  -6  -1    8.87    0.85
   4   6  -1    9.75    0.75
  -4   6   1    7.38    0.93
   3  -6  -1    1.84    0.72
  -3   6   1    3.17    0.74
   3   6  -1    2.43    0.55
  -2  -6   1    4.64    0.54
   2  -6  -1    5.33    0.73
   2   6  -1    5.37    0.60
  -2   6   1    4.21    0.71
   1  -6  -1   16.54    1.04
  -1  -6   1   15.96    0.89
   1   6  -1   15.15    0.89
  -1   6   1   14.98    1.01
   0  -6  -1    4.31    0.63
   0  -6   1    4.30    0.56
   0   6  -1    4.37    0.60
   0   6   1    4.22    0.61
  -1  -6  -1    4.13    0.63
   1  -6   1    4.27    0.60
   1   6   1    3.72    0.64
  -1   6  -1    3.78    0.59
  -2  -6  -1   13.84    0.94
   2  -6   1   13.27    0.98
   2   6   1   13.91    0.97
  -2   6  -1   13.99    1.11
   3  -6   1    2.79    0.69
   3   6   1    2.86    0.64
  -3   6  -1    1.55    0.67
   4  -6   1    1.74    0.65
   4   6   1    1.14    0.62
  -4   6  -1    1.45    0.72
   5  -6   1    3.38    0.77
   5   6   1    3.80    0.72
   6  -6   1    2.46    0.91
   6   6   1    3.32    0.77
   7  -6   1   -0.60    0.97
   7   6   1    2.34    0.80
   3  -7  -1   -1.46    0.70
   3   7  -1   -0.69    0.60
  -3   7   1    0.31    0.81
   2  -7  -1    2.03    0.79
  -2   7   1    2.21    0.79
   2   7  -1    1.58    0.63
   1  -7  -1   -0.18    0.69
  -1  -7   1    1.27    0.56
   1   7  -1   -1.24    0.59
  -1   7   1    0.31    0.70
   0  -7  -1    5.00    0.76
   0  -7   1    4.70    0.69
   0   7  -1    4.13    0.72
   0   7   1    3.39    0.79
   1  -7   1    0.26    0.64
  -1  -7  -1    0.49    0.66
   1   7   1    0.16    0.71
  -1   7  -1   -0.30    0.69
   2  -7   1   -0.23    0.70
  -2  -7  -1    1.32    0.63
   2   7   1   -0.87    0.67
  -2   7  -1   -1.50    0.66
   3  -7   1   -0.89    0.74
   3   7   1    0.71    0.69
  -3   7  -1   -0.05    0.77
  12   0  -2   -0.86    1.27
 -12   0   2   -0.24    0.81
 -11   0   2   -1.09    0.93
  11   0  -2   -0.31    0.80
  11   0  -2   -0.49    1.07
  10   0  -2    2.62    0.96
 -10   0   2    1.15    0.84
  10   0  -2    1.90    0.73
  -9   0   2    0.72    0.70
   9   0  -2    0.19    0.59
   9   0  -2   -0.67    0.74
  -8   0   2   29.25    1.17
   8   0  -2   33.88    1.43
   8   0  -2   33.03    1.27
   7   0  -2    0.21    0.43
   7   0  -2   -0.44    0.50
   6   0  -2   30.36    1.05
   6   0  -2   30.39    1.08
   5   0  -2    0.26    0.32
   5   0  -2    0.28    0.21
  -5   0   2    0.33    0.26
  -4   0   2   44.15    1.26
   4   0  -2   44.66    1.26
   4   0  -2   45.55    1.31
   3   0  -2   -0.13    0.16
  -3   0   2    0.03    0.12
  -3   0   2   -0.03    0.11
  -3   0   2   -0.11    0.17
   3   0  -2    0.00    0.15
  -2   0   2  355.70    9.00
  -2   0   2  366.49    9.32
  -2   0   2  355.97    9.04
   2   0  -2  356.43    9.34
   2   0  -2  353.68    9.08
   1   0  -2    0.00    0.06
   1   0  -2   -0.01    0.05
  -1   0   2   -0.03    0.06
  -1   0   2   -0.05    0.06
  -1   0   2    0.09    0.06
   1   0  -2    0.00    0.06
  -1   0   2   -0.02    0.05
   0   0  -2   19.84    0.61
   0   0   2   23.03    0.61
   0   0   2   19.48    0.60
   0   0   2   23.94    0.63
   0   0   2   23.41    0.63
   0   0  -2   23.74    0.64
   0   0  -2   23.84    0.61
   0   0  -2   23.97    0.63
   1   0   2   -0.12    0.10
  -1   0  -2   -0.21    0.12
  -1   0  -2   -0.24    0.13
  -2   0  -2  591.33   14.35
   2   0   2  567.33   14.61
  -2   0  -2  574.38   14.76
   2   0   2  554.08   15.01
   3   0   2   -0.58    0.25
  -3   0  -2    0.17    0.17
  -3   0  -2   -0.03    0.17
   3   0   2   -0.07    0.26
  -4   0  -2  348.19    9.03
   4   0   2  357.66    9.34
   4   0   2  360.82    9.06
   5   0   2   -0.26    0.42
   5   0   2   -0.04    0.28
   6   0   2   -0.87    0.52
   6   0   2    0.00    0.36
   7   0   2    0.02    0.63
   7   0   2   -0.33    0.40
   8   0   2   52.78    1.85
   8   0   2   47.72    1.84
   9   0   2   -0.32    0.90
   9   0   2   -0.57    0.73
  10   0   2   13.49    1.18
  10   0   2   13.23    1.19
  11   0   2   -1.10    1.18
  11   0   2   -0.24    0.97
  12   0   2   -0.60    0.80
  12   0   2   -1.38    0.97
  12  -1  -2   -0.80    0.76
 -12  -1   2    0.05    1.05
  12  -1  -2   -1.49    0.94
 -12   1   2   -1.76    0.82
  12   1  -2   -0.43    1.14
  11  -1  -2   -0.61    0.66
 -11  -1   2   -1.83    0.88
  11  -1  -2   -0.87    0.82
  11   1  -2   -0.25    1.05
 -11   1   2   -0.04    0.76
  10  -1  -2    6.74    1.13
  10  -1  -2    5.87    0.90
 -10   1   2    5.88    1.01
  10   1  -2    6.11    0.80
  10   1  -2    6.38    1.05
   9  -1  -2    0.50    0.69
   9  -1  -2    0.27    0.80
   9   1  -2    0.21    0.55
   9   1  -2    0.40    0.72
  -9   1   2   -0.25    0.73
   8  -1  -2    1.50    0.70
   8  -1  -2    1.96    0.48
   8   1  -2    1.63    0.49
  -8   1   2    1.62    0.65
   8   1  -2    1.15    0.66
   7  -1  -2   -0.08    0.47
   7  -1  -2    0.60    0.41
   7   1  -2    0.64    0.38
   7   1  -2    0.44    0.49
  -7   1   2    0.44    0.38
   6  -1  -2   35.26    1.20
  -6  -1   2   35.23    1.14
   6  -1  -2   36.32    1.28
  -6   1   2   33.62    1.14
   6   1  -2   34.90    1.12
   6   1  -2   35.80    1.25
  -5  -1   2    6.34    0.43
   5  -1  -2    6.01    0.45
   5  -1  -2    6.75    0.51
  -5   1   2    6.03    0.47
   5   1  -2    6.49    0.51
   5   1  -2    6.63    0.42
   4  -1  -2  118.22    3.12
   4  -1  -2  116.52    3.22
  -4  -1   2  116.57    3.09
  -4   1   2  118.40    3.10
   4   1  -2  122.89    3.21
   4   1  -2  119.48    3.07
   3  -1  -2    2.55    0.27
  -3  -1   2    2.20    0.22
   3  -1  -2    2.04    0.23
  -3  -1   2    2.30    0.21
  -3   1   2    2.20    0.26
   3   1  -2    2.14    0.23
   3   1  -2    2.02    0.17
  -3   1   2    2.17    0.21
  -3   1   2    2.01    0.23
   2  -1  -2    8.45    0.32
   2  -1  -2    9.02    0.36
  -2  -1   2    9.23    0.31
   2  -1  -2    8.82    0.34
  -2   1   2    9.11    0.33
   2   1  -2    8.94    0.33
  -2   1   2    9.17    0.38
  -2   1   2    9.09    0.34
   2   1  -2    8.85    0.28
   1  -1  -2   68.72    1.79
   1  -1  -2   70.03    1.79
   1  -1  -2   68.75    1.85
  -1   1   2   68.90    1.79
  -1   1   2   70.48    1.79
  -1   1   2   68.31    1.84
  -1   1   2   68.82    1.85
   0  -1   2  143.11    3.69
   0  -1  -2  146.69    3.80
   0  -1  -2  148.68    3.78
   0  -1  -2  146.12    3.68
   0  -1  -2  147.46    3.68
   0   1   2  149.82    3.80
   0   1   2  147.36    3.68
   0   1  -2  142.43    3.65
   0   1   2  143.08    3.78
   0   1  -2  140.36    3.76
   0   1   2  143.10    3.68
   1  -1   2   18.27    0.54
  -1  -1  -2   18.91    0.56
  -1  -1  -2   17.85    0.55
  -1  -1  -2   19.68    0.56
   1  -1   2   18.76    0.56
  -1  -1  -2   17.83    0.58
   1   1   2   18.56    0.58
  -1   1  -2   18.50    0.56
  -1   1  -2   18.79    0.55
   1   1   2   18.67    0.55
   1   1   2   18.72    0.56
   1   1   2   18.58    0.56
   2  -1   2  125.91    3.24
  -2  -1  -2  133.93    3.35
   2  -1   2  122.34    3.33
  -2  -1  -2  132.15    3.26
  -2   1  -2  125.67    3.33
   2   1   2  118.12    3.35
   2   1   2  125.12    3.24
  -2   1  -2  125.63    3.23
   2   1   2  126.07    3.34
   2   1   2  122.19    3.25
   3  -1   2    8.34    0.41
   3  -1   2    8.98    0.43
  -3  -1  -2    8.87    0.43
  -3  -1  -2    9.33    0.48
  -3   1  -2    8.42    0.42
   3   1   2    8.36    0.49
  -3   1  -2    9.80    0.42
   3   1   2    9.27    0.48
   4  -1   2   11.48    0.53
   4  -1   2   10.96    0.54
  -4  -1  -2   10.57    0.51
   4   1   2   10.15    0.60
   4   1   2   11.03    0.64
   5  -1   2    3.75    0.52
   5  -1   2    2.39    0.45
   5   1   2    2.77    0.46
   5   1   2    2.49    0.40
   6  -1   2   70.24    2.12
   6  -1   2   72.63    2.23
   6   1   2   71.39    2.08
   6   1   2   66.28    2.16
   7  -1   2   -0.25    0.58
   7  -1   2    0.06    0.63
   7   1   2   -0.36    0.62
   7   1   2    0.89    0.57
   8  -1   2   10.21    1.02
   8  -1   2    9.81    0.81
   8   1   2   10.81    0.89
   8   1   2   10.52    0.88
   9  -1   2   -0.07    0.91
   9  -1   2   -0.79    0.57
   9   1   2   -0.02    0.69
   9   1   2    0.40    0.65
  10  -1   2    1.43    1.12
  10  -1   2    2.34    0.98
  10   1   2    1.88    0.86
  10   1   2    2.82    0.83
  11  -1   2   -1.45    1.03
  11  -1   2   -2.48    1.17
 -11   1  -2   -2.54    1.04
  11   1   2   -0.53    0.89
  11   1   2    0.63    1.17
  12  -1   2    2.88    0.95
  12  -1   2    2.08    1.11
  12   1   2    5.54    1.44
 -12   1  -2    1.06    1.29
  12  -2  -2    1.95    0.90
 -12  -2   2    0.01    1.12
 -12   2   2   -0.05    1.24
  11  -2  -2    1.97    1.22
  11  -2  -2    1.39    0.99
 -11   2   2    0.05    1.08
  11   2  -2    2.96    1.11
  10  -2  -2   -0.66    0.73
  10  -2  -2   -1.11    0.86
  10   2  -2    0.23    0.89
 -10   2   2   -0.54    0.89
   9  -2  -2    4.38    0.96
   9  -2  -2    5.45    0.71
  -9   2   2    3.59    0.68
   9   2  -2    4.03    0.81
   8  -2  -2   18.99    0.98
   8  -2  -2   18.64    1.26
  -8   2   2   17.85    1.15
   8   2  -2   18.10    0.89
   8   2  -2   18.78    1.14
  -7  -2   2    1.02    0.39
   7  -2  -2    1.09    0.42
   7  -2  -2    0.60    0.45
   7   2  -2    0.71    0.42
  -7   2   2    0.44    0.43
   7   2  -2   -0.01    0.58
   6  -2  -2    3.32    0.57
   6  -2  -2    3.28    0.52
  -6  -2   2    3.34    0.41
   6   2  -2    2.65    0.49
   6   2  -2    2.99    0.36
  -6   2   2    3.12    0.54
  -5  -2   2   47.93    1.49
   5  -2  -2   50.18    1.54
   5  -2  -2   52.31    1.62
   5   2  -2   49.38    1.56
  -5   2   2   51.13    1.55
   5   2  -2   52.35    1.44
   4  -2  -2  161.79    4.29
   4  -2  -2  153.09    4.14
  -4  -2   2  155.53    4.11
  -4   2   2  165.02    4.15
   4   2  -2  155.46    4.24
   4   2  -2  163.37    4.07
  -3  -2   2   84.33    2.15
   3  -2  -2   84.57    2.20
   3  -2  -2   80.04    2.28
   3  -2  -2   81.45    2.22
  -3   2   2   83.91    2.20
   3   2  -2   76.97    2.23
   3   2  -2   83.08    2.12
   3   2  -2   83.31    2.12
   2  -2  -2  386.68   10.26
   2  -2  -2  406.31    9.96
  -2  -2   2  385.69   10.01
   2  -2  -2  397.65    9.97
   2   2  -2  397.85   10.31
   2   2  -2  372.22   10.31
  -2   2   2  400.06   10.26
  -2   2   2  411.80    9.97
   2   2  -2  395.52   10.04
   2   2  -2  403.82    9.98
   1  -2  -2    0.11    0.16
   1  -2  -2    0.15    0.15
  -1  -2   2    0.24    0.07
  -1  -2   2    0.17    0.08
   1  -2  -2    0.00    0.19
  -1   2   2    0.20    0.13
  -1   2   2   -0.05    0.18
   1   2  -2    0.22    0.09
  -1   2   2    0.28    0.12
   1   2  -2    0.20    0.09
  -1   2   2   -0.02    0.20
   1   2  -2    0.22    0.07
   1   2  -2    0.18    0.06
   0  -2   2   23.55    0.67
   0  -2  -2   25.26    0.71
   0  -2  -2   23.47    0.73
   0  -2  -2   24.19    0.77
   0   2   2   25.11    0.72
   0   2   2   25.17    0.77
   0   2  -2   25.04    0.67
   0   2   2   24.77    0.73
   0   2  -2   24.52    0.66
   0   2  -2   24.57    0.70
   0   2   2   24.87    0.76
  -1  -2  -2   54.77    1.54
  -1  -2  -2   54.97    1.48
   1  -2   2   53.47    1.45
  -1  -2  -2   54.98    1.51
   1  -2   2   53.04    1.49
  -1  -2  -2   55.85    1.47
   1   2   2   53.64    1.52
   1   2   2   56.66    1.54
  -1   2  -2   55.29    1.45
   1   2   2   54.53    1.47
  -1   2  -2   54.06    1.50
  -1   2  -2   54.69    1.44
   1   2   2   55.38    1.47
  -2  -2  -2  134.23    3.33
  -2  -2  -2  124.28    3.34
   2  -2   2  126.73    3.42
   2  -2   2  126.18    3.32
   2   2   2  131.95    3.46
   2   2   2  129.37    3.43
   2   2   2  128.93    3.34
  -2   2  -2  130.02    3.32
  -2   2  -2  127.80    3.42
  -3  -2  -2    5.43    0.41
   3  -2   2    6.32    0.42
   3  -2   2    5.57    0.40
  -3   2  -2    5.85    0.35
   3   2   2    5.97    0.44
   3   2   2    5.75    0.36
   3   2   2    5.78    0.42
  -3   2  -2    6.47    0.43
   4  -2   2  160.84    4.31
  -4  -2  -2  167.65    4.20
   4  -2   2  161.68    4.19
   4   2   2  151.57    4.32
   4   2   2  155.97    4.33
  -4   2  -2  157.59    4.15
   4   2   2  161.35    4.21
   5  -2   2   13.51    0.76
   5  -2   2   14.35    0.79
  -5  -2  -2   14.33    0.74
   5   2   2   13.41    0.79
   5   2   2   13.75    0.76
   6  -2   2   10.81    0.70
   6  -2   2   14.15    0.91
   6   2   2   10.72    0.82
   6   2   2   11.29    0.78
   7  -2   2    8.80    0.86
   7  -2   2    7.36    0.78
   7   2   2    8.27    0.65
   7   2   2    8.31    0.84
  -7   2  -2    7.91    0.68
   8  -2   2   10.52    0.90
   8  -2   2    8.78    0.94
   8   2   2   10.72    1.03
  -8   2  -2    6.72    0.91
   8   2   2   10.14    0.85
   9  -2   2    0.23    0.96
   9  -2   2   -1.09    0.83
  -9   2  -2    0.21    0.90
   9   2   2    0.75    0.66
   9   2   2    0.16    0.64
  10  -2   2    5.62    0.90
  10  -2   2    4.96    1.21
  10   2   2    6.19    1.15
 -10   2  -2    4.05    1.09
  11  -2   2    1.79    1.13
  11  -2   2    1.13    0.96
  11   2   2    2.26    1.19
 -11   2  -2    0.65    1.14
  11  -3  -2    0.02    1.22
  11  -3  -2   -1.28    1.06
  11   3  -2   -2.06    1.08
 -11   3   2   -2.27    1.12
  10  -3  -2    3.27    1.14
  10  -3  -2    2.83    1.00
  10   3  -2    4.04    1.07
 -10   3   2    4.12    1.06
   9  -3  -2   -0.61    0.90
   9  -3  -2    0.35    0.62
  -9   3   2   -0.13    0.85
   9   3  -2    0.52    0.77
   8  -3  -2   -0.18    0.76
   8  -3  -2   -0.48    0.52
   8   3  -2    0.24    0.64
  -8   3   2   -0.68    0.73
   7  -3  -2    9.69    0.82
   7  -3  -2    9.77    0.88
  -7   3   2    8.11    0.78
   7   3  -2    8.60    0.76
   6  -3  -2   28.58    1.09
  -6  -3   2   27.88    1.03
   6  -3  -2   30.00    1.26
  -6   3   2   28.79    1.19
   6   3  -2   27.01    1.19
   6   3  -2   27.86    0.94
  -5  -3   2    0.98    0.31
   5  -3  -2    1.63    0.40
   5  -3  -2    2.23    0.49
   5   3  -2    1.80    0.29
   5   3  -2    1.91    0.45
  -5   3   2    1.35    0.37
   4  -3  -2   47.01    1.44
  -4  -3   2   48.79    1.33
  -4  -3   2   53.71    1.30
   4  -3  -2   47.17    1.54
  -4   3   2   46.94    1.42
   4   3  -2   46.56    1.42
   4   3  -2   44.36    1.44
   4   3  -2   46.54    1.31
   3  -3  -2   19.41    0.77
   3  -3  -2   19.01    0.81
   3   3  -2   18.78    0.60
   3   3  -2   19.53    0.67
  -3   3   2   18.93    0.70
   3   3  -2   19.20    0.64
  -2  -3   2    1.77    0.20
   2  -3  -2    2.47    0.29
   2  -3  -2    2.56    0.35
   2  -3  -2    2.24    0.33
   2   3  -2    2.12    0.19
  -2   3   2    2.17    0.26
  -2   3   2    2.01    0.33
   2   3  -2    2.41    0.18
   2   3  -2    2.20    0.20
   2   3  -2    2.34    0.21
   1  -3  -2   28.52    0.87
   1  -3  -2   29.58    0.95
  -1  -3   2   27.56    0.80
   1  -3  -2   28.35    0.91
  -1   3   2   28.28    0.94
   1   3  -2   28.02    0.83
  -1   3   2   28.17    0.89
   1   3  -2   28.33    0.78
   1   3  -2   28.28    0.83
   1   3  -2   29.90    0.78
  -1   3   2   29.15    0.94
   0  -3  -2  120.24    3.29
   0  -3  -2  123.91    3.16
   0  -3   2  119.56    3.11
   0  -3   2  120.84    3.12
   0  -3  -2  119.53    3.18
   0   3   2  122.05    3.17
   0   3  -2  120.86    3.22
   0   3   2  128.32    3.29
   0   3  -2  122.87    3.11
   0   3   2  120.52    3.27
  -1  -3  -2    3.18    0.27
   1  -3   2    3.17    0.28
  -1  -3  -2    2.84    0.32
   1  -3   2    2.98    0.26
  -1  -3  -2    2.51    0.32
  -1   3  -2    2.40    0.22
   1   3   2    3.24    0.27
   1   3   2    2.74    0.30
  -1   3  -2    2.81    0.26
   1   3   2    3.20    0.31
  -2  -3  -2   59.82    1.71
  -2  -3  -2   62.89    1.68
   2  -3   2   60.02    1.69
   2  -3   2   59.87    1.73
  -2   3  -2   60.55    1.67
   2   3   2   61.90    1.69
   2   3   2   61.68    1.76
   2   3   2   61.46    1.75
  -2   3  -2   63.93    1.75
   3  -3   2   13.97    0.62
  -3  -3  -2   12.72    0.57
   3  -3   2   13.14    0.62
   3   3   2   13.12    0.63
   3   3   2   12.75    0.60
  -3   3  -2   13.61    0.60
  -3   3  -2   13.80    0.57
   3   3   2   14.03    0.63
  -4  -3  -2    4.07    0.42
   4  -3   2    5.51    0.48
   4  -3   2    4.55    0.41
  -4   3  -2    5.24    0.47
   4   3   2    5.28    0.49
   4   3   2    5.19    0.48
   4   3   2    5.44    0.45
   5  -3   2   25.40    1.06
   5  -3   2   26.44    1.09
  -5  -3  -2   25.10    1.00
   5   3   2   24.45    1.08
   5   3   2   27.70    1.09
   5   3   2   28.87    1.16
  -5   3  -2   25.89    1.06
   6  -3   2   29.83    1.26
   6  -3   2   26.26    1.08
   6   3   2   28.01    1.19
  -6   3  -2   26.56    1.07
   6   3   2   25.87    1.20
   7  -3   2    3.86    0.60
   7  -3   2    3.22    0.60
   7   3   2    4.03    0.61
   7   3   2    3.79    0.74
  -7   3  -2    3.55    0.73
   8  -3   2    3.77    0.85
   8  -3   2    3.96    0.89
  -8   3  -2    3.63    0.67
   8   3   2    5.81    0.90
   9  -3   2    0.66    0.73
   9  -3   2    0.36    0.92
   9   3   2    0.58    0.90
  -9   3  -2   -1.44    0.88
  10  -3   2   -0.91    1.09
  10  -3   2    1.09    1.08
 -10   3  -2   -1.63    1.03
  10   3   2   -0.01    0.97
  11  -3   2   -0.13    0.95
  11  -3   2   -0.92    0.87
  11   3   2   -0.50    1.14
 -11   3  -2   -1.68    1.18
  10  -4  -2    3.17    1.18
  10  -4  -2    2.19    1.06
  10   4  -2    3.66    0.93
 -10   4   2    0.34    1.07
   9  -4  -2    4.12    0.80
   9  -4  -2    2.78    1.05
   9   4  -2    3.27    0.93
  -9   4   2    4.09    1.01
   8  -4  -2    9.44    0.89
   8  -4  -2   10.23    1.02
  -8   4   2    8.24    0.82
   8   4  -2    9.95    0.96
   7  -4  -2   -0.12    0.52
   7  -4  -2    0.00    0.52
   7   4  -2   -0.08    0.65
  -7   4   2    0.85    0.71
   6  -4  -2    5.41    0.74
   6  -4  -2    6.22    0.74
  -6   4   2    6.36    0.73
   6   4  -2    6.28    0.68
   5  -4  -2   26.75    1.09
   5  -4  -2   27.68    1.06
   5   4  -2   26.53    1.08
  -5   4   2   26.67    1.15
   4  -4  -2    3.27    0.55
   4  -4  -2    2.54    0.42
  -4   4   2    2.25    0.50
   4   4  -2    2.77    0.42
   3  -4  -2   18.93    0.88
   3  -4  -2   20.03    0.90
  -3   4   2   20.05    0.86
   3   4  -2   20.06    0.70
   3   4  -2   19.58    0.73
   3   4  -2   18.01    0.63
   2  -4  -2   31.82    1.13
   2  -4  -2   31.85    1.09
  -2  -4   2   31.15    0.96
  -2   4   2   33.26    1.16
   2   4  -2   30.53    0.91
   2   4  -2   32.08    0.98
   2   4  -2   32.17    0.97
  -2   4   2   30.77    1.06
  -1  -4   2   11.01    0.48
   1  -4  -2   11.02    0.53
   1  -4  -2    9.65    0.61
  -1  -4   2    9.22    0.40
   1  -4  -2   10.54    0.61
   1   4  -2   10.76    0.43
   1   4  -2   10.59    0.48
  -1   4   2   10.88    0.65
  -1   4   2   11.20    0.57
   1   4  -2   11.46    0.51
   0  -4   2    6.76    0.37
   0  -4   2    6.42    0.42
   0  -4   2    5.96    0.36
   0  -4  -2    5.46    0.46
   0  -4  -2    6.10    0.42
   0  -4  -2    7.58    0.52
   0   4   2    6.67    0.51
   0   4  -2    6.22    0.43
   0   4   2    6.67    0.46
   0   4  -2    6.75    0.41
   0   4   2    6.94    0.51
   0   4  -2    5.93    0.37
  -1  -4  -2   52.07    1.53
   1  -4   2   53.21    1.49
  -1  -4  -2   51.84    1.60
  -1  -4  -2   52.71    1.48
   1  -4   2   51.22    1.50
  -1   4  -2   54.35    1.54
   1   4   2   54.21    1.58
  -1   4  -2   52.15    1.45
   1   4   2   52.36    1.57
   1   4   2   47.18    1.48
   2  -4   2   17.99    0.77
  -2  -4  -2   18.26    0.68
   2  -4   2   19.19    0.72
  -2  -4  -2   17.75    0.76
   2   4   2   18.26    0.77
  -2   4  -2   18.55    0.78
   2   4   2   18.65    0.76
  -2   4  -2   17.04    0.68
   2   4   2   18.49    0.74
  -3  -4  -2    2.15    0.42
  -3  -4  -2    3.17    0.36
   3  -4   2    3.24    0.41
   3  -4   2    2.67    0.43
   3   4   2    2.86    0.44
  -3   4  -2    3.03    0.40
   3   4   2    4.26    0.40
   3   4   2    3.65    0.45
   4  -4   2   13.72    0.78
   4  -4   2   14.59    0.82
  -4   4  -2   14.51    0.77
   4   4   2   14.67    0.86
   4   4   2   17.06    0.80
   5  -4   2   12.90    0.91
   5  -4   2   12.81    0.86
   5   4   2   13.94    0.82
   5   4   2   11.68    0.92
  -5   4  -2   12.49    0.85
   6  -4   2    0.83    0.64
   6  -4   2    0.16    0.58
  -6   4  -2   -0.17    0.58
   6   4   2    0.80    0.58
   7  -4   2    6.38    0.85
   7  -4   2    6.37    0.86
   7   4   2    7.69    0.86
  -7   4  -2    5.98    0.83
   8  -4   2    2.11    0.88
   8  -4   2    1.98    0.88
  -8   4  -2    0.36    0.83
   8   4   2    2.94    0.84
   9  -4   2   -1.22    0.99
   9  -4   2   -1.28    0.95
   9   4   2    0.91    0.89
  -9   4  -2   -0.74    0.94
  10  -4   2   -2.62    1.10
  10  -4   2   -2.28    1.11
  10   4   2    1.76    1.04
 -10   4  -2    0.49    1.13
   9  -5  -2   -1.29    1.00
  -9   5   2   -1.45    0.98
   9   5  -2    0.53    0.81
   8  -5  -2   -0.45    0.90
   8  -5  -2   -0.69    0.87
  -8   5   2   -1.13    0.85
   8   5  -2   -0.45    0.71
   7  -5  -2    1.66    0.84
   7  -5  -2    1.96    0.85
   7   5  -2    1.95    0.72
  -7   5   2   -0.63    0.78
   6  -5  -2   11.10    0.95
   6  -5  -2    9.57    0.91
   6   5  -2   10.39    0.82
  -6   5   2    8.89    0.74
   5  -5  -2    0.33    0.63
   5  -5  -2    0.14    0.61
   5   5  -2   -0.04    0.48
  -5   5   2   -0.05    0.61
   4  -5  -2    7.50    0.73
   4  -5  -2    7.50    0.72
  -4   5   2    4.90    0.77
  -4   5   2    5.45    0.65
   4   5  -2    6.67    0.57
   3  -5  -2   12.00    0.86
   3  -5  -2   11.09    0.78
  -3   5   2   11.59    0.80
   3   5  -2   13.39    0.69
  -3   5   2   12.99    0.96
   2  -5  -2    4.78    0.57
  -2  -5   2    4.97    0.42
   2  -5  -2    5.43    0.59
   2   5  -2    4.82    0.44
  -2   5   2    5.95    0.65
  -2   5   2    4.75    0.52
   1  -5  -2   27.56    1.08
   1  -5  -2   28.04    1.10
  -1  -5   2   28.79    0.95
  -1   5   2   28.23    1.02
  -1   5   2   27.84    1.13
   1   5  -2   28.03    0.98
   0  -5  -2   28.73    1.07
   0  -5  -2   26.00    1.05
   0  -5   2   24.83    0.93
   0   5   2   26.63    1.11
   0   5  -2   25.36    0.97
   0   5   2   23.60    0.93
   1  -5   2    0.57    0.35
  -1  -5  -2    0.61    0.48
   1   5   2    0.49    0.42
   1   5   2   -0.10    0.32
  -1   5  -2    0.73    0.44
  -2  -5  -2    7.54    0.59
   2  -5   2    8.65    0.62
   2   5   2    7.43    0.64
   3  -5   2   17.30    0.89
   3   5   2   19.52    0.99
   4  -5   2    0.44    0.52
   4   5   2    0.52    0.55
   5  -5   2    4.42    0.70
   5   5   2    3.87    0.72
   6  -5   2    3.46    0.78
   6   5   2    3.21    0.70
   7  -5   2    0.63    0.84
   7   5   2    1.13    0.78
   8  -5   2   -0.59    0.91
   8   5   2    1.94    0.91
   7  -6  -2   -0.21    0.88
  -7   6   2   -1.17    1.05
   6  -6  -2   -0.25    0.81
   6   6  -2    0.30    0.59
  -6   6   2   -0.73    0.92
   5  -6  -2    7.46    0.90
  -5   6   2    7.40    1.02
   4  -6  -2    3.12    0.75
   4   6  -2    3.44    0.56
  -4   6   2    3.31    0.82
   3  -6  -2    0.83    0.65
  -3   6   2    1.23    0.72
   3   6  -2    2.15    0.50
   2  -6  -2    3.37    0.72
   2   6  -2    2.99    0.52
  -2   6   2    2.76    0.70
  -1  -6   2    5.22    0.52
   1  -6  -2    5.53    0.66
   1   6  -2    4.09    0.53
  -1   6   2    5.34    0.77
   0  -6   2    0.48    0.44
   0  -6  -2   -0.57    0.53
   0   6  -2   -0.28    0.48
   0   6   2   -0.34    0.54
   1  -6   2    9.83    0.67
  -1  -6  -2    9.36    0.78
  -1   6  -2    8.50    0.73
   1   6   2    8.41    0.72
  -2  -6  -2    0.13    0.60
   2  -6   2    0.19    0.55
  -2   6  -2    0.08    0.56
   2   6   2   -0.02    0.59
   3  -6   2    0.07    0.63
  -3   6  -2    0.48    0.63
   3   6   2   -0.72    0.60
   4  -6   2   -0.08    0.61
   4   6   2   -0.02    0.57
   5  -6   2    5.45    0.80
   5   6   2    5.60    0.84
   6  -6   2   -0.56    0.86
   6   6   2    1.98    0.77
   3  -7  -2    4.43    0.94
  -3   7   2    3.95    0.93
   2  -7  -2    0.25    0.81
  -2   7   2    0.19    0.78
   2   7  -2   -0.09    0.59
   1  -7  -2    1.63    0.77
  -1   7   2    0.55    0.83
   1   7  -2    0.82    0.60
   0  -7  -2    2.45    0.78
   0  -7   2    2.12    0.60
   0   7  -2    0.98    0.65
   0   7   2    1.31    0.71
   1  -7   2    0.68    0.64
  -1  -7  -2    2.51    0.74
  -1   7  -2    0.05    0.69
   1   7   2    0.05    0.74
  -2  -7  -2    1.47    0.71
   2  -7   2   -0.46    0.69
  -2   7  -2    0.03    0.75
   2   7   2    0.14    0.73
   3  -7   2    3.16    0.80
  -3   7  -2    3.51    0.83
   3   7   2    3.82    0.74
  12   0  -3   -0.81    1.23
 -12   0   3   -0.82    1.07
  11   0  -3   -0.62    0.77
 -11   0   3   -1.08    0.92
  11   0  -3   -1.83    1.03
  10   0  -3   -0.40    0.50
 -10   0   3   -0.05    0.80
  10   0  -3   -0.88    0.87
   9   0  -3   30.42    1.31
   9   0  -3   29.40    1.34
  -9   0   3   30.66    1.38
   8   0  -3    0.11    0.49
   8   0  -3   -0.06    0.59
  -8   0   3   -0.19    0.54
   7   0  -3   35.58    1.34
   7   0  -3   36.49    1.23
  -7   0   3   34.14    1.25
   6   0  -3   -0.11    0.39
   6   0  -3    0.27    0.33
  -6   0   3    0.37    0.38
  -5   0   3   39.37    1.19
  -5   0   3   42.48    1.21
   5   0  -3   39.89    1.25
   5   0  -3   40.81    1.21
   4   0  -3   -0.19    0.20
  -4   0   3    0.00    0.22
  -4   0   3   -0.15    0.14
   4   0  -3    0.03    0.17
  -3   0   3  316.08    7.91
   3   0  -3  311.23    8.15
  -3   0   3  315.89    7.91
  -3   0   3  318.27    8.14
   3   0  -3  309.31    7.91
   2   0  -3    0.03    0.11
   2   0  -3   -0.04    0.09
   2   0  -3    0.01    0.09
  -2   0   3   -0.03    0.08
  -2   0   3   -0.06    0.10
  -2   0   3    0.06    0.11
   1   0  -3    0.70    0.10
  -1   0   3    0.69    0.11
  -1   0   3    1.43    0.12
  -1   0   3    0.78    0.10
   1   0  -3    1.14    0.11
  -1   0   3    0.73    0.10
   1   0  -3    0.81    0.10
   1   0  -3    0.69    0.11
   0   0   3   -0.12    0.09
   0   0   3   -0.01    0.08
   0   0  -3   -0.19    0.08
   0   0  -3   -0.16    0.09
   0   0   3   -0.03    0.09
   0   0  -3   -0.10    0.09
   0   0   3   -0.34    0.08
   0   0  -3   -0.15    0.09
   1   0   3  243.97    6.47
   1   0   3  243.70    6.47
  -1   0  -3  254.80    6.29
   1   0   3  245.85    6.28
  -1   0  -3  256.67    6.47
   2   0   3   -0.20    0.20
  -2   0  -3   -0.12    0.22
  -2   0  -3    0.03    0.15
   2   0   3   -0.23    0.16
  -3   0  -3  109.36    2.91
   3   0   3  109.62    2.94
   3   0   3  111.20    3.04
  -3   0  -3  109.14    3.01
   4   0   3   -0.30    0.37
   4   0   3   -0.18    0.26
   5   0   3   -0.05    0.42
   5   0   3    0.35    0.35
   6   0   3   -0.09    0.41
   6   0   3   -0.83    0.35
   7   0   3   39.93    1.43
   7   0   3   39.17    1.52
   8   0   3   -1.11    0.77
   8   0   3   -0.30    0.50
   9   0   3   21.83    1.41
   9   0   3   26.67    1.64
  10   0   3    0.59    0.80
  10   0   3    0.05    0.90
  11   0   3    1.80    1.24
  11   0   3    1.64    1.03
  12   0   3   -0.16    1.30
  12   0   3   -1.44    1.05
 -12  -1   3    0.01    1.02
  12  -1  -3   -0.99    1.27
  12  -1  -3   -0.37    1.00
 -12   1   3   -1.24    1.11
  12   1  -3   -0.52    1.20
  11  -1  -3    2.61    1.21
 -11  -1   3    4.02    0.97
  11  -1  -3    3.90    0.97
  11   1  -3    3.11    1.07
 -11   1   3    3.97    1.05
  10  -1  -3   -0.73    0.90
  10  -1  -3   -0.17    0.74
 -10  -1   3   -0.64    0.77
 -10   1   3   -0.01    0.63
  10   1  -3    0.27    0.66
   9  -1  -3    2.09    0.69
  -9  -1   3    0.62    0.66
   9  -1  -3    2.46    0.85
  -9   1   3    2.39    0.77
   9   1  -3    2.50    0.76
   9   1  -3    2.97    0.58
   8  -1  -3   13.24    0.89
   8  -1  -3   11.30    0.76
   8   1  -3   13.32    1.00
   8   1  -3   13.60    0.80
  -8   1   3   13.88    0.98
   7  -1  -3  100.50    2.86
   7  -1  -3  102.63    3.00
   7   1  -3  103.96    2.85
   7   1  -3  107.06    3.01
  -7   1   3  104.06    2.91
  -6  -1   3    6.43    0.49
   6  -1  -3    6.50    0.59
   6  -1  -3    6.67    0.53
   6   1  -3    6.19    0.54
   6   1  -3    5.81    0.43
  -6   1   3    5.30    0.53
  -5  -1   3  131.34    3.48
   5  -1  -3  134.95    3.65
   5  -1  -3  134.31    3.52
   5   1  -3  135.07    3.61
  -5   1   3  131.28    3.52
   5   1  -3  132.34    3.46
  -4  -1   3    0.47    0.19
   4  -1  -3    0.43    0.21
   4  -1  -3    0.14    0.30
   4   1  -3    0.24    0.16
  -4   1   3    0.07    0.27
   4   1  -3    0.38    0.24
  -3  -1   3   58.74    1.54
   3  -1  -3   56.86    1.65
  -3  -1   3   57.91    1.60
   3  -1  -3   58.52    1.59
   3  -1  -3   58.51    1.58
   3   1  -3   58.98    1.53
  -3   1   3   59.82    1.60
  -3   1   3   59.81    1.60
   3   1  -3   59.58    1.60
  -3   1   3   57.89    1.64
  -2  -1   3   53.77    1.49
  -2  -1   3   55.16    1.47
   2  -1  -3   56.20    1.51
   2  -1  -3   55.66    1.57
   2  -1  -3   57.95    1.51
  -2  -1   3   57.78    1.45
  -2   1   3   57.56    1.52
   2   1  -3   58.04    1.45
  -2   1   3   56.51    1.51
   2   1  -3   58.18    1.50
  -2   1   3   58.14    1.57
   1  -1  -3 1000.00   24.40
   1  -1  -3  968.47   24.36
  -1  -1   3  993.67   24.00
   1  -1  -3  936.43   25.05
  -1   1   3  930.53   25.05
  -1   1   3  929.83   24.34
  -1   1   3  957.72   25.04
  -1   1   3  967.08   24.31
   0  -1  -3  247.08    6.22
   0  -1   3  243.96    6.24
   0  -1  -3  235.34    6.23
   0  -1   3  229.70    6.06
   0  -1  -3  240.54    6.04
   0  -1  -3  245.92    6.05
   0   1   3  239.84    6.23
   0   1   3  236.16    6.22
   0   1  -3  242.27    6.08
   0   1  -3  227.84    6.26
   0   1   3  239.05    6.04
   0   1   3  245.86    6.05
  -1  -1  -3  451.51   11.81
   1  -1   3  450.41   11.97
   1  -1   3  456.52   11.77
  -1  -1  -3  458.68   11.55
  -1  -1  -3  479.29   11.47
  -1  -1  -3  473.74   11.79
   1   1   3  445.57   11.87
   1   1   3  440.98   11.62
   1   1   3  464.12   11.81
  -1   1  -3  454.99   11.46
   1   1   3  452.79   11.54
  -1   1  -3  456.28   11.91
  -2  -1  -3   44.90    1.26
   2  -1   3   44.03    1.22
   2  -1   3   43.79    1.25
  -2  -1  -3   44.35    1.21
   2   1   3   41.65    1.26
   2   1   3   41.31    1.25
  -2   1  -3   42.14    1.20
   2   1   3   39.62    1.20
  -2   1  -3   43.14    1.24
   2   1   3   42.07    1.19
  -3  -1  -3   39.69    1.16
   3  -1   3   38.82    1.19
   3  -1   3   39.12    1.17
   3   1   3   36.41    1.19
  -3   1  -3   39.28    1.19
   3   1   3   37.37    1.18
  -4  -1  -3    0.33    0.33
   4  -1   3   -0.46    0.33
   4  -1   3   -0.14    0.26
   4   1   3    0.07    0.35
   4   1   3   -0.11    0.35
   5  -1   3  135.60    3.71
   5  -1   3  140.75    3.85
   5   1   3  138.42    3.73
   5   1   3  137.20    3.88
   6  -1   3    4.87    0.57
   6  -1   3    3.83    0.61
   6   1   3    5.30    0.62
   6   1   3    4.98    0.67
   7  -1   3    9.47    0.80
   7  -1   3    9.36    0.73
   7   1   3    9.02    0.70
   7   1   3    8.81    0.89
   8  -1   3    3.55    0.81
   8  -1   3    4.95    0.74
   8   1   3    4.00    0.86
   8   1   3    4.60    0.76
   9  -1   3    5.48    1.06
   9  -1   3    4.75    0.93
   9   1   3    5.43    0.84
   9   1   3    6.33    0.92
  10  -1   3   -0.70    1.08
  10  -1   3   -0.34    0.71
  10   1   3    0.57    0.86
  10   1   3    1.07    0.80
  11  -1   3    2.02    1.28
  11  -1   3   -0.74    1.09
  11   1   3    0.46    1.17
  11   1   3    1.84    0.98
  12  -1   3    0.51    0.92
  12   1   3    0.18    1.33
 -12   1  -3   -0.63    1.27
 -12  -2   3    0.46    0.96
 -12   2   3   -1.54    1.18
 -11  -2   3    2.63    0.87
  11  -2  -3    1.34    1.22
  11  -2  -3    2.96    1.04
  11   2  -3    2.43    1.03
 -11   2   3    1.46    0.81
  10  -2  -3    0.54    0.66
  10  -2  -3    0.46    0.75
 -10   2   3   -0.21    0.90
  10   2  -3    0.05    0.85
   9  -2  -3   20.79    1.31
   9  -2  -3   21.50    1.24
  -9   2   3   20.70    1.37
   9   2  -3   20.81    1.42
   8  -2  -3    0.59    0.63
   8  -2  -3   -0.15    0.53
   8   2  -3   -0.08    0.38
  -8   2   3   -0.18    0.66
   8   2  -3   -0.20    0.59
   7  -2  -3   13.47    1.00
   7  -2  -3   12.14    0.75
  -7  -2   3   14.31    0.71
  -7   2   3   12.53    0.93
   7   2  -3   12.76    0.85
   7   2  -3   13.69    0.65
  -6  -2   3    9.51    0.61
   6  -2  -3    8.56    0.64
   6  -2  -3    8.86    0.70
   6   2  -3    8.29    0.63
   6   2  -3    8.47    0.47
  -6   2   3    7.70    0.64
   5  -2  -3   12.50    0.69
   5  -2  -3   10.88    0.62
  -5  -2   3   11.16    0.57
   5   2  -3   11.61    0.63
   5   2  -3   11.70    0.48
  -5   2   3   11.18    0.59
  -4  -2   3    3.43    0.31
  -4  -2   3    3.27    0.25
   4  -2  -3    3.33    0.41
   4  -2  -3    3.86    0.38
   4   2  -3    3.40    0.26
  -4   2   3    3.70    0.35
   4   2  -3    3.91    0.34
   3  -2  -3  115.32    3.06
   3  -2  -3  117.81    3.16
   3   2  -3  118.51    2.93
  -3   2   3  115.56    3.04
   3   2  -3  115.12    2.93
   3   2  -3  112.79    3.07
   2  -2  -3   13.39    0.51
  -2  -2   3   13.60    0.37
   2  -2  -3   13.26    0.58
   2  -2  -3   14.14    0.55
  -2   2   3   13.90    0.56
   2   2  -3   13.96    0.42
  -2   2   3   14.80    0.55
   1  -2  -3   37.79    1.13
  -1  -2   3   38.09    0.97
   1  -2  -3   38.09    1.10
   1  -2  -3   38.25    1.08
  -1   2   3   40.73    1.15
  -1   2   3   38.99    1.09
  -1   2   3   37.76    1.12
   1   2  -3   37.74    1.01
   0  -2  -3   53.00    1.45
   0  -2  -3   53.91    1.41
   0  -2  -3   50.37    1.41
   0  -2  -3   50.60    1.48
   0  -2   3   51.86    1.34
   0  -2   3   51.04    1.35
   0   2   3   52.61    1.41
   0   2  -3   53.21    1.35
   0   2   3   48.65    1.40
   0   2  -3   51.78    1.38
   0   2   3   53.69    1.48
   0   2   3   49.66    1.45
   0   2  -3   52.69    1.33
   1  -2   3  154.92    4.04
   1  -2   3  151.19    3.94
  -1  -2  -3  160.33    3.97
  -1  -2  -3  152.06    3.98
  -1  -2  -3  153.47    4.12
  -1   2  -3  154.51    3.92
   1   2   3  156.11    4.11
  -1   2  -3  157.77    4.06
   1   2   3  150.99    4.08
  -1   2  -3  153.06    3.94
   1   2   3  158.33    3.97
   2  -2   3    8.65    0.42
   2  -2   3    9.31    0.41
  -2  -2  -3    8.88    0.43
  -2  -2  -3    8.05    0.46
   2   2   3    9.66    0.48
   2   2   3   10.41    0.48
   2   2   3    9.00    0.40
  -2   2  -3    9.23    0.43
   3  -2   3  175.55    4.71
  -3  -2  -3  185.24    4.60
   3  -2   3  176.76    4.59
  -3   2  -3  181.14    4.72
   3   2   3  169.56    4.73
   3   2   3  173.47    4.60
   3   2   3  178.49    4.77
  -4  -2  -3    1.78    0.31
   4  -2   3    2.86    0.42
   4  -2   3    2.10    0.40
   4   2   3    1.45    0.30
   4   2   3    2.16    0.33
   4   2   3    1.51    0.37
   5  -2   3    0.86    0.35
   5  -2   3    0.43    0.44
   5   2   3    0.82    0.43
   5   2   3    1.01    0.48
   6  -2   3    0.66    0.44
   6  -2   3    0.09    0.54
   6   2   3    0.11    0.50
   6   2   3    0.50    0.56
   7  -2   3   22.66    1.27
   7  -2   3   21.91    1.06
   7   2   3   21.73    1.13
   7   2   3   20.60    1.24
   8  -2   3    1.27    0.59
   8  -2   3    0.33    0.61
   8   2   3   -0.21    0.76
   8   2   3    0.63    0.62
   9  -2   3    1.15    1.01
   9  -2   3    3.41    0.74
   9   2   3    2.58    0.78
  -9   2  -3    0.96    0.91
   9   2   3    3.26    0.93
  10  -2   3   -0.42    1.11
  10  -2   3   -0.25    0.76
 -10   2  -3   -0.22    0.77
  10   2   3    0.88    1.03
  11  -2   3   -0.90    0.83
  11  -2   3   -1.46    1.23
 -11   2  -3   -0.92    1.12
  11   2   3    0.67    1.19
 -11  -3   3   -0.43    0.77
  11  -3  -3    1.01    0.82
  11  -3  -3   -0.76    1.19
 -11   3   3   -1.17    1.10
  11   3  -3    1.53    0.99
  10  -3  -3    1.22    1.08
  10  -3  -3    1.90    0.98
 -10   3   3    2.75    1.04
  10   3  -3    1.50    0.85
   9  -3  -3   -0.73    0.81
   9  -3  -3   -0.36    0.88
  -9   3   3   -0.62    0.85
   9   3  -3   -0.22    0.70
   8  -3  -3    9.86    0.86
   8  -3  -3    9.50    0.92
   8   3  -3    9.64    0.84
  -8   3   3    8.85    0.78
   7  -3  -3   22.00    1.03
   7  -3  -3   22.97    1.09
   7   3  -3   22.60    1.14
  -7   3   3   22.18    1.19
   6  -3  -3    0.10    0.39
   6  -3  -3    0.97    0.44
  -6  -3   3   -0.33    0.37
   6   3  -3    0.21    0.27
   6   3  -3   -0.50    0.44
  -6   3   3    0.16    0.54
   5  -3  -3   28.24    1.09
   5  -3  -3   28.77    1.16
  -5  -3   3   27.14    0.90
  -5   3   3   28.13    1.01
   5   3  -3   26.87    0.82
   5   3  -3   26.80    1.04
   4  -3  -3   23.15    0.90
   4  -3  -3   23.72    0.93
   4   3  -3   24.17    0.66
  -4   3   3   22.76    0.85
   4   3  -3   22.57    0.78
   4   3  -3   21.37    0.83
   3  -3  -3    6.32    0.44
  -3  -3   3    6.44    0.27
   3  -3  -3    6.02    0.50
  -3   3   3    5.47    0.42
   3   3  -3    6.11    0.20
   3   3  -3    5.71    0.31
   3   3  -3    6.37    0.21
   3   3  -3    5.73    0.37
  -2  -3   3   33.26    0.87
   2  -3  -3   30.72    1.05
   2  -3  -3   33.89    1.11
   2   3  -3   32.61    0.92
  -2   3   3   32.69    1.11
  -2   3   3   33.42    1.01
   2   3  -3   34.77    0.93
   1  -3  -3  120.10    3.10
   1  -3  -3  116.83    3.23
   1  -3  -3  115.58    3.12
  -1  -3   3  118.41    3.00
  -1  -3   3  117.91    3.00
   1   3  -3  120.72    2.99
  -1   3   3  118.38    3.11
   1   3  -3  115.91    2.98
   1   3  -3  117.32    3.10
  -1   3   3  125.44    3.23
  -1   3   3  116.39    3.21
   1   3  -3  118.36    3.09
   0  -3  -3    6.58    0.44
   0  -3   3    6.72    0.32
   0  -3  -3    6.71    0.39
   0  -3   3    6.11    0.26
   0  -3  -3    6.42    0.40
   0   3   3    6.01    0.41
   0   3   3    6.65    0.45
   0   3   3    7.34    0.45
   0   3  -3    6.45    0.27
   0   3  -3    6.54    0.32
   0   3  -3    6.79    0.29
  -1  -3  -3   49.26    1.42
   1  -3   3   49.34    1.37
   1  -3   3   46.99    1.34
  -1  -3  -3   49.76    1.39
  -1  -3  -3   48.20    1.48
  -1   3  -3   49.06    1.40
   1   3   3   48.24    1.39
  -1   3  -3   49.32    1.33
   1   3   3   48.61    1.45
   1   3   3   51.38    1.47
  -2  -3  -3   52.91    1.55
   2  -3   3   53.69    1.50
  -2  -3  -3   49.84    1.61
   2  -3   3   53.85    1.53
  -2  -3  -3   55.37    1.52
  -2   3  -3   54.37    1.55
  -2   3  -3   53.83    1.48
   2   3   3   54.67    1.60
   2   3   3   53.86    1.59
   2   3   3   54.24    1.53
   3  -3   3    8.08    0.57
  -3  -3  -3    8.07    0.51
   3  -3   3    8.27    0.56
  -3   3  -3    9.20    0.53
  -3   3  -3    8.01    0.50
   3   3   3    8.66    0.57
   3   3   3    7.88    0.55
   3   3   3    7.95    0.52
   4  -3   3    0.89    0.40
   4  -3   3    0.81    0.38
  -4  -3  -3    0.71    0.37
   4   3   3    1.00    0.41
   4   3   3    0.50    0.36
  -4   3  -3    0.87    0.38
   4   3   3    0.85    0.31
   5  -3   3   34.48    1.28
   5  -3   3   34.82    1.27
  -5   3  -3   34.88    1.17
   5   3   3   33.46    1.24
   5   3   3   34.66    1.31
   6  -3   3   50.14    1.71
   6  -3   3   51.93    1.75
   6   3   3   47.18    1.74
   6   3   3   50.11    1.66
  -6   3  -3   46.92    1.68
   7  -3   3    4.60    0.78
   7  -3   3    3.15    0.76
   7   3   3    4.71    0.66
   7   3   3    4.71    0.80
  -7   3  -3    4.99    0.79
   8  -3   3   14.22    1.01
   8  -3   3   15.02    1.19
   8   3   3   15.43    1.18
  -8   3  -3   12.57    1.09
   9  -3   3    3.56    1.04
   9  -3   3    1.28    0.78
   9   3   3    2.63    0.98
  -9   3  -3    0.33    0.92
  10  -3   3   -2.24    1.04
  10  -3   3   -1.82    1.11
  10   3   3    1.29    1.03
 -10   3  -3   -2.55    1.04
  11  -3   3    0.27    0.94
  11  -3   3    0.57    0.98
  11   3   3    1.55    1.18
 -11   3  -3   -1.83    1.21
  10  -4  -3    0.35    1.13
  10  -4  -3    1.87    1.09
 -10   4   3   -0.62    1.07
  10   4  -3    1.11    0.81
   9  -4  -3    1.17    0.94
   9  -4  -3    0.39    1.01
   9   4  -3    1.97    0.82
  -9   4   3    0.58    0.72
   8  -4  -3    0.24    0.83
   8  -4  -3   -0.21    0.80
  -8   4   3    0.23    0.83
   8   4  -3   -0.28    0.66
   7  -4  -3    0.07    0.54
   7  -4  -3    0.85    0.73
   7   4  -3   -1.30    0.54
  -7   4   3   -0.97    0.50
   6  -4  -3   17.33    1.07
   6  -4  -3   18.47    1.13
   6   4  -3   13.13    0.89
  -6   4   3   15.97    1.06
   5  -4  -3   24.81    1.15
   5  -4  -3   22.85    1.10
   5   4  -3   21.58    0.97
  -5   4   3   23.56    0.97
  -4  -4   3    5.81    0.33
   4  -4  -3    6.80    0.65
   4  -4  -3    6.26    0.62
   4   4  -3    5.38    0.45
  -4   4   3    6.57    0.52
   3  -4  -3   46.85    1.51
  -3  -4   3   47.28    1.25
   3  -4  -3   46.23    1.51
   3   4  -3   47.17    1.37
   3   4  -3   47.42    1.33
  -3   4   3   47.40    1.59
  -3   4   3   45.37    1.42
  -2  -4   3   16.86    0.51
   2  -4  -3   16.14    0.72
   2  -4  -3   17.13    0.80
   2   4  -3   16.47    0.59
   2   4  -3   16.41    0.58
  -2   4   3   17.04    0.85
   2   4  -3   15.08    0.45
  -2   4   3   16.14    0.76
   1  -4  -3    0.86    0.38
  -1  -4   3    0.56    0.22
   1  -4  -3    0.71    0.39
   1   4  -3    0.75    0.24
  -1   4   3    0.73    0.39
   1   4  -3    0.63    0.22
  -1   4   3    0.90    0.32
   1   4  -3    0.72    0.15
   0  -4  -3   46.46    1.34
   0  -4   3   44.88    1.26
   0  -4  -3   45.84    1.45
   0  -4  -3   45.93    1.39
   0  -4   3   41.70    1.22
   0   4  -3   44.38    1.31
   0   4  -3   45.68    1.23
   0   4   3   45.64    1.35
   0   4   3   46.65    1.43
   1  -4   3   19.95    0.72
  -1  -4  -3   19.37    0.74
  -1  -4  -3   18.61    0.84
  -1  -4  -3   20.61    0.82
  -1   4  -3   20.80    0.75
   1   4   3   20.31    0.82
   1   4   3   19.35    0.82
  -1   4  -3   20.24    0.68
   1   4   3   20.20    0.81
  -2  -4  -3    5.68    0.43
  -2  -4  -3    5.32    0.49
   2  -4   3    5.51    0.46
   2  -4   3    5.08    0.41
  -2  -4  -3    5.05    0.49
   2   4   3    5.31    0.43
   2   4   3    5.05    0.49
  -2   4  -3    6.37    0.48
  -2   4  -3    4.71    0.40
   2   4   3    6.75    0.51
   3  -4   3   16.08    0.76
   3  -4   3   15.81    0.81
  -3  -4  -3   15.26    0.69
  -3  -4  -3   15.37    0.79
   3   4   3   16.94    0.81
  -3   4  -3   16.22    0.76
   3   4   3   16.27    0.73
   4  -4   3    4.21    0.55
   4  -4   3    4.11    0.52
   4   4   3    4.41    0.49
  -4   4  -3    4.40    0.51
   4   4   3    4.55    0.56
   5  -4   3    0.47    0.50
   5  -4   3    0.98    0.55
   5   4   3    0.62    0.48
   5   4   3    0.43    0.53
  -5   4  -3   -0.79    0.49
   6  -4   3    2.01    0.67
   6  -4   3    1.22    0.61
  -6   4  -3    2.00    0.63
   6   4   3    1.97    0.64
   7  -4   3    3.78    0.82
   7  -4   3    3.81    0.80
   7   4   3    5.03    0.83
  -7   4  -3    2.28    0.77
   8  -4   3    0.22    0.67
   8  -4   3    0.12    0.83
  -8   4  -3    1.33    0.84
   8   4   3    0.69    0.81
   9  -4   3    3.26    1.10
   9  -4   3    1.89    1.03
  -9   4  -3    2.73    1.03
   9   4   3    4.20    0.99
  10  -4   3   -1.96    1.16
  10   4   3    2.96    1.10
 -10   4  -3   -1.26    1.12
   9  -5  -3   -0.74    1.04
   9  -5  -3   -0.15    1.02
  -9   5   3   -0.95    1.02
   9   5  -3   -0.69    0.77
   8  -5  -3    7.40    0.87
   8  -5  -3    6.97    1.08
   8   5  -3    7.11    0.83
  -8   5   3    6.55    0.84
   7  -5  -3    0.06    0.81
   7  -5  -3   -0.23    0.81
   7   5  -3    0.01    0.61
  -7   5   3   -1.46    0.76
   6  -5  -3   -0.17    0.69
   6  -5  -3   -0.14    0.71
  -6   5   3   -0.22    0.68
   6   5  -3    0.10    0.52
   5  -5  -3    0.26    0.64
   5  -5  -3    0.05    0.66
  -5   5   3   -0.16    0.61
   5   5  -3   -0.28    0.46
  -5   5   3    0.19    0.76
   4  -5  -3   10.78    0.84
   4  -5  -3   11.35    0.84
  -4   5   3   10.68    0.91
   4   5  -3   11.27    0.72
  -4   5   3   11.03    0.78
   3  -5  -3   -0.24    0.53
   3  -5  -3   -0.92    0.51
  -3   5   3    0.15    0.61
  -3   5   3    0.15    0.50
   3   5  -3   -0.02    0.32
   2  -5  -3    4.39    0.59
   2  -5  -3    3.88    0.58
  -2   5   3    4.00    0.61
   2   5  -3    3.95    0.38
  -2   5   3    3.02    0.50
  -1  -5   3    0.90    0.30
   1  -5  -3    1.20    0.49
   1  -5  -3    0.77    0.48
   1   5  -3    1.17    0.34
  -1   5   3    0.47    0.41
  -1   5   3    1.80    0.53
   0  -5   3   13.68    0.66
   0  -5  -3   14.22    0.82
   0  -5  -3   14.25    0.81
   0   5  -3   14.12    0.69
   0   5   3   13.41    0.72
   0   5   3   14.52    0.85
  -1  -5  -3    0.44    0.46
  -1  -5  -3    0.82    0.49
   1  -5   3    0.75    0.38
   1   5   3    1.01    0.46
   1   5   3   -0.11    0.36
  -2  -5  -3   28.50    1.12
   2  -5   3   27.64    1.01
   2   5   3   28.15    1.14
  -3  -5  -3    2.48    0.53
   3  -5   3    2.63    0.55
   3   5   3    1.91    0.52
   4  -5   3    3.34    0.60
   4   5   3    4.71    0.68
   5  -5   3    7.19    0.75
   5   5   3    6.73    0.76
   6  -5   3    1.74    0.71
   6   5   3    2.45    0.72
   7  -5   3    1.26    0.87
   7   5   3    1.77    0.77
   8  -5   3    3.93    1.02
   8   5   3    5.66    0.96
   7  -6  -3    0.97    0.93
  -7   6   3   -0.18    1.08
   6  -6  -3    4.91    0.95
  -6   6   3    4.16    1.06
   5  -6  -3    2.05    0.78
  -5   6   3    1.23    0.90
   4  -6  -3    1.99    0.74
  -4   6   3    0.77    0.83
   4   6  -3    1.84    0.49
   3  -6  -3    2.42    0.70
   3   6  -3    1.75    0.44
  -3   6   3    1.66    0.77
   2  -6  -3    4.28    0.76
  -2   6   3    3.88    0.73
   2   6  -3    3.40    0.48
  -1  -6   3    0.47    0.38
   1  -6  -3    0.56    0.59
  -1   6   3   -0.70    0.59
   1   6  -3    0.26    0.44
   0  -6  -3   13.75    0.96
   0  -6   3   13.01    0.80
   0   6   3   13.26    1.00
   0   6  -3   13.12    0.82
   1  -6   3    3.36    0.53
  -1  -6  -3    2.42    0.61
  -1   6  -3    1.64    0.56
   1   6   3    2.61    0.62
   2  -6   3    1.30    0.54
  -2  -6  -3    0.60    0.66
   2   6   3   -0.03    0.57
  -2   6  -3    0.14    0.61
   3  -6   3    4.77    0.69
   3   6   3    6.10    0.79
   4  -6   3    4.96    0.76
   4   6   3    5.17    0.74
   5  -6   3    0.92    0.70
   5   6   3    0.33    0.67
   6  -6   3    2.09    0.93
   6   6   3    4.68    0.82
   3  -7  -3   -0.30    0.78
  -3   7   3    0.01    0.86
   2  -7  -3    6.20    0.87
  -2   7   3    6.20    0.93
   1  -7  -3   -0.65    0.70
   1   7  -3   -1.03    0.54
  -1   7   3   -1.12    0.83
   0  -7  -3    0.88    0.79
   0   7  -3   -0.43    0.62
   0   7   3   -0.90    0.79
  -1  -7  -3    1.14    0.77
   1  -7   3   -0.46    0.57
  -1   7  -3   -0.25    0.66
   1   7   3   -0.17    0.69
   2  -7   3    2.52    0.69
  -2  -7  -3    3.74    0.79
   2   7   3    3.04    0.77
  -2   7  -3    2.09    0.77
   3  -7   3   -0.69    0.68
  -3   7  -3   -0.05    0.72
   3   7   3   -0.16    0.69
 -12   0   4    1.28    1.07
  12   0  -4    1.99    0.96
 -11   0   4   -0.93    0.66
  11   0  -4    0.09    1.01
  10   0  -4   11.24    0.91
 -10   0   4   11.29    1.00
  10   0  -4   13.92    1.19
  -9   0   4    0.04    0.66
   9   0  -4   -0.68    0.72
   9   0  -4    0.10    0.56
  -8   0   4    0.85    0.55
   8   0  -4    0.58    0.60
   8   0  -4    0.06    0.36
   7   0  -4    0.18    0.46
   7   0  -4    0.04    0.29
  -7   0   4    0.54    0.45
  -6   0   4   66.22    1.92
   6   0  -4   69.08    1.92
   6   0  -4   67.16    2.01
  -5   0   4    0.44    0.26
   5   0  -4   -0.25    0.26
   5   0  -4    0.22    0.30
  -5   0   4   -0.08    0.29
  -4   0   4  167.87    4.17
   4   0  -4  150.91    4.16
   4   0  -4  163.45    4.30
  -4   0   4  166.70    4.17
  -3   0   4    0.01    0.17
  -3   0   4   -0.01    0.15
  -3   0   4   -0.01    0.12
   3   0  -4    0.35    0.16
   3   0  -4    0.54    0.15
   3   0  -4    0.11    0.18
   2   0  -4    7.63    0.32
  -2   0   4    7.31    0.31
  -2   0   4    7.53    0.30
   2   0  -4    7.42    0.29
  -2   0   4    7.37    0.30
   2   0  -4    7.07    0.30
  -2   0   4    7.08    0.30
  -1   0   4   -0.17    0.10
   1   0  -4   -0.15    0.09
   1   0  -4   -0.20    0.12
  -1   0   4   -0.12    0.10
   1   0  -4   -0.10    0.10
   1   0  -4   -0.08    0.10
  -1   0   4   -0.06    0.10
  -1   0   4   -0.13    0.10
   0   0   4  256.45    6.58
   0   0  -4  265.68    6.77
   0   0   4  260.64    6.77
   0   0  -4  263.23    6.59
   0   0  -4  262.48    6.78
   0   0  -4  266.79    6.58
   0   0   4  256.99    6.77
   0   0   4  261.86    6.58
  -1   0  -4   -0.31    0.17
   1   0   4   -0.14    0.11
  -1   0  -4   -0.17    0.12
   1   0   4   -0.21    0.17
  -1   0  -4   -0.32    0.13
   1   0   4    0.13    0.16
   1   0   4   -0.09    0.16
   2   0   4  359.50    9.34
  -2   0  -4  379.75    9.62
   2   0   4  354.19    9.61
  -2   0  -4  382.82    9.34
   3   0   4   -0.18    0.32
   3   0   4   -0.13    0.22
  -3   0  -4   -0.11    0.20
  -3   0  -4    0.04    0.21
   4   0   4    7.48    0.59
   4   0   4    6.14    0.48
   5   0   4   -0.54    0.48
   5   0   4   -0.18    0.35
   6   0   4   46.12    1.63
   6   0   4   47.36    1.72
   7   0   4   -0.43    0.62
   7   0   4   -1.45    0.65
   8   0   4    3.42    0.80
   8   0   4    3.28    0.90
   9   0   4    0.67    0.94
   9   0   4    0.11    0.84
  10   0   4    4.87    1.03
  10   0   4    5.53    0.97
  11   0   4    0.73    1.21
  11   0   4    0.53    0.78
  12  -1  -4    2.45    1.36
 -12  -1   4    1.31    1.02
  12   1  -4    1.98    1.17
 -12   1   4    1.09    1.13
 -11  -1   4   -0.67    0.84
  11  -1  -4   -0.28    0.80
  11  -1  -4   -1.22    1.06
  11   1  -4    0.21    0.99
 -11   1   4   -0.61    0.69
  10  -1  -4   -0.40    0.92
 -10  -1   4    0.17    0.72
  10  -1  -4    0.77    0.76
  10   1  -4   -1.33    0.81
 -10   1   4   -0.77    0.82
  -9  -1   4   -1.09    0.61
   9  -1  -4    0.48    0.62
   9  -1  -4    0.07    0.58
  -9   1   4   -1.21    0.67
   9   1  -4    0.09    0.69
   9   1  -4    0.55    0.56
   8  -1  -4   15.09    0.80
   8  -1  -4   14.05    0.90
  -8  -1   4   13.11    0.86
   8   1  -4   14.86    0.79
  -8   1   4   13.58    0.81
   8   1  -4   13.98    0.96
  -7  -1   4    2.42    0.42
   7  -1  -4    1.58    0.56
   7  -1  -4    1.31    0.48
  -7  -1   4    1.59    0.44
   7   1  -4    1.63    0.49
  -7   1   4    2.48    0.54
   7   1  -4    1.06    0.36
   6  -1  -4   39.99    1.33
  -6  -1   4   39.98    1.22
   6  -1  -4   40.25    1.25
  -6  -1   4   41.44    1.25
   6   1  -4   39.05    1.20
  -6   1   4   38.92    1.25
   6   1  -4   39.08    1.30
   5  -1  -4    1.34    0.39
  -5  -1   4    1.08    0.27
   5  -1  -4    1.26    0.34
  -5  -1   4    0.77    0.24
   5   1  -4    0.89    0.29
  -5   1   4    1.08    0.36
   5   1  -4    1.00    0.26
   4  -1  -4    1.22    0.29
  -4  -1   4    1.47    0.20
   4  -1  -4    1.21    0.33
  -4  -1   4    1.44    0.23
  -4   1   4    1.38    0.31
   4   1  -4    1.26    0.18
   4   1  -4    1.35    0.23
  -3  -1   4    5.72    0.27
  -3  -1   4    5.61    0.27
   3  -1  -4    5.54    0.34
   3  -1  -4    5.12    0.31
  -3  -1   4    5.28    0.26
   3   1  -4    4.96    0.25
  -3   1   4    5.52    0.35
   3   1  -4    5.26    0.28
  -3   1   4    5.61    0.31
  -2  -1   4  129.56    3.48
   2  -1  -4  134.30    3.45
  -2  -1   4  140.01    3.48
   2  -1  -4  132.26    3.45
  -2  -1   4  131.53    3.38
   2  -1  -4  133.16    3.57
  -2   1   4  135.77    3.45
   2   1  -4  142.31    3.49
  -2   1   4  134.35    3.56
  -2   1   4  133.27    3.45
  -2   1   4  131.58    3.55
   2   1  -4  133.69    3.38
  -1  -1   4   19.96    0.56
   1  -1  -4   21.18    0.65
   1  -1  -4   21.13    0.64
   1  -1  -4   20.76    0.69
  -1  -1   4   22.01    0.56
   1  -1  -4   21.84    0.67
  -1  -1   4   20.89    0.57
   1   1  -4   21.83    0.59
   1   1  -4   21.01    0.58
  -1   1   4   21.22    0.65
  -1   1   4   20.35    0.63
  -1   1   4   20.39    0.67
  -1   1   4   21.15    0.66
   1   1  -4   21.11    0.56
   0  -1   4   78.57    2.09
   0  -1  -4   81.45    2.12
   0  -1   4   85.44    2.13
   0  -1  -4   80.04    2.11
   0  -1  -4   80.19    2.20
   0  -1  -4   82.60    2.18
   0   1   4   78.78    2.11
   0   1   4   79.33    2.11
   0   1  -4   84.57    2.07
   0   1   4   79.53    2.18
   0   1   4   84.35    2.20
   0   1  -4   76.83    2.15
   1  -1   4    7.56    0.40
  -1  -1  -4    8.41    0.37
   1  -1   4    7.83    0.38
  -1  -1  -4    7.89    0.39
  -1  -1  -4    8.31    0.39
  -1  -1  -4    7.63    0.37
   1   1   4    8.24    0.33
   1   1   4    8.08    0.37
   1   1   4    8.27    0.40
   1   1   4    8.35    0.39
  -1   1  -4    8.05    0.35
  -1   1  -4    7.84    0.37
   2  -1   4    7.64    0.44
  -2  -1  -4    8.75    0.46
  -2  -1  -4    8.86    0.40
   2  -1   4    9.64    0.46
  -2   1  -4    8.26    0.42
  -2   1  -4    8.13    0.43
   2   1   4    8.17    0.44
   2   1   4    8.52    0.41
   2   1   4    8.94    0.43
   2   1   4    9.02    0.48
  -3  -1  -4   12.79    0.61
   3  -1   4   11.82    0.54
   3  -1   4   12.48    0.63
   3   1   4   12.72    0.57
   3   1   4   12.38    0.60
   3   1   4   10.78    0.55
  -3   1  -4   12.32    0.58
   4  -1   4   89.11    2.52
   4  -1   4   86.40    2.43
   4   1   4   89.36    2.47
   4   1   4   85.00    2.54
   5  -1   4    0.05    0.36
   5  -1   4    0.14    0.34
   5   1   4   -0.31    0.43
   5   1   4   -0.06    0.47
   6  -1   4   18.26    1.02
   6  -1   4   19.28    1.10
   6   1   4   18.43    1.01
   6   1   4   17.90    1.07
   7  -1   4    2.65    0.72
   7  -1   4    2.50    0.76
   7   1   4    2.87    0.73
   7   1   4    2.31    0.67
   8  -1   4    2.06    0.68
   8  -1   4    1.85    0.61
   8   1   4    2.37    0.86
   8   1   4    0.53    0.69
   9  -1   4   -0.08    0.94
   9  -1   4   -0.35    0.86
   9   1   4    0.06    0.58
   9   1   4   -0.20    0.67
  10  -1   4    0.61    1.15
  10  -1   4    1.53    0.79
  10   1   4    2.59    0.91
  10   1   4    4.16    0.91
  11  -1   4    0.88    1.13
  11  -1   4   -0.47    0.93
  11   1   4    0.14    0.95
  11   1   4    0.31    0.88
  11  -2  -4   -1.98    1.11
  11  -2  -4    0.41    0.71
 -11  -2   4   -0.71    0.77
  11   2  -4   -1.16    0.88
 -11   2   4   -1.33    1.02
  10  -2  -4   11.93    1.29
 -10  -2   4    9.09    0.94
  10  -2  -4    8.53    1.01
  10   2  -4   11.75    1.09
 -10   2   4   10.34    0.93
   9  -2  -4    0.91    0.74
  -9  -2   4    0.42    0.64
   9  -2  -4    0.71    0.87
  -9   2   4    0.93    0.59
   9   2  -4    0.84    0.68
   8  -2  -4    5.58    0.73
   8  -2  -4    6.76    0.86
  -8   2   4    5.57    0.62
   8   2  -4    6.81    0.71
   7  -2  -4    4.17    0.69
   7  -2  -4    3.79    0.49
   7   2  -4    3.77    0.53
   7   2  -4    3.30    0.41
  -7   2   4    3.67    0.63
   6  -2  -4   39.82    1.47
  -6  -2   4   41.53    1.28
   6  -2  -4   40.30    1.32
  -6   2   4   39.83    1.39
   6   2  -4   41.51    1.36
   6   2  -4   41.61    1.20
   5  -2  -4    3.43    0.39
  -5  -2   4    2.78    0.33
   5  -2  -4    2.36    0.39
  -5   2   4    2.36    0.37
   5   2  -4    2.54    0.25
   5   2  -4    3.48    0.37
  -4  -2   4  165.15    4.06
   4  -2  -4  151.12    4.12
   4  -2  -4  154.28    4.26
   4   2  -4  156.19    3.98
   4   2  -4  160.23    4.14
  -4   2   4  155.86    4.12
   3  -2  -4   56.64    1.70
  -3  -2   4   54.85    1.53
   3  -2  -4   58.61    1.66
   3   2  -4   59.53    1.48
  -3   2   4   59.01    1.65
   3   2  -4   59.77    1.48
   3   2  -4   60.95    1.58
   2  -2  -4    0.81    0.30
   2  -2  -4    0.31    0.27
   2   2  -4    0.70    0.08
  -2   2   4    0.86    0.22
  -2   2   4    0.51    0.20
   1  -2  -4   38.93    1.08
   1  -2  -4   37.70    1.09
   1  -2  -4   37.63    1.14
  -1   2   4   36.65    1.12
   1   2  -4   37.20    0.99
  -1   2   4   39.55    1.14
  -1   2   4   38.13    1.08
   0  -2   4   96.22    2.45
   0  -2   4   99.21    2.49
   0  -2   4   95.47    2.48
   0  -2  -4   98.98    2.52
   0  -2  -4   94.39    2.63
   0  -2  -4   93.32    2.53
   0   2  -4   93.96    2.53
   0   2   4   95.57    2.61
   0   2  -4   98.65    2.44
   0   2  -4   95.01    2.46
   0   2   4   94.38    2.52
   0   2   4   99.85    2.62
   1  -2   4   10.04    0.41
   1  -2   4    9.74    0.37
  -1  -2  -4    9.43    0.42
  -1  -2  -4    9.69    0.44
  -1  -2  -4   10.07    0.47
   1   2   4   10.82    0.46
  -1   2  -4   10.29    0.41
   1   2   4   10.17    0.44
   1   2   4    9.44    0.48
  -1   2  -4   10.28    0.42
   2  -2   4   27.55    0.85
   2  -2   4   27.06    0.86
  -2  -2  -4   25.43    0.94
  -2  -2  -4   25.57    0.85
  -2  -2  -4   28.57    0.88
   2   2   4   27.63    0.89
   2   2   4   27.65    0.88
  -2   2  -4   26.59    0.87
   2   2   4   26.83    0.90
   3  -2   4   49.76    1.51
  -3  -2  -4   52.57    1.50
   3  -2   4   50.80    1.49
   3   2   4   50.55    1.50
  -3   2  -4   50.11    1.51
   3   2   4   49.62    1.52
   3   2   4   51.73    1.58
   4  -2   4    7.78    0.51
   4  -2   4    7.37    0.57
   4   2   4    7.72    0.57
   4   2   4    7.90    0.62
   5  -2   4   17.57    0.90
   5  -2   4   16.33    0.90
   5   2   4   15.91    0.90
   5   2   4   16.37    0.77
   6  -2   4   36.09    1.42
   6  -2   4   38.04    1.48
   6   2   4   36.99    1.39
   6   2   4   34.38    1.45
   7  -2   4    0.09    0.53
   7  -2   4    0.99    0.69
   7   2   4    1.13    0.70
   7   2   4    0.64    0.58
   8  -2   4   11.74    1.08
   8  -2   4   13.54    1.18
   8   2   4   13.93    1.14
   8   2   4   12.61    0.98
   9  -2   4   -0.88    0.91
   9  -2   4    1.22    1.02
   9   2   4    1.41    0.71
   9   2   4    0.69    0.76
  10  -2   4   -0.71    0.76
  10  -2   4    0.51    1.18
  10   2   4   -0.17    1.01
 -10   2  -4   -2.07    0.75
  10   2   4    0.44    0.92
  11  -2   4   -1.03    1.30
  11  -2   4   -0.53    0.87
 -11   2  -4   -3.00    1.12
  11   2   4    2.06    1.22
  11  -3  -4   -0.55    1.03
  11  -3  -4   -0.44    0.89
 -11  -3   4    0.20    0.81
  11   3  -4    0.41    0.90
 -11   3   4   -1.30    0.80
 -10  -3   4   -0.34    0.69
  10  -3  -4   -0.48    0.68
  10  -3  -4   -0.66    0.77
 -10   3   4   -0.57    0.72
  10   3  -4   -0.62    0.86
   9  -3  -4    2.30    0.74
   9  -3  -4    2.14    0.66
  -9   3   4    2.62    0.69
   9   3  -4    3.29    0.82
   8  -3  -4   17.31    1.30
   8  -3  -4   15.29    1.17
  -8   3   4   14.10    1.03
   8   3  -4   13.08    1.06
   7  -3  -4    0.49    0.46
   7  -3  -4    1.50    0.69
   7   3  -4   -0.17    0.50
  -7   3   4    0.12    0.48
   6  -3  -4   19.02    1.09
   6  -3  -4   20.07    0.90
  -6  -3   4   18.69    0.83
   6   3  -4   18.56    0.87
  -6   3   4   19.21    0.89
   5  -3  -4   14.34    0.84
   5  -3  -4   15.09    0.91
   5   3  -4   14.43    0.49
  -5   3   4   15.83    0.86
   5   3  -4   14.36    0.66
  -4  -3   4    5.80    0.30
   4  -3  -4    5.74    0.49
   4  -3  -4    5.38    0.53
   4   3  -4    5.36    0.17
  -4   3   4    5.01    0.45
   4   3  -4    5.41    0.38
   4   3  -4    6.24    0.18
   3  -3  -4   24.12    0.84
  -3  -3   4   23.54    0.61
   3  -3  -4   24.98    0.95
   3   3  -4   23.29    0.69
   3   3  -4   21.52    0.72
  -3   3   4   23.51    0.83
  -3   3   4   23.99    0.89
   2  -3  -4   96.90    2.70
   2  -3  -4   92.60    2.59
   2   3  -4   94.06    2.49
  -2   3   4   94.71    2.56
  -2   3   4   96.50    2.68
   2   3  -4   98.91    2.49
   1  -3  -4    0.60    0.32
  -1  -3   4    0.32    0.11
   1  -3  -4    0.32    0.34
  -1   3   4    0.56    0.33
   1   3  -4    0.41    0.13
  -1   3   4    0.27    0.28
   0  -3  -4   41.27    1.21
   0  -3   4   38.68    1.07
   0  -3  -4   41.80    1.18
   0  -3  -4   40.92    1.28
   0   3  -4   40.19    1.05
   0   3   4   39.85    1.19
   0   3  -4   39.04    1.12
   0   3   4   37.34    1.23
   0   3  -4   38.81    1.07
   1  -3   4   11.91    0.47
  -1  -3  -4   11.71    0.60
  -1  -3  -4   11.15    0.53
  -1  -3  -4   12.01    0.64
  -1   3  -4   12.38    0.49
   1   3   4   11.20    0.55
  -1   3  -4   11.66    0.43
   1   3   4   11.51    0.59
   1   3   4   11.13    0.58
  -2  -3  -4   15.07    0.64
   2  -3   4   16.13    0.61
  -2  -3  -4   15.60    0.74
  -2  -3  -4   15.83    0.71
   2  -3   4   16.00    0.61
  -2   3  -4   15.51    0.60
   2   3   4   14.97    0.64
   2   3   4   15.55    0.69
   2   3   4   15.94    0.66
  -2   3  -4   16.10    0.63
   3  -3   4    7.88    0.55
  -3  -3  -4    7.92    0.54
   3  -3   4    7.72    0.54
  -3   3  -4    7.51    0.51
  -3   3  -4    8.93    0.54
   3   3   4    8.64    0.60
   3   3   4    8.40    0.56
   4  -3   4   54.57    1.67
   4  -3   4   53.75    1.64
   4   3   4   52.42    1.65
   4   3   4   51.86    1.71
  -4   3  -4   54.43    1.60
   5  -3   4    1.08    0.49
   5  -3   4    1.07    0.53
   5   3   4    1.08    0.45
  -5   3  -4    1.03    0.49
   5   3   4    0.77    0.50
   6  -3   4    6.36    0.75
   6  -3   4    5.85    0.72
  -6   3  -4    4.29    0.55
   6   3   4    5.23    0.71
   6   3   4    5.53    0.64
   7  -3   4   -0.37    0.70
   7  -3   4    0.94    0.56
  -7   3  -4    0.45    0.70
   7   3   4    1.50    0.59
   7   3   4    0.87    0.70
   8  -3   4    3.15    0.91
   8  -3   4    2.86    0.93
  -8   3  -4    3.87    0.92
   8   3   4    3.93    0.89
   8   3   4    4.21    0.74
   9  -3   4    0.51    0.99
   9  -3   4    0.57    0.96
  -9   3  -4   -0.69    0.90
   9   3   4    1.99    0.97
  10  -3   4    1.86    1.21
  10  -3   4    0.91    1.13
 -10   3  -4    0.03    1.09
  10   3   4    4.33    1.14
  10  -4  -4    0.27    1.03
  10  -4  -4   -1.74    1.11
 -10  -4   4    0.72    0.67
  10   4  -4    1.07    0.82
 -10   4   4   -0.02    0.80
   9  -4  -4    2.13    1.02
   9  -4  -4    1.00    0.91
   9   4  -4    2.34    0.75
  -9   4   4    0.93    0.93
   8  -4  -4   -0.52    0.77
   8  -4  -4    0.05    0.86
  -8   4   4   -1.07    0.81
   8   4  -4    0.06    0.64
   7  -4  -4    9.18    0.77
   7  -4  -4    9.08    0.97
  -7   4   4    8.07    0.90
   7   4  -4    9.51    0.72
   6  -4  -4   11.29    0.92
   6  -4  -4   10.71    0.81
  -6   4   4   10.42    0.85
   6   4  -4   11.54    0.78
   5  -4  -4    1.74    0.60
   5  -4  -4    0.83    0.60
  -5   4   4    1.50    0.59
   5   4  -4    1.06    0.39
   4  -4  -4   17.82    0.87
  -4  -4   4   18.45    0.53
   4  -4  -4   19.91    0.97
  -4   4   4   20.59    0.92
  -4   4   4   18.61    0.94
   4   4  -4   15.11    0.71
   3  -4  -4   14.62    0.88
  -3  -4   4   16.00    0.44
   3  -4  -4   15.87    0.74
  -3   4   4   16.92    0.83
  -3   4   4   15.60    0.93
   3   4  -4   15.46    0.54
   3   4  -4   15.80    0.58
   2  -4  -4   -0.05    0.32
   2  -4  -4    0.40    0.43
  -2   4   4    0.01    0.30
   2   4  -4    0.01    0.17
  -2   4   4    0.23    0.46
   2   4  -4    0.34    0.19
  -1  -4   4   31.26    0.88
   1  -4  -4   30.37    1.16
   1  -4  -4   32.35    1.11
   1   4  -4   31.03    0.92
  -1   4   4   30.01    1.08
   1   4  -4   31.37    0.93
  -1   4   4   32.01    1.07
   0  -4  -4   46.16    1.40
   0  -4  -4   42.33    1.45
   0  -4   4   44.95    1.23
   0   4  -4   42.83    1.27
   0   4   4   44.61    1.43
   0   4  -4   43.39    1.19
   0   4   4   44.66    1.35
   1  -4   4    0.45    0.29
   1  -4   4    0.06    0.21
  -1  -4  -4    0.14    0.39
  -1  -4  -4    0.07    0.40
   1   4   4    0.29    0.33
   1   4   4    0.15    0.37
  -1   4  -4    0.02    0.23
  -1   4  -4    0.38    0.28
   2  -4   4   66.97    1.87
  -2  -4  -4   63.60    2.01
  -2  -4  -4   69.49    1.95
   2  -4   4   66.33    1.88
  -2   4  -4   67.29    1.93
  -2   4  -4   65.87    1.83
   2   4   4   65.24    1.99
   2   4   4   65.10    1.91
  -3  -4  -4   29.65    1.20
   3  -4   4   32.17    1.10
   3  -4   4   31.28    1.12
   3   4   4   29.90    1.10
   3   4   4   31.13    1.18
  -3   4  -4   32.21    1.04
   4  -4   4    2.33    0.46
   4  -4   4    3.90    0.53
   4   4   4    2.70    0.55
  -4   4  -4    3.70    0.53
   4   4   4    3.54    0.49
   5  -4   4   13.53    0.88
   5  -4   4   13.48    0.94
  -5   4  -4   13.24    0.88
   5   4   4   15.01    0.93
   5   4   4   14.64    0.96
   6  -4   4    6.74    0.81
   6  -4   4    6.93    0.74
   6   4   4    7.42    0.80
  -6   4  -4    5.52    0.72
   7  -4   4   -0.08    0.70
   7  -4   4   -1.07    0.78
  -7   4  -4   -0.05    0.71
   7   4   4    0.43    0.72
   8  -4   4    0.63    0.92
   8  -4   4    0.96    0.64
   8   4   4    2.37    0.94
  -8   4  -4    0.61    0.85
   9  -4   4    2.14    1.09
  -9   4  -4    1.14    1.02
   9   4   4    4.43    1.00
   9  -5  -4    3.04    1.08
   9  -5  -4   -0.25    1.06
  -9   5   4   -0.32    1.05
   8  -5  -4    5.30    1.06
   8  -5  -4    6.27    1.03
   8   5  -4    4.43    0.70
  -8   5   4    3.46    0.95
   7  -5  -4   -0.25    0.60
   7  -5  -4    0.28    0.84
   7   5  -4    0.20    0.54
  -7   5   4    0.44    0.62
   6  -5  -4    2.43    0.77
   6  -5  -4    2.43    0.77
  -6   5   4    2.82    0.78
  -6   5   4    2.44    0.90
   6   5  -4    2.52    0.52
   5  -5  -4    8.76    0.85
   5  -5  -4    8.62    0.88
   5   5  -4    7.81    0.58
  -5   5   4    9.11    0.82
  -5   5   4    8.46    0.81
   4  -5  -4    5.87    0.73
   4  -5  -4    6.47    0.76
   4   5  -4    4.96    0.45
  -4   5   4    5.14    0.69
  -4   5   4    5.61    0.80
   3  -5  -4   16.41    0.98
   3  -5  -4   14.01    0.98
  -3   5   4   14.46    0.90
  -3   5   4   15.81    0.90
   3   5  -4   14.63    0.66
   2  -5  -4   29.18    1.21
   2  -5  -4   31.92    1.28
   2   5  -4   31.11    0.97
  -2   5   4   30.17    1.17
  -2   5   4   31.97    1.33
   1  -5  -4   -0.25    0.50
  -1  -5   4    0.11    0.26
   1  -5  -4   -0.81    0.55
   1   5  -4    0.22    0.30
  -1   5   4   -0.09    0.51
  -1   5   4   -0.18    0.42
   0  -5   4    6.65    0.44
   0  -5  -4    5.99    0.62
   0  -5  -4    6.49    0.64
   0   5   4    5.56    0.63
   0   5  -4    6.04    0.45
   0   5   4    5.68    0.54
  -1  -5  -4   20.11    0.97
  -1  -5  -4   19.58    0.97
   1  -5   4   19.88    0.79
   1   5   4   19.13    0.99
   1   5   4   19.87    0.88
  -2  -5  -4    6.07    0.65
   2  -5   4    7.19    0.56
   2   5   4    6.57    0.64
  -3  -5  -4    8.68    0.77
   3  -5   4    7.46    0.60
   3   5   4    8.98    0.74
   4  -5   4   12.79    0.89
   4   5   4   13.53    0.97
   5  -5   4    2.19    0.66
   5   5   4    2.62    0.67
   6  -5   4    0.37    0.72
   6   5   4    0.54    0.78
   7  -5   4    1.87    0.90
   7   5   4    4.13    0.86
   8  -5   4   -0.85    0.95
   8   5   4    3.62    1.01
   7  -6  -4    2.09    0.98
  -7   6   4    1.94    1.12
   6  -6  -4    2.81    0.91
  -6   6   4    0.42    0.99
   5  -6  -4    0.52    0.77
  -5   6   4    0.94    0.71
   4  -6  -4    2.72    0.76
  -4   6   4    1.49    0.86
   3  -6  -4    4.10    0.78
  -3   6   4    4.45    0.85
   2  -6  -4    0.07    0.62
  -2   6   4   -0.40    0.70
   2   6  -4    0.21    0.39
   1  -6  -4   13.04    0.88
  -1  -6   4   11.04    0.61
  -1   6   4   10.61    0.90
   1   6  -4   11.98    0.71
   0  -6  -4    3.57    0.68
   0  -6   4    4.76    0.48
   0   6   4    4.73    0.73
   0   6  -4    4.38    0.55
   1  -6   4   -0.50    0.45
  -1  -6  -4   -0.15    0.60
  -1   6  -4   -0.32    0.49
   1   6   4   -0.47    0.59
  -2  -6  -4    0.97    0.71
   2  -6   4    1.34    0.55
   2   6   4    1.58    0.72
  -2   6  -4    1.57    0.62
   3  -6   4    5.04    0.67
   3   6   4    5.41    0.83
   4  -6   4   -0.74    0.65
   4   6   4    0.98    0.67
   5  -6   4    2.51    0.72
   5   6   4    2.79    0.84
   6  -6   4   -0.22    0.87
   6   6   4    1.58    0.89
   3  -7  -4    3.29    0.89
  -3   7   4    2.10    0.95
   2  -7  -4    1.03    0.80
  -2   7   4    2.60    0.89
   1  -7  -4    1.53    0.76
  -1   7   4    1.43    0.81
   0  -7  -4    0.89    0.75
   0   7   4   -0.51    0.85
  -1  -7  -4    7.83    0.94
  -1   7  -4    6.10    0.75
   1   7   4    5.44    0.87
  -2  -7  -4    1.95    0.84
   2  -7   4   -1.36    0.62
  -2   7  -4   -1.20    0.71
   2   7   4   -1.34    0.81
  12   0  -5   -1.05    1.18
 -12   0   5   -1.22    0.99
 -11   0   5    3.89    0.95
  11   0  -5    4.11    1.11
  10   0  -5   -0.16    0.61
  10   0  -5    0.52    0.82
 -10   0   5    0.14    0.72
   9   0  -5   13.47    0.94
   9   0  -5   14.72    1.05
  -9   0   5   13.38    1.04
   8   0  -5    0.65    0.60
  -8   0   5    0.78    0.55
   8   0  -5    0.11    0.46
  -7   0   5    9.39    0.70
   7   0  -5   10.19    0.79
   7   0  -5    9.52    0.66
  -6   0   5    0.18    0.36
   6   0  -5   -0.11    0.38
   6   0  -5    0.31    0.33
  -5   0   5  167.68    4.29
   5   0  -5  168.91    4.29
   5   0  -5  159.88    4.44
  -5   0   5  166.81    4.29
   4   0  -5    0.05    0.16
   4   0  -5    0.35    0.24
  -4   0   5    0.32    0.21
  -4   0   5    0.14    0.23
  -3   0   5   48.81    1.34
  -3   0   5   50.40    1.39
  -3   0   5   51.17    1.34
  -3   0   5   48.53    1.37
   3   0  -5   48.00    1.40
   3   0  -5   47.77    1.34
  -2   0   5   -0.09    0.14
   2   0  -5    0.09    0.14
  -2   0   5    0.09    0.14
  -2   0   5    0.08    0.14
   2   0  -5   -0.07    0.15
  -2   0   5    0.07    0.13
   2   0  -5    0.08    0.12
  -1   0   5  232.90    5.93
   1   0  -5  224.58    5.93
  -1   0   5  228.25    5.92
   1   0  -5  228.36    5.76
   1   0  -5  228.67    5.92
  -1   0   5  223.09    5.76
   1   0  -5  227.69    5.75
  -1   0   5  233.46    5.76
   0   0   5    0.00    0.13
   0   0  -5   -0.07    0.16
   0   0   5    0.10    0.14
   0   0  -5    0.27    0.12
   0   0   5    0.09    0.14
   0   0  -5    0.18    0.11
   0   0   5   -0.07    0.14
   0   0  -5    0.05    0.13
   1   0   5  268.35    6.79
  -1   0  -5  254.23    6.99
   1   0   5  262.42    6.99
   1   0   5  259.96    6.79
  -1   0  -5  278.67    6.79
  -1   0  -5  280.16    7.00
   1   0   5  273.13    7.00
  -2   0  -5   -0.08    0.24
  -2   0  -5   -0.24    0.19
   2   0   5   -0.35    0.26
   2   0   5    0.04    0.19
   2   0   5   -0.04    0.18
   3   0   5   -0.10    0.26
   3   0   5   -0.05    0.23
   4   0   5   -0.17    0.29
   4   0   5   -0.40    0.42
   5   0   5   73.68    2.16
   5   0   5   72.47    2.25
   6   0   5   -0.57    0.61
   6   0   5   -0.48    0.42
   7   0   5   24.87    1.31
   7   0   5   28.42    1.42
   8   0   5   -0.29    0.82
   8   0   5    0.15    0.76
   9   0   5    0.84    0.98
   9   0   5   -0.18    0.85
  10   0   5    0.77    1.09
  10   0   5    1.01    0.97
  11   0   5    5.26    0.94
  11   0   5    6.29    1.10
  12  -1  -5   -1.06    1.23
 -12  -1   5   -1.61    0.87
 -12   1   5   -0.18    1.02
  12   1  -5    0.26    1.14
 -11  -1   5    0.60    0.81
  11  -1  -5    0.16    0.82
  11  -1  -5   -0.25    1.05
 -11   1   5   -2.01    0.91
  11   1  -5    0.40    0.97
  10  -1  -5    0.93    0.70
  10  -1  -5    0.14    0.72
 -10  -1   5    0.70    0.71
 -10   1   5   -1.03    0.78
  10   1  -5    0.23    0.81
   9  -1  -5   14.57    1.09
   9  -1  -5   14.15    1.03
  -9  -1   5   14.97    0.99
   9   1  -5   13.47    0.98
   9   1  -5   13.66    0.85
  -9   1   5   12.43    0.91
   8  -1  -5   -0.01    0.52
   8  -1  -5    0.57    0.49
  -8  -1   5    0.55    0.50
   8   1  -5    0.29    0.55
  -8   1   5    0.38    0.59
   8   1  -5   -0.37    0.39
  -7  -1   5   18.00    0.79
   7  -1  -5   15.09    0.96
  -7  -1   5   14.75    0.76
   7  -1  -5   15.91    0.86
  -7   1   5   14.26    0.89
   7   1  -5   16.23    0.71
   7   1  -5   16.70    0.91
  -6  -1   5   21.76    0.83
   6  -1  -5   22.21    0.97
   6  -1  -5   21.71    0.88
  -6  -1   5   22.00    0.78
   6   1  -5   18.55    0.74
   6   1  -5   21.64    0.89
  -6   1   5   22.59    0.92
   5  -1  -5   54.09    1.64
  -5  -1   5   52.96    1.51
   5  -1  -5   55.99    1.59
  -5  -1   5   54.33    1.52
   5   1  -5   55.48    1.51
  -5   1   5   52.47    1.59
   5   1  -5   54.65    1.58
   4  -1  -5   68.95    1.92
  -4  -1   5   70.62    1.85
  -4  -1   5   70.16    1.85
   4  -1  -5   69.05    2.01
  -4   1   5   70.28    1.92
   4   1  -5   70.49    1.92
   4   1  -5   69.06    1.84
  -3  -1   5  430.30   10.72
   3  -1  -5  418.37   10.81
  -3  -1   5  405.69   10.50
   3  -1  -5  418.90   10.50
  -3  -1   5  415.09   10.48
  -3   1   5  418.22   10.50
  -3   1   5  413.90   10.79
  -3   1   5  420.26   10.50
   3   1  -5  401.71   10.50
   3   1  -5  421.61   10.80
   2  -1  -5    2.81    0.21
  -2  -1   5    2.77    0.17
  -2  -1   5    2.90    0.17
   2  -1  -5    2.96    0.27
   2  -1  -5    3.17    0.26
  -2  -1   5    2.66    0.15
  -2   1   5    3.05    0.24
  -2   1   5    2.61    0.22
   2   1  -5    2.71    0.17
  -2   1   5    2.87    0.25
  -2   1   5    2.80    0.28
   2   1  -5    3.07    0.17
   2   1  -5    2.54    0.20
   1  -1  -5  134.56    3.67
   1  -1  -5  139.70    3.56
  -1  -1   5  126.74    3.59
  -1  -1   5  141.65    3.58
   1  -1  -5  141.15    3.66
  -1  -1   5  138.19    3.49
   1  -1  -5  135.27    3.54
   1   1  -5  138.44    3.59
   1   1  -5  150.78    3.60
  -1   1   5  143.44    3.56
  -1   1   5  138.29    3.66
   1   1  -5  139.79    3.48
  -1   1   5  141.44    3.67
   1   1  -5  134.10    3.49
  -1   1   5  132.00    3.55
   0  -1  -5   11.75    0.44
   0  -1  -5   12.09    0.47
   0  -1  -5   12.20    0.51
   0  -1   5   12.17    0.39
   0  -1   5   10.70    0.42
   0  -1   5   11.81    0.39
   0  -1  -5   11.79    0.42
   0  -1   5   11.15    0.42
   0   1   5   11.60    0.45
   0   1  -5   11.47    0.44
   0   1   5   11.64    0.43
   0   1   5   11.88    0.48
   0   1  -5   12.02    0.39
   0   1   5   12.23    0.45
   0   1  -5   10.65    0.42
   1  -1   5  189.78    5.12
  -1  -1  -5  201.67    5.13
  -1  -1  -5  190.09    5.14
   1  -1   5  187.25    4.98
   1  -1   5  198.69    5.12
  -1  -1  -5  199.92    4.98
  -1  -1  -5  186.41    4.98
   1   1   5  199.38    4.98
   1   1   5  188.87    4.97
   1   1   5  194.34    5.13
  -1   1  -5  204.20    4.97
   1   1   5  202.62    5.15
  -1   1  -5  188.86    5.13
  -2  -1  -5    0.25    0.27
   2  -1   5    0.30    0.28
   2  -1   5    0.27    0.26
   2   1   5    0.24    0.27
   2   1   5    0.32    0.21
  -2   1  -5    1.02    0.27
   2   1   5    0.42    0.19
   3  -1   5  339.74    8.70
   3  -1   5  349.60    8.95
   3   1   5  338.90    8.68
   3   1   5  336.64    8.94
  -3   1  -5  336.66    8.92
   4  -1   5    0.90    0.45
   4  -1   5    0.86    0.33
   4   1   5    0.54    0.42
   4   1   5    1.11    0.31
   5  -1   5   17.83    0.95
   5  -1   5   17.54    0.98
   5   1   5   17.58    0.96
   5   1   5   17.19    0.81
   6  -1   5   -1.12    0.54
   6  -1   5   -0.79    0.59
   6   1   5    0.10    0.60
   6   1   5    0.03    0.54
   7  -1   5   21.83    1.11
   7  -1   5   24.29    1.37
   7   1   5   22.05    1.08
   7   1   5   24.60    1.33
   8  -1   5    0.34    0.64
   8  -1   5   -0.11    0.78
   8   1   5    0.84    0.83
   8   1   5   -1.21    0.71
   9  -1   5   13.29    1.21
   9  -1   5   14.48    1.33
   9   1   5   13.49    1.00
   9   1   5   13.75    1.12
  10  -1   5    0.75    1.11
  10  -1   5    0.03    0.76
  10   1   5    2.51    0.92
  10   1   5    1.67    1.07
  11  -1   5    0.74    1.15
  11  -1   5    0.85    1.23
  11   1   5    0.76    0.98
  11   1   5    1.17    1.20
  11  -2  -5    3.35    1.03
  11  -2  -5    4.56    0.98
 -11  -2   5    3.95    0.82
  11   2  -5    2.79    0.96
 -11   2   5    4.92    1.09
  10  -2  -5   -0.26    0.79
  10  -2  -5    1.16    0.76
 -10  -2   5   -0.18    0.64
 -10   2   5    1.36    0.92
  10   2  -5    0.12    0.76
   9  -2  -5    0.86    0.64
  -9  -2   5    0.55    0.54
   9  -2  -5    1.23    0.72
  -9   2   5    0.45    0.79
   9   2  -5    1.59    0.67
   8  -2  -5    2.60    0.67
   8  -2  -5    5.26    0.81
  -8  -2   5    3.10    0.55
   8   2  -5    3.26    0.60
  -8   2   5    4.05    0.59
   7  -2  -5   16.13    0.91
   7  -2  -5   17.20    0.85
  -7  -2   5   18.21    0.75
   7   2  -5   16.44    0.70
  -7   2   5   16.31    1.01
   7   2  -5   16.47    0.84
  -6  -2   5   11.20    0.58
  -6  -2   5   10.25    0.56
   6  -2  -5    9.75    0.63
   6  -2  -5   10.83    0.84
   6   2  -5    9.09    0.63
   6   2  -5    9.56    0.48
  -6   2   5   12.43    0.81
  -5  -2   5   58.77    1.65
  -5  -2   5   60.34    1.61
   5  -2  -5   58.32    1.78
   5  -2  -5   58.76    1.82
   5   2  -5   61.13    1.71
   5   2  -5   61.93    1.60
  -5   2   5   58.75    1.79
   4  -2  -5    1.87    0.42
  -4  -2   5    1.94    0.20
   4  -2  -5    1.28    0.29
   4   2  -5    2.18    0.16
   4   2  -5    1.87    0.23
  -4   2   5    1.63    0.31
   3  -2  -5    9.07    0.50
  -3  -2   5    8.93    0.28
   3  -2  -5    8.25    0.45
  -3  -2   5    7.76    0.32
   3   2  -5    8.78    0.32
  -3   2   5    9.50    0.49
  -3   2   5    9.43    0.46
   2  -2  -5   61.73    1.85
   2  -2  -5   64.19    1.80
  -2   2   5   66.08    1.79
   2   2  -5   65.78    1.68
  -2   2   5   66.14    1.86
  -1  -2   5   60.99    1.53
  -1  -2   5   60.53    1.53
   1  -2  -5   60.67    1.76
   1  -2  -5   62.32    1.69
   1   2  -5   56.95    1.60
  -1   2   5   60.08    1.73
  -1   2   5   62.36    1.66
   0  -2   5   45.87    1.21
   0  -2  -5   45.53    1.34
   0  -2   5   46.21    1.23
   0  -2  -5   47.61    1.32
   0  -2  -5   46.08    1.38
   0  -2   5   47.75    1.22
   0   2   5   45.26    1.37
   0   2  -5   44.53    1.28
   0   2   5   47.63    1.39
   0   2  -5   47.17    1.22
   0   2   5   45.52    1.32
   1  -2   5  153.85    3.91
  -1  -2  -5  148.96    4.09
  -1  -2  -5  158.32    3.95
   1  -2   5  147.84    3.98
  -1  -2  -5  150.23    3.95
   1   2   5  152.54    4.07
   1   2   5  148.55    3.94
  -1   2  -5  156.52    3.95
   1   2   5  155.28    4.10
  -1   2  -5  150.75    4.02
   2  -2   5    3.76    0.37
  -2  -2  -5    3.00    0.33
   2  -2   5    3.78    0.31
  -2  -2  -5    3.72    0.34
  -2  -2  -5    3.59    0.44
  -2   2  -5    3.52    0.32
   2   2   5    3.47    0.31
   2   2   5    4.31    0.40
   3  -2   5    0.07    0.29
   3  -2   5   -0.03    0.31
   3   2   5    0.34    0.26
  -3   2  -5    0.10    0.27
   3   2   5    0.25    0.33
   4  -2   5   23.52    0.97
   4  -2   5   23.22    0.89
   4   2   5   23.59    0.95
   4   2   5   22.89    0.98
   5  -2   5   82.77    2.40
   5  -2   5   81.22    2.33
   5   2   5   80.99    2.36
   5   2   5   73.87    2.38
   6  -2   5    2.90    0.67
   6  -2   5    1.93    0.52
   6   2   5    2.02    0.65
   6   2   5    2.96    0.62
   7  -2   5   24.50    1.37
   7  -2   5   23.85    1.23
   7   2   5   28.22    1.30
   7   2   5   26.76    1.39
   8  -2   5    0.08    0.83
   8  -2   5   -0.80    0.85
   8   2   5    0.46    0.70
   8   2   5    0.29    0.83
   9  -2   5    0.18    0.97
   9  -2   5    0.46    1.03
   9   2   5    1.44    0.75
   9   2   5    0.85    0.75
  10  -2   5   -1.18    1.13
  10  -2   5   -1.37    0.76
  10   2   5    1.50    1.09
  10   2   5    1.39    0.89
  11  -2   5   -1.38    1.29
  11  -2   5    2.53    1.24
 -11   2  -5   -0.93    1.21
  11   2   5    5.43    1.29
 -11  -3   5   -0.17    0.77
  11  -3  -5   -0.97    0.87
  11  -3  -5   -0.53    1.05
 -11   3   5   -1.23    1.08
  11   3  -5    0.94    0.85
  10  -3  -5    7.79    1.00
  10  -3  -5    7.43    1.09
 -10  -3   5    8.47    0.81
 -10   3   5    6.59    1.10
  10   3  -5    7.68    0.99
  -9  -3   5    8.66    0.71
   9  -3  -5    8.25    0.99
   9  -3  -5    7.98    1.10
   9   3  -5    9.09    0.81
  -9   3   5    7.46    1.02
  -8  -3   5    1.12    0.47
   8  -3  -5    1.60    0.57
   8  -3  -5    1.31    0.62
   8   3  -5    1.39    0.59
  -8   3   5    1.02    0.58
   7  -3  -5   10.99    0.86
  -7  -3   5    9.93    0.65
   7  -3  -5   11.88    0.88
   7   3  -5    9.96    0.77
  -7   3   5    9.37    0.85
  -6  -3   5    5.97    0.46
   6  -3  -5    6.41    0.73
   6  -3  -5    6.54    0.68
  -6   3   5    5.33    0.56
   6   3  -5    5.27    0.49
  -5  -3   5    5.52    0.39
   5  -3  -5    5.94    0.56
  -5  -3   5    6.39    0.36
   5  -3  -5    6.37    0.63
   5   3  -5    6.29    0.25
   5   3  -5    6.72    0.47
  -5   3   5    6.31    0.63
  -4  -3   5   12.71    0.39
  -4  -3   5   12.90    0.39
   4  -3  -5   12.31    0.82
   4  -3  -5   13.18    0.77
  -4   3   5   11.99    0.83
   4   3  -5   12.64    0.49
  -4   3   5   12.65    0.65
   3  -3  -5   71.56    2.06
   3  -3  -5   73.72    2.12
   3   3  -5   68.19    1.88
  -3   3   5   71.95    2.02
   3   3  -5   73.55    1.89
  -3   3   5   72.93    2.14
   2  -3  -5    0.38    0.29
   2  -3  -5    0.37    0.36
   2   3  -5    0.50    0.06
   2   3  -5    0.47    0.08
  -2   3   5    0.65    0.39
  -2   3   5    0.16    0.33
   1  -3  -5   24.24    0.92
   1  -3  -5   21.86    0.79
  -1  -3   5   22.41    0.60
   1   3  -5   22.28    0.65
  -1   3   5   23.99    0.84
  -1   3   5   23.00    0.89
   0  -3  -5   37.61    1.14
   0  -3  -5   38.50    1.25
   0  -3   5   37.07    1.01
   0   3  -5   36.75    1.06
   0   3   5   34.82    1.20
   0   3  -5   35.67    1.01
   0   3   5   39.51    1.17
   0   3  -5   37.59    0.98
   1  -3   5   26.46    0.81
  -1  -3  -5   25.67    0.95
  -1  -3  -5   27.12    0.96
   1   3   5   26.57    0.96
  -1   3  -5   27.08    0.86
   1   3   5   26.73    0.88
  -1   3  -5   26.68    0.78
   2  -3   5    9.72    0.48
   2  -3   5    8.95    0.49
  -2  -3  -5   10.49    0.64
  -2  -3  -5    9.27    0.67
   2   3   5    9.85    0.57
   2   3   5    8.84    0.61
  -2   3  -5    9.88    0.50
  -2   3  -5    9.37    0.45
  -3  -3  -5   54.67    1.69
   3  -3   5   56.90    1.70
   3  -3   5   57.58    1.68
  -3   3  -5   56.17    1.63
   3   3   5   60.07    1.72
  -3   3  -5   58.91    1.72
   3   3   5   57.40    1.78
   4  -3   5   19.54    0.87
   4  -3   5   20.03    0.91
   4   3   5   20.90    0.92
  -4   3  -5   20.95    0.87
   4   3   5   19.60    0.96
   5  -3   5    4.51    0.61
   5  -3   5    4.58    0.59
   5   3   5    3.44    0.62
   5   3   5    4.32    0.58
  -5   3  -5    4.18    0.59
   6  -3   5   22.13    1.21
   6  -3   5   24.65    1.21
  -6   3  -5   22.11    1.17
   6   3   5   22.69    1.23
   6   3   5   22.68    1.13
   7  -3   5    3.07    0.80
   7  -3   5    3.69    0.84
  -7   3  -5    3.18    0.63
   7   3   5    4.35    0.59
   7   3   5    4.13    0.67
   8  -3   5   -1.28    0.82
   8  -3   5   -1.12    0.87
  -8   3  -5   -0.36    0.86
   8   3   5    0.64    0.63
   8   3   5    0.47    0.65
   9  -3   5    3.24    1.09
   9  -3   5    1.26    1.05
   9   3   5    3.29    0.98
  -9   3  -5    1.10    0.98
  10  -3   5    2.89    1.21
  10  -3   5    2.18    0.95
  10   3   5    5.82    1.20
 -10   3  -5    2.82    0.91
  10  -4  -5   -1.45    1.12
  10  -4  -5   -0.68    0.74
 -10  -4   5   -0.40    0.60
  10   4  -5   -0.21    0.75
 -10   4   5   -1.06    0.78
  -9  -4   5   -0.58    0.49
   9  -4  -5   -0.36    0.88
   9  -4  -5   -0.56    0.96
  -9   4   5    0.02    0.95
   9   4  -5   -0.12    0.67
   8  -4  -5    3.57    0.97
   8  -4  -5    4.53    0.91
  -8  -4   5    4.58    0.49
  -8   4   5    4.54    0.74
   8   4  -5    4.14    0.65
  -7  -4   5    8.89    0.57
   7  -4  -5    9.19    0.99
   7  -4  -5    9.63    0.93
   7   4  -5    8.41    0.65
  -7   4   5    8.88    0.78
   6  -4  -5    6.77    0.72
   6  -4  -5    6.04    0.78
  -6  -4   5    7.90    0.42
  -6   4   5    7.63    0.80
   6   4  -5    6.79    0.52
  -5  -4   5   21.03    0.60
  -5  -4   5   21.48    0.60
   5  -4  -5   20.44    1.02
   5  -4  -5   21.96    0.99
  -5   4   5   21.19    0.97
   5   4  -5   22.48    0.80
  -5   4   5   23.80    1.08
   4  -4  -5    6.80    0.72
   4  -4  -5    6.58    0.58
   4   4  -5    6.84    0.33
  -4   4   5    7.15    0.63
   4   4  -5    5.72    0.41
  -4   4   5    7.52    0.66
   3  -4  -5    0.66    0.53
   3  -4  -5    1.14    0.50
   3   4  -5    0.32    0.20
  -3   4   5    1.43    0.55
   3   4  -5    0.90    0.16
  -3   4   5    0.56    0.36
   2  -4  -5   47.73    1.50
   2  -4  -5   48.73    1.57
   2   4  -5   48.28    1.32
   2   4  -5   51.06    1.32
  -2   4   5   48.48    1.57
  -2   4   5   47.52    1.53
   1  -4  -5   55.22    1.77
  -1  -4   5   54.08    1.43
   1  -4  -5   55.72    1.69
   1   4  -5   54.50    1.51
  -1   4   5   55.53    1.66
  -1   4   5   56.45    1.76
   1   4  -5   54.95    1.51
   0  -4   5    8.89    0.42
   0  -4  -5    9.18    0.68
   0  -4  -5    9.46    0.72
   0   4  -5    9.11    0.34
   0   4  -5    9.16    0.45
   0   4   5    9.56    0.63
   0   4   5    9.71    0.70
  -1  -4  -5   27.04    1.04
   1  -4   5   26.50    0.85
  -1  -4  -5   27.76    1.09
   1   4   5   25.30    0.98
   1   4   5   25.63    0.97
  -1   4  -5   25.61    0.89
  -1   4  -5   26.16    0.80
   2  -4   5   12.23    0.57
  -2  -4  -5   12.63    0.79
   2  -4   5   13.18    0.61
  -2  -4  -5   12.69    0.80
  -2   4  -5   11.73    0.57
   2   4   5   12.00    0.71
   2   4   5   14.18    0.80
  -3  -4  -5   -0.13    0.46
   3  -4   5    0.20    0.35
   3  -4   5    0.21    0.43
   3   4   5   -0.05    0.39
   3   4   5    0.13    0.47
  -3   4  -5    0.22    0.33
   4  -4   5   17.69    0.92
   4  -4   5   18.42    0.85
   4   4   5   18.70    1.02
  -4   4  -5   17.97    0.85
   4   4   5   19.64    0.93
   5  -4   5    2.57    0.55
   5  -4   5    2.56    0.62
   5   4   5    3.73    0.56
   5   4   5    3.38    0.67
  -5   4  -5    3.25    0.57
   6  -4   5    0.66    0.59
   6  -4   5    0.28    0.70
   6   4   5    1.38    0.70
  -6   4  -5    0.82    0.64
   7  -4   5   -0.02    0.72
   7  -4   5    0.34    0.83
   7   4   5    1.35    0.77
  -7   4  -5    0.94    0.74
   8  -4   5   -0.51    0.95
   8   4   5    2.71    0.92
   9  -4   5    0.27    1.08
   9   4   5    1.17    1.00
   8  -5  -5   -0.48    0.92
   8  -5  -5    0.12    0.95
  -8   5   5   -1.27    0.91
  -8   5   5   -0.75    1.06
   7  -5  -5    0.51    0.84
   7  -5  -5    1.55    0.91
  -7   5   5   -0.50    0.84
  -7   5   5    0.14    0.98
   6  -5  -5   13.38    1.05
   6  -5  -5   12.13    0.93
  -6   5   5   11.09    1.12
  -6   5   5   11.26    0.99
   5  -5  -5    1.17    0.72
   5  -5  -5    1.87    0.56
  -5   5   5    2.94    0.84
  -5   5   5    1.28    0.71
   5   5  -5    1.41    0.36
   4  -5  -5   17.61    1.15
   4  -5  -5   17.19    0.94
   4   5  -5   15.37    0.67
  -4   5   5   18.30    1.08
  -4   5   5   17.63    1.23
   3  -5  -5    6.24    0.73
   3  -5  -5    5.93    0.74
  -3   5   5    6.18    0.65
   3   5  -5    5.77    0.44
  -3   5   5    5.75    0.80
   2  -5  -5    1.21    0.58
   2  -5  -5    1.56    0.60
  -2   5   5    1.19    0.60
   2   5  -5    1.21    0.25
  -2   5   5    0.64    0.51
   1  -5  -5    3.23    0.60
   1  -5  -5    2.09    0.59
  -1  -5   5    2.16    0.24
  -1   5   5    1.68    0.59
   1   5  -5    2.15    0.32
  -1   5   5    2.94    0.53
   0  -5  -5   18.71    1.01
   0  -5  -5   18.66    1.03
   0  -5   5   19.85    0.71
   0   5  -5   19.41    0.78
   0   5   5   20.29    1.04
   0   5   5   17.36    0.90
  -1  -5  -5    0.19    0.54
  -1  -5  -5   -0.26    0.49
   1  -5   5    0.12    0.36
   1   5   5   -0.15    0.41
   1   5   5    0.55    0.54
  -2  -5  -5    1.15    0.57
   2  -5   5    1.35    0.42
  -2  -5  -5    1.66    0.53
   2   5   5    0.57    0.44
   2   5   5    1.77    0.58
   3  -5   5    2.24    0.52
  -3  -5  -5    1.70    0.67
   3   5   5    1.74    0.59
   4  -5   5    4.53    0.67
   4   5   5    5.25    0.71
   5  -5   5    0.76    0.64
   5   5   5    0.91    0.66
   6  -5   5    2.62    0.80
   6   5   5    4.61    0.84
   7  -5   5    0.33    0.87
   7   5   5    1.38    0.81
   8  -5   5   -0.71    0.97
   8   5   5    1.18    0.91
   6  -6  -5    0.43    0.91
  -6   6   5    0.03    0.76
   5  -6  -5   -0.37    0.81
  -5   6   5    0.49    0.95
   4  -6  -5    4.80    0.84
  -4   6   5    4.52    0.78
   3  -6  -5    1.78    0.76
  -3   6   5    0.69    0.77
   2  -6  -5   11.67    0.98
  -2   6   5   11.77    1.01
   1  -6  -5    3.89    0.71
  -1   6   5    3.14    0.75
   1   6  -5    3.54    0.44
   0  -6  -5    1.09    0.68
   0  -6   5    0.23    0.37
   0   6  -5    0.01    0.44
   0   6   5    0.87    0.68
  -1  -6  -5    1.57    0.66
   1  -6   5    1.64    0.46
  -1   6  -5    2.01    0.52
   1   6   5    1.34    0.66
  -2  -6  -5    6.80    0.87
   2  -6   5    5.79    0.62
   2   6   5    5.98    0.80
   3  -6   5   -1.13    0.54
   3   6   5   -0.09    0.68
   4  -6   5    3.40    0.72
   4   6   5    4.90    0.81
   5  -6   5   -0.52    0.66
   5   6   5    0.49    0.85
   6  -6   5   -1.42    0.85
   6   6   5    1.02    0.83
   2  -7  -5    0.99    0.92
  -2   7   5    1.31    0.89
   1  -7  -5    0.03    0.88
  -1   7   5   -0.14    0.82
   0  -7  -5    6.32    0.98
   0   7   5    4.50    0.90
  -1  -7  -5    0.52    0.77
  -1   7  -5   -1.07    0.62
   1   7   5    0.18    0.79
  -2  -7  -5    4.30    0.92
   2   7   5    0.71    0.80
  -2   7  -5   -0.62    0.71
 -12   0   6    3.43    0.98
  12   0  -6    3.13    0.96
 -11   0   6    0.81    0.88
  11   0  -6   -0.41    0.98
  10   0  -6    0.71    0.61
 -10   0   6    1.01    0.58
  10   0  -6    0.82    0.84
  -9   0   6    0.11    0.61
   9   0  -6    0.22    0.54
   9   0  -6   -0.72    0.68
   8   0  -6   87.33    2.51
  -8   0   6   88.94    2.53
   8   0  -6   93.23    2.75
  -7   0   6   -0.01    0.44
   7   0  -6    0.19    0.46
   7   0  -6   -0.17    0.39
   6   0  -6  153.37    4.21
  -6   0   6  156.51    4.07
   6   0  -6  155.71    4.07
   5   0  -6    0.09    0.28
   5   0  -6    0.09    0.32
  -5   0   6    0.20    0.27
  -5   0   6   -0.11    0.30
  -4   0   6    0.54    0.23
   4   0  -6    0.47    0.27
  -4   0   6    0.17    0.24
  -4   0   6    0.10    0.22
   4   0  -6    0.29    0.21
   3   0  -6   -0.28    0.17
  -3   0   6   -0.08    0.19
   3   0  -6    0.01    0.22
  -3   0   6    0.04    0.13
  -3   0   6   -0.08    0.18
  -2   0   6  193.87    5.06
  -2   0   6  199.68    5.21
  -2   0   6  201.93    5.07
   2   0  -6  202.15    5.07
  -2   0   6  205.29    5.22
   2   0  -6  201.19    5.21
   2   0  -6  194.89    5.22
   2   0  -6  198.14    5.06
   1   0  -6   -0.10    0.14
   1   0  -6   -0.17    0.15
  -1   0   6   -0.05    0.15
   1   0  -6   -0.05    0.14
  -1   0   6   -0.05    0.10
   1   0  -6    0.05    0.16
  -1   0   6   -0.06    0.15
  -1   0   6    0.33    0.16
   0   0   6  203.11    5.45
   0   0   6  206.06    5.30
   0   0   6  209.71    5.46
   0   0   6  207.60    5.30
   0   0  -6  206.32    5.30
   0   0  -6  211.32    5.29
   0   0  -6  216.26    5.46
   0   0  -6  208.29    5.47
   1   0   6   -0.17    0.22
   1   0   6    0.04    0.19
   1   0   6   -0.05    0.21
  -1   0  -6   -0.06    0.18
  -1   0  -6   -0.29    0.16
  -1   0  -6   -0.21    0.20
   1   0   6    0.03    0.21
   2   0   6    2.80    0.32
   2   0   6    2.98    0.30
   2   0   6    2.92    0.28
  -2   0  -6    2.20    0.36
   3   0   6   -0.50    0.33
   3   0   6   -0.15    0.26
   4   0   6   89.64    2.65
   4   0   6   89.02    2.55
   5   0   6   -0.21    0.38
   5   0   6   -0.04    0.37
   6   0   6   13.31    1.06
   6   0   6   13.53    0.93
   7   0   6    0.10    0.50
   7   0   6    1.47    0.76
   8   0   6    8.70    1.06
   8   0   6    8.68    0.98
   9   0   6    0.71    0.98
   9   0   6   -0.28    0.87
  10   0   6    4.80    1.07
  10   0   6    4.91    1.22
  11   0   6    2.82    1.25
  11   0   6    1.18    1.08
 -12  -1   6   -0.78    0.88
  12  -1  -6   -1.70    1.18
  12   1  -6   -0.28    1.04
 -12   1   6   -1.21    1.05
  11  -1  -6    0.31    0.81
  11  -1  -6    0.44    1.07
 -11  -1   6    0.71    0.78
 -11   1   6    0.64    0.92
  11   1  -6    1.85    0.96
  10  -1  -6   14.13    1.23
  10  -1  -6   13.80    1.01
 -10  -1   6   12.44    0.94
 -10   1   6   10.21    0.86
  10   1  -6   15.13    1.12
   9  -1  -6   -0.05    0.78
  -9  -1   6   -0.04    0.56
   9  -1  -6   -0.33    0.59
   9   1  -6   -0.21    0.63
  -9   1   6   -0.35    0.49
   8  -1  -6   26.21    1.32
  -8  -1   6   27.23    1.07
   8  -1  -6   26.91    1.16
  -8   1   6   26.71    1.21
   8   1  -6   26.69    1.19
   8   1  -6   24.81    0.99
  -7  -1   6    2.15    0.41
  -7  -1   6    1.66    0.41
   7  -1  -6    1.73    0.58
   7  -1  -6    1.64    0.39
  -7   1   6    1.73    0.41
   7   1  -6    1.60    0.36
   7   1  -6    1.26    0.45
   6  -1  -6    3.25    0.46
  -6  -1   6    3.57    0.38
  -6  -1   6    3.74    0.38
   6  -1  -6    3.36    0.54
   6   1  -6    3.49    0.37
  -6   1   6    3.42    0.41
   6   1  -6    2.89    0.41
  -5  -1   6    0.03    0.24
  -5  -1   6    0.24    0.22
   5  -1  -6    0.43    0.26
   5  -1  -6    0.47    0.40
  -5  -1   6    0.15    0.22
  -5   1   6    0.02    0.26
   5   1  -6    0.30    0.31
   5   1  -6    0.22    0.21
  -4  -1   6  132.71    3.44
   4  -1  -6  134.65    3.51
   4  -1  -6  132.92    3.64
  -4  -1   6  132.49    3.51
  -4  -1   6  133.57    3.43
  -4   1   6  133.60    3.51
   4   1  -6  136.70    3.43
   4   1  -6  133.81    3.56
  -4   1   6  133.20    3.60
  -3  -1   6    0.09    0.15
   3  -1  -6   -0.13    0.26
   3  -1  -6    0.14    0.28
  -3  -1   6    0.03    0.15
  -3  -1   6    0.14    0.14
   3   1  -6   -0.05    0.15
  -3   1   6   -0.01    0.27
  -3   1   6    0.14    0.27
   3   1  -6    0.09    0.17
  -3   1   6    0.03    0.23
  -2  -1   6   60.43    1.54
   2  -1  -6   56.45    1.66
   2  -1  -6   56.29    1.59
  -2  -1   6   56.96    1.50
  -2  -1   6   57.78    1.50
   2   1  -6   57.66    1.50
  -2   1   6   59.46    1.59
   2   1  -6   57.70    1.56
  -2   1   6   55.30    1.63
   2   1  -6   58.79    1.49
   2   1  -6   57.53    1.55
  -2   1   6   56.46    1.58
   1  -1  -6    1.97    0.22
  -1  -1   6    2.03    0.15
   1  -1  -6    1.80    0.21
   1  -1  -6    1.93    0.25
  -1  -1   6    2.16    0.17
  -1  -1   6    1.93    0.16
  -1   1   6    1.95    0.27
   1   1  -6    1.71    0.19
  -1   1   6    2.21    0.25
   1   1  -6    1.79    0.14
   1   1  -6    2.51    0.18
  -1   1   6    1.90    0.21
   1   1  -6    1.71    0.17
   0  -1  -6  102.74    2.67
   0  -1   6   98.16    2.55
   0  -1   6  102.04    2.61
   0  -1  -6   99.59    2.62
   0  -1  -6   97.30    2.70
   0  -1  -6   97.92    2.60
   0  -1   6   95.53    2.55
   0  -1   6   91.54    2.64
   0   1   6   94.94    2.66
   0   1   6  101.84    2.74
   0   1  -6  101.17    2.64
   0   1  -6  102.35    2.54
   0   1   6   97.38    2.58
   0   1  -6   95.67    2.63
   0   1   6   98.69    2.59
   1  -1   6   28.34    0.97
  -1  -1  -6   28.44    0.96
   1  -1   6   30.86    0.93
   1  -1   6   28.52    0.92
  -1  -1  -6   29.99    0.94
   1   1   6   28.99    0.90
   1   1   6   28.91    0.89
  -1   1  -6   31.12    0.97
   1   1   6   29.68    0.97
  -1   1  -6   32.44    0.93
   2  -1   6  212.16    5.40
   2  -1   6  205.51    5.54
   2   1   6  205.08    5.53
  -2   1  -6  212.69    5.54
   2   1   6  206.21    5.37
   3  -1   6    5.46    0.46
   3  -1   6    4.85    0.49
  -3   1  -6    6.42    0.50
   3   1   6    5.81    0.46
   3   1   6    6.08    0.48
   4  -1   6   17.35    0.91
   4  -1   6   18.83    0.90
   4   1   6   17.25    0.80
   4   1   6   17.37    0.76
   5  -1   6   -0.61    0.50
   5  -1   6    0.07    0.55
   5   1   6    0.22    0.52
   5   1   6    0.24    0.37
   6  -1   6   16.08    0.92
   6  -1   6   16.61    0.96
   6   1   6   17.39    0.91
   6   1   6   17.97    1.10
   7  -1   6    1.11    0.78
   7  -1   6    0.66    0.74
   7   1   6    0.92    0.52
   7   1   6    2.24    0.77
   8  -1   6   15.21    1.20
   8  -1   6   16.24    1.19
   8   1   6   17.77    1.27
   8   1   6   17.66    1.17
   9  -1   6    3.17    0.98
   9  -1   6    1.74    1.06
   9   1   6    4.43    1.06
   9   1   6    3.08    0.71
  10  -1   6    1.46    0.88
  10  -1   6    1.16    0.80
  10   1   6    2.24    0.95
  10   1   6    1.36    1.13
  11  -1   6   -1.11    1.26
  11  -1   6    0.92    1.17
  11   1   6   -0.21    1.00
  11   1   6    1.71    1.26
  11  -2  -6    0.25    0.69
 -11  -2   6   -0.23    0.71
  11  -2  -6   -1.59    1.10
  11   2  -6   -0.36    0.84
 -11   2   6   -0.12    1.00
  10  -2  -6   -0.01    0.59
  10  -2  -6    0.50    0.99
 -10  -2   6    0.37    0.68
  10   2  -6    0.54    0.74
 -10   2   6   -0.61    0.84
   9  -2  -6    3.89    0.63
  -9  -2   6    3.23    0.62
   9  -2  -6    3.12    0.92
   9   2  -6    3.25    0.74
  -9   2   6    4.42    0.87
  -8  -2   6   15.17    0.88
   8  -2  -6   16.45    1.08
   8  -2  -6   15.81    1.01
   8   2  -6   16.95    0.93
  -8   2   6   16.54    1.12
  -7  -2   6    1.02    0.38
   7  -2  -6    1.05    0.48
   7  -2  -6    1.46    0.45
   7   2  -6    0.95    0.47
  -7   2   6    1.18    0.61
  -6  -2   6   44.62    1.37
  -6  -2   6   47.20    1.34
   6  -2  -6   48.51    1.55
   6  -2  -6   48.19    1.64
  -6  -2   6   44.91    1.30
   6   2  -6   46.76    1.44
  -6   2   6   46.26    1.48
   6   2  -6   47.86    1.31
  -5  -2   6    3.60    0.20
   5  -2  -6    4.06    0.47
   5  -2  -6    3.50    0.41
  -5  -2   6    4.44    0.30
  -5  -2   6    3.94    0.32
   5   2  -6    4.19    0.31
  -5   2   6    3.39    0.50
   5   2  -6    4.08    0.34
  -4  -2   6    3.45    0.26
   4  -2  -6    3.19    0.44
  -4  -2   6    3.45    0.25
   4  -2  -6    3.16    0.47
  -4   2   6    3.72    0.47
   4   2  -6    3.41    0.20
   4   2  -6    3.40    0.26
  -4   2   6    3.03    0.35
   3  -2  -6    1.48    0.40
  -3  -2   6    1.36    0.12
   3  -2  -6    1.56    0.36
  -3  -2   6    1.23    0.14
  -3   2   6    1.87    0.39
  -3   2   6    1.02    0.34
   3   2  -6    1.33    0.16
   2  -2  -6  291.63    7.64
  -2  -2   6  293.66    7.28
  -2  -2   6  282.06    7.32
   2  -2  -6  288.13    7.40
  -2   2   6  294.48    7.62
  -2   2   6  294.28    7.40
   2   2  -6  279.63    7.51
   2   2  -6  299.07    7.51
  -1  -2   6   29.52    0.82
   1  -2  -6   29.58    1.00
  -1  -2   6   30.31    0.80
   1  -2  -6   31.68    0.99
  -1   2   6   29.88    0.93
  -1   2   6   29.82    0.97
   1   2  -6   30.59    0.85
   0  -2  -6  211.56    5.47
   0  -2  -6  207.99    5.65
   0  -2   6  214.49    5.48
   0  -2   6  218.25    5.48
   0  -2   6  213.86    5.39
   0   2  -6  222.61    5.36
   0   2  -6  197.69    5.55
   0   2   6  214.02    5.46
   0   2   6  213.97    5.63
  -1  -2  -6   50.33    1.57
  -1  -2  -6   52.70    1.52
   1  -2   6   52.32    1.46
   1  -2   6   51.68    1.44
  -1   2  -6   52.30    1.51
   1   2   6   51.11    1.53
   1   2   6   52.87    1.50
   2  -2   6    0.21    0.24
  -2  -2  -6   -0.19    0.34
  -2  -2  -6    0.01    0.27
   2  -2   6   -0.08    0.28
   2   2   6   -0.01    0.23
  -2   2  -6    0.13    0.25
   2   2   6    0.00    0.24
   3  -2   6    0.14    0.37
   3  -2   6    0.74    0.33
   3   2   6    1.31    0.37
  -3   2  -6    1.36    0.34
   3   2   6    0.99    0.31
   4  -2   6   31.60    1.17
   4  -2   6   32.42    1.11
   4   2   6   28.78    1.07
   4   2   6   29.78    1.20
   5  -2   6   13.72    0.96
   5  -2   6   17.00    0.97
   5   2   6   15.67    0.97
   5   2   6   16.26    0.80
   6  -2   6    2.97    0.70
   6  -2   6    3.13    0.71
   6   2   6    3.36    0.57
   6   2   6    3.37    0.65
   7  -2   6   10.36    0.89
   7  -2   6   12.92    0.93
   7   2   6   12.23    0.93
   7   2   6   12.00    0.94
   8  -2   6   -0.26    0.87
   8  -2   6    1.27    0.71
   8   2   6    1.38    0.74
   8   2   6    1.26    0.64
   9  -2   6   -0.54    0.75
   9  -2   6   -0.59    0.99
   9   2   6    0.53    0.60
   9   2   6    0.69    0.99
  10  -2   6    1.08    0.90
  10  -2   6   -0.14    0.83
  10   2   6    1.52    0.84
  10   2   6    2.56    0.94
  11  -2   6    0.01    1.23
  11  -2   6   -0.99    1.21
  11   2   6    2.43    1.24
  11  -3  -6   -0.49    0.75
 -11  -3   6   -0.14    0.67
  11  -3  -6   -1.73    1.18
 -11   3   6   -1.48    1.09
  11   3  -6    0.05    0.78
  10  -3  -6    4.51    1.16
 -10  -3   6    3.20    0.65
  10  -3  -6    3.55    0.77
 -10   3   6    3.22    1.05
  10   3  -6    4.80    0.77
  -9  -3   6    0.75    0.51
   9  -3  -6    0.23    0.92
   9  -3  -6   -0.07    0.59
   9   3  -6   -0.59    0.60
  -9   3   6    0.06    0.65
  -8  -3   6    3.66    0.48
   8  -3  -6    4.03    0.80
   8  -3  -6    3.94    0.90
  -8   3   6    3.42    0.83
   8   3  -6    3.56    0.58
   7  -3  -6   15.88    1.17
   7  -3  -6   14.61    1.08
  -7  -3   6   13.89    0.67
  -7   3   6   15.16    1.11
   7   3  -6   13.24    0.81
   6  -3  -6    8.77    0.77
   6  -3  -6    8.43    0.82
  -6  -3   6    8.94    0.47
  -6   3   6    7.35    0.75
   6   3  -6    8.70    0.58
   5  -3  -6   26.70    1.13
  -5  -3   6   26.79    0.75
   5  -3  -6   26.64    1.20
  -5  -3   6   25.23    0.78
  -5   3   6   26.98    1.14
  -5   3   6   27.58    1.09
   5   3  -6   25.26    0.85
   4  -3  -6   58.70    1.88
   4  -3  -6   57.98    1.80
  -4   3   6   59.45    1.74
  -4   3   6   57.08    1.81
   4   3  -6   58.64    1.57
   3  -3  -6    1.38    0.44
   3  -3  -6    1.46    0.48
  -3   3   6    1.54    0.43
  -3   3   6    1.42    0.47
   3   3  -6    1.26    0.08
   3   3  -6    1.80    0.09
   2  -3  -6   18.47    0.86
   2  -3  -6   17.91    0.80
  -2   3   6   16.62    0.83
  -2   3   6   17.91    0.79
   1  -3  -6   50.24    1.54
   1  -3  -6   48.24    1.45
  -1  -3   6   46.18    1.20
  -1  -3   6   46.12    1.20
   1   3  -6   45.73    1.29
  -1   3   6   50.22    1.51
  -1   3   6   48.19    1.43
   0  -3  -6   27.79    1.02
   0  -3   6   29.46    0.82
   0  -3  -6   28.41    1.02
   0   3  -6   28.25    0.88
   0   3  -6   28.02    0.79
   0   3  -6   29.23    0.77
   0   3   6   29.32    0.99
   0   3   6   29.86    1.00
  -1  -3  -6    8.34    0.61
  -1  -3  -6    8.24    0.62
   1  -3   6    8.42    0.45
   1  -3   6    8.37    0.36
  -1   3  -6    8.17    0.39
   1   3   6    8.51    0.57
  -1   3  -6    8.09    0.46
   1   3   6    8.20    0.61
   2  -3   6   70.83    1.99
   2  -3   6   71.48    1.99
  -2  -3  -6   72.50    2.08
  -2  -3  -6   70.45    2.18
   2   3   6   72.83    2.05
  -2   3  -6   72.83    2.05
  -2   3  -6   71.12    1.95
   2   3   6   71.62    2.13
   3  -3   6    3.08    0.37
   3  -3   6    3.26    0.48
  -3  -3  -6    3.02    0.42
   3   3   6    2.94    0.46
  -3   3  -6    3.96    0.42
  -3   3  -6    3.31    0.39
   3   3   6    3.49    0.42
   4  -3   6    6.52    0.59
   4  -3   6    6.49    0.55
   4   3   6    6.38    0.53
   4   3   6    5.82    0.64
   5  -3   6    2.12    0.62
   5  -3   6    2.33    0.54
   5   3   6    2.11    0.44
   5   3   6    2.82    0.65
   6  -3   6    9.14    0.85
   6  -3   6    8.65    0.83
   6   3   6    7.61    0.84
   6   3   6    8.11    0.78
   7  -3   6   -0.61    0.72
   7  -3   6   -1.13    0.77
  -7   3  -6   -0.20    0.56
   7   3   6    0.37    0.76
   7   3   6    0.36    0.49
   8  -3   6    5.38    1.08
   8  -3   6    6.45    0.86
  -8   3  -6    4.11    0.98
   8   3   6    6.33    0.83
   8   3   6    4.95    0.99
   9  -3   6   -0.60    1.07
   9  -3   6   -1.22    1.01
   9   3   6    0.89    0.98
  -9   3  -6   -2.49    0.96
  10  -3   6   -0.80    1.16
  10  -3   6   -2.24    1.15
 -10   3  -6   -0.39    1.10
  10   3   6    1.66    1.06
  10  -4  -6   -0.86    1.13
  10  -4  -6   -0.27    1.01
 -10   4   6   -0.42    1.06
  10   4  -6   -0.57    0.68
  -9  -4   6    3.01    0.50
   9  -4  -6    3.13    0.85
   9  -4  -6    4.17    1.01
  -9   4   6    2.27    1.01
   9   4  -6    3.44    0.68
  -8  -4   6    3.40    0.41
   8  -4  -6    3.48    0.71
   8  -4  -6    4.01    0.98
   8   4  -6    3.00    0.57
  -8   4   6    3.17    0.92
   7  -4  -6    1.11    0.59
   7  -4  -6    0.40    0.59
  -7  -4   6    0.23    0.27
  -7   4   6    0.53    0.86
  -7   4   6    0.44    0.77
   7   4  -6    0.16    0.40
  -6  -4   6    5.84    0.28
   6  -4  -6    6.04    0.66
   6  -4  -6    6.31    0.86
  -6   4   6    4.59    0.77
   6   4  -6    5.11    0.42
  -6   4   6    5.34    0.88
   5  -4  -6    8.75    0.80
   5  -4  -6    7.59    0.82
   5   4  -6    7.45    0.43
  -5   4   6    7.49    0.77
  -5   4   6    7.54    0.71
   4  -4  -6    0.68    0.57
   4  -4  -6   -0.19    0.58
  -4   4   6    0.78    0.56
   4   4  -6    0.30    0.14
   4   4  -6    0.16    0.11
  -4   4   6   -0.36    0.61
   3  -4  -6    6.17    0.64
   3  -4  -6    6.52    0.68
  -3   4   6    6.00    0.58
  -3   4   6    5.28    0.61
   2  -4  -6    4.51    0.59
   2  -4  -6    3.78    0.56
   2   4  -6    4.51    0.21
  -2   4   6    4.35    0.50
   2   4  -6    4.08    0.20
  -2   4   6    4.07    0.53
   1  -4  -6    9.77    0.78
  -1  -4   6    9.62    0.29
   1  -4  -6    9.65    0.61
  -1   4   6   11.26    0.72
  -1   4   6   10.86    0.78
   1   4  -6    9.83    0.41
   0  -4  -6    6.22    0.64
   0  -4   6    5.09    0.34
   0  -4  -6    4.46    0.46
   0   4  -6    5.85    0.39
   0   4   6    4.40    0.46
   0   4   6    5.31    0.52
   0   4  -6    5.03    0.22
  -1  -4  -6   41.70    1.42
   1  -4   6   42.74    1.23
   1  -4   6   39.35    1.12
  -1  -4  -6   45.55    1.51
  -1   4  -6   42.87    1.17
   1   4   6   39.96    1.38
  -1   4  -6   43.87    1.33
   1   4   6   40.27    1.31
  -2  -4  -6    2.45    0.55
   2  -4   6    2.63    0.39
  -2  -4  -6    2.19    0.55
   2   4   6    2.85    0.54
  -2   4  -6    2.71    0.35
   2   4   6    2.59    0.46
  -3  -4  -6    7.50    0.59
   3  -4   6    7.86    0.60
   3  -4   6    7.23    0.53
   3   4   6    7.93    0.57
  -3   4  -6    7.24    0.53
   3   4   6    7.61    0.70
   4  -4   6   27.59    1.19
   4  -4   6   26.12    1.08
   4   4   6   25.75    1.12
   4   4   6   28.22    1.25
  -4   4  -6   26.08    1.09
   5  -4   6    6.11    0.73
   5  -4   6    6.35    0.65
  -5   4  -6    5.42    0.69
   5   4   6    6.41    0.80
   5   4   6    6.94    0.69
   6  -4   6   11.77    0.97
   6   4   6   13.85    0.99
   6   4   6   12.76    1.04
   7  -4   6    9.13    1.06
   7   4   6    8.90    1.01
   8  -4   6   -0.50    0.97
   8   4   6    1.95    0.92
   9  -4   6   -2.09    1.08
   9   4   6    1.75    1.03
   8  -5  -6   -1.01    0.92
   8  -5  -6   -0.26    0.99
  -8   5   6   -0.29    0.80
  -8   5   6   -0.42    0.97
   7  -5  -6    6.20    1.05
   7  -5  -6    4.89    0.97
  -7   5   6    4.75    0.97
  -7   5   6    5.12    1.09
   6  -5  -6    5.04    0.72
   6  -5  -6    2.79    0.68
  -6   5   6    5.14    0.99
  -6   5   6    2.73    0.82
   5  -5  -6    3.12    0.65
   5  -5  -6    3.92    0.81
  -5   5   6    2.39    0.75
  -5   5   6    3.34    0.70
   4  -5  -6   12.73    0.95
   4  -5  -6   13.26    0.99
  -4   5   6   11.09    0.88
  -4   5   6   12.06    0.96
   3  -5  -6    1.77    0.65
   3  -5  -6    2.01    0.54
  -3   5   6    2.05    0.56
  -3   5   6    2.13    0.62
   2  -5  -6    2.28    0.65
   2  -5  -6    2.48    0.65
  -2   5   6    2.79    0.58
  -2   5   6    2.04    0.67
   2   5  -6    2.10    0.24
   1  -5  -6   21.97    1.10
   1  -5  -6   20.64    1.12
  -1   5   6   22.42    1.16
   1   5  -6   19.95    0.71
  -1   5   6   20.24    1.02
   0  -5   6    3.90    0.33
   0  -5  -6    4.28    0.65
   0  -5  -6    3.65    0.66
   0   5   6    3.83    0.63
   0   5   6    4.00    0.57
  -1  -5  -6   13.35    1.05
  -1  -5  -6   11.04    0.82
   1  -5   6   12.93    0.66
   1   5   6   11.76    0.87
   1   5   6   13.27    0.83
  -2  -5  -6    7.86    0.73
   2  -5   6    6.46    0.53
  -2  -5  -6    6.55    0.71
   2   5   6    5.50    0.60
   2   5   6    6.30    0.74
   3  -5   6    0.09    0.48
  -3  -5  -6    1.29    0.70
   3   5   6    0.79    0.62
   4  -5   6   -1.17    0.51
   4   5   6    0.77    0.65
   5  -5   6    2.90    0.71
   5   5   6    4.28    0.81
   6  -5   6    0.57    0.78
   6   5   6    2.06    0.83
   7  -5   6   -0.18    0.89
   7   5   6    0.32    0.84
   8  -5   6   -2.01    1.01
   8   5   6    2.18    1.07
   6  -6  -6   -0.27    0.90
  -6   6   6   -1.18    1.03
   5  -6  -6    3.41    0.93
  -5   6   6    2.86    1.01
   4  -6  -6    0.46    0.80
  -4   6   6   -0.13    0.86
   3  -6  -6    8.86    0.95
  -3   6   6    9.38    1.03
   2  -6  -6    3.04    0.75
  -2   6   6    4.39    0.87
   1  -6  -6   -0.44    0.68
  -1   6   6    0.80    0.74
   0  -6  -6    0.84    0.69
   0   6  -6    0.86    0.43
   0   6   6    1.96    0.75
  -1  -6  -6    7.30    0.83
   1  -6   6    6.18    0.52
   1   6   6    5.72    0.82
  -1   6  -6    5.91    0.59
  -2  -6  -6    0.83    0.70
   2  -6   6    0.21    0.50
   2   6   6    0.48    0.70
   3  -6   6    3.41    0.62
   3   6   6    3.37    0.80
   4  -6   6    2.03    0.68
   4   6   6    1.54    0.79
   5  -6   6    0.38    0.68
   5   6   6   -0.10    0.78
   1  -7  -6    3.44    0.91
  -1   7   6    3.56    0.95
   0  -7  -6    0.02    0.82
   0   7   6   -0.42    0.85
  -1  -7  -6    0.51    0.81
 -12   0   7    1.06    0.98
  12   0  -7   -1.55    1.12
  11   0  -7    0.93    0.75
 -11   0   7    2.04    0.86
  10   0  -7   -1.67    0.79
 -10   0   7    0.99    0.69
  -9   0   7    1.22    0.61
   9   0  -7    0.42    0.52
   9   0  -7   -0.10    0.69
  -8   0   7    0.14    0.53
   8   0  -7    0.27    0.46
   8   0  -7    0.39    0.44
   7   0  -7   28.89    1.07
   7   0  -7   29.96    1.20
  -7   0   7   30.33    1.11
   6   0  -7    0.30    0.32
  -6   0   7    0.59    0.38
   6   0  -7    0.18    0.39
  -5   0   7    9.80    0.53
   5   0  -7    9.56    0.51
   5   0  -7    8.86    0.51
  -5   0   7    9.63    0.55
  -5   0   7    9.26    0.51
  -4   0   7    0.21    0.26
   4   0  -7   -0.13    0.23
   4   0  -7    0.32    0.29
  -4   0   7    0.11    0.23
  -4   0   7    0.31    0.23
   3   0  -7   97.40    2.54
  -3   0   7   96.34    2.61
   3   0  -7   95.93    2.64
  -3   0   7   99.98    2.55
  -3   0   7   94.82    2.54
  -2   0   7    0.05    0.19
  -2   0   7   -0.03    0.21
   2   0  -7   -0.11    0.18
   2   0  -7    0.02    0.22
   2   0  -7   -0.12    0.21
  -2   0   7    0.00    0.17
   1   0  -7  186.57    4.67
  -1   0   7  178.26    4.65
  -1   0   7  179.57    4.79
   1   0  -7  184.67    4.79
  -1   0   7  188.53    4.67
   1   0  -7  178.47    4.81
   0   0   7    0.05    0.20
   0   0  -7   -0.09    0.24
   0   0  -7   -0.12    0.21
   0   0  -7   -0.19    0.21
   0   0   7   -0.04    0.18
   0   0   7    0.16    0.22
  -1   0  -7    0.32    0.27
   1   0   7    0.78    0.28
   1   0   7    0.65    0.26
   1   0   7    0.83    0.19
  -1   0  -7    0.26    0.29
   2   0   7    0.06    0.22
   2   0   7    0.51    0.27
  -2   0  -7   -0.39    0.32
   2   0   7   -0.14    0.31
   3   0   7   96.78    2.68
   3   0   7   95.99    2.78
   4   0   7   -0.42    0.44
   4   0   7   -0.03    0.48
   5   0   7   36.35    1.43
   5   0   7   33.09    1.35
   6   0   7    0.19    0.64
   6   0   7   -0.43    0.61
   7   0   7    1.36    0.57
   7   0   7    0.47    0.58
   8   0   7    0.06    0.64
   8   0   7   -0.20    0.79
   9   0   7    8.16    1.00
   9   0   7    6.93    1.07
  10   0   7   -0.20    0.80
  10   0   7    1.11    1.02
  11   0   7    3.59    1.29
  11   0   7    4.04    1.18
 -12  -1   7   -0.25    0.88
 -12   1   7   -0.13    1.02
 -11  -1   7    3.07    0.80
  11  -1  -7    3.79    1.15
 -11   1   7    3.68    0.97
  11   1  -7    4.59    0.99
  10  -1  -7    0.14    0.52
  10  -1  -7   -0.47    0.65
 -10  -1   7   -0.33    0.65
 -10   1   7    1.25    0.81
  10   1  -7   -0.32    0.75
  -9  -1   7    4.21    0.63
   9  -1  -7    4.22    0.69
   9  -1  -7    6.91    0.92
  -9   1   7    4.35    0.74
   9   1  -7    5.59    0.77
   8  -1  -7    0.30    0.54
   8  -1  -7    1.04    0.67
  -8  -1   7   -0.41    0.51
   8   1  -7   -0.09    0.42
   8   1  -7    0.14    0.53
  -8   1   7    0.65    0.60
  -7  -1   7    7.47    0.54
   7  -1  -7    8.30    0.65
   7  -1  -7    9.93    0.79
   7   1  -7    8.20    0.61
  -7   1   7    7.96    0.67
   7   1  -7    8.45    0.63
  -6  -1   7    0.63    0.32
   6  -1  -7    1.12    0.33
  -6  -1   7    1.34    0.33
   6  -1  -7    1.59    0.40
  -6  -1   7    0.97    0.31
   6   1  -7    1.47    0.33
  -6   1   7    1.08    0.45
   6   1  -7    0.89    0.41
  -5  -1   7   83.31    2.21
  -5  -1   7   82.23    2.24
  -5  -1   7   83.09    2.21
   5  -1  -7   81.39    2.27
   5  -1  -7   80.54    2.37
  -5   1   7   80.47    2.29
   5   1  -7   82.93    2.31
   5   1  -7   82.77    2.20
  -5   1   7   84.52    2.37
  -4  -1   7    0.67    0.20
  -4  -1   7    0.73    0.22
   4  -1  -7    0.49    0.27
   4  -1  -7    0.71    0.32
  -4  -1   7    0.66    0.22
  -4   1   7    0.70    0.34
  -4   1   7    0.80    0.26
   4   1  -7    0.66    0.21
   4   1  -7    0.65    0.26
   3  -1  -7   15.82    0.65
  -3  -1   7   14.71    0.53
  -3  -1   7   16.58    0.53
   3  -1  -7   15.66    0.64
  -3  -1   7   17.76    0.54
  -3   1   7   16.48    0.65
   3   1  -7   15.86    0.57
  -3   1   7   16.12    0.67
   3   1  -7   16.04    0.53
   2  -1  -7   12.85    0.57
  -2  -1   7   13.48    0.45
  -2  -1   7   14.42    0.46
   2  -1  -7   12.77    0.56
   2  -1  -7   13.49    0.53
  -2  -1   7   14.61    0.47
   2   1  -7   13.72    0.50
   2   1  -7   13.53    0.45
  -2   1   7   13.44    0.57
   2   1  -7   13.34    0.47
   2   1  -7   13.76    0.44
  -2   1   7   14.63    0.52
  -2   1   7   13.59    0.59
  -1  -1   7   58.82    1.52
  -1  -1   7   54.51    1.54
   1  -1  -7   57.11    1.59
  -1  -1   7   55.95    1.48
  -1  -1   7   55.36    1.49
   1  -1  -7   53.92    1.61
   1  -1  -7   55.36    1.55
  -1   1   7   56.43    1.56
   1   1  -7   57.02    1.47
   1   1  -7   57.32    1.54
   1   1  -7   54.06    1.49
   1   1  -7   55.81    1.55
  -1   1   7   55.92    1.61
  -1   1   7   54.21    1.53
   0  -1  -7    8.27    0.53
   0  -1   7    7.89    0.38
   0  -1  -7    8.30    0.41
   0  -1   7    8.32    0.37
   0  -1   7    8.39    0.38
   0  -1   7    7.78    0.40
   0   1   7    8.22    0.45
   0   1   7    8.32    0.45
   0   1  -7    8.20    0.40
   0   1   7    8.10    0.48
   0   1  -7    7.12    0.43
   1  -1   7   80.18    2.24
  -1  -1  -7   80.62    2.24
   1  -1   7   85.06    2.23
  -1  -1  -7   80.91    2.34
   1  -1   7   80.27    2.31
   1   1   7   83.73    2.25
   1   1   7   83.96    2.31
  -1   1  -7   86.42    2.32
   2  -1   7   42.29    1.38
   2  -1   7   42.53    1.33
  -2  -1  -7   41.07    1.36
   2   1   7   43.40    1.37
   2   1   7   42.17    1.28
  -2   1  -7   45.85    1.35
   3  -1   7    0.53    0.41
   3  -1   7    0.48    0.39
   3   1   7    0.06    0.29
   3   1   7    0.42    0.28
   4  -1   7   13.39    0.86
   4  -1   7   13.21    0.72
   4   1   7   12.58    0.82
   4   1   7   13.55    0.79
   5  -1   7   35.26    1.40
   5  -1   7   38.64    1.47
   5   1   7   34.19    1.27
   5   1   7   34.34    1.33
   6  -1   7    1.33    0.66
   6  -1   7    0.55    0.66
   6   1   7    1.28    0.52
   6   1   7    1.05    0.47
   7  -1   7   15.01    1.05
   7  -1   7   14.94    1.09
   7   1   7   15.57    1.04
   7   1   7   14.43    0.95
   8  -1   7   -0.98    0.83
   8  -1   7    0.56    0.92
   8   1   7    0.97    0.79
   8   1   7    1.88    0.90
   9  -1   7    1.43    0.98
   9  -1   7    0.56    0.76
   9   1   7   -0.15    0.97
   9   1   7   -0.01    0.63
  10  -1   7    0.20    1.14
  10  -1   7    0.94    0.81
  10   1   7    0.35    0.83
  10   1   7    0.50    0.96
  11  -1   7    3.18    1.21
  11  -1   7    2.51    1.00
  11   1   7    3.83    1.02
  11   1   7    4.61    1.13
  11  -2  -7   -0.62    1.11
 -11  -2   7    0.56    0.78
  11  -2  -7   -0.74    0.90
 -11   2   7   -0.52    1.01
  11   2  -7    0.40    0.84
  10  -2  -7    0.63    0.82
  10  -2  -7    1.13    1.00
 -10  -2   7    1.33    0.61
  10   2  -7    1.39    0.81
 -10   2   7   -0.39    0.87
   9  -2  -7   10.51    0.92
  -9  -2   7    9.71    0.74
   9  -2  -7   11.59    0.97
  -9   2   7    9.96    0.83
   9   2  -7    9.06    0.80
  -8  -2   7    1.94    0.43
   8  -2  -7    0.68    0.75
   8  -2  -7    1.58    0.65
   8   2  -7    1.66    0.51
  -8   2   7    2.20    0.73
  -7  -2   7   28.10    0.99
   7  -2  -7   28.19    1.12
   7  -2  -7   28.01    1.36
  -7   2   7   28.48    1.27
   7   2  -7   30.42    1.08
  -6  -2   7    1.85    0.31
   6  -2  -7    1.92    0.53
  -6  -2   7    1.94    0.32
   6  -2  -7    2.22    0.47
  -6  -2   7    1.40    0.21
  -6   2   7    1.95    0.44
  -6   2   7    1.85    0.45
   6   2  -7    1.53    0.26
   6   2  -7    1.50    0.36
   5  -2  -7    0.45    0.44
  -5  -2   7   -0.16    0.08
   5  -2  -7   -0.65    0.36
  -5  -2   7   -0.06    0.22
   5   2  -7   -0.02    0.17
   5   2  -7    0.08    0.28
  -5   2   7    0.07    0.48
  -5   2   7   -0.13    0.44
  -4  -2   7   22.62    0.69
  -4  -2   7   22.56    0.67
   4  -2  -7   22.42    0.92
   4  -2  -7   23.80    0.92
   4   2  -7   22.98    0.64
   4   2  -7   23.75    0.74
  -4   2   7   23.60    0.89
  -4   2   7   24.20    0.94
   3  -2  -7   66.44    1.98
  -3  -2   7   66.40    1.69
   3  -2  -7   63.62    1.86
  -3  -2   7   65.49    1.69
  -3   2   7   66.81    1.92
  -3   2   7   66.66    1.88
   3   2  -7   66.08    1.76
  -2  -2   7   16.46    0.46
   2  -2  -7   16.86    0.78
   2  -2  -7   15.20    0.63
  -2  -2   7   16.50    0.48
   2   2  -7   16.25    0.51
   2   2  -7   15.67    0.48
  -2   2   7   16.29    0.66
  -2   2   7   16.58    0.69
   1  -2  -7   75.99    2.08
  -1  -2   7   69.82    1.95
   1  -2  -7   73.97    2.17
  -1  -2   7   76.22    1.92
  -1   2   7   73.02    2.11
  -1   2   7   75.93    2.06
   1   2  -7   75.76    1.99
   1   2  -7   75.90    1.89
   0  -2   7    3.43    0.21
   0  -2  -7    3.50    0.38
   0  -2  -7    3.21    0.41
   0  -2   7    3.54    0.22
   0  -2   7    3.74    0.29
   0  -2   7    3.01    0.30
   0   2   7    3.67    0.35
   0   2  -7    3.46    0.32
   0   2   7    3.81    0.38
   1  -2   7    1.29    0.24
  -1  -2  -7    1.12    0.39
  -1  -2  -7    0.75    0.42
   1  -2   7    0.82    0.31
   1   2   7    0.59    0.25
   1   2   7    0.66    0.27
  -1   2  -7    0.33    0.25
  -2  -2  -7   26.77    0.99
   2  -2   7   24.48    0.97
   2  -2   7   26.72    0.89
  -2  -2  -7   24.20    0.97
  -2   2  -7   25.67    0.93
   2   2   7   25.65    0.94
   2   2   7   27.35    0.90
   3  -2   7   60.62    1.82
   3  -2   7   62.32    1.83
   3   2   7   60.29    1.88
  -3   2  -7   60.20    1.83
   3   2   7   58.32    1.77
   4  -2   7    4.07    0.59
   4  -2   7    3.70    0.55
   4   2   7    4.31    0.54
   4   2   7    3.12    0.57
   5  -2   7   38.39    1.48
   5  -2   7   37.82    1.37
   5   2   7   36.80    1.32
   5   2   7   36.65    1.47
   6  -2   7    3.62    0.76
   6  -2   7    3.19    0.74
   6   2   7    3.26    0.73
   6   2   7    3.59    0.67
   7  -2   7    0.26    0.60
   7  -2   7    0.05    0.76
   7   2   7    1.06    0.69
   7   2   7   -0.04    0.76
   8  -2   7    3.21    0.97
   8  -2   7    2.69    0.96
   8   2   7    5.12    0.86
   8   2   7    4.26    0.98
   9  -2   7    3.91    1.10
   9  -2   7    3.15    1.12
   9   2   7    5.66    0.94
   9   2   7    4.97    0.88
  10  -2   7    1.42    1.14
  10  -2   7   -0.10    1.17
  10   2   7    2.32    0.95
  10   2   7    3.72    1.17
 -10  -3   7    1.94    0.61
  10  -3  -7   -0.06    0.93
  10  -3  -7    0.59    1.09
 -10   3   7    2.22    0.79
  10   3  -7    0.14    0.73
   9  -3  -7    0.64    0.83
  -9  -3   7    0.81    0.51
   9  -3  -7    1.03    0.73
   9   3  -7    0.67    0.60
  -9   3   7    0.71    0.90
   8  -3  -7    6.19    0.87
   8  -3  -7    5.94    0.94
  -8  -3   7    6.16    0.51
  -8   3   7    6.96    0.75
   8   3  -7    6.96    0.64
   7  -3  -7    9.47    0.75
   7  -3  -7    9.51    0.82
  -7  -3   7    9.52    0.56
  -7   3   7    8.97    0.74
  -7   3   7    8.32    0.92
   7   3  -7    9.51    0.66
  -6  -3   7    1.48    0.25
   6  -3  -7    0.89    0.66
   6  -3  -7    1.23    0.62
  -6   3   7    1.54    0.64
   6   3  -7    1.35    0.34
  -6   3   7    1.11    0.68
   5  -3  -7   53.12    1.68
   5  -3  -7   52.77    1.84
  -5  -3   7   53.50    1.39
  -5  -3   7   50.57    1.41
  -5   3   7   56.64    1.76
  -5   3   7   54.18    1.75
   5   3  -7   54.65    1.50
   4  -3  -7    9.11    0.69
   4  -3  -7   11.17    0.80
   4   3  -7   10.83    0.38
  -4   3   7   11.39    0.80
  -4   3   7   10.26    0.70
   3  -3  -7    9.68    0.65
   3  -3  -7   10.08    0.61
  -3   3   7   11.06    0.80
  -3   3   7   10.84    0.73
   2  -3  -7   33.24    1.22
   2  -3  -7   30.90    1.13
  -2   3   7   32.42    1.18
  -2   3   7   31.03    1.06
  -1  -3   7   41.11    1.06
   1  -3  -7   40.95    1.34
   1  -3  -7   43.20    1.38
  -1  -3   7   41.56    1.06
  -1   3   7   41.59    1.28
  -1   3   7   43.51    1.39
   1   3  -7   39.33    1.16
   0  -3  -7   17.08    0.82
   0  -3  -7   18.04    0.90
   0  -3   7   17.49    0.57
   0   3  -7   16.04    0.64
   0   3   7   17.80    0.79
   0   3  -7   18.67    0.52
   0   3   7   18.72    0.84
   1  -3   7   68.78    1.85
  -1  -3  -7   69.22    2.10
  -1  -3  -7   67.24    1.95
   1  -3   7   68.43    1.83
  -1   3  -7   68.90    1.80
   1   3   7   66.60    2.00
  -1   3  -7   65.80    1.93
   1   3   7   67.06    1.96
   2  -3   7    0.97    0.27
  -2  -3  -7    1.47    0.47
  -2  -3  -7    1.55    0.51
   2  -3   7    0.94    0.36
  -2   3  -7    1.26    0.32
   2   3   7    0.85    0.31
   2   3   7    1.50    0.46
   3  -3   7    3.15    0.46
   3  -3   7    3.19    0.43
  -3  -3  -7    1.82    0.41
   3   3   7    3.04    0.49
   3   3   7    3.58    0.57
  -3   3  -7    3.27    0.42
   4  -3   7   12.66    0.84
   4  -3   7   11.55    0.73
   4   3   7   10.93    0.82
   4   3   7   12.84    0.90
   5  -3   7   10.65    0.85
   5  -3   7   10.97    0.77
   5   3   7   11.55    0.91
   5   3   7   10.40    0.80
   6  -3   7    0.94    0.66
   6  -3   7    0.71    0.74
   6   3   7    0.50    0.52
   6   3   7    1.06    0.47
   7  -3   7    5.21    0.87
   7  -3   7    3.97    0.95
   7   3   7    4.62    0.74
   7   3   7    5.69    0.80
   8  -3   7    2.50    0.96
   8  -3   7    2.42    1.02
   8   3   7    3.40    0.76
   8   3   7    3.60    0.81
   9  -3   7   -1.31    1.07
   9  -3   7   -2.07    0.95
  -9   3  -7   -2.24    1.00
   9   3   7    2.62    1.02
  10  -3   7    0.30    1.25
  10  -3   7    0.04    1.32
  10   3   7    2.49    1.18
 -10   3  -7   -0.81    1.15
   9  -4  -7    3.64    1.08
   9  -4  -7    2.45    0.77
  -9   4   7    2.43    0.79
  -9   4   7    2.13    1.07
   9   4  -7    3.83    0.63
   8  -4  -7    0.34    0.69
   8  -4  -7    1.37    0.88
  -8   4   7    0.49    0.89
   8   4  -7    0.86    0.48
  -8   4   7    0.15    0.95
   7  -4  -7    7.55    0.93
   7  -4  -7    6.55    0.82
  -7   4   7    7.83    0.85
   7   4  -7    7.71    0.60
  -7   4   7    5.81    0.90
   6  -4  -7    3.66    0.79
   6  -4  -7    5.59    0.87
  -6   4   7    4.69    0.71
  -6   4   7    3.73    0.64
   6   4  -7    4.87    0.36
   5  -4  -7    1.17    0.71
   5  -4  -7    0.96    0.65
   5   4  -7    1.20    0.19
  -5   4   7    0.54    0.49
  -5   4   7    0.61    0.72
   4  -4  -7   28.49    1.21
   4  -4  -7   29.44    1.29
  -4   4   7   29.49    1.37
  -4   4   7   29.27    1.13
   3  -4  -7   46.30    1.70
   3  -4  -7   44.64    1.52
  -3   4   7   48.98    1.59
  -3   4   7   48.82    1.70
   2  -4  -7    6.60    0.55
   2  -4  -7    7.02    0.61
  -2   4   7    6.83    0.70
  -2   4   7    6.26    0.52
   1  -4  -7   24.43    1.05
   1  -4  -7   23.86    1.02
  -1   4   7   24.65    1.09
  -1   4   7   24.70    1.03
   1   4  -7   23.56    0.75
   0  -4   7   14.56    0.51
   0  -4  -7   15.04    0.75
   0  -4  -7   13.92    0.80
   0   4   7   14.51    0.81
   0   4   7   15.27    0.88
   0   4  -7   14.27    0.59
  -1  -4  -7    8.80    0.75
   1  -4   7    7.09    0.50
  -1  -4  -7    7.59    0.58
   1   4   7    7.93    0.66
   1   4   7    8.05    0.62
  -2  -4  -7   21.55    0.95
  -2  -4  -7   22.81    1.13
   2  -4   7   21.70    0.86
   2   4   7   22.11    0.97
   2   4   7   22.05    0.98
   3  -4   7   24.18    0.96
  -3  -4  -7   22.60    1.12
   3   4   7   23.36    1.03
   3   4   7   22.91    1.03
   4  -4   7    1.23    0.53
   4   4   7    0.64    0.48
   4   4   7    1.07    0.52
   5  -4   7    1.66    0.64
   5   4   7    1.90    0.60
   5   4   7    1.25    0.70
   6  -4   7    2.85    0.79
   6   4   7    3.20    0.68
   6   4   7    3.35    0.82
   7  -4   7    2.04    0.93
   7   4   7    3.44    0.93
   8  -4   7    0.62    1.03
   8   4   7    2.70    1.00
   9  -4   7    0.87    1.20
   9   4   7    2.94    1.10
   8  -5  -7    1.35    1.05
   8  -5  -7    1.16    0.74
  -8   5   7    0.18    1.00
  -8   5   7    0.92    1.12
   7  -5  -7    1.99    0.71
   7  -5  -7    1.12    0.97
  -7   5   7    1.87    1.01
  -7   5   7    0.46    0.91
   6  -5  -7    2.76    0.71
   6  -5  -7    3.61    0.89
  -6   5   7    3.33    0.69
  -6   5   7    4.09    1.01
   5  -5  -7    8.97    0.85
   5  -5  -7    7.97    0.92
  -5   5   7    8.00    1.03
  -5   5   7    7.27    0.89
   4  -5  -7    1.41    0.73
   4  -5  -7    0.11    0.73
  -4   5   7    0.91    0.82
  -4   5   7    0.87    0.67
   3  -5  -7   -0.57    0.66
   3  -5  -7    0.18    0.50
  -3   5   7    0.18    0.71
  -3   5   7   -0.36    0.60
   2  -5  -7   16.15    0.95
   2  -5  -7   18.25    1.11
  -2   5   7   15.06    0.99
  -2   5   7   16.66    0.96
   1  -5  -7    8.81    0.79
   1  -5  -7    9.49    0.86
  -1   5   7    9.75    0.84
  -1   5   7   10.60    0.78
   1   5  -7    9.89    0.48
   0  -5   7    1.00    0.25
   0  -5  -7    0.65    0.62
   0  -5  -7    0.16    0.60
   0   5   7    0.44    0.52
   0   5   7    1.05    0.48
  -1  -5  -7   15.83    1.07
   1  -5   7   14.79    0.67
  -1  -5  -7   16.84    1.06
   1   5   7   15.84    0.93
   1   5   7   14.98    1.07
  -2  -5  -7   14.15    1.07
   2  -5   7   13.86    0.78
  -2  -5  -7   15.26    1.02
   2   5   7   11.55    0.86
   2   5   7   12.52    0.89
   3  -5   7    1.53    0.52
  -3  -5  -7    1.58    0.71
   3   5   7    1.90    0.70
   4  -5   7   10.24    0.76
   4   5   7    9.18    0.94
   5  -5   7    2.25    0.69
   5   5   7    2.95    0.81
   6  -5   7   -0.13    0.79
   6   5   7    2.08    0.87
   7  -5   7    2.81    0.97
   7   5   7    3.86    0.99
   6  -6  -7    2.99    0.79
  -6   6   7    1.36    1.12
   5  -6  -7    0.73    0.90
  -5   6   7    1.43    0.77
   4  -6  -7    7.03    0.97
  -4   6   7    5.02    1.03
   3  -6  -7    4.99    0.91
  -3   6   7    4.11    0.95
   2  -6  -7   -0.55    0.72
  -2   6   7    0.02    0.77
   1  -6  -7    0.58    0.74
  -1   6   7    0.14    0.77
   0  -6  -7    6.83    0.87
   0   6   7    7.38    0.91
   0   6  -7    6.43    0.51
  -1  -6  -7    1.49    0.74
   1  -6   7    0.33    0.39
   1   6   7    0.96    0.77
   2  -6   7    4.35    0.55
  -2  -6  -7    5.53    0.86
   2   6   7    3.66    0.84
   3  -6   7    1.49    0.58
   3   6   7    2.30    0.81
   4  -6   7    0.63    0.66
   4   6   7    0.49    0.82
   5  -6   7    0.20    0.67
   5   6   7    0.82    0.84
 -11   0   8   -1.10    0.79
  11   0  -8   -0.25    0.95
 -10   0   8    4.39    0.77
  10   0  -8    6.93    0.97
  -9   0   8    0.38    0.62
   9   0  -8   -0.22    0.51
   9   0  -8    0.56    0.69
  -8   0   8    9.79    0.72
   8   0  -8   11.76    0.84
   8   0  -8   10.89    0.75
  -7   0   8    0.12    0.44
   7   0  -8    0.28    0.40
   7   0  -8   -0.26    0.49
  -7   0   8    0.01    0.45
   6   0  -8   30.73    1.04
   6   0  -8   29.86    1.15
  -6   0   8   29.59    1.06
  -6   0   8   32.38    1.08
   5   0  -8    0.09    0.35
  -5   0   8    0.23    0.31
   5   0  -8   -0.10    0.30
  -5   0   8    0.37    0.30
  -5   0   8    0.56    0.29
   4   0  -8  257.02    6.98
   4   0  -8  268.65    6.76
  -4   0   8  263.78    6.95
  -4   0   8  264.21    6.76
  -4   0   8  274.29    6.77
  -3   0   8    0.16    0.23
   3   0  -8    0.16    0.27
  -3   0   8    0.26    0.21
  -3   0   8    0.14    0.25
   3   0  -8    0.12    0.23
   2   0  -8  138.87    3.68
  -2   0   8  139.87    3.58
   2   0  -8  134.38    3.70
  -2   0   8  134.98    3.57
   2   0  -8  144.71    3.58
  -2   0   8  136.80    3.67
  -1   0   8    0.23    0.20
  -1   0   8    0.22    0.21
   1   0  -8   -0.08    0.19
  -1   0   8    0.28    0.22
   1   0  -8    0.15    0.22
   1   0  -8   -0.42    0.20
   0   0  -8   24.14    0.82
   0   0   8   23.91    0.77
   0   0  -8   23.51    0.79
   0   0   8   23.63    0.78
   0   0   8   23.45    0.82
   0   0  -8   23.30    0.85
  -1   0  -8   -0.10    0.21
   1   0   8    0.24    0.29
   1   0   8    0.06    0.25
  -1   0  -8    0.10    0.33
   1   0   8    0.37    0.28
   2   0   8  208.11    5.58
   2   0   8  208.72    5.42
   3   0   8    0.29    0.31
   3   0   8   -0.03    0.31
   4   0   8   53.43    1.74
   4   0   8   53.59    1.75
   5   0   8   -0.15    0.41
   5   0   8   -0.10    0.57
   6   0   8    4.66    0.74
   6   0   8    3.80    0.64
   7   0   8   -0.79    0.69
   7   0   8   -0.73    0.76
   8   0   8   11.30    1.20
   8   0   8   11.77    1.10
   9   0   8    1.63    1.05
   9   0   8   -0.51    0.91
  10   0   8    0.26    1.01
  10   0   8    1.67    1.17
  11   0   8    0.52    1.09
  11   0   8    1.61    1.25
  11  -1  -8   -1.14    1.01
 -11  -1   8   -0.51    0.73
 -11   1   8   -1.00    0.91
  11   1  -8   -1.07    0.83
  10  -1  -8    7.21    1.05
  10  -1  -8    7.01    0.71
 -10  -1   8    8.37    0.78
 -10   1   8    8.46    0.97
  10   1  -8    7.12    0.91
  -9  -1   8    2.35    0.59
   9  -1  -8    2.50    0.66
   9  -1  -8    2.73    0.66
   9   1  -8    2.76    0.69
  -9   1   8    2.63    0.74
   8  -1  -8    2.61    0.71
   8  -1  -8    2.85    0.59
  -8  -1   8    2.29    0.55
  -8   1   8    2.68    0.66
   8   1  -8    3.06    0.59
  -7  -1   8    3.41    0.49
   7  -1  -8    3.57    0.65
   7  -1  -8    3.46    0.54
  -7  -1   8    2.77    0.41
  -7   1   8    3.23    0.58
   7   1  -8    4.14    0.58
   7   1  -8    2.96    0.39
  -7   1   8    3.65    0.59
  -6  -1   8   74.50    2.06
   6  -1  -8   74.85    2.15
   6  -1  -8   75.11    2.27
  -6  -1   8   75.44    2.08
  -6  -1   8   74.37    2.04
   6   1  -8   74.40    2.04
  -6   1   8   73.01    2.17
   6   1  -8   71.64    2.14
  -6   1   8   73.49    2.11
   5  -1  -8    0.93    0.45
  -5  -1   8    0.96    0.31
  -5  -1   8    1.07    0.26
   5  -1  -8    0.83    0.39
  -5  -1   8    0.94    0.28
  -5   1   8    1.13    0.40
   5   1  -8    0.81    0.35
  -5   1   8    1.20    0.40
   5   1  -8    1.31    0.28
   4  -1  -8   35.24    1.23
  -4  -1   8   36.64    1.05
  -4  -1   8   36.28    1.05
  -4  -1   8   37.02    1.05
   4  -1  -8   36.60    1.16
   4   1  -8   35.58    1.04
  -4   1   8   35.37    1.11
  -4   1   8   36.09    1.15
   4   1  -8   35.94    1.12
   3  -1  -8    7.72    0.43
  -3  -1   8    6.67    0.33
  -3  -1   8    8.26    0.37
  -3  -1   8    8.08    0.38
   3  -1  -8    8.58    0.58
   3   1  -8    7.97    0.37
   3   1  -8    7.55    0.43
  -3   1   8    7.31    0.52
  -3   1   8    8.18    0.43
   2  -1  -8   66.26    1.93
  -2  -1   8   68.99    1.78
  -2  -1   8   64.28    1.82
   2  -1  -8   68.12    1.87
  -2  -1   8   68.72    1.78
   2   1  -8   68.24    1.83
   2   1  -8   67.34    1.85
   2   1  -8   67.38    1.78
  -2   1   8   66.16    1.90
  -2   1   8   65.33    1.85
   1  -1  -8    7.70    0.49
   1  -1  -8    7.15    0.55
  -1  -1   8    7.27    0.39
  -1  -1   8    7.86    0.39
  -1  -1   8    7.52    0.34
   1   1  -8    7.45    0.39
  -1   1   8    6.63    0.41
   1   1  -8    8.25    0.41
  -1   1   8    7.18    0.40
   1   1  -8    8.08    0.38
   0  -1  -8  239.29    5.97
   0  -1   8  229.37    5.92
   0  -1   8  222.77    6.10
   0  -1  -8  233.68    6.17
   0  -1   8  238.76    5.92
   0   1   8  226.30    5.95
   0   1  -8  225.54    6.11
   0   1  -8  243.94    6.11
   0   1   8  232.16    6.13
   1  -1   8    0.18    0.28
   1  -1   8    0.27    0.23
   1  -1   8    0.00    0.26
  -1  -1  -8   -0.11    0.37
  -1  -1  -8   -0.06    0.34
   1   1   8    0.11    0.22
  -1   1  -8   -0.56    0.27
   1   1   8    0.21    0.24
   2  -1   8    9.39    0.62
   2  -1   8    7.56    0.59
  -2  -1  -8    7.84    0.61
   2  -1   8    8.74    0.52
  -2   1  -8    9.23    0.60
   2   1   8    7.95    0.61
   2   1   8    9.46    0.50
   3  -1   8   10.94    0.74
   3  -1   8   10.27    0.62
   3   1   8   12.07    0.71
   3   1   8   10.28    0.62
   4  -1   8   75.51    2.21
   4  -1   8   77.08    2.34
   4   1   8   72.22    2.22
   4   1   8   72.22    2.30
   5  -1   8    7.21    0.78
   5  -1   8    7.47    0.80
   5   1   8    7.31    0.68
   5   1   8    6.45    0.70
   6  -1   8   51.04    1.90
   6  -1   8   52.14    1.98
   6   1   8   53.89    1.96
   6   1   8   51.83    1.86
   7  -1   8    0.20    0.76
   7  -1   8   -0.18    0.58
   7   1   8    0.23    0.78
   7   1   8    1.31    0.74
   8  -1   8    1.03    0.93
   8  -1   8    0.19    0.87
   8   1   8    1.72    0.72
   8   1   8    0.76    0.61
   9  -1   8    0.24    0.99
   9  -1   8   -0.62    1.02
   9   1   8    0.86    0.89
   9   1   8    1.32    0.99
  10  -1   8    3.48    0.94
  10  -1   8    4.47    1.17
  10   1   8    5.29    1.09
  10   1   8    3.09    1.19
  11  -2  -8    1.32    0.92
 -11  -2   8    1.82    0.78
  11  -2  -8    3.54    1.19
  11   2  -8    2.05    0.94
 -11   2   8    2.45    1.04
 -10  -2   8    6.23    0.76
  10  -2  -8    7.33    1.17
  10  -2  -8    7.21    0.96
  10   2  -8    6.81    0.84
 -10   2   8    5.60    1.00
   9  -2  -8    3.63    0.79
   9  -2  -8    1.55    0.93
  -9  -2   8    3.29    0.59
  -9   2   8    2.20    0.83
   9   2  -8    2.83    0.63
   8  -2  -8   18.02    1.13
   8  -2  -8   19.19    1.32
  -8  -2   8   17.33    0.87
  -8   2   8   16.40    1.18
   8   2  -8   18.17    0.93
  -8   2   8   18.40    1.20
   7  -2  -8    1.29    0.69
  -7  -2   8    1.30    0.37
   7  -2  -8    0.19    0.56
  -7   2   8    0.92    0.48
  -7   2   8    1.47    0.64
   7   2  -8    1.00    0.45
  -6  -2   8    0.66    0.33
   6  -2  -8    0.36    0.44
  -6  -2   8   -0.02    0.27
   6  -2  -8    0.12    0.52
  -6   2   8   -0.11    0.55
  -6   2   8    0.31    0.41
   6   2  -8    0.59    0.36
  -5  -2   8   11.41    0.47
   5  -2  -8   10.97    0.71
   5  -2  -8   10.11    0.77
  -5   2   8   10.73    0.66
   5   2  -8   10.20    0.41
  -5   2   8   10.49    0.65
   5   2  -8    9.74    0.52
  -4  -2   8   72.18    1.90
  -4  -2   8   72.77    1.89
   4  -2  -8   74.70    2.21
   4  -2  -8   72.63    2.06
   4   2  -8   71.19    1.97
  -4   2   8   73.14    2.10
   4   2  -8   69.94    1.86
  -4   2   8   74.91    2.17
  -3  -2   8    0.27    0.15
   3  -2  -8   -0.23    0.28
   3  -2  -8    0.37    0.32
  -3  -2   8    0.38    0.14
  -3   2   8    0.69    0.41
  -3   2   8    0.13    0.38
   3   2  -8    0.07    0.19
   2  -2  -8   85.23    2.49
  -2  -2   8   88.50    2.24
  -2  -2   8   87.66    2.26
   2  -2  -8   86.30    2.39
  -2   2   8   87.50    2.47
   2   2  -8   86.77    2.31
   2   2  -8   89.23    2.34
  -2   2   8   88.43    2.41
   1  -2  -8   11.02    0.62
  -1  -2   8   12.10    0.51
   1  -2  -8   13.06    0.58
   1   2  -8   12.16    0.47
   1   2  -8   12.54    0.39
  -1   2   8   12.74    0.59
  -1   2   8   12.58    0.56
   0  -2  -8   16.99    0.77
   0  -2   8   18.02    0.57
   0  -2  -8   17.79    0.79
   0  -2   8   19.15    0.60
   0  -2   8   17.78    0.68
   0  -2   8   18.66    0.61
   0   2   8   17.30    0.79
   0   2   8   17.48    0.75
   0   2  -8   18.38    0.70
   1  -2   8    1.31    0.27
   1  -2   8    0.49    0.31
  -1  -2  -8    0.95    0.42
  -1  -2  -8    0.69    0.34
  -1   2  -8    1.25    0.31
   1   2   8    1.41    0.37
   1   2   8    1.04    0.31
   2  -2   8  117.19    3.20
  -2  -2  -8  115.46    3.16
  -2  -2  -8  116.51    3.32
   2  -2   8  114.33    3.15
   2   2   8  115.68    3.27
   2   2   8  117.28    3.17
  -2   2  -8  117.61    3.24
   3  -2   8   12.06    0.78
   3  -2   8   12.89    0.79
   3   2   8   12.88    0.67
   3   2   8   14.21    0.83
   4  -2   8    7.84    0.72
   4  -2   8    8.31    0.69
   4   2   8    8.46    0.62
   4   2   8    8.54    0.76
   5  -2   8    9.36    0.84
   5  -2   8   10.48    0.86
   5   2   8    9.74    0.77
   5   2   8    9.77    0.79
   6  -2   8   11.97    1.01
   6  -2   8   12.87    1.01
   6   2   8   11.74    0.99
   6   2   8   11.10    0.83
   7  -2   8   -0.07    0.80
   7  -2   8   -0.92    0.59
   7   2   8    0.63    0.53
   7   2   8    0.82    0.79
   8  -2   8    6.10    1.08
   8  -2   8    4.31    1.05
   8   2   8    6.27    0.87
   8   2   8    7.28    0.79
   9  -2   8    2.03    0.85
   9  -2   8    1.19    1.09
   9   2   8    3.79    1.11
   9   2   8    3.18    0.92
  10  -2   8   -0.20    1.15
  10  -2   8   -0.06    1.17
  10   2   8    1.23    0.86
  10   2   8    0.29    0.69
 -10  -3   8   -0.04    0.54
  10  -3  -8    0.30    0.70
  10  -3  -8    1.83    0.85
 -10   3   8   -0.95    1.01
  10   3  -8    1.40    0.73
 -10   3   8    0.49    1.00
  -9  -3   8    1.80    0.50
   9  -3  -8    2.07    1.01
   9  -3  -8    0.16    0.83
  -9   3   8   -0.36    0.91
   9   3  -8    0.27    0.62
  -9   3   8    0.51    0.68
   8  -3  -8    5.91    0.71
   8  -3  -8    5.79    0.99
  -8  -3   8    5.71    0.48
  -8   3   8    4.37    0.93
   8   3  -8    5.92    0.61
  -8   3   8    5.45    0.90
  -7  -3   8   12.46    0.59
   7  -3  -8   12.75    1.05
   7  -3  -8   12.53    0.88
  -7   3   8   12.00    0.95
   7   3  -8   12.03    0.73
  -7   3   8   11.97    0.96
   6  -3  -8   27.93    1.29
   6  -3  -8   27.90    1.25
  -6  -3   8   29.79    0.85
   6   3  -8   29.21    0.97
  -6   3   8   30.18    1.19
  -6   3   8   27.88    1.37
   5  -3  -8    0.75    0.47
   5  -3  -8    0.22    0.42
  -5  -3   8   -0.11    0.12
  -5  -3   8   -0.05    0.11
  -5   3   8    0.19    0.45
   5   3  -8    0.10    0.24
  -5   3   8    0.45    0.43
   4  -3  -8    4.43    0.67
   4  -3  -8    3.65    0.48
   4   3  -8    4.54    0.26
  -4   3   8    4.37    0.54
  -4   3   8    3.62    0.59
   3  -3  -8   58.63    1.83
   3  -3  -8   62.63    2.00
  -3   3   8   66.13    1.98
  -3   3   8   61.61    1.83
   2  -3  -8   32.51    1.17
   2  -3  -8   31.45    1.09
   2   3  -8   29.90    0.84
  -2   3   8   33.82    1.16
  -2   3   8   31.43    1.21
  -1  -3   8   48.28    1.23
   1  -3  -8   46.17    1.46
   1  -3  -8   46.88    1.55
  -1  -3   8   47.72    1.23
  -1   3   8   48.67    1.50
   1   3  -8   47.41    1.33
  -1   3   8   46.93    1.51
   0  -3  -8   59.71    1.88
   0  -3   8   54.97    1.56
   0  -3  -8   56.17    1.72
   0  -3   8   59.30    1.56
   0   3   8   56.60    1.76
   0   3   8   59.69    1.74
   0   3  -8   55.11    1.66
   0   3  -8   60.17    1.50
  -1  -3  -8    1.95    0.56
  -1  -3  -8    2.96    0.43
   1  -3   8    2.69    0.35
  -1   3  -8    2.65    0.36
   1   3   8    2.75    0.46
   1   3   8    2.39    0.40
   2  -3   8    1.15    0.41
  -2  -3  -8    1.48    0.53
   2  -3   8    1.91    0.30
  -2  -3  -8    1.11    0.55
   2   3   8    2.29    0.41
  -2   3  -8    1.79    0.40
   2   3   8    1.82    0.36
   3  -3   8   16.23    0.73
   3  -3   8   17.36    0.85
   3   3   8   15.96    0.84
   3   3   8   16.76    0.89
   4  -3   8   16.09    1.05
   4  -3   8   16.34    0.85
   4   3   8   16.12    0.95
   4   3   8   17.12    1.04
   5  -3   8   -0.95    0.63
   5  -3   8   -0.09    0.53
   5   3   8    0.37    0.42
   5   3   8    0.15    0.65
   6  -3   8   10.36    0.92
   6  -3   8    9.35    0.98
   6   3   8    8.90    0.96
   6   3   8    9.52    0.87
   7  -3   8   -0.02    0.89
   7  -3   8    0.34    0.77
   7   3   8    2.12    0.84
   7   3   8    2.73    0.76
   8  -3   8   -2.04    0.97
   8  -3   8   -1.45    0.90
   8   3   8    1.54    0.80
   8   3   8    1.20    0.95
   9  -3   8   -1.15    1.12
   9   3   8    1.17    1.06
   9  -4  -8    1.82    0.98
   9  -4  -8    1.61    1.08
  -9   4   8    1.07    1.08
  -9   4   8    1.90    1.04
   8  -4  -8    3.18    1.01
   8  -4  -8    3.03    0.72
  -8   4   8    2.09    0.72
  -8   4   8    2.79    0.78
   8   4  -8    2.26    0.52
   7  -4  -8    3.18    0.67
   7  -4  -8    1.55    0.91
  -7   4   8    2.19    0.84
   7   4  -8    2.75    0.41
  -7   4   8    2.54    0.92
   6  -4  -8    3.77    0.81
   6  -4  -8    2.59    0.66
  -6   4   8    2.86    0.81
  -6   4   8    2.19    0.65
   5  -4  -8   16.11    1.00
   5  -4  -8   14.94    0.94
  -5   4   8   17.07    1.23
  -5   4   8   14.37    1.13
   4  -4  -8   18.12    0.95
   4  -4  -8   18.01    1.18
  -4   4   8   19.91    1.20
  -4   4   8   19.95    1.13
   3  -4  -8    0.52    0.59
   3  -4  -8    0.28    0.46
  -3   4   8    0.73    0.63
  -3   4   8    0.98    0.44
   2  -4  -8    8.13    0.70
   2  -4  -8    9.31    0.71
  -2   4   8    6.44    0.56
  -2   4   8    7.12    0.62
   1  -4  -8    9.24    0.73
   1  -4  -8   11.01    0.82
   1   4  -8    7.81    0.41
  -1   4   8   10.46    0.72
  -1   4   8   11.16    0.87
   0  -4   8    0.58    0.22
   0  -4  -8    0.97    0.61
   0  -4  -8    0.20    0.40
   0   4   8    0.17    0.54
   0   4   8    0.04    0.47
  -1  -4  -8    4.22    0.70
   1  -4   8    4.12    0.38
  -1  -4  -8    4.41    0.63
   1   4   8    3.74    0.61
   1   4   8    3.14    0.44
  -2  -4  -8    9.16    0.81
   2  -4   8    8.56    0.63
  -2  -4  -8    8.81    0.78
   2   4   8    9.54    0.65
   2   4   8    8.99    0.77
   3  -4   8    4.96    0.58
  -3  -4  -8    4.22    0.71
   3   4   8    5.42    0.63
   3   4   8    5.01    0.73
   4  -4   8    5.37    0.72
   4   4   8    6.84    0.81
   4   4   8    6.16    0.70
   5  -4   8   10.04    0.94
   5   4   8    9.50    0.83
   5   4   8   10.09    0.98
   6  -4   8   -0.19    0.75
   6   4   8   -0.55    0.56
   6   4   8    1.32    0.66
   7  -4   8   -1.56    0.89
   7   4   8    0.39    0.88
   8  -4   8    1.31    1.01
   8   4   8    3.53    1.03
   8  -5  -8    4.16    1.06
   8  -5  -8    1.60    1.11
  -8   5   8    0.94    1.13
  -8   5   8    2.98    1.06
   7  -5  -8    2.71    1.04
   7  -5  -8    4.45    1.01
  -7   5   8    3.05    1.10
  -7   5   8    2.40    0.76
   6  -5  -8    1.69    0.91
   6  -5  -8    2.41    0.93
  -6   5   8    3.43    1.03
  -6   5   8    2.44    0.89
   5  -5  -8    2.26    0.68
   5  -5  -8    2.76    0.66
  -5   5   8    3.48    0.75
  -5   5   8    1.99    0.63
   4  -5  -8    0.22    0.55
   4  -5  -8   -0.66    0.75
  -4   5   8    0.49    0.54
  -4   5   8    0.46    0.60
   3  -5  -8   18.41    1.25
   3  -5  -8   19.34    1.22
  -3   5   8   16.81    1.13
  -3   5   8   18.22    1.08
   2  -5  -8    9.56    0.93
   2  -5  -8    8.69    0.83
  -2   5   8    7.83    0.76
  -2   5   8    9.13    0.92
   1  -5  -8    5.68    0.67
   1  -5  -8    4.90    0.77
  -1   5   8    4.78    0.63
  -1   5   8    4.87    0.68
   1   5  -8    5.22    0.36
   0  -5  -8    5.29    0.63
   0  -5  -8    7.20    0.83
   0  -5   8    5.83    0.35
   0   5   8    5.28    0.63
   0   5   8    6.06    0.70
  -1  -5  -8    2.28    0.71
  -1  -5  -8    2.67    0.72
   1  -5   8    2.24    0.37
   1   5   8    3.11    0.71
   1   5   8    2.49    0.48
  -2  -5  -8    0.08    0.67
  -2  -5  -8    2.29    0.73
   2  -5   8   -0.10    0.41
   2   5   8    0.12    0.55
   2   5   8    0.25    0.68
  -3  -5  -8   10.61    0.94
   3  -5   8   10.71    0.75
   3   5   8   12.79    1.02
   4  -5   8    0.53    0.63
   4   5   8    1.04    0.78
   5  -5   8    0.42    0.67
   5   5   8    2.09    0.68
   6  -5   8   -0.98    0.78
   6   5   8    1.56    0.91
   7  -5   8    1.81    0.98
   7   5   8    1.52    0.98
   5  -6  -8    2.43    0.97
  -5   6   8    2.34    1.07
   4  -6  -8   -0.99    0.87
  -4   6   8    0.62    0.93
   3  -6  -8    0.41    0.84
  -3   6   8    0.65    0.90
   2  -6  -8    0.13    0.78
  -2   6   8   -0.40    0.62
   1  -6  -8   10.51    0.99
  -1   6   8    7.93    0.99
   0  -6  -8    0.80    0.80
   0   6   8    1.20    0.81
  -1  -6  -8    5.88    0.91
   1   6   8    3.71    0.88
  -2  -6  -8    0.80    0.79
   2  -6   8    0.05    0.48
   2   6   8    0.34    0.82
   3  -6   8    0.30    0.55
   3   6   8    0.18    0.84
   4  -6   8   -0.63    0.62
   4   6   8   -0.08    0.84
  11   0  -9    5.00    1.07
 -11   0   9    4.28    0.86
 -10   0   9   -0.56    0.70
  10   0  -9   -0.15    0.82
   9   0  -9   15.46    1.20
  -9   0   9   17.44    1.09
   8   0  -9   -0.01    0.60
   8   0  -9   -0.37    0.46
  -8   0   9   -0.44    0.46
  -8   0   9    0.02    0.53
   7   0  -9    0.42    0.41
  -7   0   9    1.05    0.48
   7   0  -9    1.08    0.54
  -7   0   9    0.75    0.47
   6   0  -9   -0.41    0.35
  -6   0   9   -0.50    0.39
  -6   0   9    0.31    0.40
   6   0  -9    0.65    0.46
  -5   0   9   53.59    1.57
  -5   0   9   54.17    1.60
   5   0  -9   53.65    1.57
   5   0  -9   53.11    1.66
  -5   0   9   54.55    1.56
  -4   0   9    0.15    0.30
   4   0  -9   -0.49    0.27
   4   0  -9    0.39    0.35
  -4   0   9   -0.04    0.26
  -4   0   9   -0.13    0.27
  -3   0   9   90.38    2.36
  -3   0   9   86.63    2.42
  -3   0   9   87.37    2.35
   3   0  -9   88.80    2.36
   3   0  -9   86.28    2.45
   2   0  -9    0.37    0.30
   2   0  -9   -0.55    0.23
  -2   0   9   -0.03    0.21
   2   0  -9   -0.17    0.23
  -2   0   9    0.01    0.26
  -2   0   9    0.20    0.25
   1   0  -9   22.07    0.84
   1   0  -9   22.43    0.78
  -1   0   9   22.37    0.80
  -1   0   9   23.42    0.76
   1   0  -9   23.16    0.77
  -1   0   9   23.48    0.78
   0   0  -9   -0.18    0.23
   0   0  -9   -0.48    0.19
   0   0   9    0.16    0.26
   0   0  -9   -0.10    0.27
   0   0   9    0.01    0.27
   0   0   9   -0.21    0.17
  -1   0  -9  225.88    6.34
   1   0   9  239.00    6.14
   1   0   9  252.32    6.15
   1   0   9  237.56    6.33
   2   0   9    0.34    0.35
   2   0   9    0.24    0.29
   3   0   9   72.79    2.20
   3   0   9   68.86    2.10
   4   0   9   -0.20    0.35
   4   0   9    0.26    0.52
   5   0   9    1.75    0.65
   5   0   9    1.80    0.48
   6   0   9    0.49    0.70
   6   0   9   -0.14    0.48
   7   0   9    7.66    0.96
   7   0   9    8.11    0.85
   8   0   9   -0.09    0.66
   8   0   9    0.27    0.83
   9   0   9    0.77    0.73
   9   0   9    1.88    0.80
  10   0   9   -0.03    0.83
  10   0   9    0.19    0.76
  11  -1  -9   -0.92    1.02
 -11  -1   9   -0.67    0.72
 -11   1   9   -1.02    0.87
  11   1  -9   -0.61    0.82
  10  -1  -9   -0.04    0.92
 -10  -1   9   -0.24    0.63
  10   1  -9    0.17    0.82
 -10   1   9   -0.98    0.79
   9  -1  -9   15.01    1.07
   9  -1  -9   15.52    1.07
  -9  -1   9   16.32    1.08
  -9   1   9   14.86    1.10
  -9   1   9   16.72    1.18
   9   1  -9   16.24    1.09
  -8  -1   9    1.30    0.49
   8  -1  -9    0.54    0.70
   8  -1  -9    0.81    0.43
   8   1  -9    1.03    0.55
  -8   1   9    1.31    0.59
  -8   1   9    0.66    0.63
  -7  -1   9   60.10    1.76
   7  -1  -9   59.20    1.98
  -7  -1   9   58.60    1.75
   7  -1  -9   55.09    1.82
  -7   1   9   55.78    1.81
   7   1  -9   61.58    1.73
  -7   1   9   57.99    1.86
   7   1  -9   58.07    1.87
  -6  -1   9    1.68    0.36
  -6  -1   9    1.24    0.35
  -6  -1   9    1.65    0.33
   6  -1  -9    2.21    0.48
   6  -1  -9    1.45    0.55
   6   1  -9    1.42    0.46
   6   1  -9    1.50    0.32
  -6   1   9    2.11    0.50
  -6   1   9    1.29    0.48
  -5  -1   9    7.91    0.49
   5  -1  -9    7.21    0.51
   5  -1  -9    7.86    0.63
  -5  -1   9    7.01    0.43
  -5  -1   9    7.09    0.50
   5   1  -9    7.07    0.51
   5   1  -9    7.10    0.47
  -5   1   9    6.71    0.56
  -5   1   9    7.08    0.56
  -4  -1   9    3.99    0.31
   4  -1  -9    3.46    0.49
  -4  -1   9    4.20    0.31
   4  -1  -9    3.78    0.37
  -4  -1   9    3.83    0.32
   4   1  -9    3.56    0.32
  -4   1   9    3.49    0.44
  -4   1   9    4.15    0.46
   4   1  -9    4.12    0.39
  -3  -1   9   68.53    1.87
   3  -1  -9   67.35    2.02
   3  -1  -9   69.23    1.93
  -3  -1   9   69.31    1.82
  -3  -1   9   67.73    1.83
  -3   1   9   66.98    1.91
   3   1  -9   66.74    1.92
   3   1  -9   68.63    1.83
  -3   1   9   69.43    1.96
   2  -1  -9    0.93    0.34
  -2  -1   9    1.47    0.24
  -2  -1   9    1.32    0.22
   2  -1  -9    1.32    0.31
  -2  -1   9    1.39    0.25
  -2   1   9    1.30    0.33
   2   1  -9    1.29    0.28
   2   1  -9    1.36    0.23
  -2   1   9    1.42    0.35
   2   1  -9    1.17    0.24
  -1  -1   9  111.97    2.82
  -1  -1   9  106.14    2.92
   1  -1  -9  108.33    3.00
   1  -1  -9  110.55    2.90
  -1  -1   9  107.50    2.83
   1   1  -9  105.92    2.94
  -1   1   9  105.21    2.88
   1   1  -9  109.65    2.91
  -1   1   9  106.67    2.98
   0  -1   9    5.38    0.36
   0  -1   9    5.98    0.47
   0  -1  -9    5.04    0.46
   0  -1   9    5.23    0.40
   0  -1  -9    5.43    0.53
   0   1  -9    5.15    0.41
   0   1   9    5.47    0.46
   0   1   9    4.76    0.42
   0   1  -9    4.16    0.39
   1  -1   9    2.63    0.38
  -1  -1  -9    1.95    0.32
  -1  -1  -9    2.67    0.49
   1  -1   9    2.48    0.37
   1  -1   9    2.41    0.32
   1   1   9    2.39    0.34
  -1   1  -9    1.83    0.38
   1   1   9    2.01    0.38
   2  -1   9    0.68    0.40
   2  -1   9    0.11    0.38
   2  -1   9    0.93    0.34
  -2  -1  -9   -0.05    0.46
  -2   1  -9    0.49    0.30
   2   1   9    0.35    0.31
   2   1   9    0.25    0.28
   3  -1   9   19.06    0.82
   3  -1   9   18.36    0.92
   3   1   9   17.61    0.83
   3   1   9   17.50    0.89
   4  -1   9    5.24    0.57
   4  -1   9    5.05    0.54
   4   1   9    5.08    0.63
   4   1   9    4.50    0.65
   5  -1   9    8.50    0.82
   5  -1   9    6.14    0.66
   5   1   9    4.25    0.68
   5   1   9    5.07    0.75
   6  -1   9    3.09    0.79
   6  -1   9    2.36    0.60
   6   1   9    3.15    0.78
   6   1   9    2.86    0.58
   7  -1   9    2.07    0.67
   7  -1   9    2.23    0.88
   7   1   9    3.10    0.69
   7   1   9    0.48    0.75
   8  -1   9    0.60    0.68
   8  -1   9    0.14    0.92
   8   1   9    0.64    0.82
   8   1   9    0.55    0.93
   9  -1   9    2.46    0.85
   9  -1   9    3.30    0.83
   9   1   9    3.03    1.08
   9   1   9    3.97    0.98
  10  -1   9   -0.51    1.07
  10  -1   9    0.48    1.16
  10   1   9    0.63    0.83
  10   1   9    2.01    0.78
 -11  -2   9    1.07    0.74
  11  -2  -9    2.48    1.22
  11   2  -9    1.45    0.89
 -11   2   9    0.91    1.02
 -10  -2   9    0.01    0.63
  10  -2  -9   -0.41    0.99
  10  -2  -9   -0.35    0.59
  10   2  -9   -0.02    0.76
 -10   2   9   -0.75    0.83
 -10   2   9   -0.69    0.64
   9  -2  -9   10.55    1.12
  -9  -2   9    8.59    0.69
   9  -2  -9    8.34    0.91
   9   2  -9   10.32    0.85
  -9   2   9    9.63    0.98
  -9   2   9    7.60    0.96
   8  -2  -9    4.73    0.73
   8  -2  -9    4.97    0.62
  -8  -2   9    4.15    0.51
  -8   2   9    4.57    0.78
   8   2  -9    4.95    0.62
  -8   2   9    3.34    0.76
   7  -2  -9    1.64    0.73
   7  -2  -9    1.38    0.47
  -7  -2   9    1.06    0.38
   7   2  -9    1.29    0.47
  -7   2   9    1.02    0.62
  -7   2   9    1.64    0.66
   6  -2  -9   10.49    0.80
  -6  -2   9   11.36    0.58
   6  -2  -9   12.66    0.89
  -6   2   9   11.01    0.74
  -6   2   9   11.58    0.82
   6   2  -9   10.91    0.65
   5  -2  -9   62.09    1.99
   5  -2  -9   61.84    1.94
  -5  -2   9   63.49    1.72
   5   2  -9   62.78    1.81
  -5   2   9   64.09    2.02
   5   2  -9   68.16    1.71
  -5   2   9   62.84    1.89
   4  -2  -9    0.74    0.52
  -4  -2   9    0.78    0.21
   4  -2  -9    0.57    0.35
  -4  -2   9    0.63    0.21
   4   2  -9    0.39    0.25
   4   2  -9    0.58    0.16
  -4   2   9    0.11    0.45
  -4   2   9    0.59    0.46
  -3  -2   9   30.94    0.86
   3  -2  -9   29.20    1.03
  -3  -2   9   30.77    0.87
   3  -2  -9   29.58    1.11
   3   2  -9   30.19    0.92
  -3   2   9   31.77    1.15
  -3   2   9   31.21    1.10
  -2  -2   9   10.99    0.45
   2  -2  -9   11.50    0.69
  -2  -2   9   10.60    0.40
   2  -2  -9   11.20    0.76
   2   2  -9   11.15    0.44
  -2   2   9   11.13    0.67
  -2   2   9   10.60    0.59
   2   2  -9   11.46    0.48
   1  -2  -9   13.50    0.70
  -1  -2   9   13.32    0.39
  -1  -2   9   14.56    0.39
   1  -2  -9   13.44    0.74
  -1  -2   9   13.53    0.57
  -1   2   9   13.94    0.71
   1   2  -9   14.62    0.54
  -1   2   9   13.82    0.65
   0  -2   9   12.76    0.66
   0  -2  -9   15.80    0.85
   0  -2  -9   14.06    0.66
   0  -2   9   15.18    0.58
   0   2   9   14.51    0.64
   0   2   9   14.50    0.67
   0   2  -9   14.44    0.63
   1  -2   9   68.88    1.91
   1  -2   9   68.89    1.97
  -1  -2  -9   67.22    2.12
   1  -2   9   68.39    1.93
  -1  -2  -9   68.15    2.01
  -1   2  -9   68.11    1.99
   1   2   9   64.70    2.01
   1   2   9   69.21    1.98
  -2  -2  -9    0.38    0.48
   2  -2   9   -0.07    0.40
  -2  -2  -9    0.28    0.39
   2  -2   9    0.31    0.32
   2   2   9    1.04    0.35
   2   2   9    0.76    0.43
  -2   2  -9    0.67    0.38
   3  -2   9   20.69    0.97
   3  -2   9   19.97    1.04
   3   2   9   19.16    0.85
   3   2   9   18.69    0.89
   4  -2   9    0.29    0.52
   4  -2   9    1.60    0.47
   4   2   9    1.08    0.53
   4   2   9    1.93    0.61
   5  -2   9    2.78    0.68
   5  -2   9    3.74    0.74
   5   2   9    4.24    0.61
   5   2   9    3.68    0.67
   6  -2   9   -0.03    0.76
   6  -2   9   -0.19    0.70
   6   2   9    0.05    0.66
   6   2   9    0.08    0.54
   7  -2   9   17.74    1.19
   7  -2   9   19.11    1.40
   7   2   9   17.19    1.29
   7   2   9   19.73    1.21
   8  -2   9    1.51    1.01
   8  -2   9    0.49    0.71
   8   2   9    2.22    0.85
   8   2   9    0.68    0.95
   9  -2   9    2.80    1.08
   9  -2   9    4.89    1.17
   9   2   9    4.49    1.11
   9   2   9    4.95    0.80
  10  -2   9    2.36    1.21
  10  -2   9   -0.95    1.16
  10   2   9    4.07    1.03
  10   2   9    1.82    1.20
 -10  -3   9    0.34    0.56
  10  -3  -9    0.61    1.11
  10  -3  -9    1.18    0.97
 -10   3   9    2.40    0.80
 -10   3   9   -1.22    0.95
  10   3  -9    0.73    0.68
   9  -3  -9    0.96    0.96
   9  -3  -9    2.03    0.69
  -9  -3   9    2.18    0.49
   9   3  -9    1.53    0.59
  -9   3   9    0.86    0.95
  -9   3   9    1.92    0.94
   8  -3  -9    0.05    0.78
   8  -3  -9    0.62    0.89
  -8  -3   9    0.90    0.39
   8   3  -9    0.89    0.51
  -8   3   9    1.18    0.82
  -8   3   9    0.29    0.63
   7  -3  -9   14.02    1.00
  -7  -3   9   13.51    0.58
   7  -3  -9   12.16    0.94
  -7   3   9   12.69    0.97
   7   3  -9   12.33    0.73
  -7   3   9   11.50    0.97
   6  -3  -9    1.03    0.50
  -6  -3   9    1.34    0.21
   6  -3  -9    0.74    0.74
   6   3  -9    0.86    0.34
  -6   3   9    0.38    0.66
  -6   3   9    1.61    0.71
   5  -3  -9    1.31    0.61
   5  -3  -9    2.31    0.70
   5   3  -9    1.52    0.26
  -5   3   9    1.58    0.63
  -5   3   9    2.18    0.52
   4  -3  -9    0.16    0.45
   4  -3  -9    0.52    0.42
  -4   3   9    0.02    0.39
  -4   3   9    0.81    0.45
   4   3  -9    0.36    0.18
   3  -3  -9   21.72    1.02
   3  -3  -9   20.55    0.97
  -3   3   9   21.08    1.06
  -3   3   9   21.76    1.01
   2  -3  -9   23.61    1.03
   2  -3  -9   25.97    1.07
  -2   3   9   25.56    1.10
  -2   3   9   24.20    0.94
   2   3  -9   24.23    0.70
   1  -3  -9   34.10    1.20
   1  -3  -9   34.01    1.28
  -1  -3   9   35.41    0.96
  -1  -3   9   35.36    0.95
  -1   3   9   36.88    1.26
  -1   3   9   36.88    1.32
   1   3  -9   34.76    1.04
   0  -3   9   43.13    1.24
   0  -3  -9   41.69    1.40
   0  -3  -9   45.48    1.51
   0   3  -9   41.40    1.31
   0   3   9   45.32    1.51
   0   3   9   44.62    1.45
  -1  -3  -9    0.55    0.40
   1  -3   9   -0.15    0.19
   1  -3   9    0.19    0.33
  -1  -3  -9    0.26    0.56
   1   3   9    0.24    0.38
   1   3   9    0.31    0.45
  -1   3  -9    0.07    0.34
  -2  -3  -9   13.61    0.93
   2  -3   9   14.41    0.64
   2  -3   9   14.58    0.79
  -2  -3  -9   13.53    1.01
   2   3   9   14.21    0.91
   2   3   9   16.08    0.88
   3  -3   9   19.13    0.88
   3  -3   9   19.97    1.04
   3   3   9   22.90    1.13
   3   3   9   21.32    1.04
   4  -3   9    0.07    0.43
   4  -3   9   -0.69    0.57
   4   3   9    0.26    0.53
   4   3   9    0.15    0.46
   5  -3   9   10.27    0.88
   5  -3   9   10.07    0.92
   5   3   9   10.37    0.98
   5   3   9   10.07    0.87
   6  -3   9    5.19    0.91
   6  -3   9    3.62    0.76
   6   3   9    4.53    0.89
   6   3   9    3.82    0.61
   7  -3   9   -1.04    0.79
   7  -3   9   -1.29    0.89
   7   3   9    0.41    0.88
   7   3   9    1.11    0.71
   8  -3   9    2.99    1.09
   8   3   9    3.22    1.04
   8   3   9    4.16    0.72
   9  -3   9    0.14    0.87
   9   3   9    4.41    1.16
   9  -4  -9    0.10    0.96
   9  -4  -9    0.00    1.10
  -9   4   9    1.45    0.82
  -9   4   9    0.51    1.02
   8  -4  -9    4.89    1.10
   8  -4  -9    3.54    0.97
  -8   4   9    2.89    1.04
  -8   4   9    4.53    1.02
   7  -4  -9    0.50    0.91
   7  -4  -9    1.76    0.85
  -7   4   9   -0.12    0.85
  -7   4   9    1.41    0.92
   6  -4  -9   12.48    1.03
   6  -4  -9   13.40    1.13
  -6   4   9   12.87    0.98
  -6   4   9   10.80    1.08
   5  -4  -9   13.92    1.00
   5  -4  -9   14.15    1.00
  -5   4   9   13.71    0.99
  -5   4   9   11.44    0.95
   4  -4  -9    0.47    0.67
   4  -4  -9    0.72    0.73
  -4   4   9    0.77    0.53
  -4   4   9    0.57    0.49
   3  -4  -9   10.15    0.78
   3  -4  -9   10.49    0.80
  -3   4   9   10.36    0.81
  -3   4   9   11.04    0.83
   2  -4  -9   15.05    0.90
   2  -4  -9   14.31    1.00
  -2   4   9   13.23    0.94
  -2   4   9   16.00    1.04
   1  -4  -9    5.48    0.77
   1  -4  -9    3.60    0.66
  -1   4   9    5.10    0.70
  -1   4   9    5.42    0.64
   0  -4  -9   14.67    0.83
   0  -4  -9   14.52    1.06
   0  -4   9   14.40    0.53
   0   4   9   14.94    0.99
   0   4   9   14.65    0.78
  -1  -4  -9   29.78    1.30
   1  -4   9   28.37    0.97
  -1  -4  -9   29.63    1.25
   1   4   9   29.54    1.30
   1   4   9   29.23    1.20
  -2  -4  -9    1.12    0.67
  -2  -4  -9    0.34    0.48
   2  -4   9   -0.16    0.42
   2   4   9    0.93    0.53
   2   4   9    0.19    0.62
   3  -4   9    2.99    0.57
  -3  -4  -9    2.71    0.72
   3   4   9    3.73    0.51
   3   4   9    3.42    0.59
   4  -4   9    5.82    0.74
   4   4   9    4.68    0.71
   4   4   9    5.21    0.84
   5  -4   9    2.64    0.74
   5   4   9    2.84    0.66
   5   4   9    2.78    0.55
   6  -4   9    0.02    0.79
   6   4   9    1.01    0.66
   6   4   9    1.87    0.70
   7  -4   9    0.05    0.97
   7   4   9    1.27    0.92
   8  -4   9    0.70    1.11
   8   4   9    1.71    0.81
   7  -5  -9    1.23    0.98
   7  -5  -9   -0.66    1.00
  -7   5   9   -0.10    0.72
  -7   5   9    0.45    0.81
   6  -5  -9    1.15    0.70
   6  -5  -9    0.95    0.96
  -6   5   9    2.06    1.01
  -6   5   9    0.15    0.91
   5  -5  -9    0.83    0.84
   5  -5  -9    0.12    0.65
  -5   5   9    0.42    0.79
  -5   5   9    0.45    0.91
   4  -5  -9   10.94    1.07
   4  -5  -9   10.99    1.01
  -4   5   9   11.69    1.09
  -4   5   9    9.75    0.94
   3  -5  -9    8.36    0.98
   3  -5  -9    9.57    0.93
  -3   5   9    8.42    0.88
  -3   5   9    9.18    1.00
   2  -5  -9    3.88    0.85
   2  -5  -9    3.47    0.62
  -2   5   9    3.51    0.82
  -2   5   9    2.62    0.56
   1  -5  -9    8.66    0.85
   1  -5  -9    8.07    0.93
  -1   5   9    7.83    0.87
  -1   5   9    6.64    0.64
   0  -5  -9    6.18    0.81
   0  -5  -9    3.89    0.67
   0   5   9    4.76    0.70
   0   5   9    5.29    0.80
  -1  -5  -9   -0.01    0.53
   1  -5   9    0.38    0.34
  -1  -5  -9    1.70    0.77
   1   5   9    0.94    0.60
   1   5   9    0.56    0.70
  -2  -5  -9    7.35    0.88
   2  -5   9    6.24    0.55
  -2  -5  -9    6.10    0.70
   2   5   9    6.15    0.72
   2   5   9    5.98    0.87
  -3  -5  -9    6.29    0.90
   3  -5   9    6.99    0.65
   3   5   9    7.31    0.95
   3   5   9    6.32    0.78
   4  -5   9   -0.09    0.65
   4   5   9    0.20    0.61
   5  -5   9    5.68    0.81
   5   5   9    6.83    1.01
   6  -5   9    1.09    0.95
   6   5   9    2.85    1.00
   5  -6  -9    2.23    1.00
  -5   6   9    2.93    1.13
   4  -6  -9   -0.42    0.91
  -4   6   9    0.06    0.97
   3  -6  -9   -0.94    0.87
  -3   6   9   -0.26    0.67
   2  -6  -9    8.08    0.99
  -2   6   9    5.93    1.00
   1  -6  -9    1.29    0.86
  -1   6   9    0.89    0.87
   0  -6  -9    6.31    0.95
   0   6   9    4.70    0.92
  -1  -6  -9    0.49    0.82
   1   6   9    0.23    0.63
  -2  -6  -9    1.15    0.85
   2   6   9    0.45    0.65
   3  -6   9   -0.43    0.55
   3   6   9    1.12    0.86
   4  -6   9    2.81    0.73
   4   6   9    3.20    0.98
  11   0 -10   -1.28    0.94
 -11   0  10    0.20    0.89
 -10   0  10    5.88    0.82
  10   0 -10    6.63    0.98
   9   0 -10   -0.08    0.68
  -9   0  10   -0.30    0.62
   8   0 -10    0.30    0.47
  -8   0  10   -0.08    0.55
   8   0 -10    0.75    0.63
   7   0 -10   -0.01    0.52
  -7   0  10   -0.29    0.42
   7   0 -10    0.28    0.44
  -7   0  10    0.63    0.47
  -6   0  10   45.53    1.49
   6   0 -10   45.64    1.43
   6   0 -10   45.39    1.54
  -6   0  10   46.48    1.45
   5   0 -10   -0.02    0.41
   5   0 -10   -0.53    0.33
  -5   0  10   -0.20    0.33
  -5   0  10    0.01    0.36
   4   0 -10   34.21    1.18
  -4   0  10   34.55    1.10
  -4   0  10   35.23    1.09
  -4   0  10   33.08    1.11
   4   0 -10   34.50    1.12
   3   0 -10    0.11    0.35
  -3   0  10    0.05    0.26
   3   0 -10   -0.23    0.25
  -3   0  10    0.32    0.29
   3   0 -10    0.01    0.28
  -3   0  10    0.08    0.28
   2   0 -10   10.35    0.47
  -2   0  10   10.60    0.53
  -2   0  10    9.36    0.52
   2   0 -10   10.08    0.52
   2   0 -10   10.19    0.61
  -2   0  10    9.60    0.50
  -1   0  10    0.28    0.26
  -1   0  10    0.27    0.28
  -1   0  10    0.12    0.28
   1   0 -10    0.02    0.34
   1   0 -10    0.07    0.29
   1   0 -10   -0.27    0.27
   0   0 -10   32.96    1.18
   0   0  10   32.89    1.13
   0   0  10   36.16    1.09
   0   0  10   34.32    1.09
   0   0 -10   34.40    1.07
   1   0  10    0.52    0.26
  -1   0 -10    0.08    0.30
   1   0  10    0.85    0.37
   2   0  10    0.94    0.43
   2   0  10    1.11    0.42
   3   0  10    0.14    0.47
   3   0  10    0.03    0.43
   4   0  10   25.14    1.15
   4   0  10   23.20    1.18
   5   0  10    0.00    0.48
   5   0  10    0.43    0.62
   6   0  10   27.58    1.42
   6   0  10   28.54    1.48
   7   0  10    1.45    0.86
   7   0  10    0.35    0.60
   8   0  10    2.24    0.97
   8   0  10    1.80    0.90
   9   0  10    0.30    0.98
   9   0  10    0.48    1.04
  10   0  10    3.93    1.16
  10   0  10    4.29    1.22
  11  -1 -10    0.84    0.81
 -11  -1  10   -0.10    0.72
  11   1 -10    0.35    0.85
 -11   1  10   -1.10    0.86
  10  -1 -10    0.13    0.91
 -10  -1  10    0.16    0.70
 -10   1  10    0.08    0.79
  10   1 -10    0.39    0.75
   9  -1 -10    1.79    0.68
  -9  -1  10    1.71    0.58
   9  -1 -10    2.46    0.87
  -9   1  10    2.28    0.71
  -9   1  10    3.12    0.77
   9   1 -10    1.61    0.68
  -8  -1  10   17.55    0.91
   8  -1 -10   17.05    1.02
   8  -1 -10   18.90    1.25
   8   1 -10   17.81    1.03
  -8   1  10   17.35    1.11
  -8   1  10   17.28    1.06
  -7  -1  10    0.29    0.45
   7  -1 -10    0.27    0.60
   7  -1 -10    0.13    0.52
  -7   1  10    0.41    0.54
   7   1 -10   -0.16    0.53
  -7   1  10    0.05    0.55
  -6  -1  10    6.98    0.53
  -6  -1  10    7.17    0.51
   6  -1 -10    7.63    0.63
   6  -1 -10    7.83    0.72
   6   1 -10    7.07    0.49
   6   1 -10    7.28    0.61
  -6   1  10    6.71    0.63
  -6   1  10    6.70    0.61
  -5  -1  10    7.76    0.48
   5  -1 -10    9.55    0.69
   5  -1 -10    7.28    0.58
  -5  -1  10    8.45    0.52
  -5  -1  10    8.20    0.55
  -5   1  10    7.26    0.59
  -5   1  10    8.84    0.57
   5   1 -10    8.12    0.64
   5   1 -10    7.78    0.46
  -4  -1  10   37.41    1.09
  -4  -1  10   35.99    1.09
   4  -1 -10   36.65    1.21
   4  -1 -10   34.78    1.23
  -4  -1  10   35.66    1.09
  -4   1  10   35.39    1.22
   4   1 -10   34.88    1.15
  -4   1  10   37.04    1.20
   4   1 -10   35.60    1.07
  -3  -1  10    2.65    0.29
  -3  -1  10    2.69    0.28
  -3  -1  10    2.71    0.29
   3  -1 -10    3.47    0.49
   3  -1 -10    3.01    0.43
   3   1 -10    3.03    0.38
  -3   1  10    3.58    0.43
   3   1 -10    2.80    0.31
  -3   1  10    3.25    0.42
   3   1 -10    2.97    0.29
  -2  -1  10  116.69    3.17
  -2  -1  10  115.10    3.08
  -2  -1  10  120.04    3.08
   2  -1 -10  120.20    3.17
   2  -1 -10  117.23    3.30
   2   1 -10  118.48    3.17
   2   1 -10  119.29    3.09
  -2   1  10  119.28    3.26
  -2   1  10  115.20    3.15
   2   1 -10  119.68    3.21
  -1  -1  10    0.58    0.27
  -1  -1  10    0.03    0.21
  -1  -1  10    0.17    0.26
   1  -1 -10   -0.30    0.26
   1  -1 -10    0.49    0.43
   1   1 -10    0.11    0.30
  -1   1  10   -0.10    0.34
   1   1 -10   -0.53    0.23
  -1   1  10    0.50    0.26
   0  -1 -10    7.41    0.55
   0  -1  10    7.37    0.49
   0  -1  10    7.59    0.54
   0  -1  10    8.26    0.45
   0  -1 -10    7.19    0.60
   0   1 -10    7.99    0.50
   0   1  10    7.31    0.56
   0   1  10    7.56    0.56
   0   1 -10    7.38    0.55
  -1  -1 -10    3.68    0.41
  -1  -1 -10    3.31    0.45
   1  -1  10    3.26    0.42
   1  -1  10    3.17    0.41
   1  -1  10    3.66    0.39
   1   1  10    2.75    0.46
   1   1  10    3.43    0.37
  -1   1 -10    2.61    0.44
  -2  -1 -10   58.67    1.98
   2  -1  10   60.36    1.82
   2  -1  10   66.31    1.91
   2  -1  10   62.90    1.95
   2   1  10   59.49    1.85
   2   1  10   62.50    1.94
   3  -1  10    5.31    0.62
   3  -1  10    5.23    0.63
   3   1  10    5.80    0.60
   3   1  10    4.84    0.54
   4  -1  10   55.18    1.81
   4  -1  10   56.09    1.87
   4   1  10   48.38    1.68
   4   1  10   50.62    1.84
   5  -1  10    0.58    0.50
   5  -1  10    0.83    0.67
   5   1  10    0.44    0.60
   5   1  10    0.61    0.66
   6  -1  10    1.25    0.77
   6  -1  10   -0.37    0.73
   6   1  10    0.91    0.74
   6   1  10   -0.36    0.67
   7  -1  10    2.07    0.68
   7  -1  10    2.37    0.87
   7   1  10    1.61    0.62
   7   1  10    2.76    0.70
   8  -1  10    9.42    1.17
   8  -1  10   10.90    1.16
   8   1  10    8.48    1.05
   8   1  10   10.25    1.17
   9  -1  10    0.85    1.07
   9  -1  10   -0.31    1.01
   9   1  10    1.08    0.91
   9   1  10    1.87    1.08
  10  -1  10    1.27    0.91
  10  -1  10    3.76    1.14
  10   1  10    5.02    1.12
  10   1  10    3.95    1.21
  10  -2 -10    0.04    0.82
 -10  -2  10    0.42    0.59
  10  -2 -10    0.02    1.03
 -10   2  10    0.88    0.91
 -10   2  10   -0.02    0.64
  10   2 -10    0.37    0.67
  -9  -2  10    0.40    0.52
   9  -2 -10    0.89    0.70
   9  -2 -10    0.36    0.72
   9   2 -10    0.74    0.67
  -9   2  10    0.55    0.61
  -9   2  10   -0.02    0.78
  -8  -2  10    1.12    0.46
   8  -2 -10    0.73    0.52
   8  -2 -10    1.02    0.85
  -8   2  10    1.55    0.57
  -8   2  10    0.44    0.69
   8   2 -10    1.29    0.58
   7  -2 -10    3.25    0.63
  -7  -2  10    2.96    0.42
   7  -2 -10    2.85    0.54
   7   2 -10    2.70    0.50
  -7   2  10    1.77    0.68
  -7   2  10    2.50    0.69
  -6  -2  10   22.08    0.80
   6  -2 -10   20.14    1.09
   6  -2 -10   23.57    1.24
   6   2 -10   21.41    0.88
  -6   2  10   21.81    1.14
  -6   2  10   21.37    1.12
   5  -2 -10    0.48    0.53
   5  -2 -10    0.48    0.59
  -5  -2  10    0.13    0.26
  -5   2  10   -0.07    0.53
  -5   2  10    0.35    0.52
   5   2 -10   -0.05    0.32
   4  -2 -10   17.11    1.01
  -4  -2  10   17.52    0.60
   4  -2 -10   17.38    0.79
   4   2 -10   17.11    0.55
  -4   2  10   18.51    0.92
   4   2 -10   17.58    0.68
  -4   2  10   17.05    0.81
  -3  -2  10   10.89    0.46
  -3  -2  10   10.82    0.42
   3  -2 -10   11.02    0.63
   3  -2 -10   11.66    0.85
  -3   2  10   11.58    0.76
  -3   2  10   10.06    0.73
   3   2 -10   10.12    0.51
   2  -2 -10   13.44    0.74
  -2  -2  10   15.00    0.55
   2  -2 -10   13.25    0.78
  -2   2  10   13.79    0.66
   2   2 -10   13.64    0.51
  -2   2  10   13.42    0.68
   2   2 -10   13.46    0.59
  -1  -2  10   15.65    0.65
   1  -2 -10   14.31    0.70
  -1  -2  10   14.83    0.49
   1  -2 -10   15.53    0.90
  -1  -2  10   15.38    0.55
  -1   2  10   16.85    0.82
   1   2 -10   15.10    0.61
  -1   2  10   13.82    0.76
   0  -2  10  101.35    2.79
   0  -2 -10  103.98    3.02
   0  -2  10  104.57    2.74
   0  -2 -10  102.94    2.85
   0   2 -10  107.27    2.86
   0   2  10  103.29    2.95
   0   2  10  100.30    2.82
   1  -2  10   -0.07    0.31
   1  -2  10   -0.14    0.29
  -1  -2 -10   -0.05    0.36
   1  -2  10   -0.06    0.42
  -1  -2 -10    0.16    0.42
  -1   2 -10   -0.67    0.33
   1   2  10    0.12    0.33
   1   2  10    0.18    0.32
  -2  -2 -10   20.29    0.91
   2  -2  10   21.76    0.85
   2  -2  10   23.18    0.96
  -2  -2 -10   19.26    0.98
   2  -2  10   20.53    0.92
   2   2  10   21.89    0.93
   2   2  10   21.59    0.89
  -2   2 -10   21.10    0.94
   3  -2  10    7.06    0.68
   3  -2  10    7.08    0.74
   3   2  10    6.15    0.56
   3   2  10    7.45    0.74
   4  -2  10    9.68    0.79
   4  -2  10    8.28    0.79
   4   2  10    7.09    0.74
   4   2  10    8.45    0.72
   5  -2  10    2.28    0.59
   5  -2  10    1.81    0.64
   5   2  10    1.52    0.50
   5   2  10    2.30    0.57
   6  -2  10    8.73    0.99
   6  -2  10    8.11    0.93
   6   2  10    7.12    0.75
   6   2  10    8.69    0.84
   7  -2  10    0.51    0.85
   7  -2  10    0.59    0.90
   7   2  10   -0.04    0.63
   7   2  10    0.44    0.58
   8  -2  10   -0.17    0.95
   8  -2  10    1.43    0.76
   8   2  10    1.49    0.99
   8   2  10    2.02    0.85
   9  -2  10    0.79    1.09
   9  -2  10   -0.50    1.11
   9   2  10    2.08    0.95
   9   2  10    1.36    0.82
  10  -3 -10    1.85    0.76
  10  -3 -10    0.51    1.15
 -10   3  10    0.05    1.02
 -10   3  10    0.92    1.04
  10   3 -10    1.19    0.68
  -9  -3  10    0.46    0.45
   9  -3 -10   -0.15    1.00
   9  -3 -10    0.67    0.87
   9   3 -10    1.19    0.61
  -9   3  10    1.02    0.71
  -9   3  10    1.07    0.92
  -8  -3  10    9.80    0.63
   8  -3 -10    9.42    0.95
   8  -3 -10    9.90    0.99
   8   3 -10    9.15    0.68
  -8   3  10    8.52    1.00
  -8   3  10   10.08    0.90
   7  -3 -10   -0.29    0.83
  -7  -3  10    0.30    0.30
   7  -3 -10   -0.68    0.71
  -7   3  10    0.73    0.59
   7   3 -10    0.38    0.43
  -7   3  10   -0.78    0.75
  -6  -3  10    0.04    0.20
   6  -3 -10   -0.51    0.55
   6  -3 -10   -0.08    0.67
  -6   3  10    0.59    0.55
  -6   3  10    0.75    0.72
   6   3 -10    0.00    0.33
   5  -3 -10   18.68    1.14
   5  -3 -10   21.08    1.08
   5   3 -10   19.55    0.70
  -5   3  10   21.45    1.16
  -5   3  10   21.81    1.20
   4  -3 -10   31.43    1.40
   4  -3 -10   31.36    1.29
  -4   3  10   31.98    1.29
   4   3 -10   28.45    0.89
  -4   3  10   29.96    1.20
   3  -3 -10   25.91    1.16
   3  -3 -10   29.27    1.20
  -3   3  10   29.63    1.19
  -3   3  10   28.64    1.24
   2  -3 -10   34.89    1.33
   2  -3 -10   36.28    1.45
  -2   3  10   37.18    1.32
  -2   3  10   36.75    1.29
   2   3 -10   34.91    1.01
   1  -3 -10    3.95    0.55
  -1  -3  10    3.28    0.23
   1  -3 -10    4.47    0.61
  -1  -3  10    3.14    0.27
   1   3 -10    3.83    0.32
  -1   3  10    3.53    0.55
  -1   3  10    2.98    0.46
   0  -3 -10    0.56    0.41
   0  -3 -10   -0.39    0.58
   0  -3  10   -0.07    0.30
   0   3 -10   -0.24    0.33
   0   3  10   -0.01    0.47
   0   3  10    0.41    0.53
  -1  -3 -10   40.12    1.46
  -1  -3 -10   41.15    1.57
   1  -3  10   37.82    1.11
   1  -3  10   37.99    1.21
   1  -3  10   39.50    1.25
   1   3  10   37.89    1.37
   1   3  10   37.90    1.30
  -2  -3 -10   29.36    1.36
  -2  -3 -10   28.48    1.26
   2  -3  10   27.23    1.11
   2   3  10   28.78    1.26
   2   3  10   25.23    1.06
   3  -3  10    2.05    0.56
   3  -3  10    3.61    0.49
   3   3  10    4.32    0.63
   3   3  10    2.84    0.54
   4  -3  10   12.50    0.82
   4  -3  10   12.18    0.91
   4   3  10   14.43    0.86
   4   3  10   12.16    0.99
   5  -3  10    6.47    0.87
   5   3  10    7.59    0.83
   5   3  10    7.87    0.95
   6  -3  10   -1.68    0.81
   6   3  10    0.73    0.83
   6   3  10    0.41    0.70
   7  -3  10    4.70    1.03
   7   3  10    6.14    1.07
   7   3  10    5.64    0.91
   8  -3  10    3.09    1.11
   8   3  10    3.97    1.11
   8   3  10    4.55    0.94
   9  -3  10    0.80    1.20
   9   3  10    2.61    0.91
   9  -4 -10    0.55    0.96
   9  -4 -10   -0.27    1.09
  -9   4  10   -0.24    1.08
  -9   4  10   -0.46    0.78
   8  -4 -10    1.76    1.05
   8  -4 -10    0.52    0.70
  -8   4  10    1.77    0.76
  -8   4  10    1.80    0.78
   7  -4 -10    2.76    0.72
   7  -4 -10    3.17    0.79
  -7   4  10    3.75    0.78
  -7   4  10    2.72    0.73
   6  -4 -10   17.97    1.34
   6  -4 -10   19.18    1.48
  -6   4  10   18.60    1.38
  -6   4  10   19.87    1.20
   5  -4 -10   -0.03    0.56
   5  -4 -10   -0.10    0.82
  -5   4  10   -0.42    0.55
  -5   4  10    0.40    0.80
   4  -4 -10    6.71    0.70
   4  -4 -10    5.78    0.90
  -4   4  10    6.59    0.87
  -4   4  10    5.43    0.78
   3  -4 -10   12.96    0.93
   3  -4 -10   13.80    1.03
  -3   4  10   14.11    1.04
  -3   4  10   11.58    0.95
   2  -4 -10    5.88    0.62
   2  -4 -10    6.10    0.70
  -2   4  10    5.81    0.64
  -2   4  10    4.34    0.69
   1  -4 -10   10.08    0.82
   1  -4 -10    8.96    0.91
  -1   4  10   10.13    0.79
  -1   4  10    9.23    0.77
   0  -4  10   12.63    0.51
   0  -4 -10   12.50    0.97
   0  -4 -10   11.75    0.83
   0   4  10   12.62    0.84
   0   4  10   12.60    0.93
  -1  -4 -10   -0.02    0.66
  -1  -4 -10    0.32    0.71
   1  -4  10    0.36    0.36
   1   4  10    0.91    0.55
   1   4  10    0.63    0.48
  -2  -4 -10    1.28    0.56
  -2  -4 -10    0.27    0.70
   2  -4  10    0.16    0.44
   2   4  10    0.51    0.68
   2   4  10    0.90    0.59
  -3  -4 -10    8.31    0.75
   3  -4  10    9.41    0.75
   3   4  10    8.83    0.92
   3   4  10    9.50    0.81
   4  -4  10    1.19    0.62
   4   4  10    2.25    0.69
   4   4  10    2.23    0.63
   5  -4  10    2.94    0.86
   5   4  10    4.50    0.93
   5   4  10    3.52    0.74
   6  -4  10    3.79    0.94
   6   4  10    5.04    1.03
   6   4  10    5.85    0.81
   7  -4  10   -0.74    0.96
   7   4  10   -0.57    0.93
   8  -4  10    0.25    1.16
   8   4  10    2.21    0.87
   7  -5 -10   -0.59    0.72
   7  -5 -10   -0.40    1.04
  -7   5  10   -0.16    1.00
  -7   5  10   -0.17    1.10
   6  -5 -10   -0.56    0.90
   6  -5 -10   -1.13    0.99
  -6   5  10   -0.50    0.93
  -6   5  10    0.97    1.02
   5  -5 -10   11.73    1.10
   5  -5 -10   13.87    1.07
  -5   5  10   11.74    1.03
  -5   5  10   11.51    1.10
   4  -5 -10   10.31    1.09
   4  -5 -10    8.77    1.00
  -4   5  10    8.41    1.05
  -4   5  10    7.79    0.95
   3  -5 -10    2.26    0.81
   3  -5 -10    0.41    0.85
  -3   5  10    0.19    0.74
  -3   5  10    2.42    0.86
   2  -5 -10    5.38    0.70
   2  -5 -10    3.58    0.90
  -2   5  10    4.25    0.62
  -2   5  10    4.08    0.70
   1  -5 -10    3.77    0.88
   1  -5 -10    3.51    0.80
  -1   5  10    3.61    0.71
  -1   5  10    4.71    0.86
   0  -5 -10    0.76    0.76
   0  -5 -10    0.85    0.81
   0   5  10    1.46    0.65
   0   5  10    0.01    0.74
  -1  -5 -10    9.50    1.00
  -1  -5 -10   11.06    0.98
   1  -5  10    9.77    0.57
   1   5  10    9.04    0.73
   1   5  10    9.95    0.97
   2  -5  10    4.27    0.52
  -2  -5 -10    3.85    0.84
  -2  -5 -10    5.33    0.84
   2   5  10    4.89    0.87
   2   5  10    3.21    0.72
  -3  -5 -10    1.01    0.62
   3  -5  10    0.86    0.59
   3   5  10    1.32    0.84
   3   5  10    1.46    0.69
   4  -5  10    0.90    0.69
   4   5  10    1.75    0.90
   5  -5  10    0.93    0.73
   5   5  10    2.22    0.97
   6  -5  10   -0.29    0.94
   6   5  10    3.65    1.07
   4  -6 -10   -0.69    0.96
  -4   6  10   -0.07    1.04
   3  -6 -10    3.41    0.99
  -3   6  10    0.75    0.98
   2  -6 -10    1.93    0.91
  -2   6  10    2.27    0.99
   1  -6 -10    2.88    0.94
  -1   6  10    3.68    0.98
   0  -6 -10    7.48    0.98
   0   6  10    6.55    1.03
  -1  -6 -10    0.39    0.88
   1   6  10    0.71    0.88
  -2  -6 -10    1.69    0.92
   2   6  10    1.50    0.94
   3  -6  10    2.23    0.61
   3   6  10    2.46    1.01
 -11   0  11    3.12    0.95
  11   0 -11    4.31    1.04
  10   0 -11    0.43    0.86
 -10   0  11    0.14    0.72
  -9   0  11    0.72    0.71
   9   0 -11   -0.33    0.69
  -8   0  11    1.03    0.64
   8   0 -11    0.04    0.62
  -7   0  11   34.74    1.28
   7   0 -11   35.00    1.24
   7   0 -11   34.06    1.40
  -7   0  11   33.66    1.25
   6   0 -11   -1.05    0.39
  -6   0  11   -0.42    0.43
  -6   0  11    0.15    0.39
   6   0 -11    0.03    0.52
   5   0 -11   30.91    1.18
   5   0 -11   31.61    1.07
  -5   0  11   30.01    1.07
  -5   0  11   31.02    1.08
   4   0 -11    0.02    0.41
  -4   0  11    0.14    0.30
  -4   0  11    0.20    0.32
  -4   0  11    0.10    0.34
   4   0 -11   -0.33    0.34
   3   0 -11   15.17    0.68
  -3   0  11   14.92    0.67
   3   0 -11   14.66    0.76
  -3   0  11   15.03    0.64
  -3   0  11   15.56    0.67
   2   0 -11    0.09    0.31
   2   0 -11    0.37    0.39
  -2   0  11    0.01    0.27
  -2   0  11    0.14    0.30
  -2   0  11    0.06    0.31
   1   0 -11  162.95    4.52
  -1   0  11  165.89    4.48
  -1   0  11  164.43    4.35
  -1   0  11  170.43    4.35
   1   0 -11  169.57    4.36
   0   0  11    0.57    0.35
   0   0 -11   -0.34    0.41
   0   0 -11   -0.31    0.34
   0   0  11    0.25    0.33
  -1   0 -11   28.05    1.15
   1   0  11   27.72    1.02
   1   0  11   29.11    1.05
   2   0  11    0.08    0.45
   2   0  11   -0.40    0.41
   3   0  11   55.93    1.78
   3   0  11   58.69    1.92
   4   0  11   -0.21    0.55
   4   0  11    0.00    0.56
   5   0  11   77.22    2.52
   5   0  11   74.35    2.42
   6   0  11    0.32    0.55
   6   0  11    1.16    0.76
   7   0  11    4.22    0.92
   7   0  11    3.33    0.93
   8   0  11    0.95    0.97
   8   0  11    1.06    0.90
   9   0  11    3.24    0.84
   9   0  11    3.64    1.13
 -11  -1  11    1.68    0.84
  11  -1 -11    1.79    1.11
  11   1 -11    2.90    0.92
 -11   1  11    1.76    0.95
  10  -1 -11    1.02    0.73
 -10  -1  11    1.64    0.66
  10   1 -11    1.32    0.79
 -10   1  11    0.90    0.62
  -9  -1  11   11.86    0.86
   9  -1 -11   12.50    1.14
  -9   1  11   11.48    0.97
   9   1 -11   14.24    1.03
   8  -1 -11    1.23    0.61
  -8  -1  11    1.26    0.50
   8  -1 -11    0.21    0.75
   8   1 -11    1.70    0.67
  -8   1  11    1.16    0.67
  -8   1  11    1.01    0.62
   7  -1 -11    0.54    0.65
  -7  -1  11    0.30    0.47
   7  -1 -11    0.26    0.55
  -7   1  11   -0.01    0.54
   7   1 -11    0.17    0.49
  -7   1  11    0.07    0.43
   6  -1 -11   -0.10    0.49
   6  -1 -11    0.50    0.60
  -6  -1  11   -0.18    0.40
   6   1 -11    1.31    0.50
  -6   1  11    0.63    0.52
  -6   1  11   -0.14    0.50
  -5  -1  11   60.09    1.72
   5  -1 -11   59.85    1.83
   5  -1 -11   58.50    1.89
  -5  -1  11   62.04    1.73
   5   1 -11   58.98    1.70
  -5   1  11   62.64    1.89
   5   1 -11   60.03    1.81
  -5   1  11   60.05    1.79
   4  -1 -11    0.02    0.36
  -4  -1  11   -0.02    0.26
   4  -1 -11    0.17    0.43
  -4  -1  11    0.45    0.31
  -4  -1  11    0.06    0.28
  -4   1  11    0.39    0.31
   4   1 -11   -0.08    0.33
   4   1 -11   -0.14    0.29
  -4   1  11    0.45    0.42
  -3  -1  11   91.51    2.36
   3  -1 -11   88.36    2.58
  -3  -1  11   88.56    2.36
   3  -1 -11   87.34    2.45
  -3  -1  11   86.80    2.41
   3   1 -11   85.69    2.42
  -3   1  11   88.69    2.53
  -3   1  11   86.61    2.44
   3   1 -11   88.43    2.36
   3   1 -11   86.88    2.46
  -2  -1  11    0.34    0.27
  -2  -1  11    1.04    0.28
  -2  -1  11    0.75    0.27
   2  -1 -11    1.20    0.41
   2  -1 -11    0.70    0.46
   2   1 -11    0.28    0.25
   2   1 -11    1.24    0.34
   2   1 -11    0.32    0.26
  -2   1  11    0.99    0.30
  -2   1  11    0.35    0.29
   1  -1 -11    0.49    0.46
   1  -1 -11    0.19    0.40
  -1  -1  11    0.16    0.28
  -1  -1  11    0.29    0.29
  -1  -1  11    0.05    0.28
  -1   1  11    0.30    0.28
  -1   1  11    0.18    0.37
   1   1 -11    0.20    0.34
   1   1 -11   -0.14    0.26
   0  -1  11    1.98    0.40
   0  -1 -11    2.10    0.52
   0  -1  11    2.40    0.35
   0  -1  11    2.03    0.37
   0  -1 -11    1.72    0.46
   0   1 -11    2.09    0.47
   0   1 -11    1.66    0.37
   0   1  11    2.45    0.44
   0   1  11    2.31    0.45
   1  -1  11   58.65    1.79
  -1  -1 -11   60.19    1.85
   1  -1  11   63.41    1.80
  -1  -1 -11   62.03    1.98
   1  -1  11   59.73    1.88
   1   1  11   59.42    1.82
   1   1  11   59.28    1.90
  -1   1 -11   62.09    1.88
  -2  -1 -11    1.31    0.47
   2  -1  11    2.48    0.50
   2  -1  11    2.17    0.49
   2   1  11    2.60    0.52
   2   1  11    2.69    0.44
   3  -1  11   24.42    1.10
   3  -1  11   24.84    1.11
   3   1  11   23.62    1.10
   3   1  11   23.01    1.14
   4  -1  11    9.77    0.84
   4  -1  11    9.83    0.84
   4   1  11    9.39    0.85
   4   1  11    9.60    0.75
   5  -1  11    1.92    0.68
   5  -1  11    2.38    0.72
   5   1  11    2.27    0.73
   5   1  11    1.87    0.53
   6  -1  11    0.89    0.58
   6  -1  11    0.38    0.78
   6   1  11    1.09    0.76
   6   1  11    0.31    0.54
   7  -1  11    4.96    0.96
   7  -1  11    6.30    1.01
   7   1  11    5.88    0.92
   7   1  11    5.12    1.00
   8  -1  11    0.38    0.98
   8  -1  11    1.01    0.95
   8   1  11    1.50    0.75
   8   1  11    2.15    0.91
   9  -1  11    1.26    1.05
   9  -1  11    0.82    1.06
   9   1  11    0.99    0.97
   9   1  11   -0.55    1.03
  10  -2 -11    0.33    1.04
 -10  -2  11    0.73    0.65
 -10   2  11    1.29    0.93
  10   2 -11    1.05    0.77
  -9  -2  11   -0.24    0.55
   9  -2 -11    0.97    0.97
   9  -2 -11   -0.62    0.55
  -9   2  11   -0.41    0.80
   9   2 -11   -0.40    0.65
  -9   2  11    0.15    0.79
   8  -2 -11    7.99    1.03
  -8  -2  11    6.14    0.56
   8  -2 -11    7.10    0.82
  -8   2  11    5.96    0.84
  -8   2  11    6.02    0.86
   8   2 -11    7.76    0.72
   7  -2 -11   32.07    1.54
   7  -2 -11   26.81    1.18
  -7  -2  11   29.44    1.04
   7   2 -11   29.30    1.16
  -7   2  11   28.86    1.37
  -7   2  11   27.61    1.20
  -6  -2  11    0.25    0.33
   6  -2 -11    0.18    0.71
   6  -2 -11    0.13    0.60
   6   2 -11    0.47    0.41
  -6   2  11   -0.37    0.58
  -6   2  11    0.54    0.62
  -5  -2  11   16.59    0.65
   5  -2 -11   16.35    0.98
   5  -2 -11   18.69    1.14
  -5   2  11   17.41    1.00
  -5   2  11   16.38    1.00
   5   2 -11   16.97    0.77
   4  -2 -11   16.99    0.92
  -4  -2  11   17.91    0.64
   4  -2 -11   17.53    0.82
  -4   2  11   18.50    0.83
   4   2 -11   18.41    0.72
  -4   2  11   17.28    0.84
   3  -2 -11   28.60    1.16
  -3  -2  11   30.37    0.91
   3  -2 -11   29.80    1.16
   3   2 -11   29.52    0.98
  -3   2  11   29.54    1.07
  -3   2  11   31.44    1.20
   2  -2 -11   21.78    0.89
  -2  -2  11   22.13    0.77
   2  -2 -11   20.33    1.08
   2   2 -11   21.51    0.83
   2   2 -11   21.97    0.74
  -2   2  11   22.19    1.00
  -2   2  11   22.05    0.96
   1  -2 -11   99.18    2.83
   1  -2 -11   96.92    2.69
  -1  -2  11   95.53    2.50
  -1  -2  11   94.65    2.56
   1   2 -11   94.61    2.59
  -1   2  11   92.05    2.71
  -1   2  11   89.07    2.61
   0  -2  11   -0.29    0.26
   0  -2 -11   -0.92    0.55
   0  -2  11   -0.18    0.36
   0  -2 -11    0.83    0.39
   0   2  11    0.51    0.50
   0   2 -11   -0.44    0.29
   0   2  11    0.08    0.33
   1  -2  11   12.28    0.80
  -1  -2 -11   11.44    0.72
  -1  -2 -11   13.39    0.99
   1  -2  11   12.77    0.67
   1  -2  11   11.45    0.64
   1   2  11   12.54    0.81
  -1   2 -11   11.52    0.77
   1   2  11   13.04    0.72
   2  -2  11    7.99    0.57
   2  -2  11    6.51    0.55
  -2  -2 -11    5.99    0.70
  -2  -2 -11    6.73    0.78
   2  -2  11    6.72    0.63
   2   2  11    6.56    0.70
   2   2  11    6.27    0.66
   3  -2  11   12.94    0.92
   3  -2  11   10.65    0.80
   3   2  11   12.33    0.77
   3   2  11   12.12    0.81
   4  -2  11    0.76    0.64
   4  -2  11    0.97    0.59
   4   2  11    1.81    0.63
   4   2  11    0.51    0.50
   5  -2  11   21.74    1.28
   5  -2  11   18.43    1.19
   5   2  11   18.77    1.29
   5   2  11   16.96    1.01
   6  -2  11    0.31    0.77
   6  -2  11    0.57    0.64
   6   2  11    1.35    0.63
   6   2  11    1.33    0.58
   7  -2  11    2.55    0.90
   7  -2  11    4.16    1.01
   7   2  11    3.06    0.86
   7   2  11    3.09    0.96
   8  -2  11    0.79    1.03
   8  -2  11    0.31    0.92
   8   2  11    1.18    0.90
   8   2  11    2.68    1.06
   9  -2  11    1.16    0.87
   9   2  11    1.85    0.75
   9   2  11    4.08    1.17
   9  -3 -11    3.19    0.74
   9  -3 -11    3.69    1.13
   9   3 -11    3.98    0.64
  -9   3  11    3.49    0.80
  -9   3  11    3.91    1.03
   8  -3 -11    0.06    0.62
  -8  -3  11   -0.15    0.36
   8  -3 -11   -0.68    0.96
  -8   3  11   -1.23    0.85
   8   3 -11    0.14    0.51
  -8   3  11    0.16    0.87
  -7  -3  11    0.06    0.29
   7  -3 -11   -0.39    0.55
   7  -3 -11   -0.40    0.64
  -7   3  11   -0.97    0.80
  -7   3  11    0.81    0.81
   7   3 -11   -0.48    0.40
  -6  -3  11   10.63    0.41
   6  -3 -11   11.65    0.96
   6  -3 -11   11.74    1.07
  -6   3  11   10.17    0.83
  -6   3  11   10.35    0.81
   6   3 -11   10.81    0.62
   5  -3 -11   18.03    1.27
   5  -3 -11   17.08    1.13
  -5   3  11   16.94    0.95
  -5   3  11   16.85    1.17
   5   3 -11   16.70    0.67
   4  -3 -11    1.69    0.72
   4  -3 -11    1.86    0.64
   4   3 -11    1.07    0.26
  -4   3  11    1.23    0.47
  -4   3  11    1.97    0.67
   3  -3 -11   24.77    1.07
   3  -3 -11   26.02    1.33
  -3   3  11   28.25    1.20
  -3   3  11   26.53    1.11
   2  -3 -11    4.80    0.67
  -2  -3  11    4.81    0.25
   2  -3 -11    5.05    0.76
  -2  -3  11    4.38    0.29
  -2   3  11    5.02    0.63
  -2   3  11    5.56    0.68
  -1  -3  11   -0.17    0.27
  -1  -3  11    0.14    0.20
   1  -3 -11    0.08    0.47
   1  -3 -11    0.20    0.57
  -1   3  11    0.02    0.38
  -1   3  11    0.21    0.56
   0  -3 -11    0.98    0.46
   0  -3  11    0.80    0.37
   0  -3 -11    1.35    0.69
   0   3  11    0.86    0.53
   0   3  11    1.18    0.58
   1  -3  11   21.24    0.97
  -1  -3 -11   21.54    1.25
  -1  -3 -11   24.86    1.19
   1   3  11   22.53    1.02
   1   3  11   21.53    0.96
  -2  -3 -11    1.21    0.51
  -2  -3 -11    2.21    0.58
   2  -3  11    1.57    0.49
   2   3  11    2.60    0.66
   2   3  11    2.18    0.60
   3  -3  11   10.28    0.81
   3   3  11   11.97    0.96
   3   3  11   10.90    0.78
   4  -3  11    2.59    0.74
   4   3  11    2.46    0.68
   4   3  11    3.04    0.63
   5  -3  11   -0.96    0.74
   5   3  11    0.36    0.59
   5   3  11    0.21    0.70
   6  -3  11    0.12    0.81
   6   3  11    0.22    0.64
   6   3  11    2.20    0.79
   7  -3  11    1.62    1.01
   7   3  11    4.63    0.91
   7   3  11    2.85    1.01
   8  -3  11    0.03    1.09
   8   3  11    2.87    1.12
   8   3  11    3.12    0.92
   8  -4 -11    5.56    0.94
   8  -4 -11    5.05    1.07
  -8   4  11    6.84    1.16
  -8   4  11    4.05    1.06
   7  -4 -11    4.20    1.08
   7  -4 -11    4.07    0.98
  -7   4  11    5.23    1.02
  -7   4  11    3.64    1.02
   6  -4 -11   -0.68    0.80
   6  -4 -11   -0.52    0.91
  -6   4  11    0.07    0.84
  -6   4  11   -0.23    0.86
   5  -4 -11    0.14    0.79
   5  -4 -11   -0.50    0.87
  -5   4  11    0.53    0.78
  -5   4  11    0.33    0.81
   4  -4 -11   20.32    1.40
   4  -4 -11   19.53    1.28
  -4   4  11   19.93    1.12
  -4   4  11   18.17    1.25
   3  -4 -11    2.60    0.76
   3  -4 -11    3.18    0.85
  -3   4  11    2.06    0.74
  -3   4  11    3.43    0.58
   2  -4 -11   17.96    1.07
   2  -4 -11   17.87    0.99
  -2   4  11   16.84    1.20
  -2   4  11   16.76    1.12
   1  -4 -11   12.11    1.02
   1  -4 -11   11.76    0.87
  -1   4  11   13.22    1.01
  -1   4  11   13.80    1.09
   0  -4 -11    0.36    0.51
   0  -4 -11    0.48    0.75
   0  -4  11    0.14    0.27
   0   4  11    0.70    0.51
   0   4  11    0.10    0.60
  -1  -4 -11    3.03    0.61
   1  -4  11    1.99    0.41
  -1  -4 -11    1.43    0.78
   1   4  11    1.43    0.56
   1   4  11    1.12    0.61
  -2  -4 -11    9.65    0.93
   2  -4  11    9.58    0.68
  -2  -4 -11   10.15    1.00
   2   4  11   10.65    0.95
   2   4  11    9.45    0.84
   3  -4  11    3.40    0.65
   3   4  11    3.70    0.84
   3   4  11    3.23    0.72
   4  -4  11   -0.08    0.72
   4   4  11    1.17    0.72
   4   4  11    1.78    0.87
   5  -4  11    1.59    0.88
   5   4  11    4.14    0.80
   5   4  11    3.55    0.97
   6  -4  11   -0.84    0.88
   6   4  11    1.43    0.99
   6   4  11    1.42    0.60
   7  -4  11   -1.04    0.99
   7   4  11    1.55    1.05
   7  -5 -11   -0.99    0.80
   7  -5 -11   -0.75    0.98
  -7   5  11   -1.81    1.02
  -7   5  11   -1.73    0.78
   6  -5 -11   -1.13    1.03
   6  -5 -11    0.85    0.99
  -6   5  11   -0.39    0.71
  -6   5  11   -0.25    0.77
   5  -5 -11    0.56    0.70
   5  -5 -11   -0.19    0.96
  -5   5  11   -1.16    0.88
  -5   5  11   -1.53    0.95
   4  -5 -11   -0.15    0.92
   4  -5 -11   -0.55    0.84
  -4   5  11   -0.06    0.83
  -4   5  11   -0.24    0.66
   3  -5 -11   -0.30    0.90
   3  -5 -11    0.35    0.63
  -3   5  11    0.01    0.63
  -3   5  11    0.02    0.79
   2  -5 -11    3.65    0.76
   2  -5 -11    6.36    0.93
  -2   5  11    6.16    0.96
  -2   5  11    4.21    0.66
   1  -5 -11    1.41    0.67
   1  -5 -11    0.10    0.79
  -1   5  11    1.67    0.83
  -1   5  11    0.01    0.70
   0  -5 -11    6.56    0.82
   0  -5 -11    8.11    0.97
   0   5  11    5.67    0.81
   0   5  11    7.20    0.95
  -1  -5 -11    2.83    0.87
   1  -5  11    2.18    0.38
  -1  -5 -11    3.51    0.71
   1   5  11    2.56    0.73
   1   5  11    3.54    0.69
  -2  -5 -11    0.16    0.83
   2  -5  11   -0.15    0.47
  -2  -5 -11    2.11    0.83
   2   5  11   -0.26    0.62
   2   5  11   -0.87    0.66
   3  -5  11    0.47    0.59
   3   5  11    1.90    0.73
   3   5  11    0.45    0.65
   4  -5  11    5.54    0.79
   4   5  11    5.77    1.03
   5  -5  11   -0.39    0.72
   5   5  11    0.47    0.97
   3  -6 -11    0.44    0.98
  -3   6  11    1.00    1.05
   2  -6 -11    0.81    0.93
  -2   6  11    0.90    1.01
   1  -6 -11   -0.05    0.89
  -1   6  11   -0.12    0.97
   0  -6 -11    2.02    0.95
   0   6  11    1.33    0.93
  -1  -6 -11    1.02    0.95
   1   6  11   -0.42    0.95
  -2  -6 -11    5.47    1.03
   2   6  11    3.11    1.04
 -10   0  12   -0.29    0.73
  10   0 -12    0.23    0.89
   9   0 -12   -0.59    0.74
  -9   0  12   -0.55    0.64
  -8   0  12   18.52    1.07
   8   0 -12   17.61    1.20
  -7   0  12   -0.33    0.57
   7   0 -12    0.11    0.60
   6   0 -12   11.87    0.76
  -6   0  12   14.01    0.81
   6   0 -12   13.56    0.91
  -6   0  12   13.66    0.76
  -5   0  12   -0.62    0.40
  -5   0  12   -0.22    0.40
   5   0 -12   -0.04    0.39
   5   0 -12   -0.37    0.49
   4   0 -12   15.02    0.73
   4   0 -12   15.05    0.84
  -4   0  12   15.90    0.72
  -4   0  12   14.50    0.74
  -3   0  12   -0.15    0.34
   3   0 -12   -0.21    0.36
  -3   0  12   -0.33    0.32
   3   0 -12   -0.16    0.42
   2   0 -12   60.08    1.74
   2   0 -12   60.09    1.86
  -2   0  12   58.29    1.78
  -2   0  12   59.83    1.73
  -1   0  12    1.01    0.37
   1   0 -12    1.22    0.45
   1   0 -12    1.23    0.40
  -1   0  12    0.84    0.37
   0   0 -12    5.59    0.53
   0   0  12    7.28    0.55
   0   0  12    6.81    0.55
   0   0 -12    7.08    0.64
  -1   0 -12    0.19    0.52
   1   0  12   -0.03    0.40
   1   0  12    0.42    0.43
   2   0  12    1.62    0.50
   2   0  12    1.29    0.51
   3   0  12    0.32    0.53
   3   0  12    0.21    0.39
   4   0  12    1.30    0.64
   4   0  12    0.96    0.47
   5   0  12   -0.49    0.48
   5   0  12    1.12    0.72
   6   0  12    1.42    0.80
   6   0  12    1.13    0.61
   7   0  12    0.96    0.65
   7   0  12    0.87    0.88
   8   0  12    3.19    1.01
   8   0  12    2.20    0.99
   9   0  12    3.42    1.09
   9   0  12    1.55    1.09
 -10  -1  12    4.27    0.79
  10  -1 -12    3.88    1.05
  10   1 -12    4.04    0.85
 -10   1  12    4.02    0.89
  -9  -1  12    0.53    0.58
   9  -1 -12    0.72    0.87
   9   1 -12   -0.36    0.68
  -9   1  12    1.36    0.78
   8  -1 -12    0.63    0.63
   8  -1 -12    0.03    0.79
  -8  -1  12    0.17    0.58
  -8   1  12   -0.23    0.62
   8   1 -12    0.23    0.59
  -8   1  12   -0.30    0.68
   7  -1 -12    4.40    0.77
   7  -1 -12    5.07    0.66
  -7  -1  12    4.73    0.59
  -7   1  12    4.25    0.57
  -7   1  12    4.56    0.64
   7   1 -12    5.69    0.64
   6  -1 -12   21.76    1.06
   6  -1 -12   21.97    1.22
  -6  -1  12   23.83    0.95
   6   1 -12   23.29    1.08
  -6   1  12   24.06    1.10
  -6   1  12   21.74    1.07
   5  -1 -12    1.48    0.46
  -5  -1  12    1.97    0.41
   5  -1 -12    1.92    0.50
  -5   1  12    1.52    0.51
   5   1 -12    1.73    0.49
  -5   1  12    1.40    0.40
   4  -1 -12   39.92    1.36
  -4  -1  12   41.86    1.25
   4  -1 -12   40.65    1.40
  -4  -1  12   39.75    1.22
   4   1 -12   39.38    1.22
  -4   1  12   40.39    1.39
  -4   1  12   38.51    1.28
   4   1 -12   38.26    1.31
  -3  -1  12    1.98    0.30
   3  -1 -12    1.80    0.55
   3  -1 -12    2.22    0.47
  -3  -1  12    1.84    0.32
  -3  -1  12    2.02    0.37
   3   1 -12    2.31    0.37
  -3   1  12    2.15    0.45
  -3   1  12    2.46    0.48
   3   1 -12    2.21    0.35
   3   1 -12    2.09    0.46
  -2  -1  12    0.83    0.30
  -2  -1  12    0.65    0.31
   2  -1 -12    0.41    0.37
  -2  -1  12    1.28    0.36
   2  -1 -12    0.64    0.44
   2   1 -12    0.32    0.33
   2   1 -12    0.84    0.33
  -2   1  12    0.41    0.40
   2   1 -12    0.68    0.38
  -2   1  12    0.04    0.30
   1  -1 -12    0.80    0.35
  -1  -1  12    1.20    0.36
   1  -1 -12    0.34    0.39
  -1  -1  12    0.43    0.33
  -1  -1  12    0.81    0.29
  -1   1  12    1.14    0.42
  -1   1  12    0.68    0.44
   1   1 -12    0.01    0.36
   1   1 -12    0.52    0.40
   0  -1  12   73.16    2.10
   0  -1  12   76.10    2.05
   0  -1  12   69.73    2.13
   0  -1 -12   73.20    2.16
   0  -1 -12   74.47    2.24
   0   1 -12   69.48    2.18
   0   1  12   71.08    2.16
   0   1 -12   76.53    2.18
   0   1  12   71.84    2.13
   1  -1  12    0.87    0.39
   1  -1  12    1.45    0.45
  -1  -1 -12    0.95    0.50
  -1  -1 -12    1.17    0.60
   1  -1  12    1.12    0.47
   1   1  12    1.12    0.50
   1   1  12    1.46    0.49
   2  -1  12   50.67    1.65
  -2  -1 -12   46.00    1.67
   2  -1  12   47.56    1.60
   2   1  12   47.13    1.55
   2   1  12   48.26    1.69
   3  -1  12    1.42    0.55
   3  -1  12    1.94    0.59
   3   1  12    1.66    0.48
   3   1  12    1.37    0.58
   4  -1  12    0.36    0.45
   4  -1  12    0.46    0.64
   4   1  12    0.64    0.49
   4   1  12   -0.11    0.45
   5  -1  12    0.57    0.55
   5  -1  12    2.03    0.71
   5   1  12    1.49    0.75
   5   1  12    0.97    0.54
   6  -1  12    7.19    0.94
   6  -1  12    9.25    1.00
   6   1  12    8.07    0.94
   6   1  12    7.19    0.97
   7  -1  12    1.56    0.91
   7  -1  12    2.64    0.94
   7   1  12    1.43    0.93
   7   1  12    3.43    0.92
   8  -1  12    3.27    1.04
   8  -1  12    2.84    1.06
   8   1  12    4.04    0.80
   8   1  12    3.56    0.84
   9  -1  12    0.76    0.81
   9  -1  12    2.04    1.12
   9   1  12    1.07    1.00
   9   1  12    1.43    1.07
 -10  -2  12    1.36    0.63
  10  -2 -12    2.91    1.15
 -10   2  12    1.31    0.94
  10   2 -12    2.75    0.82
   9  -2 -12   -0.76    0.77
  -9  -2  12   -0.40    0.56
   9  -2 -12   -1.18    0.67
   9   2 -12   -0.91    0.65
  -9   2  12   -0.93    0.80
  -9   2  12    1.19    0.88
   8  -2 -12   15.84    1.16
  -8  -2  12   16.33    0.92
   8  -2 -12   15.65    1.22
  -8   2  12   14.45    1.06
   8   2 -12   17.29    1.05
  -8   2  12   15.17    1.09
  -7  -2  12    0.64    0.41
   7  -2 -12   -0.47    0.48
   7  -2 -12    0.10    0.81
  -7   2  12    0.95    0.72
  -7   2  12    0.52    0.68
   7   2 -12    0.37    0.50
   6  -2 -12   11.92    0.88
  -6  -2  12   11.76    0.62
   6  -2 -12   11.83    0.88
  -6   2  12   10.95    0.88
  -6   2  12   11.17    0.88
   6   2 -12   11.17    0.79
   5  -2 -12    0.62    0.59
   5  -2 -12    0.15    0.67
  -5  -2  12    0.38    0.31
  -5   2  12    1.04    0.62
   5   2 -12    1.02    0.39
  -5   2  12    0.18    0.59
  -4  -2  12    0.69    0.29
   4  -2 -12    0.30    0.64
   4  -2 -12    0.02    0.53
  -4   2  12    1.24    0.42
   4   2 -12   -0.03    0.35
  -4   2  12    0.44    0.41
   3  -2 -12    0.24    0.62
   3  -2 -12    0.42    0.53
  -3  -2  12    0.90    0.30
  -3   2  12    0.95    0.51
   3   2 -12    0.94    0.38
  -3   2  12    0.47    0.53
   2  -2 -12   16.03    0.94
   2  -2 -12   16.52    0.89
  -2  -2  12   17.65    0.63
  -2  -2  12   17.83    0.71
  -2   2  12   17.58    0.94
   2   2 -12   14.42    0.77
  -2   2  12   14.85    0.76
   1  -2 -12    8.27    0.60
   1  -2 -12    8.38    0.80
  -1  -2  12    8.90    0.63
  -1  -2  12    7.10    0.42
  -1  -2  12    8.17    0.47
  -1   2  12    8.06    0.69
  -1   2  12    7.84    0.64
   0  -2  12    3.30    0.49
   0  -2  12    2.88    0.32
   0  -2 -12    3.43    0.69
   0  -2  12    3.00    0.34
   0  -2 -12    3.53    0.61
   0   2  12    3.49    0.60
   0   2  12    3.61    0.56
  -1  -2 -12    8.00    0.75
   1  -2  12    8.94    0.63
  -1  -2 -12    8.18    0.73
   1  -2  12    9.85    0.72
   1   2  12    9.59    0.73
   1   2  12   10.86    0.72
  -2  -2 -12    9.09    0.90
   2  -2  12    9.55    0.74
   2  -2  12    9.83    0.76
  -2  -2 -12    9.16    0.70
   2   2  12    9.43    0.71
   2   2  12    9.81    0.83
   3  -2  12    1.30    0.57
   3  -2  12    1.26    0.61
   3   2  12    2.10    0.63
   3   2  12    2.30    0.69
   4  -2  12   12.52    0.96
   4  -2  12   12.96    0.96
   4   2  12   11.91    0.93
   4   2  12   13.00    1.04
   5  -2  12    0.82    0.78
   5  -2  12   -0.21    0.63
   5   2  12    0.07    0.78
   5   2  12    0.05    0.51
   6  -2  12    0.47    0.77
   6  -2  12   -0.41    0.86
   6   2  12    1.63    0.86
   6   2  12    1.09    0.77
   7  -2  12    2.70    0.94
   7  -2  12    1.32    0.97
   7   2  12    1.83    0.88
   7   2  12    0.33    0.69
   8  -2  12    3.51    0.87
   8   2  12    5.18    1.16
   8   2  12    3.88    0.98
   9  -3 -12    0.14    0.93
   9  -3 -12    0.93    0.83
   9   3 -12    1.13    0.63
  -9   3  12    1.64    1.00
  -9   3  12    2.22    0.78
   8  -3 -12   -0.10    0.75
   8  -3 -12    0.29    0.86
  -8   3  12   -0.21    0.89
  -8   3  12    0.67    0.89
   8   3 -12   -0.78    0.50
   7  -3 -12    5.80    0.91
   7  -3 -12    5.04    1.04
  -7   3  12    3.75    0.71
   7   3 -12    4.52    0.51
  -7   3  12    4.29    0.92
   6  -3 -12   14.53    1.11
   6  -3 -12   13.61    0.97
  -6   3  12   12.61    1.02
  -6   3  12   15.11    1.10
   6   3 -12   14.34    0.71
   5  -3 -12    2.66    0.58
   5  -3 -12    2.89    0.68
   5   3 -12    2.38    0.35
  -5   3  12    2.03    0.75
  -5   3  12    2.40    0.74
   4  -3 -12   17.43    0.96
   4  -3 -12   18.81    1.09
  -4   3  12   18.40    1.16
  -4   3  12   18.05    1.14
   4   3 -12   18.16    0.70
   3  -3 -12    2.91    0.76
  -3  -3  12    1.58    0.15
   3  -3 -12    1.54    0.65
  -3   3  12    2.23    0.67
  -3   3  12    1.75    0.48
  -2  -3  12    0.57    0.26
   2  -3 -12    1.03    0.72
   2  -3 -12    0.91    0.48
  -2   3  12    0.55    0.46
  -2   3  12    0.51    0.45
   1  -3 -12   15.42    0.87
  -1  -3  12   13.97    0.67
   1  -3 -12   14.89    0.96
  -1   3  12   15.24    0.83
  -1   3  12   15.83    0.88
   0  -3 -12   26.83    1.38
   0  -3  12   23.74    0.98
   0  -3 -12   25.57    1.12
   0   3  12   26.83    1.18
   0   3  12   26.63    1.13
   1  -3  12    2.30    0.53
  -1  -3 -12    2.76    0.72
  -1  -3 -12    3.43    0.80
   1   3  12    3.36    0.64
   1   3  12    3.06    0.55
   2  -3  12    7.97    0.69
  -2  -3 -12    8.27    0.95
  -2  -3 -12    8.56    0.85
   2   3  12    7.84    0.73
   2   3  12    7.52    0.66
   3  -3  12    1.84    0.64
   3   3  12    1.63    0.75
   3   3  12    2.54    0.67
   4  -3  12    0.53    0.79
   4   3  12    1.35    0.71
   4   3  12    1.61    0.82
   5  -3  12    0.60    0.79
   5   3  12    0.59    0.75
   5   3  12    1.62    0.88
   6  -3  12    4.25    1.02
   6   3  12    6.48    0.94
   6   3  12    4.32    0.84
   7  -3  12    3.02    1.09
   7   3  12    3.11    0.91
   7   3  12    3.98    1.09
   8  -3  12   -0.03    0.82
   8   3  12    2.35    1.14
   8   3  12    1.80    0.72
   8  -4 -12    1.16    0.99
   8  -4 -12    2.45    1.17
  -8   4  12   -0.80    0.99
  -8   4  12   -0.21    1.03
   7  -4 -12   -0.75    1.06
   7  -4 -12    0.30    0.69
  -7   4  12    0.31    0.73
  -7   4  12   -0.71    0.94
   6  -4 -12   -0.23    0.71
   6  -4 -12    0.21    0.85
  -6   4  12   -0.30    0.85
  -6   4  12   -0.23    0.90
   5  -4 -12    4.42    0.73
   5  -4 -12    6.19    0.86
  -5   4  12    5.55    0.78
  -5   4  12    3.92    0.70
   4  -4 -12   17.27    1.30
   4  -4 -12   15.87    1.16
  -4   4  12   18.03    1.06
  -4   4  12   18.07    1.32
   3  -4 -12    1.45    0.86
   3  -4 -12    1.25    0.59
  -3   4  12    2.01    0.57
  -3   4  12    2.43    0.81
   2  -4 -12   25.79    1.36
   2  -4 -12   33.77    1.50
  -2   4  12   31.52    1.33
  -2   4  12   30.15    1.40
   1  -4 -12    4.59    0.73
   1  -4 -12    2.97    0.61
  -1   4  12    2.79    0.78
  -1   4  12    3.79    0.72
   0  -4  12    1.90    0.32
   0  -4 -12    0.88    0.56
   0  -4 -12    1.01    0.63
   0   4  12    0.67    0.73
   0   4  12    1.38    0.66
   1  -4  12    9.26    0.67
  -1  -4 -12   10.25    1.06
  -1  -4 -12    7.90    0.78
   1   4  12    8.17    0.84
   1   4  12    7.91    0.78
   2  -4  12    6.46    0.63
  -2  -4 -12    5.10    0.72
  -2  -4 -12    4.55    0.95
   2   4  12    5.61    0.79
   2   4  12    6.48    0.75
   3  -4  12    1.18    0.64
   3   4  12    1.67    0.73
   3   4  12    1.39    0.65
   4  -4  12    5.54    0.87
   4   4  12    4.67    0.80
   4   4  12    5.73    0.84
   5  -4  12    0.22    0.77
   5   4  12    1.94    0.96
   5   4  12    1.31    0.60
   6  -4  12   -0.35    1.03
   6   4  12    2.31    0.82
   6   4  12    2.43    1.07
   6  -5 -12    1.73    1.03
   6  -5 -12    2.09    1.19
  -6   5  12    2.92    0.83
  -6   5  12    0.76    1.11
   5  -5 -12   -0.35    0.96
   5  -5 -12    0.06    1.03
  -5   5  12    1.86    0.79
  -5   5  12    0.92    0.96
   4  -5 -12    0.16    0.98
   4  -5 -12    0.44    0.70
  -4   5  12    0.50    0.95
  -4   5  12   -0.74    0.87
   3  -5 -12    4.96    0.78
   3  -5 -12    5.69    1.10
  -3   5  12    4.93    1.02
  -3   5  12    3.23    0.90
   2  -5 -12    0.02    0.86
   2  -5 -12   -0.19    0.69
  -2   5  12    1.27    0.91
  -2   5  12    0.99    0.61
   1  -5 -12    4.75    1.02
   1  -5 -12    5.26    0.93
  -1   5  12    4.02    0.83
  -1   5  12    4.97    0.93
   0  -5 -12    3.87    0.99
   0  -5 -12    3.22    0.92
   0   5  12    4.27    0.94
   0   5  12    2.53    0.79
  -1  -5 -12    1.34    0.91
  -1  -5 -12    0.46    0.84
   1   5  12   -0.63    0.61
   1   5  12    0.96    0.73
  -2  -5 -12    1.13    0.68
  -2  -5 -12    2.19    0.90
   2  -5  12   -0.04    0.49
   2   5  12    0.26    0.70
   2   5  12   -0.33    0.88
   3  -5  12    2.52    0.65
   3   5  12    2.44    0.76
   3   5  12    2.09    0.99
   4  -5  12    1.51    0.75
   4   5  12    2.22    1.03
   5  -5  12    1.18    0.90
   5   5  12    2.68    1.08
   2  -6 -12    1.27    1.01
   1  -6 -12    0.60    0.74
  -1   6  12    0.80    1.03
   0  -6 -12    1.82    1.00
   0   6  12   -1.57    0.71
 -10   0  13    0.14    0.76
  10   0 -13   -0.83    0.87
  -9   0  13    7.50    0.83
   9   0 -13    9.29    1.00
  -8   0  13   -0.13    0.61
   8   0 -13    0.11    0.72
   7   0 -13    5.31    0.74
  -7   0  13    5.28    0.64
   6   0 -13   -0.38    0.56
  -6   0  13    0.34    0.49
  -5   0  13   11.40    0.70
   5   0 -13   11.04    0.87
  -5   0  13   10.05    0.73
   5   0 -13   10.00    0.72
   4   0 -13   -0.05    0.45
   4   0 -13   -0.06    0.47
  -4   0  13    0.04    0.41
  -4   0  13   -0.28    0.37
  -3   0  13   67.17    2.00
   3   0 -13   66.14    2.09
   3   0 -13   67.92    1.96
  -3   0  13   68.80    1.96
  -2   0  13    1.12    0.41
  -2   0  13    0.09    0.36
   2   0 -13    0.49    0.48
   2   0 -13    0.15    0.39
  -1   0  13   20.55    0.92
  -1   0  13   22.45    0.91
   1   0 -13   22.00    0.94
   1   0 -13   22.74    0.93
   0   0 -13   -0.63    0.51
   0   0  13    0.01    0.38
   0   0  13    0.37    0.44
  -1   0 -13   26.36    1.27
   1   0  13   29.72    1.19
   1   0  13   30.29    1.15
   2   0  13   -0.19    0.47
   2   0  13    0.39    0.50
   3   0  13   61.42    1.99
   3   0  13   65.63    2.13
   4   0  13    0.94    0.66
   4   0  13   -0.12    0.47
   5   0  13    2.57    0.78
   5   0  13    4.38    0.82
   6   0  13    0.42    0.82
   6   0  13    1.16    0.62
   7   0  13    8.13    1.08
   7   0  13    9.06    0.93
   8   0  13    1.11    0.75
   8   0  13    0.75    0.98
   9   0  13    3.26    1.12
   9   0  13    3.14    1.10
  10  -1 -13   -0.09    1.00
 -10  -1  13   -0.87    0.73
 -10   1  13   -0.43    0.85
  10   1 -13   -0.57    0.88
   9  -1 -13   -0.94    0.86
  -9  -1  13   -0.97    0.65
   9   1 -13    0.44    0.79
  -9   1  13    0.28    0.77
   8  -1 -13    1.07    0.83
  -8  -1  13    0.93    0.60
  -8   1  13    0.89    0.73
   8   1 -13    0.30    0.62
   7  -1 -13    9.29    0.95
  -7  -1  13    8.75    0.68
   7  -1 -13    8.96    0.78
  -7   1  13    8.83    0.69
   7   1 -13    9.34    0.82
  -7   1  13    8.53    0.79
   6  -1 -13    0.16    0.54
   6  -1 -13   -0.10    0.69
  -6  -1  13    0.18    0.40
  -6   1  13    0.43    0.56
   6   1 -13    0.04    0.50
  -6   1  13   -0.65    0.58
  -5  -1  13   21.98    0.91
   5  -1 -13   21.21    1.01
   5  -1 -13   21.49    1.03
  -5   1  13   19.93    1.02
  -5   1  13   22.84    1.04
   5   1 -13   20.21    1.02
  -4  -1  13    0.60    0.34
   4  -1 -13    0.38    0.50
   4  -1 -13    0.55    0.58
  -4   1  13    0.96    0.49
  -4   1  13    0.05    0.47
   4   1 -13    0.59    0.42
   3  -1 -13    0.54    0.42
   3  -1 -13    0.31    0.48
  -3  -1  13    0.57    0.38
  -3  -1  13   -0.10    0.29
   3   1 -13    0.27    0.47
  -3   1  13    0.39    0.46
   3   1 -13    0.18    0.36
  -3   1  13    0.42    0.45
  -2  -1  13    7.27    0.52
  -2  -1  13    6.96    0.54
   2  -1 -13    6.15    0.71
   2  -1 -13    7.86    0.64
  -2   1  13    5.98    0.58
  -2   1  13    7.49    0.62
   2   1 -13    6.99    0.51
   2   1 -13    6.93    0.63
  -1  -1  13   39.82    1.33
  -1  -1  13   40.67    1.25
   1  -1 -13   41.05    1.52
  -1  -1  13   40.10    1.29
   1  -1 -13   40.07    1.39
   1   1 -13   39.30    1.40
  -1   1  13   40.03    1.42
  -1   1  13   39.83    1.37
   0  -1 -13    7.53    0.67
   0  -1  13    7.16    0.55
   0  -1  13    7.24    0.57
   0  -1 -13    8.90    0.70
   0  -1  13    7.34    0.58
   0   1  13    7.46    0.65
   0   1  13    7.42    0.58
   0   1 -13    8.05    0.70
  -1  -1 -13   16.26    0.95
  -1  -1 -13   17.14    0.85
   1  -1  13   17.65    0.88
   1  -1  13   19.01    0.90
   1   1  13   18.30    1.00
   1   1  13   17.62    0.84
   2  -1  13    0.43    0.48
   2  -1  13    1.09    0.53
   2   1  13    0.35    0.55
   2   1  13    0.48    0.58
   3  -1  13    5.63    0.69
   3  -1  13    3.66    0.68
   3   1  13    3.59    0.56
   3   1  13    4.12    0.73
   4  -1  13    0.62    0.62
   4  -1  13   -0.12    0.65
   4   1  13    0.93    0.51
   4   1  13    0.58    0.67
   5  -1  13   14.11    1.10
   5  -1  13   17.50    1.22
   5   1  13   13.55    1.00
   5   1  13   17.33    1.27
   6  -1  13    1.24    0.64
   6  -1  13    1.75    0.84
   6   1  13    1.70    0.87
   6   1  13    1.56    0.83
   7  -1  13    1.89    0.74
   7  -1  13    1.86    0.94
   7   1  13    2.16    0.98
   7   1  13    2.27    0.93
   8  -1  13    2.75    0.99
   8  -1  13    0.63    0.77
   8   1  13    1.92    0.98
   8   1  13    2.03    0.81
   9  -2 -13    4.84    1.13
  -9  -2  13    5.89    0.69
  -9   2  13    4.14    0.94
   9   2 -13    4.11    0.75
  -8  -2  13   -0.19    0.50
   8  -2 -13   -0.24    0.75
   8  -2 -13   -0.06    0.93
  -8   2  13    0.18    0.80
   8   2 -13    0.54    0.62
  -8   2  13   -0.47    0.71
   7  -2 -13    3.97    0.79
  -7  -2  13    5.11    0.52
   7  -2 -13    5.38    0.79
  -7   2  13    5.79    0.82
   7   2 -13    4.84    0.65
  -7   2  13    3.66    0.82
   6  -2 -13    7.13    0.94
  -6  -2  13    6.95    0.50
   6  -2 -13    6.40    0.79
   6   2 -13    7.52    0.62
  -6   2  13    7.41    0.80
  -6   2  13    6.09    0.79
  -5  -2  13   12.43    0.64
   5  -2 -13   11.93    0.87
   5  -2 -13   12.89    0.95
   5   2 -13   12.79    0.75
  -5   2  13   11.11    0.87
  -5   2  13   11.02    0.88
   4  -2 -13   13.23    0.98
  -4  -2  13   13.53    0.65
   4  -2 -13   13.89    1.00
  -4   2  13   14.25    0.98
   4   2 -13   13.98    0.75
  -4   2  13   14.85    0.99
  -3  -2  13   53.46    1.56
   3  -2 -13   52.27    1.83
   3  -2 -13   53.58    1.71
   3   2 -13   54.07    1.67
  -3   2  13   54.72    1.78
  -3   2  13   55.45    1.83
   2  -2 -13   -0.42    0.64
   2  -2 -13    0.05    0.41
  -2  -2  13    0.60    0.36
  -2   2  13   -0.11    0.39
   2   2 -13    0.24    0.40
  -2   2  13    0.52    0.51
  -1  -2  13    3.18    0.44
   1  -2 -13    3.13    0.74
   1  -2 -13    2.87    0.50
  -1   2  13    2.60    0.59
  -1   2  13    3.14    0.49
   0  -2 -13   16.85    1.05
   0  -2  13   15.40    0.86
   0  -2 -13   15.25    0.96
   0   2  13   14.90    0.84
   0   2  13   15.93    0.95
   1  -2  13   25.69    1.13
  -1  -2 -13   25.40    1.39
  -1  -2 -13   24.20    1.23
   1   2  13   24.00    1.09
   1   2  13   24.79    1.05
   2  -2  13    5.75    0.59
  -2  -2 -13    5.48    0.72
   2  -2  13    4.90    0.66
   2   2  13    5.44    0.64
   2   2  13    5.40    0.72
   3  -2  13   18.32    1.10
   3  -2  13   17.07    0.97
   3   2  13   16.75    1.13
   3   2  13   16.90    1.02
   4  -2  13    0.83    0.71
   4   2  13    0.51    0.54
   4   2  13    1.41    0.60
   5  -2  13   -0.43    0.77
   5   2  13    0.10    0.55
   5   2  13    0.80    0.82
   6  -2  13    2.97    0.92
   6   2  13    4.75    1.00
   6   2  13    3.84    0.90
   7  -2  13    4.65    1.07
   7   2  13    3.69    0.84
   7   2  13    6.59    1.03
   8  -2  13    0.78    1.09
   8   2  13    0.87    0.72
   8   2  13    2.17    1.11
   9  -3 -13   -1.55    1.13
   9  -3 -13    0.15    0.93
  -9   3  13   -2.81    0.91
  -9   3  13   -1.38    0.99
   8  -3 -13    3.41    1.14
   8  -3 -13    3.33    0.92
  -8   3  13    2.95    0.76
  -8   3  13    2.87    0.98
   7  -3 -13    8.11    1.00
   7  -3 -13    8.22    1.16
  -7   3  13    7.96    1.00
  -7   3  13    8.79    1.02
   6  -3 -13    4.59    1.01
   6  -3 -13    2.23    0.83
  -6   3  13    2.56    0.67
   6   3 -13    3.53    0.46
  -6   3  13    4.12    0.89
   5  -3 -13   10.66    0.95
   5  -3 -13   10.00    1.08
  -5   3  13    9.89    0.82
   5   3 -13    9.89    0.63
  -5   3  13    8.98    0.79
   4  -3 -13    2.81    0.76
   4  -3 -13    3.51    0.90
  -4   3  13    3.37    0.61
  -4   3  13    2.32    0.58
   4   3 -13    2.34    0.38
   3  -3 -13    0.55    0.52
   3  -3 -13    1.07    0.60
  -3  -3  13    0.21    0.23
  -3   3  13    0.75    0.66
  -3   3  13    0.66    0.65
  -2  -3  13    6.89    0.51
   2  -3 -13    9.42    0.83
   2  -3 -13    8.57    0.85
  -2   3  13    8.17    0.83
  -2   3  13    8.01    0.66
   1  -3 -13   18.62    1.10
   1  -3 -13   20.16    1.18
  -1  -3  13   16.44    0.77
  -1   3  13   18.68    1.16
  -1   3  13   18.92    0.94
   0  -3  13   -0.74    0.40
   0  -3 -13   -0.36    0.56
   0  -3 -13    1.03    0.54
   0   3  13   -0.21    0.47
   0   3  13    0.06    0.44
  -1  -3 -13    7.69    0.98
  -1  -3 -13    7.36    0.73
   1  -3  13    6.48    0.65
   1   3  13    7.88    0.78
   1   3  13    7.99    0.74
  -2  -3 -13    5.06    0.93
  -2  -3 -13    4.86    0.84
   2  -3  13    4.96    0.71
   2   3  13    6.39    0.79
   2   3  13    5.95    0.71
   3  -3  13    0.54    0.74
   3   3  13    1.49    0.73
   3   3  13    1.61    0.61
   4  -3  13    2.28    0.78
   4   3  13    3.57    0.81
   4   3  13    3.82    0.91
   5  -3  13    4.81    0.96
   5   3  13    6.11    0.94
   5   3  13    5.87    1.03
   6  -3  13    0.55    0.92
   6   3  13    1.97    0.88
   6   3  13    1.20    0.99
   7  -3  13   -0.50    1.03
   7   3  13    1.35    0.82
   7   3  13    3.41    0.93
   7  -4 -13   -1.22    1.08
   7  -4 -13   -2.32    0.93
  -7   4  13   -0.96    0.99
  -7   4  13   -1.03    0.71
   6  -4 -13    5.91    1.04
   6  -4 -13    9.79    1.25
  -6   4  13    7.49    0.90
  -6   4  13    8.32    1.09
   5  -4 -13    4.84    0.95
   5  -4 -13    4.97    0.88
  -5   4  13    4.00    0.98
  -5   4  13    4.85    0.94
   4  -4 -13   11.34    1.00
   4  -4 -13    9.28    0.86
  -4   4  13    8.86    0.82
  -4   4  13    9.41    0.88
   3  -4 -13    6.17    1.04
   3  -4 -13    6.50    0.93
  -3   4  13    6.96    0.77
  -3   4  13    4.15    0.86
   2  -4 -13    0.37    0.64
   2  -4 -13   -1.22    0.76
  -2   4  13    0.05    0.76
  -2   4  13    0.11    0.71
   1  -4 -13   -0.05    0.57
   1  -4 -13   -0.02    0.64
  -1   4  13    0.23    0.75
  -1   4  13   -0.75    0.68
   0  -4 -13   12.27    0.92
   0  -4 -13   12.59    1.16
   0  -4  13   11.49    0.60
   0   4  13   12.61    0.96
   0   4  13   11.14    1.02
  -1  -4 -13    5.33    0.98
   1  -4  13    4.31    0.53
  -1  -4 -13    4.95    0.91
   1   4  13    4.65    0.72
   1   4  13    4.17    0.76
  -2  -4 -13    3.62    0.90
   2  -4  13    2.75    0.59
  -2  -4 -13    2.48    0.73
   2   4  13    3.05    0.71
   2   4  13    3.54    0.76
   3  -4  13    4.30    0.75
   3   4  13    5.02    0.82
   3   4  13    5.69    1.01
   4  -4  13    2.80    0.83
   4   4  13    2.51    0.65
   4   4  13    2.00    0.98
   5  -4  13   -0.64    0.80
   5   4  13    0.63    0.62
   5   4  13   -0.17    0.97
   6  -4  13    1.04    0.97
   6   4  13    3.33    0.89
   6   4  13    4.43    0.91
   5  -5 -13    0.95    1.03
   5  -5 -13    0.51    1.10
  -5   5  13    0.58    1.04
  -5   5  13    0.55    0.96
   4  -5 -13    2.57    1.00
   4  -5 -13    1.44    1.06
  -4   5  13    1.66    0.78
  -4   5  13   -0.67    0.92
   3  -5 -13   -0.55    0.91
   3  -5 -13    1.04    1.05
  -3   5  13    0.76    0.95
  -3   5  13    1.33    0.90
   2  -5 -13    7.46    1.17
   2  -5 -13    7.90    1.07
  -2   5  13    5.90    0.77
  -2   5  13    7.70    1.09
   1  -5 -13    7.62    1.03
   1  -5 -13    9.94    1.19
  -1   5  13    6.07    0.93
  -1   5  13    5.82    0.84
   0  -5 -13    2.52    0.96
   0  -5 -13    2.66    0.79
   0   5  13    1.46    0.61
   0   5  13    2.00    0.94
  -1  -5 -13    1.62    0.72
  -1  -5 -13    3.15    0.77
   1   5  13    1.84    0.80
   1   5  13    2.18    0.74
  -2  -5 -13    1.33    0.95
   2   5  13    0.63    0.80
   2   5  13    0.36    0.98
   3  -5  13   -0.68    0.63
   3   5  13    0.29    0.97
   3   5  13    1.99    0.84
   4  -5  13   -0.12    0.72
   4   5  13    2.42    0.84
 -10   0  14    7.71    0.94
  10   0 -14   10.91    1.15
   9   0 -14   -0.81    0.79
  -9   0  14   -0.34    0.70
  -8   0  14    5.03    0.74
   8   0 -14    4.53    0.86
   7   0 -14   -0.58    0.66
  -7   0  14    0.26    0.59
   6   0 -14    9.56    0.84
  -6   0  14    8.35    0.70
   5   0 -14   -0.74    0.54
  -5   0  14    0.65    0.48
   4   0 -14   56.35    1.95
  -4   0  14   57.84    1.77
  -4   0  14   57.75    1.79
   4   0 -14   58.69    1.80
   3   0 -14    0.04    0.43
  -3   0  14    0.22    0.40
   3   0 -14    1.04    0.56
  -3   0  14    0.64    0.44
   2   0 -14    6.21    0.68
   2   0 -14    6.19    0.58
  -2   0  14    6.90    0.57
  -2   0  14    7.40    0.59
   1   0 -14    0.57    0.42
  -1   0  14    0.12    0.42
   1   0 -14    0.07    0.55
  -1   0  14   -0.01    0.43
   0   0  14   18.84    0.92
   0   0 -14   16.38    0.91
   0   0  14   16.06    0.89
   1   0  14    0.65    0.50
  -1   0 -14    0.60    0.63
   1   0  14    0.97    0.52
   2   0  14    8.96    0.76
   2   0  14   10.11    0.81
   3   0  14    0.44    0.60
   3   0  14    0.96    0.61
   4   0  14    1.70    0.71
   4   0  14    1.46    0.56
   5   0  14    0.10    0.55
   5   0  14    0.70    0.78
   6   0  14    4.47    0.94
   6   0  14    2.85    0.85
   7   0  14    2.32    0.97
   7   0  14    1.79    0.93
   8   0  14    1.15    1.01
   8   0  14    1.93    0.79
   9  -1 -14    0.59    0.71
  -9  -1  14    0.64    0.62
  -9   1  14    0.47    0.81
   9   1 -14    0.70    0.83
  -8  -1  14   14.41    1.05
   8  -1 -14   13.51    1.16
  -8   1  14   14.04    1.02
   8   1 -14   11.71    0.94
  -7  -1  14    0.74    0.55
   7  -1 -14    0.04    0.80
   7   1 -14    0.67    0.61
  -7   1  14    0.24    0.64
   6  -1 -14   15.02    1.00
   6  -1 -14   14.37    1.09
  -6  -1  14   15.92    0.91
   6   1 -14   15.39    1.06
  -6   1  14   15.77    1.05
  -6   1  14   13.99    0.97
   5  -1 -14    2.76    0.60
   5  -1 -14    2.63    0.73
  -5  -1  14    2.60    0.49
  -5   1  14    2.83    0.49
  -5   1  14    2.02    0.57
   5   1 -14    3.19    0.56
  -4  -1  14    5.29    0.48
   4  -1 -14    5.74    0.76
   4  -1 -14    5.97    0.66
  -4   1  14    5.60    0.64
   4   1 -14    6.46    0.67
  -4   1  14    5.25    0.63
  -3  -1  14    7.69    0.59
   3  -1 -14    7.59    0.68
   3  -1 -14    7.02    0.80
  -3   1  14    7.24    0.66
  -3   1  14    6.93    0.65
   3   1 -14    7.53    0.69
  -2  -1  14   67.53    1.98
   2  -1 -14   68.28    2.24
   2  -1 -14   67.82    2.09
  -2   1  14   68.56    2.13
  -2   1  14   71.49    2.08
   2   1 -14   67.82    2.11
   1  -1 -14    1.06    0.64
  -1  -1  14    0.55    0.35
  -1  -1  14    0.19    0.40
   1  -1 -14    0.34    0.54
  -1   1  14    0.12    0.37
   1   1 -14    0.27    0.51
  -1   1  14    0.47    0.37
   0  -1  14   24.80    1.06
   0  -1 -14   25.94    1.16
   0  -1 -14   23.44    1.14
   0  -1  14   25.39    1.03
   0   1  14   25.36    1.11
   0   1  14   24.27    1.13
   0   1 -14   24.05    1.15
   1  -1  14    0.68    0.45
   1  -1  14    0.26    0.50
  -1  -1 -14   -0.32    0.71
   1   1  14    0.34    0.55
   1   1  14    0.82    0.55
   2  -1  14    9.22    0.76
   2  -1  14    8.90    0.77
   2   1  14    6.71    0.64
   2   1  14    7.70    0.69
   3  -1  14    1.75    0.59
   3  -1  14    1.99    0.67
   3   1  14    1.33    0.53
   3   1  14    1.40    0.65
   4  -1  14   26.57    1.23
   4  -1  14   28.84    1.37
   4   1  14   26.19    1.44
   4   1  14   24.37    1.22
   5  -1  14    0.84    0.80
   5  -1  14    2.23    0.77
   5   1  14    1.30    0.60
   5   1  14    1.24    0.62
   6  -1  14    5.90    1.01
   6  -1  14    5.08    0.94
   6   1  14    4.99    0.96
   6   1  14    5.68    1.02
   7  -1  14    1.48    0.93
   7  -1  14    0.44    0.94
   7   1  14    1.71    0.94
   7   1  14    1.48    0.98
   8  -1  14    2.68    1.08
   8   1  14    2.96    1.05
   8   1  14    1.43    0.80
   9  -2 -14    0.64    1.08
  -9  -2  14   -0.12    0.59
   9   2 -14    0.44    0.73
  -9   2  14   -0.72    0.86
  -8  -2  14   -0.58    0.53
   8  -2 -14   -0.90    0.97
  -8   2  14   -0.59    0.60
   8   2 -14   -0.33    0.65
   7  -2 -14   -0.48    0.90
   7  -2 -14   -0.04    0.74
  -7  -2  14    0.55    0.46
  -7   2  14    0.42    0.77
   7   2 -14    0.13    0.60
  -7   2  14   -1.13    0.68
   6  -2 -14   14.94    1.18
  -6  -2  14   14.19    0.71
   6  -2 -14   14.40    1.11
  -6   2  14   12.52    0.98
   6   2 -14   14.18    0.90
  -6   2  14   12.54    0.93
  -5  -2  14    0.46    0.37
   5  -2 -14    0.47    0.81
   5  -2 -14   -0.12    0.47
  -5   2  14   -0.26    0.64
  -5   2  14    0.22    0.64
   5   2 -14    0.36    0.50
  -4  -2  14   26.50    0.95
   4  -2 -14   26.53    1.26
   4  -2 -14   27.65    1.44
   4   2 -14   26.38    1.07
  -4   2  14   27.03    1.27
  -4   2  14   25.87    1.24
   3  -2 -14    0.03    0.73
  -3  -2  14    0.71    0.35
   3  -2 -14    0.56    0.62
   3   2 -14    0.23    0.46
  -3   2  14    0.99    0.60
  -3   2  14    0.91    0.58
   2  -2 -14    3.83    0.69
  -2  -2  14    3.65    0.46
   2  -2 -14    4.02    0.80
   2   2 -14    4.49    0.56
  -2   2  14    2.79    0.62
  -2   2  14    4.20    0.67
   1  -2 -14   -0.08    0.73
   1  -2 -14    1.55    0.65
  -1  -2  14    1.04    0.46
  -1   2  14    1.28    0.58
  -1   2  14    0.44    0.57
   0  -2 -14    8.58    0.83
   0  -2 -14    7.69    0.78
   0  -2  14    8.58    0.69
   0   2  14    8.43    0.70
   0   2  14    7.81    0.76
   1  -2  14   -0.02    0.57
  -1  -2 -14    1.87    0.81
  -1  -2 -14   -0.03    0.67
   1   2  14    0.16    0.45
   1   2  14    0.37    0.48
  -2  -2 -14   14.17    1.17
   2  -2  14   17.95    1.05
   2   2  14   17.27    0.96
   2   2  14   15.60    1.00
   3  -2  14    1.74    0.68
   3   2  14    1.89    0.56
   3   2  14    1.37    0.76
   4  -2  14    0.66    0.72
   4   2  14    0.72    0.81
   4   2  14    0.66    0.58
   5  -2  14    0.69    0.81
   5   2  14    0.61    0.65
   5   2  14    0.86    0.62
   6  -2  14    2.32    0.98
   6   2  14    1.95    0.89
   6   2  14    2.52    0.97
   7  -2  14    2.01    1.06
   7   2  14    3.75    0.99
   7   2  14    2.34    1.00
   8  -3 -14    3.59    0.99
   8  -3 -14    3.94    0.94
  -8   3  14    3.08    1.00
  -8   3  14    4.45    0.82
   7  -3 -14   -0.42    0.63
   7  -3 -14    0.67    1.04
  -7   3  14   -1.11    0.83
  -7   3  14   -0.91    0.64
   6  -3 -14    2.10    0.86
   6  -3 -14    3.68    1.04
  -6   3  14    2.14    0.84
  -6   3  14    2.67    0.89
   5  -3 -14    4.38    0.70
   5  -3 -14    5.13    1.03
  -5   3  14    4.26    0.86
  -5   3  14    3.37    0.83
   5   3 -14    3.17    0.46
   4  -3 -14    1.75    0.89
   4  -3 -14    1.66    0.59
  -4   3  14    1.87    0.78
  -4   3  14    1.92    0.76
   4   3 -14    1.99    0.42
  -3  -3  14    5.67    0.39
   3  -3 -14    6.98    0.99
   3  -3 -14    6.17    0.85
  -3   3  14    5.81    0.80
  -3   3  14    6.78    0.84
  -2  -3  14   16.72    0.76
   2  -3 -14   20.94    1.18
   2  -3 -14   18.27    1.25
  -2   3  14   20.40    1.06
  -2   3  14   21.74    1.21
   1  -3 -14    0.00    0.73
  -1  -3  14    0.29    0.43
   1  -3 -14    0.03    0.61
  -1   3  14    0.62    0.69
  -1   3  14    0.28    0.49
   0  -3  14    4.83    0.59
   0  -3 -14    4.81    0.68
   0  -3 -14    5.35    0.78
   0   3  14    4.68    0.79
   0   3  14    4.10    0.60
   1  -3  14    2.89    0.60
  -1  -3 -14    3.80    0.67
  -1  -3 -14    3.52    0.73
   1   3  14    2.71    0.58
   1   3  14    2.90    0.62
   2  -3  14    2.68    0.70
  -2  -3 -14    2.92    0.73
  -2  -3 -14    3.26    0.67
   2   3  14    3.35    0.61
   2   3  14    5.08    0.86
   3  -3  14    1.49    0.70
   3   3  14    2.75    0.62
   3   3  14    1.46    0.85
   4  -3  14    5.63    0.88
   4   3  14    6.61    1.05
   4   3  14    5.36    0.76
   5  -3  14    0.62    0.86
   5   3  14    1.75    0.75
   5   3  14    1.08    0.85
   6  -3  14    0.74    0.99
   6   3  14    1.71    0.91
   6   3  14    1.64    1.03
   7  -4 -14   -0.43    0.99
   7  -4 -14   -0.58    0.86
  -7   4  14   -1.43    1.01
  -7   4  14   -2.67    0.96
   6  -4 -14   -0.27    0.71
   6  -4 -14   -0.25    1.11
  -6   4  14   -0.22    0.98
  -6   4  14   -0.30    0.93
   5  -4 -14   -0.03    0.91
   5  -4 -14   -1.24    1.00
  -5   4  14   -1.61    0.87
  -5   4  14    0.35    0.69
   4  -4 -14    2.25    0.92
   4  -4 -14    3.65    1.06
  -4   4  14    3.86    0.95
  -4   4  14    2.99    0.90
   3  -4 -14    1.16    1.00
   3  -4 -14    1.19    0.88
  -3   4  14    1.01    0.87
  -3   4  14    1.72    0.83
   2  -4 -14   -0.60    0.69
   2  -4 -14   -0.25    0.82
  -2   4  14   -0.09    0.57
  -2   4  14   -0.12    0.80
   1  -4 -14    3.74    0.91
   1  -4 -14    6.68    1.07
  -1   4  14    3.97    0.71
  -1   4  14    3.85    0.84
   0  -4 -14    8.57    1.14
   0  -4  14    6.19    0.47
   0  -4 -14    7.99    1.00
   0   4  14    6.94    0.97
   0   4  14    5.76    0.72
  -1  -4 -14    1.22    0.97
  -1  -4 -14   -0.71    0.86
   1  -4  14    0.06    0.49
   1   4  14    0.63    0.63
   1   4  14    0.03    0.55
   2  -4  14    2.83    0.64
  -2  -4 -14    2.46    0.91
  -2  -4 -14    3.39    1.01
   2   4  14    2.60    0.93
   2   4  14    2.61    0.82
   3  -4  14    1.84    0.72
   3   4  14    2.43    0.98
   3   4  14    2.92    0.86
   4  -4  14   -0.53    0.71
   4   4  14    0.88    0.75
   4   4  14    1.65    0.85
   5  -4  14    1.10    0.97
   5   4  14    2.77    1.09
   5   4  14    2.75    0.90
   4  -5 -14    0.10    1.09
   4  -5 -14    0.36    1.04
  -4   5  14   -1.62    0.94
  -4   5  14   -1.35    0.97
   3  -5 -14    7.22    1.11
   3  -5 -14    4.74    1.17
  -3   5  14    4.11    0.98
  -3   5  14    4.60    0.87
   2  -5 -14    0.58    0.98
   2  -5 -14   -0.02    1.06
  -2   5  14    1.02    0.74
  -2   5  14    0.12    0.65
   1  -5 -14    0.31    0.77
   1  -5 -14    0.11    0.94
  -1   5  14    0.13    0.71
  -1   5  14   -0.96    0.81
   0  -5 -14   -0.58    0.91
   0  -5 -14    2.23    1.06
   0   5  14   -0.25    0.94
   0   5  14   -0.56    0.81
  -1  -5 -14    5.28    1.11
  -1  -5 -14    3.45    1.03
   1   5  14    3.05    1.03
   1   5  14    3.09    0.90
  -2  -5 -14    1.73    0.99
   2   5  14    0.18    0.79
   2   5  14   -0.08    0.99
   3  -5  14    0.47    0.63
   3   5  14    0.69    0.86
   3   5  14    0.92    0.80
   9   0 -15   -0.34    0.87
  -9   0  15   -0.58    0.71
  -8   0  15    0.01    0.74
   8   0 -15   -1.46    0.78
  -7   0  15    9.49    0.80
   7   0 -15   10.19    0.96
  -6   0  15   -0.53    0.54
   6   0 -15   -0.46    0.67
  -5   0  15   23.70    1.08
   5   0 -15   22.43    1.22
  -4   0  15    0.71    0.54
   4   0 -15    0.08    0.60
  -3   0  15    1.07    0.45
  -3   0  15    1.51    0.48
   3   0 -15    1.49    0.63
   3   0 -15    1.56    0.50
   2   0 -15    0.14    0.61
  -2   0  15    0.62    0.48
   2   0 -15    0.55    0.53
  -2   0  15   -0.08    0.48
   1   0 -15   14.93    0.87
   1   0 -15   16.89    1.10
  -1   0  15   16.57    0.96
  -1   0  15   17.07    0.92
   0   0 -15   -0.27    0.65
   0   0  15    1.03    0.51
   0   0  15    0.16    0.50
   1   0  15   27.54    1.25
   1   0  15   28.64    1.26
   2   0  15    1.27    0.58
   2   0  15   -0.68    0.60
   3   0  15    2.56    0.74
   3   0  15    2.15    0.69
   4   0  15    0.01    0.51
   4   0  15    0.08    0.71
   5   0  15    7.34    0.97
   5   0  15    7.53    0.95
   6   0  15    0.98    0.91
   6   0  15    0.99    0.86
   7   0  15    6.83    1.10
   7   0  15    5.58    1.09
   9  -1 -15    3.76    1.06
  -9  -1  15    2.44    0.76
  -9   1  15    2.20    0.86
   9   1 -15    2.97    0.83
  -8  -1  15   -0.58    0.61
   8  -1 -15    0.17    0.67
   8   1 -15   -0.07    0.79
  -8   1  15    0.40    0.77
   7  -1 -15   10.25    1.07
  -7  -1  15    8.52    0.74
   7   1 -15   10.57    0.94
  -7   1  15    9.66    0.90
  -6  -1  15    0.17    0.52
   6  -1 -15    1.04    0.80
   6   1 -15    0.28    0.59
  -6   1  15   -0.34    0.64
   5  -1 -15   -0.30    0.58
  -5  -1  15    0.42    0.48
   5  -1 -15    0.83    0.77
  -5   1  15    0.34    0.61
  -5   1  15    0.13    0.55
   5   1 -15    0.97    0.57
   4  -1 -15    0.57    0.56
  -4  -1  15    1.44    0.44
   4  -1 -15    2.06    0.70
  -4   1  15    0.43    0.55
  -4   1  15    1.81    0.60
   4   1 -15    1.61    0.63
   3  -1 -15    9.01    0.75
   3  -1 -15   10.06    0.78
  -3  -1  15    8.99    0.65
   3   1 -15    8.95    0.73
  -3   1  15    9.47    0.70
  -3   1  15    9.43    0.74
   2  -1 -15    1.02    0.69
   2  -1 -15    1.34    0.59
  -2  -1  15    1.49    0.49
  -2   1  15    0.81    0.54
   2   1 -15    0.43    0.54
  -2   1  15    0.89    0.41
   1  -1 -15    5.71    0.70
   1  -1 -15    6.88    0.86
  -1  -1  15    5.89    0.57
  -1   1  15    5.87    0.67
   1   1 -15    4.89    0.68
  -1   1  15    5.12    0.63
   0  -1 -15    2.71    0.77
   0  -1  15    1.60    0.52
   0  -1 -15    1.46    0.62
   0   1  15    2.54    0.60
   0   1  15    2.00    0.59
  -1  -1 -15    1.25    0.59
   1  -1  15    1.74    0.57
   1  -1  15    1.25    0.56
   1   1  15    0.62    0.46
   1   1  15    1.36    0.63
   2  -1  15    4.61    0.65
   2  -1  15    4.55    0.72
   2   1  15    4.96    0.77
   2   1  15    5.12    0.78
   3  -1  15    5.65    0.80
   3  -1  15    6.15    0.75
   3   1  15    4.83    0.82
   3   1  15    5.50    0.82
   4  -1  15    1.25    0.59
   4  -1  15    2.67    0.69
   4   1  15    0.72    0.57
   4   1  15    0.88    0.77
   5  -1  15    2.01    0.79
   5  -1  15    1.20    0.85
   5   1  15    1.37    0.86
   5   1  15    0.54    0.63
   6  -1  15    1.25    0.93
   6   1  15    2.30    0.94
   6   1  15    2.37    0.94
   7  -1  15    2.98    1.05
   7   1  15    1.63    0.78
   7   1  15    3.99    1.04
   8  -2 -15    1.96    0.82
  -8  -2  15    1.74    0.56
  -8   2  15    0.38    0.89
   8   2 -15    1.11    0.72
   7  -2 -15    2.91    0.83
   7  -2 -15    2.15    1.01
  -7  -2  15    2.41    0.51
  -7   2  15    2.57    0.65
   7   2 -15    3.14    0.68
  -6  -2  15    2.30    0.47
   6  -2 -15    3.12    0.77
   6  -2 -15    3.81    0.80
   6   2 -15    1.35    0.62
  -6   2  15    2.39    0.77
  -6   2  15    2.15    0.79
   5  -2 -15   16.75    1.18
   5  -2 -15   17.18    1.16
  -5  -2  15   17.12    0.81
  -5   2  15   16.55    1.17
   5   2 -15   16.17    0.97
  -5   2  15   18.58    1.22
  -4  -2  15    0.00    0.39
   4  -2 -15    0.75    0.83
   4  -2 -15   -0.39    0.65
  -4   2  15    0.12    0.63
  -4   2  15    0.81    0.67
   4   2 -15   -0.42    0.49
   3  -2 -15   -0.05    0.64
   3  -2 -15    1.10    0.60
  -3  -2  15   -0.01    0.41
   3   2 -15    0.32    0.50
  -3   2  15    0.84    0.64
  -3   2  15    0.23    0.60
   2  -2 -15    2.23    0.70
  -2  -2  15    3.44    0.50
   2  -2 -15    3.14    0.85
  -2   2  15    3.46    0.56
  -2   2  15    2.84    0.64
   2   2 -15    2.48    0.59
   1  -2 -15   28.65    1.53
   1  -2 -15   27.66    1.36
  -1  -2  15   26.04    1.12
  -1   2  15   27.06    1.32
  -1   2  15   28.56    1.29
   0  -2 -15    1.30    0.72
   0  -2  15    0.70    0.54
   0  -2 -15    1.15    0.81
   0   2  15    0.61    0.65
   0   2  15    1.14    0.63
   1  -2  15   26.02    1.26
  -1  -2 -15   24.60    1.32
  -1  -2 -15   24.92    1.34
   1   2  15   24.59    1.30
   1   2  15   22.89    1.17
  -2  -2 -15    1.40    0.69
   2  -2  15    1.33    0.65
   2   2  15    1.56    0.76
   2   2  15    2.64    0.75
   3  -2  15    1.45    0.72
   3   2  15    0.73    0.81
   3   2  15    0.86    0.77
   4  -2  15    2.96    0.84
   4   2  15    2.50    0.86
   4   2  15    2.43    0.70
   5  -2  15    2.64    0.92
   5   2  15    1.82    0.86
   5   2  15    2.67    0.96
   6  -2  15    1.65    0.99
   6   2  15    1.32    0.71
   6   2  15    2.17    0.76
   7  -2  15    2.44    1.08
   7   2  15    1.30    1.08
   7   2  15    2.42    1.02
   8  -3 -15   -1.58    0.91
  -8   3  15   -1.78    0.97
   7  -3 -15    1.95    0.94
   7  -3 -15    1.64    1.14
  -7   3  15    0.71    0.92
  -7   3  15    0.52    0.93
   6  -3 -15   -0.37    1.02
   6  -3 -15    1.89    0.87
  -6   3  15    2.86    0.73
  -6   3  15    0.85    0.85
   5  -3 -15    0.96    0.86
   5  -3 -15    2.65    0.81
  -5   3  15    0.28    0.82
  -5   3  15    2.49    0.67
   4  -3 -15    8.04    0.91
   4  -3 -15    6.62    0.94
  -4   3  15    6.62    0.74
  -4   3  15    5.10    0.88
   4   3 -15    6.93    0.56
   3  -3 -15   15.46    1.26
  -3  -3  15   13.75    0.65
   3  -3 -15   15.76    1.10
  -3   3  15   13.85    1.07
  -3   3  15   14.81    0.98
   2  -3 -15    1.04    0.70
  -2  -3  15   -0.13    0.40
   2  -3 -15    0.94    0.59
  -2   3  15   -0.46    0.70
  -2   3  15    0.36    0.75
   1  -3 -15    4.41    1.00
   1  -3 -15    5.72    0.90
  -1  -3  15    4.64    0.54
  -1   3  15    4.27    0.67
  -1   3  15    4.46    0.78
   0  -3  15    3.90    0.61
   0  -3 -15    3.53    1.00
   0  -3 -15    5.01    0.71
   0   3  15    4.80    0.87
   0   3  15    5.47    0.67
   1  -3  15    1.77    0.62
  -1  -3 -15    1.19    0.96
  -1  -3 -15    1.69    0.63
   1   3  15    0.87    0.74
   1   3  15    2.36    0.64
  -2  -3 -15    3.96    1.04
   2  -3  15    4.23    0.74
   2   3  15    3.69    0.84
   2   3  15    3.19    0.90
   3  -3  15    7.21    0.93
   3   3  15    5.64    0.94
   3   3  15    6.30    1.02
   4  -3  15    0.27    0.79
   4   3  15    0.44    0.82
   4   3  15    1.26    0.73
   5  -3  15    0.70    0.89
   5   3  15    1.63    1.03
   5   3  15    1.21    0.69
   6  -3  15   -0.30    0.96
   6   3  15    2.23    0.97
   6   3  15    0.90    0.79
   6  -4 -15    1.28    1.18
   6  -4 -15    1.57    1.03
  -6   4  15   -0.61    0.97
  -6   4  15    1.27    0.77
   5  -4 -15    2.85    0.79
   5  -4 -15    2.65    1.17
  -5   4  15    1.53    0.97
  -5   4  15    1.71    0.99
   4  -4 -15    1.86    1.09
   4  -4 -15   -0.27    0.90
  -4   4  15   -0.18    0.67
  -4   4  15   -0.57    0.89
   3  -4 -15    0.90    0.90
   3  -4 -15    1.20    1.04
  -3   4  15   -0.48    0.63
  -3   4  15   -0.76    0.81
   2  -4 -15    5.21    0.79
   2  -4 -15    2.79    0.83
  -2   4  15    4.80    0.72
  -2   4  15    4.23    0.76
   1  -4 -15    3.30    1.08
   1  -4 -15    4.35    0.97
  -1   4  15    2.52    0.89
  -1   4  15    2.90    0.84
   0  -4 -15    1.66    0.92
   0  -4 -15    1.03    1.01
   0   4  15    1.41    0.89
   0   4  15    1.03    0.62
   1  -4  15    0.37    0.52
  -1  -4 -15    2.21    0.94
  -1  -4 -15    2.24    0.80
   1   4  15    0.55    0.81
   1   4  15    1.01    0.68
   2  -4  15    1.46    0.66
  -2  -4 -15    2.87    1.02
  -2  -4 -15    2.51    0.74
   2   4  15    1.37    0.84
   2   4  15    1.56    0.97
   3  -4  15    0.14    0.71
   3   4  15    1.25    0.75
   3   4  15    1.37    0.67
   4  -4  15    1.41    0.86
   4   4  15    3.30    0.95
   4   4  15    3.60    1.11
   3  -5 -15    6.57    1.17
   3  -5 -15    8.59    1.30
  -3   5  15    3.26    1.02
  -3   5  15    8.04    1.19
   2  -5 -15    0.80    1.04
   2  -5 -15   -0.41    1.12
  -2   5  15   -1.34    0.93
  -2   5  15   -0.21    0.68
   1  -5 -15    0.75    1.01
   1  -5 -15    0.94    1.10
  -1   5  15   -0.92    0.96
  -1   5  15    0.24    0.87
   0  -5 -15    4.41    0.86
   0  -5 -15    3.32    1.14
   0   5  15    2.58    0.93
   0   5  15    3.17    1.08
  -1  -5 -15    5.33    1.11
  -1  -5 -15    4.30    0.89
   1   5  15    1.86    1.06
   1   5  15    3.25    0.75
   9   0 -16   -1.22    0.88
  -9   0  16   -0.04    0.75
   8   0 -16    0.22    0.86
  -8   0  16   -0.05    0.78
   7   0 -16    0.39    0.78
  -7   0  16    0.22    0.65
   6   0 -16   10.47    0.98
  -6   0  16    9.33    0.79
   5   0 -16   -0.28    0.68
  -5   0  16    0.10    0.61
  -4   0  16    0.51    0.53
   4   0 -16    1.09    0.70
  -3   0  16   -0.74    0.49
   3   0 -16    0.33    0.68
   2   0 -16   28.96    1.17
  -2   0  16   27.57    1.18
   2   0 -16   27.75    1.36
  -1   0  16    0.72    0.52
  -1   0  16    0.68    0.49
   1   0 -16    0.26    0.69
   0   0 -16   32.93    1.53
   0   0  16   31.91    1.31
   0   0  16   29.80    1.30
   1   0  16    1.15    0.57
   1   0  16    0.57    0.61
   2   0  16    0.90    0.62
   2   0  16    0.21    0.50
   3   0  16    0.18    0.72
   3   0  16    1.06    0.65
   4   0  16    8.83    1.01
   4   0  16    7.79    0.92
   5   0  16    1.11    0.85
   5   0  16    0.00    0.62
   6   0  16    3.13    0.99
   6   0  16    1.63    0.93
   7   0  16    1.44    0.99
   7   0  16    2.96    1.07
   8  -1 -16    4.25    1.05
  -8  -1  16    2.74    0.74
  -8   1  16    3.65    0.85
   8   1 -16    3.13    0.80
   7  -1 -16    0.29    0.89
  -7  -1  16   -0.67    0.61
   7   1 -16    0.01    0.67
  -7   1  16   -0.15    0.73
  -6  -1  16    1.57    0.51
   6  -1 -16    1.67    0.84
  -6   1  16    1.68    0.73
   6   1 -16    2.79    0.77
  -5  -1  16    3.65    0.58
   5  -1 -16    3.36    0.86
   5   1 -16    3.10    0.67
  -5   1  16    2.33    0.67
  -4  -1  16   30.12    1.15
   4  -1 -16   32.69    1.55
   4  -1 -16   29.61    1.32
  -4   1  16   28.86    1.31
   4   1 -16   31.38    1.41
  -4   1  16   30.28    1.31
  -3  -1  16   -0.26    0.43
   3  -1 -16   -0.16    0.74
   3  -1 -16    0.58    0.61
  -3   1  16   -0.74    0.56
  -3   1  16    0.73    0.60
   3   1 -16   -0.02    0.58
   2  -1 -16   10.24    0.99
   2  -1 -16   10.52    0.78
  -2  -1  16    9.64    0.73
  -2   1  16   10.86    0.83
  -2   1  16    8.85    0.76
   2   1 -16   10.29    0.89
  -1  -1  16    4.22    0.58
   1  -1 -16    3.75    0.85
   1  -1 -16    3.39    0.68
   1   1 -16    3.27    0.69
  -1   1  16    3.02    0.66
  -1   1  16    4.30    0.68
   0  -1 -16    9.05    0.83
   0  -1 -16   10.15    1.04
   0  -1  16   10.96    0.78
   0   1  16   10.79    0.84
   0   1  16   11.37    0.88
  -1  -1 -16    0.43    0.82
   1  -1  16    0.43    0.59
   1   1  16    1.44    0.67
   1   1  16    1.33    0.50
   2  -1  16   28.10    1.34
   2   1  16   27.45    1.43
   2   1  16   26.14    1.39
   3  -1  16    1.53    0.75
   3   1  16    1.54    0.59
   3   1  16    0.80    0.58
   4  -1  16    2.37    0.79
   4   1  16    1.66    0.85
   4   1  16    2.09    0.84
   5  -1  16    1.71    0.89
   5   1  16    3.40    0.94
   5   1  16    3.30    0.93
   6  -1  16    4.08    1.05
   6   1  16    4.26    0.83
   6   1  16    5.43    1.04
   7  -1  16    2.28    1.07
   7   1  16    2.51    1.06
  -8  -2  16    2.88    0.60
   8  -2 -16    4.26    1.19
  -8   2  16    4.20    0.98
   8   2 -16    2.75    0.82
  -7  -2  16    1.46    0.54
   7  -2 -16    1.49    1.02
   7   2 -16    1.40    0.69
  -7   2  16    0.83    0.86
   6  -2 -16    8.93    0.98
   6  -2 -16   12.62    1.23
  -6  -2  16   11.20    0.79
  -6   2  16    9.99    1.00
   6   2 -16   11.88    0.86
  -5  -2  16   -0.36    0.43
   5  -2 -16   -0.13    0.92
   5  -2 -16    0.00    0.74
   5   2 -16   -0.97    0.59
  -5   2  16    0.34    0.53
  -5   2  16    0.26    0.55
   4  -2 -16   -0.06    0.72
  -4  -2  16    0.23    0.41
   4  -2 -16    0.24    0.89
  -4   2  16   -1.27    0.62
   4   2 -16    1.24    0.58
  -4   2  16   -0.01    0.68
   3  -2 -16    3.52    0.79
   3  -2 -16    4.11    0.93
  -3  -2  16    4.22    0.54
  -3   2  16    3.72    0.74
   3   2 -16    4.64    0.67
  -3   2  16    3.01    0.58
   2  -2 -16    6.29    0.70
  -2  -2  16    6.36    0.61
   2  -2 -16    6.72    0.83
  -2   2  16    6.69    0.82
  -2   2  16    6.19    0.65
   2   2 -16    7.10    0.74
  -1  -2  16    1.93    0.57
   1  -2 -16    1.68    0.90
   1  -2 -16    3.02    0.77
  -1   2  16    2.06    0.69
  -1   2  16    3.08    0.73
   0  -2  16    6.43    0.71
   0  -2 -16    7.12    0.89
   0  -2 -16    5.67    1.02
   0   2  16    5.11    0.80
   0   2  16    6.14    0.84
   1  -2  16    0.93    0.65
  -1  -2 -16    1.14    0.92
  -1  -2 -16   -0.45    0.55
   1   2  16   -0.20    0.71
   1   2  16    0.51    0.56
   2  -2  16    0.73    0.67
   2   2  16    0.81    0.74
   2   2  16    1.83    0.82
   3  -2  16    2.34    0.77
   3   2  16    1.47    0.63
   3   2  16    1.18    0.65
   4  -2  16    8.40    0.99
   4   2  16    5.18    0.96
   4   2  16    6.04    1.03
   5  -2  16    0.45    0.90
   5   2  16    1.17    0.71
   5   2  16    1.65    0.92
   6  -2  16    3.40    1.07
   6   2  16    5.50    1.13
   6   2  16    4.87    0.85
   7  -3 -16    2.10    0.75
   7  -3 -16    2.67    0.94
  -7   3  16    1.26    0.95
   6  -3 -16    0.42    1.12
   6  -3 -16    1.62    0.93
  -6   3  16    1.26    0.92
  -6   3  16    1.24    0.94
   5  -3 -16    6.68    1.19
   5  -3 -16    5.76    0.79
  -5   3  16    3.17    0.71
  -5   3  16    5.67    0.96
   4  -3 -16   10.74    1.25
   4  -3 -16    8.98    0.87
  -4   3  16    9.78    1.02
  -4   3  16   10.42    1.01
   3  -3 -16    0.94    0.99
   3  -3 -16    0.67    0.62
  -3   3  16    0.38    0.78
  -3   3  16   -0.41    0.76
   2  -3 -16    3.53    0.87
  -2  -3  16    2.97    0.49
   2  -3 -16    1.69    0.77
  -2   3  16    2.66    0.65
  -2   3  16    2.62    0.81
   1  -3 -16    3.93    0.90
  -1  -3  16    3.94    0.58
   1  -3 -16    4.30    1.05
  -1   3  16    4.73    0.83
  -1   3  16    4.59    0.71
   0  -3 -16    2.91    1.06
   0  -3 -16    3.46    0.89
   0  -3  16    3.06    0.62
   0   3  16    2.05    0.63
   0   3  16    2.67    0.87
  -1  -3 -16    4.67    1.08
   1  -3  16    3.99    0.72
  -1  -3 -16    5.04    0.93
   1   3  16    4.19    0.73
   1   3  16    3.84    0.86
  -2  -3 -16    5.35    0.89
   2  -3  16    6.34    0.77
   2   3  16    7.77    0.96
   2   3  16    5.77    1.01
   3  -3  16    0.45    0.81
   3   3  16    0.82    0.69
   3   3  16    0.56    0.65
   4  -3  16    0.80    0.81
   4   3  16    1.55    0.92
   4   3  16    0.82    0.98
   5  -3  16    2.08    0.95
   5   3  16    3.53    0.99
   5   3  16    2.20    0.82
   5  -4 -16   -0.27    1.17
   5  -4 -16   -0.12    1.02
  -5   4  16   -2.04    0.92
  -5   4  16    0.07    0.74
   4  -4 -16   -0.46    0.72
   4  -4 -16    0.39    1.13
  -4   4  16   -1.02    0.66
  -4   4  16   -0.15    0.95
   3  -4 -16    5.81    0.85
   3  -4 -16    6.50    1.23
  -3   4  16    5.57    1.04
  -3   4  16    6.41    0.99
   2  -4 -16    7.67    1.01
   2  -4 -16    6.93    0.88
  -2   4  16    7.40    0.84
  -2   4  16    7.92    1.07
   1  -4 -16    3.16    1.14
   1  -4 -16    5.33    1.03
  -1   4  16    4.01    0.93
  -1   4  16    1.33    0.94
   0  -4 -16    6.03    0.97
   0  -4 -16    5.40    1.05
   0   4  16    5.53    0.95
   0   4  16    4.97    1.03
   1  -4  16    1.28    0.55
  -1  -4 -16    1.87    0.94
  -1  -4 -16    1.57    1.08
   1   4  16   -0.12    0.69
   1   4  16    0.68    0.86
   2  -4  16   -0.90    0.60
   2   4  16    0.15    0.65
   2   4  16    0.52    0.99
   3  -4  16   -0.15    0.73
   3   4  16    1.65    0.93
   3   4  16    1.43    1.01
  -8   0  17   -1.82    0.80
   8   0 -17   -0.26    0.91
  -7   0  17    6.76    0.80
   7   0 -17    7.74    1.01
   6   0 -17   -0.64    0.77
  -6   0  17    0.83    0.64
  -5   0  17    2.14    0.69
   5   0 -17    1.86    0.80
  -4   0  17    0.53    0.58
   4   0 -17   -0.47    0.73
  -3   0  17   32.09    1.31
   3   0 -17   31.09    1.51
   2   0 -17    0.43    0.74
  -2   0  17    1.17    0.56
   1   0 -17   19.26    1.34
  -1   0  17   18.53    1.07
   0   0  17   -0.09    0.58
   0   0 -17   -0.73    0.78
   1   0  17    0.21    0.66
   2   0  17    0.77    0.65
   2   0  17    0.29    0.72
   3   0  17    5.92    0.91
   3   0  17    7.68    0.88
   4   0  17    0.61    0.85
   4   0  17    1.94    0.79
   5   0  17    7.13    1.02
   6   0  17    2.11    1.02
  -8  -1  17   -0.96    0.67
   8  -1 -17    0.76    1.04
  -8   1  17   -2.15    0.87
   8   1 -17    0.43    0.81
   7  -1 -17    0.16    0.72
  -7  -1  17    0.47    0.64
  -7   1  17    0.53    0.79
   7   1 -17    0.55    0.75
   6  -1 -17   -1.34    0.88
  -6  -1  17   -0.54    0.56
  -6   1  17   -0.79    0.69
   6   1 -17   -0.07    0.79
   5  -1 -17   13.73    1.16
  -5  -1  17   14.07    0.99
  -5   1  17   11.87    0.93
   5   1 -17   13.84    1.10
   4  -1 -17   -0.19    0.83
  -4  -1  17    0.87    0.56
  -4   1  17   -0.65    0.63
   4   1 -17    0.23    0.65
   3  -1 -17    7.31    0.96
   3  -1 -17    8.40    0.82
  -3  -1  17    6.93    0.69
   3   1 -17    7.00    0.88
  -3   1  17    7.15    0.66
  -2  -1  17    0.41    0.56
   2  -1 -17   -0.17    0.83
   2  -1 -17    1.04    0.68
  -2   1  17    0.30    0.63
  -2   1  17    0.04    0.60
   2   1 -17    0.99    0.66
  -1  -1  17    1.00    0.54
   1  -1 -17    0.22    0.86
   1  -1 -17    1.24    0.52
  -1   1  17    1.24    0.67
   1   1 -17    1.04    0.70
  -1   1  17    0.10    0.61
   0  -1 -17   -0.49    0.87
   0  -1  17    0.91    0.66
   0   1  17    0.15    0.64
   0   1  17    0.02    0.64
   1  -1  17    6.76    0.77
  -1  -1 -17    5.00    1.02
   1   1  17    5.80    0.81
   1   1  17    4.64    0.66
   2  -1  17    1.88    0.72
   2   1  17    0.65    0.76
   2   1  17    0.12    0.71
   3  -1  17    0.12    0.74
   3   1  17    2.86    0.83
   3   1  17    0.26    0.83
   4  -1  17    0.34    0.84
   4   1  17    0.84    0.66
   4   1  17    0.77    0.63
   5  -1  17    2.15    0.96
   5   1  17    2.14    0.96
   5   1  17    1.41    0.90
   6  -1  17    3.47    1.06
   6   1  17    1.70    1.01
   6   1  17    0.43    0.73
  -7  -2  17    2.19    0.57
   7  -2 -17    4.27    1.17
   7   2 -17    3.19    0.80
  -7   2  17    3.61    0.95
   6  -2 -17    0.85    0.78
  -6  -2  17    0.03    0.49
  -6   2  17   -0.61    0.80
   6   2 -17    1.21    0.69
  -5  -2  17   -0.22    0.47
   5  -2 -17   -0.13    0.75
   5  -2 -17   -0.37    0.70
   5   2 -17   -0.50    0.66
  -5   2  17    0.24    0.79
   4  -2 -17    1.75    0.77
   4  -2 -17    0.94    0.94
  -4  -2  17    1.96    0.51
  -4   2  17    2.27    0.78
  -4   2  17    0.67    0.74
   4   2 -17    2.45    0.68
  -3  -2  17   13.27    0.88
   3  -2 -17   11.70    0.88
   3  -2 -17   13.04    1.22
  -3   2  17   12.18    0.93
   3   2 -17   11.03    0.86
  -3   2  17   10.78    0.98
  -2  -2  17   -0.41    0.49
   2  -2 -17    0.63    0.71
   2  -2 -17   -0.14    0.76
  -2   2  17   -0.30    0.70
  -2   2  17    1.16    0.73
  -1  -2  17   10.89    0.79
   1  -2 -17   12.87    1.20
   1  -2 -17   10.79    0.99
  -1   2  17    9.33    0.79
  -1   2  17    9.92    0.84
   0  -2 -17   -0.04    0.78
   0  -2  17    1.65    0.66
   0  -2 -17    1.73    1.01
   0   2  17    0.62    0.75
   0   2  17    0.08    0.73
  -1  -2 -17    0.37    0.99
   1  -2  17    1.28    0.65
   1   2  17    1.30    0.60
   1   2  17    1.07    0.75
   2  -2  17    0.95    0.71
   2   2  17    1.02    0.83
   2   2  17    0.01    0.59
   3  -2  17    8.98    0.97
   3   2  17    8.31    1.05
   3   2  17    9.22    1.08
   4  -2  17    2.57    0.89
   4   2  17    2.11    0.92
   4   2  17    1.99    0.92
   5  -2  17    1.71    0.94
   5   2  17    2.26    0.99
   5   2  17    2.98    1.04
   6  -3 -17   -1.46    0.83
   6  -3 -17   -0.28    0.70
  -6   3  17   -0.92    0.68
   5  -3 -17    3.83    1.00
   5  -3 -17    4.27    1.21
  -5   3  17    4.54    1.00
  -5   3  17    3.06    0.96
   4  -3 -17   -0.01    0.88
   4  -3 -17    0.28    1.08
  -4   3  17   -1.69    0.82
  -4   3  17   -0.67    0.83
   3  -3 -17    0.47    1.02
   3  -3 -17    0.97    0.88
  -3   3  17   -0.29    0.79
  -3   3  17    0.83    0.83
   2  -3 -17    2.83    0.94
  -2  -3  17    3.09    0.53
   2  -3 -17    2.56    1.09
  -2   3  17    2.41    0.85
  -2   3  17    2.51    0.66
   1  -3 -17    2.81    1.09
   1  -3 -17    1.90    0.91
  -1  -3  17    2.95    0.60
  -1   3  17    3.46    0.86
  -1   3  17    3.81    0.91
   0  -3 -17    1.54    1.09
   0  -3  17    1.49    0.62
   0  -3 -17    0.35    0.85
   0   3  17    1.38    0.82
   0   3  17    0.31    0.85
   1  -3  17    4.55    0.75
  -1  -3 -17    4.53    0.89
  -1  -3 -17    3.90    0.97
   1   3  17    4.70    0.78
   1   3  17    3.91    0.91
   2  -3  17    1.48    0.75
   2   3  17    1.84    0.69
   2   3  17    1.05    0.93
   3  -3  17    0.93    0.84
   3   3  17    0.65    0.92
   3   3  17    0.35    0.95
   4  -3  17    3.14    0.98
   4   3  17    3.37    1.05
   4   3  17    1.36    0.74
   3  -4 -17    2.32    1.03
   3  -4 -17    2.07    1.20
  -3   4  17    2.76    0.76
  -3   4  17    0.09    0.97
   2  -4 -17   -0.62    0.81
   2  -4 -17    0.24    0.99
  -2   4  17   -0.07    0.95
  -2   4  17   -0.77    0.65
   1  -4 -17    2.11    1.02
   1  -4 -17    2.63    1.17
  -1   4  17    0.66    0.97
  -1   4  17   -0.13    0.89
   0  -4 -17    1.78    1.15
   0  -4 -17    2.46    1.03
   0   4  17    1.60    0.92
   0   4  17   -0.52    0.95
  -1  -4 -17    2.57    1.12
  -1  -4 -17    0.95    0.74
   1   4  17   -0.04    0.67
   1   4  17    0.45    0.74
  -7   0  18    0.15    0.71
   7   0 -18   -0.67    0.86
  -6   0  18    2.88    0.72
   6   0 -18    4.18    1.03
   5   0 -18   -0.23    0.82
  -5   0  18   -0.58    0.62
   4   0 -18    0.11    0.78
  -4   0  18   -0.64    0.67
   3   0 -18    0.89    0.81
  -3   0  18    0.28    0.60
  -2   0  18    4.38    0.71
   2   0 -18    3.66    0.90
  -1   0  18    0.31    0.61
   1   0 -18    0.60    0.84
   0   0 -18    1.05    0.87
   0   0  18    0.10    0.66
   1   0  18    0.14    0.73
   2   0  18    5.67    0.87
   3   0  18    1.32    0.85
   4   0  18    1.91    0.70
   5   0  18    1.31    0.97
   7  -1 -18   -0.56    1.02
  -7  -1  18   -1.26    0.64
   7   1 -18   -0.45    0.79
  -7   1  18   -0.35    0.79
   6  -1 -18    6.19    1.12
  -6  -1  18    8.00    0.78
   6   1 -18    9.59    1.04
  -6   1  18    7.80    0.91
  -5  -1  18    0.13    0.61
   5  -1 -18    0.28    0.94
  -5   1  18   -0.41    0.71
   5   1 -18   -0.02    0.72
   4  -1 -18    2.73    0.96
  -4  -1  18    2.97    0.63
  -4   1  18    3.24    0.71
   4   1 -18    2.99    0.77
  -3  -1  18    0.77    0.55
   3  -1 -18    1.15    0.90
   3   1 -18    1.49    0.75
  -3   1  18    1.30    0.71
  -2  -1  18    4.39    0.65
   2  -1 -18    5.21    0.97
  -2   1  18    5.04    0.77
   2   1 -18    4.38    0.82
   1  -1 -18    2.23    0.97
  -1  -1  18    2.84    0.70
   1  -1 -18    3.07    0.71
  -1   1  18    1.65    0.73
   1   1 -18    1.93    0.77
   0  -1 -18   13.40    1.25
   0  -1  18   14.57    1.08
   0   1  18   13.18    1.01
   0   1  18   14.53    1.07
   1  -1  18    0.32    0.67
   1   1  18   -1.43    0.72
   1   1  18    0.23    0.73
   2  -1  18    2.13    0.78
   2   1  18    3.09    0.88
   2   1  18    2.68    0.78
   3  -1  18    2.03    0.82
   3   1  18    2.10    0.83
   3   1  18    0.41    0.64
   4  -1  18    1.36    0.92
   4   1  18    2.70    0.98
   4   1  18    4.08    0.94
   5  -1  18    2.89    1.02
   5   1  18    1.55    0.76
   5   1  18    2.41    0.96
  -6  -2  18   -0.25    0.51
   6  -2 -18   -0.05    1.10
   6   2 -18   -1.47    0.73
  -6   2  18   -1.20    0.85
  -5  -2  18    2.16    0.55
   5  -2 -18    3.09    1.13
  -5   2  18    1.48    0.64
   5   2 -18    2.00    0.76
   4  -2 -18    6.80    1.19
  -4  -2  18    7.65    0.65
  -4   2  18    5.87    0.73
   4   2 -18    7.15    0.81
   3  -2 -18    1.62    0.83
   3  -2 -18    2.65    1.06
  -3  -2  18    2.29    0.57
  -3   2  18    0.74    0.58
  -3   2  18    1.21    0.76
   3   2 -18    2.23    0.73
  -2  -2  18    6.05    0.70
   2  -2 -18    6.63    0.94
   2  -2 -18    5.79    1.11
  -2   2  18    4.89    0.86
  -2   2  18    4.05    0.82
   1  -2 -18    0.47    0.61
   1  -2 -18    0.62    1.00
  -1  -2  18    0.87    0.62
  -1   2  18    0.72    0.77
  -1   2  18    0.26    0.58
   0  -2 -18    1.02    1.06
   0  -2 -18    1.30    0.82
   0  -2  18    0.76    0.59
   0   2  18   -0.36    0.78
   0   2  18    0.28    0.78
   1  -2  18    5.81    0.84
  -1  -2 -18    5.38    0.94
   1   2  18    3.89    0.72
   1   2  18    3.71    0.72
   2  -2  18    3.08    0.87
   2   2  18    2.06    0.91
   2   2  18    2.73    0.89
   3  -2  18    3.66    0.96
   3   2  18    2.21    0.92
   3   2  18    3.31    0.98
   4  -2  18    2.01    0.91
   4   2  18    4.87    1.05
   4   2  18    2.90    1.01
   5  -3 -18   -0.39    0.71
   5  -3 -18   -0.16    0.87
  -5   3  18    0.11    0.70
   4  -3 -18    0.38    0.94
   4  -3 -18   -0.94    0.83
  -4   3  18   -1.61    0.86
  -4   3  18   -0.69    0.86
   3  -3 -18    0.40    0.84
   3  -3 -18    0.27    0.94
  -3   3  18    0.62    0.90
  -3   3  18    0.43    0.86
   2  -3 -18    4.30    1.01
   2  -3 -18    4.85    1.19
  -2   3  18    1.92    0.93
  -2   3  18    1.81    0.68
  -1  -3  18    1.34    0.56
   1  -3 -18    1.02    1.12
   1  -3 -18    2.04    0.93
  -1   3  18   -0.51    0.83
  -1   3  18   -1.26    0.85
   0  -3 -18    7.06    1.02
   0  -3  18    4.87    0.73
   0  -3 -18    6.07    1.00
   0   3  18    2.73    0.96
   0   3  18    2.90    0.93
  -1  -3 -18    3.71    1.16
   1  -3  18    1.79    0.73
   1   3  18    1.03    0.72
   1   3  18    1.32    0.69
   2  -3  18    0.67    0.75
   2   3  18    0.84    0.93
   2   3  18    0.65    0.95
   3  -3  18    3.31    0.92
   3   3  18    2.60    1.07
   3   3  18    3.30    0.82
   6   0 -19   -0.68    0.90
  -6   0  19    0.25    0.70
  -5   0  19   13.13    0.97
   5   0 -19   16.45    1.31
   4   0 -19    0.03    0.88
  -4   0  19    0.71    0.67
  -3   0  19    6.08    0.84
   3   0 -19    5.52    0.96
  -2   0  19    0.01    0.67
   2   0 -19   -0.67    0.86
  -1   0  19    2.55    0.73
   1   0 -19    3.47    0.97
   0   0  19    0.70    0.75
   1   0  19   11.04    1.02
   2   0  19    1.80    0.85
   3   0  19    2.19    0.87
   4   0  19    1.27    0.97
  -6  -1  19   -0.31    0.64
   6  -1 -19    1.21    1.00
  -6   1  19   -0.67    0.79
   6   1 -19   -0.19    0.91
  -5  -1  19    0.53    0.66
   5  -1 -19    2.19    0.80
   5   1 -19    1.96    0.82
  -5   1  19    0.89    0.78
   4  -1 -19   -0.38    0.95
  -4  -1  19    1.38    0.65
   4   1 -19    0.28    0.88
  -4   1  19   -0.53    0.74
   3  -1 -19    3.42    1.05
  -3  -1  19    3.58    0.72
  -3   1  19    2.41    0.79
   3   1 -19    3.06    0.84
   2  -1 -19    0.38    0.94
  -2  -1  19   -0.33    0.59
  -2   1  19    0.05    0.71
   2   1 -19    0.17    0.79
  -1  -1  19    9.70    0.93
   1  -1 -19    9.77    1.19
  -1   1  19    9.61    0.96
   0  -1  19    1.41    0.70
   0  -1 -19    0.69    0.99
   0   1  19    0.79    0.74
   1  -1  19    0.48    0.81
   1   1  19    0.88    0.84
   2  -1  19    3.13    0.83
   2   1  19   -0.26    0.62
   3  -1  19    6.03    0.97
   3   1  19    3.95    1.03
   4  -1  19    2.29    0.96
   4   1  19    2.57    0.78
   5  -2 -19    5.19    1.23
  -5  -2  19    4.45    0.62
   5   2 -19    5.58    0.85
  -5   2  19    3.67    0.95
  -4  -2  19    1.61    0.59
   4  -2 -19    1.00    1.10
  -4   2  19   -0.20    0.84
   4   2 -19    1.56    0.75
  -3  -2  19    4.42    0.65
   3  -2 -19    4.97    0.94
  -3   2  19    4.22    0.91
   3   2 -19    6.35    0.85
   2  -2 -19    1.16    1.10
   2  -2 -19    1.03    0.84
  -2  -2  19    2.49    0.67
  -2   2  19    1.66    0.84
  -1  -2  19    2.42    0.69
   1  -2 -19    3.03    0.86
   1  -2 -19    2.13    1.10
  -1   2  19    0.22    0.61
  -1   2  19    0.69    0.83
   0  -2 -19    1.44    1.12
   0  -2  19    2.22    0.74
   0   2  19    0.07    0.84
   0   2  19    0.03    0.83
  -1  -2 -19    7.96    1.06
   1  -2  19   11.16    0.99
   1   2  19    7.41    0.88
   1   2  19    9.47    1.07
   2  -2  19    1.12    0.76
   2   2  19    1.46    0.88
   2   2  19    0.64    0.92
   3  -2  19    2.98    0.87
   3   2  19    4.97    1.06
   3   2  19    4.44    1.03
   3  -3 -19    3.57    1.01
   3  -3 -19    2.80    1.21
  -3   3  19    2.43    0.74
   2  -3 -19    6.26    1.06
   2  -3 -19    6.81    1.33
  -2   3  19    4.33    0.95
  -2   3  19    4.14    1.01
   1  -3 -19    5.36    0.84
   1  -3 -19    6.27    1.30
  -1   3  19    2.03    0.95
  -1   3  19    2.35    0.98
   0  -3 -19    3.61    0.95
   0  -3 -19    1.21    0.89
   0  -3  19    1.31    0.64
   0   3  19    0.52    0.93
   0   3  19   -0.50    0.91
   5   0 -20    0.52    0.97
  -5   0  20   -0.43    0.79
  -4   0  20    3.64    0.77
   4   0 -20    3.20    1.09
  -3   0  20   -0.48    0.69
   3   0 -20    0.44    0.95
   2   0 -20    0.63    0.93
  -2   0  20    0.21    0.72
   1   0 -20    1.82    0.98
  -1   0  20    0.16    0.73
   0   0  20    2.93    0.85
   1   0  20    2.08    0.94
   2   0  20    1.52    0.90
  -4  -1  20    4.59    0.79
   4  -1 -20    4.59    1.15
  -4   1  20    4.64    0.86
   4   1 -20    5.79    0.96
  -3  -1  20    0.09    0.69
   3  -1 -20    1.71    1.04
   3   1 -20    1.01    0.94
  -3   1  20    0.48    0.75
  -2  -1  20    7.19    0.81
   2  -1 -20    6.58    1.18
  -2   1  20    7.83    0.95
   2   1 -20    8.28    1.01
   1  -1 -20   -0.13    1.04
  -1  -1  20    0.19    0.76
  -1   1  20    0.72    0.82
   0  -1 -20    1.58    1.05
   0  -1  20    1.01    0.72
   0   1  20    0.32    0.62
   1  -1  20    1.46    0.79
   1   1  20    1.26    0.92
   2  -1  20    2.67    0.97
   2   1  20    3.20    0.98
  -3  -2  20    2.04    0.65
   3  -2 -20    1.25    1.15
  -3   2  20   -0.42    0.85
   2  -2 -20   -0.40    1.15
  -2  -2  20    1.54    0.67
  -2   2  20   -0.89    0.82
  -1  -2  20    1.67    0.69
   1  -2 -20    1.59    1.18
  -1   2  20    1.87    0.86
   0  -2 -20    3.90    1.20
   0  -2  20    3.45    0.80
   0   2  20    1.76    0.94
   2   0 -21    1.14    0.99
  -2   0  21   -0.15    0.85
  -1   0  21    7.81    0.96
   1   0 -21    6.88    1.15
   0   0  21    1.25    0.86
   0   0   0    0.00    0.00
;
_shelx_hkl_checksum              65341
_shelx_res_file
;
    BNZ.res created by SHELXL-2014/7
TITL BNZ in P2(1)/n
CELL  0.71073   9.0845   5.3436  15.3509   90.000   95.567   90.000
ZERR     2.00   0.0010   0.0005   0.0015    0.000    0.004    0.000
LATT   1
SYMM  1/2 - X, 1/2 + Y, 1/2 - Z
SFAC  C    H    O    BR
UNIT  28   40   4    4
MERG   2
OMIT    -3.00  50.00
FMAP   2
PLAN   25
SIZE     0.20   0.25   0.35
ACTA
BOND   $H
CONF
L.S.   4
WGHT    0.021400    0.403900
FVAR       0.18679
C1    1   -0.039718    1.481488   -0.349007    11.00000    0.04080    0.05588 =
         0.04906    0.02056    0.00277   -0.01078
AFIX  23
H1A   2   -0.122026    1.570741   -0.327707    11.00000   -1.20000
H1B   2   -0.079632    1.364232   -0.393419    11.00000   -1.20000
AFIX   0
C2    1    0.040354    1.339742   -0.275080    11.00000    0.03861    0.03385 =
         0.03384    0.00257    0.00348   -0.00180
AFIX  23
H2A   2    0.081202    1.456094   -0.230622    11.00000   -1.20000
H2B   2    0.121592    1.247233   -0.296228    11.00000   -1.20000
AFIX   0
C3    1   -0.064198    1.158471   -0.235112    11.00000    0.03468    0.03584 =
         0.03235    0.00560    0.00273   -0.00150
AFIX  23
H3A   2   -0.143088    1.252298   -0.211946    11.00000   -1.20000
H3B   2   -0.108502    1.047767   -0.280397    11.00000   -1.20000
AFIX   0
C4    1    0.015068    1.004665   -0.162941    11.00000    0.03348    0.03222 =
         0.03135    0.00370    0.00381   -0.00243
AFIX  23
H4A   2    0.097429    0.916164   -0.184489    11.00000   -1.20000
H4B   2    0.053157    1.112092   -0.115026    11.00000   -1.20000
AFIX   0
C5    1   -0.038633    0.670855   -0.066530    11.00000    0.03233    0.02834 =
         0.02559    0.00056    0.00207    0.00166
C6    1    0.105015    0.662422   -0.027944    11.00000    0.02741    0.03217 =
         0.03213    0.00276    0.00347   -0.00371
AFIX  43
H6    2    0.175870    0.770769   -0.046374    11.00000   -1.20000
AFIX   0
C7    1    0.143062    0.491874    0.038320    11.00000    0.02482    0.03529 =
         0.03131    0.00148   -0.00011   -0.00124
AFIX  43
H7    2    0.239876    0.486360    0.064248    11.00000   -1.20000
AFIX   0
O1    3   -0.088821    0.830633   -0.133684    11.00000    0.03230    0.04024 =
         0.03900    0.01472   -0.00224   -0.00428
BR1   4    0.088209    1.720077   -0.401663    11.00000    0.05660    0.04394 =
         0.04603    0.01054    0.01338   -0.00749
HKLF 4
REM  BNZ in P2(1)/n
REM R1 =  0.0237 for    1126 Fo > 4sig(Fo)  and  0.0324 for all    1310 data
REM     82 parameters refined using      0 restraints
END
WGHT      0.0213      0.4142
REM Highest difference peak  0.318,  deepest hole -0.325,  1-sigma level  0.054
Q1    1  -0.0007  1.7340 -0.4341  11.00000  0.05    0.32
Q2    1   0.1076  1.5827 -0.4129  11.00000  0.05    0.27
Q3    1  -0.1242  1.4645 -0.3839  11.00000  0.05    0.22
Q4    1   0.0056  1.2853 -0.4044  11.00000  0.05    0.21
Q5    1  -0.0968  1.6970 -0.3153  11.00000  0.05    0.19
Q6    1   0.1366  1.7253 -0.4584  11.00000  0.05    0.18
Q7    1   0.1477  1.2140 -0.3798  11.00000  0.05    0.17
Q8    1   0.2183  1.7880 -0.2987  11.00000  0.05    0.16
Q9    1   0.0519  0.9005 -0.1877  11.00000  0.05    0.16
Q10   1  -0.0775  0.5432 -0.0753  11.00000  0.05    0.16
Q11   1   0.0304  1.7115 -0.3416  11.00000  0.05    0.15
Q12   1   0.0720  1.1239 -0.3427  11.00000  0.05    0.15
Q13   1   0.0390  0.7067 -0.0208  11.00000  0.05    0.15
Q14   1   0.2546  1.2760 -0.2872  11.00000  0.05    0.15
Q15   1   0.1511  1.3472 -0.2574  11.00000  0.05    0.15
Q16   1  -0.1601  1.1650 -0.2450  11.00000  0.05    0.15
Q17   1   0.2559  1.1035 -0.3384  11.00000  0.05    0.15
Q18   1  -0.0833  0.5933 -0.0454  11.00000  0.05    0.14
Q19   1   0.1263  1.7358 -0.3405  11.00000  0.05    0.14
Q20   1   0.1235  0.4749 -0.0473  11.00000  0.05    0.14
Q21   1   0.2623  0.5572 -0.1248  11.00000  0.05    0.14
Q22   1   0.2426  1.7094 -0.4039  11.00000  0.05    0.14
Q23   1  -0.0195  1.0881 -0.1989  11.00000  0.05    0.14
Q24   1   0.0189  1.1316 -0.0863  11.00000  0.05    0.13
Q25   1   0.0398  0.6107 -0.0652  11.00000  0.05    0.13
;
_shelx_res_checksum              53158
loop_
_space_group_symop_operation_xyz
'x, y, z'
'-x+1/2, y+1/2, -z+1/2'
'-x, -y, -z'
'x-1/2, -y-1/2, z-1/2'
loop_
_atom_site_type_symbol
_atom_site_label
_atom_site_fract_x
_atom_site_fract_y
_atom_site_fract_z
_atom_site_U_iso_or_equiv
_atom_site_adp_type
_atom_site_calc_flag
_atom_site_occupancy
C C1 -0.0397(3) 1.4815(5) -0.34901(18) 0.0487(7) Uani d 1
H H1A -0.1220 1.5707 -0.3277 0.058 Uiso calc 1
H H1B -0.0796 1.3642 -0.3934 0.058 Uiso calc 1
C C2 0.0404(3) 1.3397(4) -0.27508(15) 0.0354(6) Uani d 1
H H2A 0.0812 1.4561 -0.2306 0.043 Uiso calc 1
H H2B 0.1216 1.2472 -0.2962 0.043 Uiso calc 1
C C3 -0.0642(3) 1.1585(4) -0.23511(15) 0.0343(6) Uani d 1
H H3A -0.1431 1.2523 -0.2119 0.041 Uiso calc 1
H H3B -0.1085 1.0478 -0.2804 0.041 Uiso calc 1
C C4 0.0151(3) 1.0047(4) -0.16294(15) 0.0323(5) Uani d 1
H H4A 0.0974 0.9162 -0.1845 0.039 Uiso calc 1
H H4B 0.0532 1.1121 -0.1150 0.039 Uiso calc 1
C C5 -0.0386(3) 0.6709(4) -0.06653(14) 0.0288(5) Uani d 1
C C6 0.1050(3) 0.6624(4) -0.02794(15) 0.0305(5) Uani d 1
H H6 0.1759 0.7708 -0.0464 0.037 Uiso calc 1
C C7 0.1431(3) 0.4919(4) 0.03832(14) 0.0307(5) Uani d 1
H H7 0.2399 0.4864 0.0642 0.037 Uiso calc 1
O O1 -0.08882(18) 0.8306(3) -0.13368(11) 0.0376(4) Uani d 1
Br Br1 0.08821(3) 1.72008(5) -0.40166(2) 0.04831(12) Uani d 1
loop_
_atom_site_aniso_label
_atom_site_aniso_U_11
_atom_site_aniso_U_22
_atom_site_aniso_U_33
_atom_site_aniso_U_12
_atom_site_aniso_U_13
_atom_site_aniso_U_23
C1 0.0408(17) 0.0559(16) 0.0491(16) -0.0108(13) 0.0028(13) 0.0206(13)
C2 0.0386(15) 0.0339(12) 0.0338(13) -0.0018(11) 0.0035(11) 0.0026(10)
C3 0.0347(15) 0.0358(13) 0.0324(13) -0.0015(11) 0.0027(11) 0.0056(10)
C4 0.0335(14) 0.0322(12) 0.0314(12) -0.0024(10) 0.0038(11) 0.0037(10)
C5 0.0323(13) 0.0283(11) 0.0256(12) 0.0017(10) 0.0021(10) 0.0006(9)
C6 0.0274(13) 0.0322(12) 0.0321(12) -0.0037(10) 0.0035(10) 0.0028(10)
C7 0.0248(13) 0.0353(12) 0.0313(12) -0.0012(10) -0.0001(10) 0.0015(10)
O1 0.0323(10) 0.0402(9) 0.0390(9) -0.0043(8) -0.0022(8) 0.0147(8)
Br1 0.0566(2) 0.04394(17) 0.04603(18) -0.00749(13) 0.01338(13) 0.01054(12)
loop_
_atom_type_symbol
_atom_type_description
_atom_type_scat_dispersion_real
_atom_type_scat_dispersion_imag
_atom_type_scat_source
C C 0.0033 0.0016 'International Tables Vol C Tables 4.2.6.8 and 6.1.1.4'
H H 0.0000 0.0000 'International Tables Vol C Tables 4.2.6.8 and 6.1.1.4'
O O 0.0106 0.0060 'International Tables Vol C Tables 4.2.6.8 and 6.1.1.4'
Br Br -0.2901 2.4595 'International Tables Vol C Tables 4.2.6.8 and 6.1.1.4'
loop_
_geom_angle_atom_site_label_1
_geom_angle_atom_site_label_2
_geom_angle_atom_site_label_3
_geom_angle_site_symmetry_1
_geom_angle_site_symmetry_3
_geom_angle
C2 C1 Br1 . . 112.34(19)
C2 C1 H1A . . 109.1
Br1 C1 H1A . . 109.1
C2 C1 H1B . . 109.1
Br1 C1 H1B . . 109.1
H1A C1 H1B . . 107.9
C1 C2 C3 . . 110.6(2)
C1 C2 H2A . . 109.5
C3 C2 H2A . . 109.5
C1 C2 H2B . . 109.5
C3 C2 H2B . . 109.5
H2A C2 H2B . . 108.1
C4 C3 C2 . . 111.7(2)
C4 C3 H3A . . 109.3
C2 C3 H3A . . 109.3
C4 C3 H3B . . 109.3
C2 C3 H3B . . 109.3
H3A C3 H3B . . 107.9
O1 C4 C3 . . 107.66(19)
O1 C4 H4A . . 110.2
C3 C4 H4A . . 110.2
O1 C4 H4B . . 110.2
C3 C4 H4B . . 110.2
H4A C4 H4B . . 108.5
C6 C5 O1 . . 124.8(2)
C6 C5 C7 . 3_565 119.5(2)
O1 C5 C7 . 3_565 115.7(2)
C5 C6 C7 . . 119.7(2)
C5 C6 H6 . . 120.2
C7 C6 H6 . . 120.2
C6 C7 C5 . 3_565 120.8(2)
C6 C7 H7 . . 119.6
C5 C7 H7 3_565 . 119.6
C5 O1 C4 . . 117.18(18)
loop_
_geom_bond_atom_site_label_1
_geom_bond_atom_site_label_2
_geom_bond_site_symmetry_2
_geom_bond_distance
C1 C2 . 1.494(3)
C1 Br1 . 1.952(2)
C1 H1A . 0.9700
C1 H1B . 0.9700
C2 C3 . 1.526(3)
C2 H2A . 0.9700
C2 H2B . 0.9700
C3 C4 . 1.506(3)
C3 H3A . 0.9700
C3 H3B . 0.9700
C4 O1 . 1.428(3)
C4 H4A . 0.9700
C4 H4B . 0.9700
C5 C6 . 1.381(3)
C5 O1 . 1.381(3)
C5 C7 3_565 1.387(3)
C6 C7 . 1.384(3)
C6 H6 . 0.9300
C7 C5 3_565 1.387(3)
C7 H7 . 0.9300
loop_
_geom_hbond_atom_site_label_D
_geom_hbond_atom_site_label_H
_geom_hbond_atom_site_label_A
_geom_hbond_site_symmetry_D
_geom_hbond_site_symmetry_H
_geom_hbond_site_symmetry_A
_geom_hbond_distance_DH
_geom_hbond_distance_HA
_geom_hbond_distance_DA
_geom_hbond_angle_DHA
_geom_hbond_publ_flag
C2 H2B Cg1 1_555 1_555 4_554 0.97 2.84 3.664(3) 144 y
loop_
_geom_torsion_atom_site_label_1
_geom_torsion_atom_site_label_2
_geom_torsion_atom_site_label_3
_geom_torsion_atom_site_label_4
_geom_torsion_site_symmetry_1
_geom_torsion_site_symmetry_4
_geom_torsion
Br1 C1 C2 C3 . . 179.19(17)
C1 C2 C3 C4 . . 177.5(2)
C2 C3 C4 O1 . . -176.29(18)
O1 C5 C6 C7 . . -179.2(2)
C7 C5 C6 C7 3_565 . 0.0(4)
C5 C6 C7 C5 . 3_565 0.0(4)
C6 C5 O1 C4 . . -2.2(3)
C7 C5 O1 C4 3_565 . 178.59(18)
C3 C4 O1 C5 . . -179.55(19)

_cod_database_fobs_code 1546550
