#------------------------------------------------------------------------------
#$Date: 2017-09-12 07:04:50 +0300 (Tue, 12 Sep 2017) $
#$Revision: 200742 $
#$URL: file:///home/coder/svn-repositories/cod/cif/1/54/66/1546608.cif $
#------------------------------------------------------------------------------
#
# This file is available in the Crystallography Open Database (COD),
# http://www.crystallography.net/
#
# All data on this site have been placed in the public domain by the
# contributors.
#
data_1546608
loop_
_publ_author_name
'Smith, David T.'
'Vitaku, Edon'
'Njardarson, Jon T.'
_publ_section_title
;
 Dearomatization Approach to 2-Trifluoromethylated Benzofuran and
 Dihydrobenzofuran Products.
;
_journal_issue                   13
_journal_name_full               'Organic letters'
_journal_page_first              3508
_journal_page_last               3511
_journal_paper_doi               10.1021/acs.orglett.7b01479
_journal_volume                  19
_journal_year                    2017
_chemical_formula_moiety         'C12 H8 F6 O3'
_chemical_formula_sum            'C12 H8 F6 O3'
_chemical_formula_weight         314.18
_chemical_name_systematic
;
 ?
;
_space_group_crystal_system      triclinic
_space_group_IT_number           2
_space_group_name_Hall           '-P 1'
_space_group_name_H-M_alt        'P -1'
_symmetry_space_group_name_Hall  '-P 1'
_symmetry_space_group_name_H-M   'P -1'
_atom_sites_solution_hydrogens   geom
_atom_sites_solution_primary     dual
_audit_creation_date             2017-05-10
_audit_creation_method
;
Olex2 1.2
(compiled 2017.03.28 svn.r3405 for OlexSys, GUI svn.r5335)
;
_cell_angle_alpha                75.537(5)
_cell_angle_beta                 83.093(5)
_cell_angle_gamma                78.250(5)
_cell_formula_units_Z            2
_cell_length_a                   4.9314(6)
_cell_length_b                   9.4371(11)
_cell_length_c                   13.4664(15)
_cell_measurement_reflns_used    4958
_cell_measurement_temperature    100
_cell_measurement_theta_max      26.22
_cell_measurement_theta_min      2.27
_cell_volume                     592.53(12)
_computing_cell_refinement       'SAINT v8.34A (Bruker, 2013)'
_computing_data_reduction        'SAINT v8.34A (Bruker, 2013)'
_computing_molecular_graphics    'Olex2 (Dolomanov et al., 2009)'
_computing_publication_material  'Olex2 (Dolomanov et al., 2009)'
_computing_structure_refinement  'ShelXL (Sheldrick, 2015)'
_computing_structure_solution    'ShelXT (Sheldrick, 2015)'
_diffrn_ambient_temperature      100
_diffrn_detector_area_resol_mean 8
_diffrn_measured_fraction_theta_full 1.000
_diffrn_measured_fraction_theta_max 0.992
_diffrn_measurement_device_type  'Bruker SMART APEX CCD area detector'
_diffrn_measurement_method       '\w and \f scans'
_diffrn_radiation_monochromator  graphite
_diffrn_radiation_type           MoK\a
_diffrn_radiation_wavelength     0.71073
_diffrn_reflns_av_R_equivalents  0.0282
_diffrn_reflns_av_unetI/netI     0.0233
_diffrn_reflns_Laue_measured_fraction_full 1.000
_diffrn_reflns_Laue_measured_fraction_max 0.992
_diffrn_reflns_limit_h_max       6
_diffrn_reflns_limit_h_min       -6
_diffrn_reflns_limit_k_max       11
_diffrn_reflns_limit_k_min       -11
_diffrn_reflns_limit_l_max       16
_diffrn_reflns_limit_l_min       -16
_diffrn_reflns_number            10172
_diffrn_reflns_point_group_measured_fraction_full 1.000
_diffrn_reflns_point_group_measured_fraction_max 0.992
_diffrn_reflns_theta_full        25.242
_diffrn_reflns_theta_max         26.261
_diffrn_reflns_theta_min         1.566
_diffrn_source                   'sealed tube'
_diffrn_standards_number         0
_exptl_absorpt_coefficient_mu    0.185
_exptl_absorpt_correction_T_max  0.7454
_exptl_absorpt_correction_T_min  0.6071
_exptl_absorpt_correction_type   multi-scan
_exptl_absorpt_process_details
'SADABS-2012/1 (Bruker,2012) was used for absorption correction. wR2(int) was 0.0773 before and 0.0467 after correction. The Ratio of minimum to maximum transmission is 0.8145. The \l/2 correction factor is 0.0015.'
_exptl_crystal_colour            'clear colourless'
_exptl_crystal_colour_lustre     clear
_exptl_crystal_colour_primary    colourless
_exptl_crystal_density_diffrn    1.761
_exptl_crystal_description       block
_exptl_crystal_F_000             316
_exptl_crystal_size_max          0.416
_exptl_crystal_size_mid          0.148
_exptl_crystal_size_min          0.069
_refine_diff_density_max         0.289
_refine_diff_density_min         -0.282
_refine_diff_density_rms         0.048
_refine_ls_extinction_method     none
_refine_ls_goodness_of_fit_ref   1.057
_refine_ls_hydrogen_treatment    constr
_refine_ls_matrix_type           full
_refine_ls_number_parameters     192
_refine_ls_number_reflns         2374
_refine_ls_number_restraints     0
_refine_ls_restrained_S_all      1.057
_refine_ls_R_factor_all          0.0374
_refine_ls_R_factor_gt           0.0316
_refine_ls_shift/su_max          0.000
_refine_ls_shift/su_mean         0.000
_refine_ls_structure_factor_coef Fsqd
_refine_ls_weighting_details
;
 w=1/[\s^2^(Fo^2^)+(0.0472P)^2^+0.1773P]
 where P=(Fo^2^+2Fc^2^)/3
;
_refine_ls_weighting_scheme      calc
_refine_ls_wR_factor_gt          0.0817
_refine_ls_wR_factor_ref         0.0852
_reflns_Friedel_coverage         0.000
_reflns_number_gt                2060
_reflns_number_total             2374
_reflns_threshold_expression     'I > 2\s(I)'
_iucr_refine_instructions_details
;
TITL mo_dts_195_0m_a.res in P-1
REM Old TITL mo_dts_195_0m in P-1
REM SHELXT solution in P-1
REM R1 0.093, Rweak 0.004, Alpha 0.022, Orientation as input
REM Formula found by SHELXT: C12 O3 F6
CELL 0.71073 4.9314 9.4371 13.4664 75.537 83.093 78.25
ZERR 2 0.0006 0.0011 0.0015 0.005 0.005 0.005
LATT 1
SFAC C H F O
UNIT 24 16 12 6
 
L.S. 15
PLAN  60
TEMP -173.12
BOND $H
list 4
fmap 2
ACTA
REM <olex2.extras>
REM <HklSrc "%.\\mo_dts_195_0m.hkl">
REM </olex2.extras>
 
WGHT    0.047200    0.177300
FVAR       0.79884
F2    3    1.083577    0.828353    0.606210    11.00000    0.02374    0.02919 =
         0.02261   -0.00550    0.00040   -0.01260
F5    3    0.275705    0.914848    0.799536    11.00000    0.01763    0.02823 =
         0.03462   -0.01343   -0.00173   -0.00185
F1    3    1.088883    0.694355    0.497118    11.00000    0.02581    0.03373 =
         0.02008   -0.00868    0.00820   -0.00850
F3    3    0.765950    0.883918    0.498483    11.00000    0.02671    0.02857 =
         0.02475    0.00687   -0.00384   -0.00534
F6    3    0.601546    0.993789    0.691288    11.00000    0.03729    0.02079 =
         0.02765   -0.00052    0.00249   -0.00310
F4    3    0.607503    0.988248    0.852178    11.00000    0.03172    0.02699 =
         0.03841   -0.01918   -0.00541   -0.00641
O1    4    0.653462    0.578135    0.593927    11.00000    0.02180    0.02186 =
         0.01382   -0.00533    0.00116   -0.00758
O3    4    0.033763    0.325739    0.931442    11.00000    0.02122    0.02392 =
         0.01452   -0.00469    0.00117   -0.01089
O2    4    0.656692    0.684778    0.907462    11.00000    0.02512    0.02787 =
         0.01260   -0.00432   -0.00174   -0.01168
AFIX 147
H2    2    0.772295    0.693801    0.945449    11.00000   -1.50000
AFIX   0
C8    1    0.480928    0.557118    0.760977    11.00000    0.01430    0.01586 =
         0.01546   -0.00443   -0.00245   -0.00066
C2    1    0.656267    0.669811    0.734615    11.00000    0.01433    0.01606 =
         0.01578   -0.00273   -0.00248   -0.00139
C7    1    0.489812    0.504614    0.672107    11.00000    0.01741    0.01880 =
         0.01248   -0.00294    0.00010   -0.00342
C3    1    0.322954    0.495348    0.848697    11.00000    0.01593    0.01863 =
         0.01394   -0.00529   -0.00204   -0.00191
AFIX  43
H3    2    0.311904    0.528126    0.910515    11.00000   -1.20000
AFIX   0
C4    1    0.182993    0.384595    0.842325    11.00000    0.01421    0.01851 =
         0.01421   -0.00159   -0.00106   -0.00245
C5    1    0.197357    0.333678    0.751818    11.00000    0.02010    0.01861 =
         0.01811   -0.00526   -0.00253   -0.00586
AFIX  43
H5    2    0.099948    0.257211    0.750345    11.00000   -1.20000
AFIX   0
C9    1    0.922885    0.770989    0.559267    11.00000    0.01768    0.02320 =
         0.01655   -0.00376   -0.00036   -0.00432
C6    1    0.353103    0.394666    0.664788    11.00000    0.02377    0.02218 =
         0.01544   -0.00769   -0.00270   -0.00474
AFIX  43
H6    2    0.364913    0.362020    0.602885    11.00000   -1.20000
AFIX   0
C10   1    0.721466    0.757964    0.805037    11.00000    0.01687    0.02092 =
         0.01372   -0.00493    0.00019   -0.00616
AFIX  13
H10   2    0.923615    0.763492    0.795128    11.00000   -1.20000
AFIX   0
C11   1    0.550558    0.914541    0.785976    11.00000    0.01965    0.02317 =
         0.02011   -0.00876    0.00063   -0.00713
C1    1    0.749947    0.675133    0.635373    11.00000    0.01618    0.01862 =
         0.01739   -0.00553   -0.00234   -0.00275
C12   1   -0.106952    0.207678    0.929603    11.00000    0.02208    0.02034 =
         0.02301   -0.00566    0.00328   -0.00939
AFIX 137
H12A  2   -0.236995    0.241821    0.875318    11.00000   -1.50000
H12B  2   -0.209383    0.178405    0.996225    11.00000   -1.50000
H12C  2    0.029353    0.122124    0.916009    11.00000   -1.50000
AFIX   0
HKLF 4
 
REM  mo_dts_195_0m_a.res in P-1
REM R1 =  0.0316 for    2060 Fo > 4sig(Fo)  and  0.0374 for all    2374 data
REM    192 parameters refined using      0 restraints
 
END  
     
WGHT      0.0472      0.1776 

REM Highest difference peak  0.289,  deepest hole -0.282,  1-sigma level  0.048
Q1    1   0.8262  0.7247  0.6027  11.00000  0.05    0.29
Q2    1   0.6330  0.8285  0.7990  11.00000  0.05    0.27
Q3    1   0.6841  0.7185  0.7644  11.00000  0.05    0.27
Q4    1   0.4582  0.5392  0.7182  11.00000  0.05    0.27
Q5    1   0.4139  0.5184  0.8067  11.00000  0.05    0.25
Q6    1   0.7688  0.6579  0.6847  11.00000  0.05    0.22
Q7    1   0.6027  0.6037  0.7604  11.00000  0.05    0.22
Q8    1   0.1834  0.3617  0.8001  11.00000  0.05    0.21
Q9    1   0.3245  0.4100  0.8539  11.00000  0.05    0.18
Q10   1   0.2309  0.4610  0.8453  11.00000  0.05    0.18
Q11   1   0.8718  0.8097  0.7813  11.00000  0.05    0.17
Q12   1   0.3700  0.4814  0.6663  11.00000  0.05    0.17
Q13   1   0.3014  0.3631  0.7169  11.00000  0.05    0.16
Q14   1  -0.1572  0.1754  1.0150  11.00000  0.05    0.16
Q15   1   0.4735  0.4220  0.6739  11.00000  0.05    0.16
Q16   1   0.6991  0.7230  0.8647  11.00000  0.05    0.16
Q17   1   0.8083  0.7650  0.7967  11.00000  0.05    0.14
Q18   1   0.4303  1.1044  0.8441  11.00000  0.05    0.14
Q19   1   0.7757  0.5071  0.5802  11.00000  0.05    0.14
Q20   1   0.0378  0.3454  0.9807  11.00000  0.05    0.14
Q21   1   0.6215  0.9637  0.5399  11.00000  0.05    0.14
Q22   1   0.9435  0.9233  0.5936  11.00000  0.05    0.13
Q23   1   0.6813  1.2018  0.6890  11.00000  0.05    0.13
Q24   1   1.0097  0.7421  0.5223  11.00000  0.05    0.12
Q25   1   0.5358  0.2861  0.6238  11.00000  0.05    0.12
Q26   1   0.4885  0.7033  0.9377  11.00000  0.05    0.12
Q27   1   0.6577  0.8992  0.6659  11.00000  0.05    0.12
Q28   1   0.5648  1.1295  0.8040  11.00000  0.05    0.12
Q29   1   0.1748  0.2410  0.9547  11.00000  0.05    0.12
Q30   1   0.3313  0.8240  0.7678  11.00000  0.05    0.11
Q31   1   1.1050  0.8187  0.8064  11.00000  0.05    0.11
Q32   1   0.1497  1.0042  0.8183  11.00000  0.05    0.11
Q33   1   0.8095  1.0026  0.5118  11.00000  0.05    0.11
Q34   1   0.2146  0.2064  0.7463  11.00000  0.05    0.11
Q35   1   0.2775  0.9022  0.8824  11.00000  0.05    0.11
Q36   1  -0.0464  0.1482  0.7599  11.00000  0.05    0.11
Q37   1  -0.1552  0.2112  0.9070  11.00000  0.05    0.11
Q38   1   0.3102  1.0239  0.7930  11.00000  0.05    0.10
Q39   1   0.6058  1.0003  0.4609  11.00000  0.05    0.10
Q40   1  -0.1123  0.3910  0.9260  11.00000  0.05    0.10
Q41   1   0.6563  0.5807  0.8995  11.00000  0.05    0.10
Q42   1   0.2300  0.2272  0.5869  11.00000  0.05    0.10
Q43   1   0.4652  0.5924  0.9008  11.00000  0.05    0.10
Q44   1   0.4599  0.2131  0.7520  11.00000  0.05    0.10
Q45   1   1.0800  0.7948  0.3783  11.00000  0.05    0.10
Q46   1   0.6989  1.0533  0.7610  11.00000  0.05    0.10
Q47   1   1.2475  0.9264  0.6309  11.00000  0.05    0.09
Q48   1   0.2450  0.5187  1.0426  11.00000  0.05    0.09
Q49   1   0.0098  0.1296  0.7465  11.00000  0.05    0.09
Q50   1   0.8620  0.7948  0.4619  11.00000  0.05    0.09
Q51   1   0.9165  0.7092  0.4471  11.00000  0.05    0.09
Q52   1   1.0592  0.9534  0.4009  11.00000  0.05    0.09
Q53   1   0.7568  0.8966  0.8833  11.00000  0.05    0.09
Q54   1   0.5787  1.0976  0.7073  11.00000  0.05    0.09
Q55   1   1.2824  0.5954  0.5190  11.00000  0.05    0.09
Q56   1   0.3622  0.5075  0.9748  11.00000  0.05    0.09
Q57   1   0.4620  1.0021  0.9647  11.00000  0.05    0.09
Q58   1  -0.2242  0.1736  1.0726  11.00000  0.05    0.09
Q59   1   0.3044  0.6261  0.8756  11.00000  0.05    0.09
Q60   1   0.0143  0.2408  0.6976  11.00000  0.05    0.09

  REM The information below was added by Olex2.
  REM
  REM R1 = 0.0316 for 2060 Fo > 4sig(Fo) and 0.0374 for all 10172 data
  REM n/a parameters refined using n/a restraints
  REM Highest difference peak 0.29, deepest hole -0.28
  REM Mean Shift 0, Max Shift 0.000.

  REM +++ Tabular Listing of Refinement Information +++
  REM R1_all = 0.0374
  REM R1_gt = 0.0316
  REM wR_ref = 0.0852
  REM GOOF = 1.057
  REM Shift_max = 0.000
  REM Shift_mean = 0
  REM Reflections_all = 10172
  REM Reflections_gt = 2060
  REM Parameters = n/a
  REM Hole = -0.28
  REM Peak = 0.29
  REM Flack = n/a

  
;
_cod_data_source_file            ol7b01479_si_003.cif
_cod_data_source_block           mo_dts_195_0m
_cod_depositor_comments
'Adding full bibliography for 1546607--1546608.cif.'
_cod_database_code               1546608
_shelxl_version_number           2012-9
_shelx_space_group_comment
;
The symmetry employed for this shelxl refinement is uniquely defined
by the following loop, which should always be used as a source of
symmetry information in preference to the above space-group names.
They are only intended as comments.
;
_olex2_refinement_description
;
1. Fixed Uiso
 At 1.2 times of:
  All C(H) groups
 At 1.5 times of:
  All C(H,H,H) groups, All O(H) groups
2.a Ternary CH refined with riding coordinates:
 C10(H10)
2.b Aromatic/amide H refined with riding coordinates:
 C3(H3), C5(H5), C6(H6)
2.c Idealised Me refined as rotating group:
 C12(H12A,H12B,H12C)
2.d Idealised tetrahedral OH refined as rotating group:
 O2(H2)
;
_olex2_submission_special_instructions 'No special instructions were received'
loop_
_space_group_symop_operation_xyz
'x, y, z'
'-x, -y, -z'
loop_
_atom_site_label
_atom_site_type_symbol
_atom_site_fract_x
_atom_site_fract_y
_atom_site_fract_z
_atom_site_U_iso_or_equiv
_atom_site_adp_type
_atom_site_occupancy
_atom_site_site_symmetry_order
_atom_site_calc_flag
_atom_site_refinement_flags_posn
F2 F 1.08358(17) 0.82835(10) 0.60621(6) 0.0243(2) Uani 1 1 d .
F5 F 0.27570(17) 0.91485(10) 0.79954(7) 0.0261(2) Uani 1 1 d .
F1 F 1.08888(18) 0.69436(10) 0.49712(6) 0.0265(2) Uani 1 1 d .
F3 F 0.76595(18) 0.88392(10) 0.49848(7) 0.0288(2) Uani 1 1 d .
F6 F 0.6015(2) 0.99379(10) 0.69129(7) 0.0302(2) Uani 1 1 d .
F4 F 0.60750(19) 0.98825(10) 0.85218(7) 0.0299(2) Uani 1 1 d .
O1 O 0.6535(2) 0.57813(11) 0.59393(7) 0.0186(2) Uani 1 1 d .
O3 O 0.0338(2) 0.32574(11) 0.93144(7) 0.0191(2) Uani 1 1 d .
O2 O 0.6567(2) 0.68478(11) 0.90746(7) 0.0209(2) Uani 1 1 d .
H2 H 0.7723 0.6938 0.9454 0.031 Uiso 1 1 calc GR
C8 C 0.4809(3) 0.55712(15) 0.76098(10) 0.0152(3) Uani 1 1 d .
C2 C 0.6563(3) 0.66981(15) 0.73462(10) 0.0156(3) Uani 1 1 d .
C7 C 0.4898(3) 0.50461(15) 0.67211(10) 0.0164(3) Uani 1 1 d .
C3 C 0.3230(3) 0.49535(15) 0.84870(10) 0.0160(3) Uani 1 1 d .
H3 H 0.3119 0.5281 0.9105 0.019 Uiso 1 1 calc R
C4 C 0.1830(3) 0.38460(15) 0.84233(10) 0.0161(3) Uani 1 1 d .
C5 C 0.1974(3) 0.33368(16) 0.75182(11) 0.0183(3) Uani 1 1 d .
H5 H 0.0999 0.2572 0.7503 0.022 Uiso 1 1 calc R
C9 C 0.9229(3) 0.77099(16) 0.55927(11) 0.0193(3) Uani 1 1 d .
C6 C 0.3531(3) 0.39467(16) 0.66479(11) 0.0197(3) Uani 1 1 d .
H6 H 0.3649 0.3620 0.6029 0.024 Uiso 1 1 calc R
C10 C 0.7215(3) 0.75796(15) 0.80504(10) 0.0167(3) Uani 1 1 d .
H10 H 0.9236 0.7635 0.7951 0.020 Uiso 1 1 calc R
C11 C 0.5506(3) 0.91454(16) 0.78598(11) 0.0200(3) Uani 1 1 d .
C1 C 0.7499(3) 0.67513(15) 0.63537(11) 0.0171(3) Uani 1 1 d .
C12 C -0.1070(3) 0.20768(16) 0.92960(11) 0.0213(3) Uani 1 1 d .
H12A H -0.2370 0.2418 0.8753 0.032 Uiso 1 1 calc GR
H12B H -0.2094 0.1784 0.9962 0.032 Uiso 1 1 calc GR
H12C H 0.0294 0.1221 0.9160 0.032 Uiso 1 1 calc GR
loop_
_atom_site_aniso_label
_atom_site_aniso_U_11
_atom_site_aniso_U_22
_atom_site_aniso_U_33
_atom_site_aniso_U_23
_atom_site_aniso_U_13
_atom_site_aniso_U_12
F2 0.0237(4) 0.0292(5) 0.0226(4) -0.0055(4) 0.0004(3) -0.0126(4)
F5 0.0176(4) 0.0282(5) 0.0346(5) -0.0134(4) -0.0017(4) -0.0019(4)
F1 0.0258(5) 0.0337(5) 0.0201(4) -0.0087(4) 0.0082(3) -0.0085(4)
F3 0.0267(5) 0.0286(5) 0.0247(5) 0.0069(4) -0.0038(4) -0.0053(4)
F6 0.0373(5) 0.0208(5) 0.0276(5) -0.0005(4) 0.0025(4) -0.0031(4)
F4 0.0317(5) 0.0270(5) 0.0384(6) -0.0192(4) -0.0054(4) -0.0064(4)
O1 0.0218(5) 0.0219(5) 0.0138(5) -0.0053(4) 0.0012(4) -0.0076(4)
O3 0.0212(5) 0.0239(5) 0.0145(5) -0.0047(4) 0.0012(4) -0.0109(4)
O2 0.0251(5) 0.0279(6) 0.0126(5) -0.0043(4) -0.0017(4) -0.0117(4)
C8 0.0143(6) 0.0159(6) 0.0155(6) -0.0044(5) -0.0024(5) -0.0007(5)
C2 0.0143(6) 0.0161(6) 0.0158(6) -0.0027(5) -0.0025(5) -0.0014(5)
C7 0.0174(7) 0.0188(7) 0.0125(6) -0.0029(5) 0.0001(5) -0.0034(5)
C3 0.0159(6) 0.0186(7) 0.0139(6) -0.0053(5) -0.0020(5) -0.0019(5)
C4 0.0142(6) 0.0185(7) 0.0142(6) -0.0016(5) -0.0011(5) -0.0025(5)
C5 0.0201(7) 0.0186(7) 0.0181(7) -0.0053(5) -0.0025(5) -0.0059(5)
C9 0.0177(7) 0.0232(7) 0.0166(7) -0.0038(6) -0.0004(5) -0.0043(6)
C6 0.0238(7) 0.0222(7) 0.0154(7) -0.0077(6) -0.0027(6) -0.0047(6)
C10 0.0169(7) 0.0209(7) 0.0137(6) -0.0049(5) 0.0002(5) -0.0062(5)
C11 0.0196(7) 0.0232(7) 0.0201(7) -0.0088(6) 0.0006(5) -0.0071(6)
C1 0.0162(6) 0.0186(7) 0.0174(7) -0.0055(5) -0.0023(5) -0.0028(5)
C12 0.0221(7) 0.0203(7) 0.0230(7) -0.0057(6) 0.0033(6) -0.0094(6)
loop_
_atom_type_symbol
_atom_type_description
_atom_type_scat_dispersion_real
_atom_type_scat_dispersion_imag
_atom_type_scat_source
C C 0.0033 0.0016 'International Tables Vol C Tables 4.2.6.8 and 6.1.1.4'
H H 0.0000 0.0000 'International Tables Vol C Tables 4.2.6.8 and 6.1.1.4'
F F 0.0171 0.0103 'International Tables Vol C Tables 4.2.6.8 and 6.1.1.4'
O O 0.0106 0.0060 'International Tables Vol C Tables 4.2.6.8 and 6.1.1.4'
loop_
_geom_angle_atom_site_label_1
_geom_angle_atom_site_label_2
_geom_angle_atom_site_label_3
_geom_angle
C1 O1 C7 105.35(10)
C4 O3 C12 117.54(10)
C10 O2 H2 109.5
C7 C8 C2 105.46(12)
C7 C8 C3 118.66(12)
C3 C8 C2 135.87(12)
C8 C2 C10 126.53(12)
C1 C2 C8 105.26(12)
C1 C2 C10 128.19(12)
O1 C7 C8 110.58(12)
C6 C7 O1 125.25(12)
C6 C7 C8 124.17(13)
C8 C3 H3 121.1
C4 C3 C8 117.81(12)
C4 C3 H3 121.1
O3 C4 C3 115.50(12)
O3 C4 C5 122.35(12)
C3 C4 C5 122.13(13)
C4 C5 H5 119.9
C6 C5 C4 120.25(13)
C6 C5 H5 119.9
F2 C9 F1 107.68(11)
F2 C9 C1 111.39(11)
F1 C9 C1 111.59(11)
F3 C9 F2 107.81(11)
F3 C9 F1 106.41(11)
F3 C9 C1 111.71(11)
C7 C6 C5 116.98(12)
C7 C6 H6 121.5
C5 C6 H6 121.5
O2 C10 C2 108.41(11)
O2 C10 H10 109.5
O2 C10 C11 107.90(11)
C2 C10 H10 109.5
C2 C10 C11 112.01(11)
C11 C10 H10 109.5
F5 C11 C10 112.46(11)
F6 C11 F5 107.26(12)
F6 C11 F4 107.52(11)
F6 C11 C10 112.37(11)
F4 C11 F5 106.53(11)
F4 C11 C10 110.40(12)
O1 C1 C9 112.98(11)
C2 C1 O1 113.34(12)
C2 C1 C9 133.56(12)
O3 C12 H12A 109.5
O3 C12 H12B 109.5
O3 C12 H12C 109.5
H12A C12 H12B 109.5
H12A C12 H12C 109.5
H12B C12 H12C 109.5
loop_
_geom_bond_atom_site_label_1
_geom_bond_atom_site_label_2
_geom_bond_distance
F2 C9 1.3367(16)
F5 C11 1.3452(17)
F1 C9 1.3379(16)
F3 C9 1.3362(17)
F6 C11 1.3310(17)
F4 C11 1.3442(16)
O1 C7 1.3784(16)
O1 C1 1.3683(16)
O3 C4 1.3825(16)
O3 C12 1.4340(17)
O2 H2 0.8400
O2 C10 1.4105(16)
C8 C2 1.4549(19)
C8 C7 1.3980(18)
C8 C3 1.4006(19)
C2 C10 1.5070(18)
C2 C1 1.3526(19)
C7 C6 1.376(2)
C3 H3 0.9500
C3 C4 1.3889(19)
C4 C5 1.4069(19)
C5 H5 0.9500
C5 C6 1.386(2)
C9 C1 1.4956(19)
C6 H6 0.9500
C10 H10 1.0000
C10 C11 1.522(2)
C12 H12A 0.9800
C12 H12B 0.9800
C12 H12C 0.9800
loop_
_refln_index_h
_refln_index_k
_refln_index_l
_refln_F_squared_meas
_refln_F_squared_sigma
-1 0 0 287.96 10.18
-1 0 0 273.35 8.43
-1 0 0 261.11 8.45
-1 0 0 273.12 9
1 0 0 273.57 9
1 0 0 275.98 8.43
1 0 0 276.33 10.15
-2 0 0 113.57 4.18
-2 0 0 122.91 5.03
-2 0 0 120.27 4.11
-2 0 0 120.44 4.35
2 0 0 122.97 4.12
2 0 0 124.03 4.37
-3 0 0 270.82 9.04
3 0 0 278.43 9.51
3 0 0 274.87 8.94
-4 0 0 13.2 1.86
4 0 0 11.02 1.51
4 0 0 11.78 1.42
4 0 0 16.25 1.78
-5 0 0 51.86 3.38
5 0 0 48.38 2.79
5 0 0 47.99 3.09
5 0 0 39.37 2.92
5 -1 0 11.31 1.89
5 -1 0 13.9 1.66
5 -1 0 10.29 1.92
-5 1 0 7.55 1.75
-5 1 0 10.08 2.1
4 -1 0 5.75 1.14
4 -1 0 7.05 1.45
4 -1 0 5.91 1.43
-4 1 0 6.23 1.51
3 -1 0 147.8 5.42
3 -1 0 150.21 4.86
3 -1 0 142.74 5.07
-3 1 0 136.44 5.72
-3 1 0 143.07 5.2
2 -1 0 687.79 24.25
2 -1 0 680.44 22.1
2 -1 0 648.57 24.73
2 -1 0 661.35 20.62
2 -1 0 671.76 20.04
2 -1 0 671.48 20.7
-2 1 0 701.26 22.12
-2 1 0 657.76 20.67
-2 1 0 693 24.23
-2 1 0 694.96 20.65
1 -1 0 1737.36 50.86
1 -1 0 1705.06 52.16
1 -1 0 1792.3 55.93
1 -1 0 1782.84 61.51
-1 1 0 1675.51 52.18
-1 1 0 1769.54 61.49
-1 1 0 1749.03 50.86
-1 1 0 1743.93 52.17
0 -1 0 139.58 4.25
0 -1 0 142.02 5.99
0 1 0 140.52 5.99
0 1 0 136.2 5
0 1 0 136.96 4.25
0 1 0 137.4 4.25
-1 -1 0 1557.1 49.59
-1 -1 0 1646.22 55.84
-1 -1 0 1557.25 46.32
-1 -1 0 1505.26 46.36
1 1 0 1479.03 46.34
1 1 0 1544.47 46.33
1 1 0 1552.65 49.59
-2 -1 0 638.75 22.87
-2 -1 0 631.35 20.15
-2 -1 0 634.37 18.89
2 1 0 603.37 18.91
2 1 0 582.28 22.79
2 1 0 615.58 18.89
2 1 0 622.14 20.16
-3 -1 0 102.63 4.84
-3 -1 0 96.38 3.96
3 1 0 102.56 3.85
3 1 0 103.85 3.99
-4 -1 0 1.5 1.36
4 1 0 0.69 1.1
4 1 0 2.52 1.21
-5 -1 0 42.01 3.26
5 1 0 41.63 2.96
5 1 0 42.36 2.74
5 1 0 41.3 2.8
6 1 0 417.36 12.92
6 1 0 341.46 13.92
6 1 0 412.63 13.4
5 -2 0 129.89 5.33
5 -2 0 125.95 4.84
-5 2 0 118.1 5.37
4 -2 0 78.3 3.2
4 -2 0 74.84 3.49
4 -2 0 75.89 3.7
-4 2 0 76.43 3.66
-4 2 0 73.16 3.68
3 -2 0 1.46 0.76
3 -2 0 0.91 0.93
3 -2 0 1.89 0.93
-3 2 0 1.48 0.93
-3 2 0 1.49 1.01
2 -2 0 106.26 3.5
2 -2 0 103 3.7
2 -2 0 99.77 3.98
2 -2 0 105.09 4.34
-2 2 0 104.61 3.73
-2 2 0 107.22 3.77
-2 2 0 107.89 4.3
1 -2 0 9682.09 313.42
1 -2 0 9999 344.38
1 -2 0 9815.1 292.3
1 -2 0 9787.01 285.06
-1 2 0 9882.64 292.19
-1 2 0 9641.33 344.75
-1 2 0 9710.48 292.45
0 -2 0 5.86 0.6
0 -2 0 4.35 0.68
0 2 0 4.8 0.66
0 2 0 5.78 0.6
0 2 0 6.12 0.73
0 2 0 5.03 0.6
-1 -2 0 657.62 20.36
-1 -2 0 731.2 24.66
-1 -2 0 685.84 20.32
-1 -2 0 666.66 23.86
1 2 0 668.02 20.34
1 2 0 653.45 21.68
1 2 0 705.78 24.58
1 2 0 649.72 20.31
1 2 0 637.68 23.86
-2 -2 0 10.57 1.11
-2 -2 0 10.9 0.9
-2 -2 0 11.52 0.99
-2 -2 0 16.37 1.63
2 2 0 12.79 1.15
2 2 0 10.99 0.96
2 2 0 10.68 1.05
-3 -2 0 1.28 1.25
3 2 0 1.89 0.8
3 2 0 1.78 0.9
-4 -2 0 174.89 7.85
-4 -2 0 169.17 6.48
4 2 0 176.4 6.28
4 2 0 172.02 6.5
-5 -2 0 0.87 1.78
5 2 0 1.32 1.5
5 2 0 0.4 1.41
-6 -2 0 116.01 5.7
6 2 0 94.68 4.96
6 2 0 113.69 4.94
6 2 0 105.65 5.16
5 -3 0 25.55 2.5
5 -3 0 23.51 1.94
-5 3 0 31.83 2.78
-5 3 0 19.39 2.26
4 -3 0 173.13 6.2
4 -3 0 168.96 5.75
4 -3 0 164.81 6.59
-4 3 0 170.98 6.26
-4 3 0 159.7 6.92
3 -3 0 363.46 11.5
3 -3 0 375.7 12.89
3 -3 0 373.85 11.98
-3 3 0 377.98 12.03
-3 3 0 384.75 14
2 -3 0 23.18 1.3
2 -3 0 24.31 1.61
2 -3 0 23.75 1.51
-2 3 0 24.33 1.73
-2 3 0 24.44 1.55
-2 3 0 23.83 1.5
1 -3 0 1.62 0.65
1 -3 0 1.73 0.71
1 -3 0 1.34 0.59
-1 3 0 0.95 0.61
-1 3 0 2.07 0.62
-1 3 0 2.65 0.69
0 -3 0 911.03 27.42
0 -3 0 914.97 38.75
0 3 0 889.82 32.3
0 3 0 892.65 27.41
0 3 0 940.1 27.43
-1 -3 0 471.63 14.52
-1 -3 0 494.07 14.49
-1 -3 0 462.12 16.95
-1 -3 0 511.17 17.63
1 3 0 470.91 14.47
1 3 0 458.18 14.45
1 3 0 428.7 16.94
1 3 0 491.37 17.53
-2 -3 0 11.72 0.97
-2 -3 0 10.37 0.97
-2 -3 0 12.86 1.28
-2 -3 0 10.55 1
-2 -3 0 12.11 1.55
-2 -3 0 13.22 1.7
2 3 0 10.83 1.04
2 3 0 10.92 0.94
2 3 0 13.64 1.17
2 3 0 9.16 1.27
-3 -3 0 23.95 1.89
-3 -3 0 26.99 2.55
3 3 0 23.2 1.7
3 3 0 25.15 1.63
-4 -3 0 3.74 1.85
4 3 0 3.82 1.14
4 3 0 4.55 1.37
-5 -3 0 340.41 15.49
-5 -3 0 408.87 13.05
5 3 0 366.82 13.23
5 3 0 396.58 12.73
-6 -3 0 10.52 2.61
6 3 0 9.42 2.31
6 3 0 8.82 1.88
5 -4 0 2.34 1.92
-5 4 0 3.03 1.9
-5 4 0 -0.4 1.7
4 -4 0 75.38 3.69
-4 4 0 70.93 3.89
-4 4 0 74.19 3.71
3 -4 0 52.62 2.73
3 -4 0 47.56 2.83
-3 4 0 51.28 2.73
-3 4 0 56.14 3.04
2 -4 0 198.1 6.82
-2 4 0 207.47 7.99
-2 4 0 207.6 6.84
1 -4 0 13.04 1.14
1 -4 0 11.02 1.46
-1 4 0 11.96 1.09
-1 4 0 13.4 1.28
-1 4 0 11.21 1.02
0 -4 0 2.78 0.69
0 -4 0 1.55 0.79
0 -4 0 1.72 0.68
0 -4 0 0.89 0.7
0 4 0 1.36 0.64
0 4 0 2.04 0.78
0 4 0 2.47 0.65
-1 -4 0 836.77 28.61
-1 -4 0 770.7 23.6
-1 -4 0 797.76 23.68
-1 -4 0 747.22 27.73
1 4 0 777.33 23.61
1 4 0 726.23 27.73
1 4 0 760.17 23.59
1 4 0 806.24 28.49
-2 -4 0 325.62 15.37
-2 -4 0 320.15 12.05
-2 -4 0 305.92 9.85
-2 -4 0 304.13 11.2
2 4 0 290.36 10.18
2 4 0 294.3 9.68
2 4 0 294.67 9.69
-3 -4 0 31.75 2.24
-3 -4 0 33.91 2.94
-3 -4 0 32.77 2.8
3 4 0 29.55 1.96
-4 -4 0 7.2 1.69
-4 -4 0 9.01 2.23
4 4 0 5.99 1.29
4 4 0 9.33 1.63
-5 -4 0 63.72 5.18
-5 -4 0 75.67 4.35
5 4 0 80.8 3.84
5 4 0 79.45 4.01
4 -5 0 79.61 3.94
-4 5 0 68.86 4.16
-4 5 0 82.42 3.93
3 -5 0 71.45 3.41
-3 5 0 68.47 3.79
-3 5 0 71.12 3.39
2 -5 0 63.93 2.97
-2 5 0 66.78 3.35
-2 5 0 63.54 2.9
1 -5 0 90.44 3.55
1 -5 0 92.77 4.91
-1 5 0 96.23 3.21
-1 5 0 89.7 3.52
-1 5 0 94.33 4.11
0 -5 0 73.69 2.92
0 -5 0 73.21 3.91
0 5 0 78.01 3.4
0 5 0 74.82 2.88
0 5 0 75.82 2.91
-1 -5 0 4.82 1.29
-1 -5 0 8.97 1.09
1 5 0 7.67 1.03
1 5 0 5.6 1.04
1 5 0 6.66 0.94
1 5 0 7.24 0.97
-2 -5 0 74.23 3.95
-2 -5 0 69.48 3.04
-2 -5 0 72.18 4.73
2 5 0 68.07 3.21
2 5 0 69.15 2.82
2 5 0 65.26 2.77
-3 -5 0 204.81 10.03
-3 -5 0 176.64 6.56
-3 -5 0 175.97 8.17
3 5 0 170.38 6.45
3 5 0 174.36 6.32
-4 -5 0 558.05 17.65
-4 -5 0 511.18 21.41
4 5 0 561.67 17.45
-5 -5 0 25.87 3.53
5 5 0 23.33 2.24
5 5 0 28.59 2.86
4 -6 0 41.05 4.37
4 -6 0 41.86 3.29
-4 6 0 30.8 3.05
-4 6 0 50.87 3.31
3 -6 0 76.11 3.69
3 -6 0 69.79 5.05
-3 6 0 69.81 4.05
-3 6 0 68.22 3.54
2 -6 0 42.61 2.69
2 -6 0 46.46 3.66
-2 6 0 39.73 2.87
-2 6 0 45.45 2.59
1 -6 0 1.76 1.28
1 -6 0 1.47 1.05
-1 6 0 1.05 0.99
-1 6 0 1.23 1.14
0 -6 0 310.76 10.04
0 -6 0 311.94 13.99
0 6 0 312.94 10.03
0 6 0 314.86 11.77
-1 -6 0 16.96 1.79
-1 -6 0 20.4 1.6
-1 -6 0 17.71 1.93
1 6 0 17.19 1.68
1 6 0 17.64 1.41
1 6 0 18.38 1.61
-2 -6 0 104.42 7.07
-2 -6 0 124.45 5.75
-2 -6 0 112.45 4.52
2 6 0 120.18 5.01
2 6 0 118.73 4.33
2 6 0 120.02 4.42
-3 -6 0 12.08 1.79
-3 -6 0 9.72 2.31
-3 -6 0 9.71 2.27
3 6 0 10.07 1.54
-4 -6 0 26.53 3.15
-4 -6 0 22.87 3.34
-4 -6 0 27.6 2.7
4 6 0 27.52 2.58
-5 -6 0 6.87 2.72
-5 -6 0 11.23 2.36
5 6 0 9.3 1.98
4 -7 0 15.33 2.44
3 -7 0 1.04 2.16
3 -7 0 1.12 1.7
-3 7 0 0.84 1.66
-3 7 0 1.29 1.84
2 -7 0 28.07 3.12
2 -7 0 31.63 2.46
-2 7 0 28.27 2.68
-2 7 0 30.22 2.39
1 -7 0 50.21 2.79
1 -7 0 42.98 3.54
-1 7 0 45.87 3.07
-1 7 0 48.19 2.67
0 -7 0 1.43 1.13
0 -7 0 -0.19 1.22
0 7 0 -0.44 1.19
0 7 0 -0.07 0.92
-1 -7 0 11.5 1.88
-1 -7 0 14.97 1.68
-1 -7 0 15.37 1.66
1 7 0 16.87 1.6
1 7 0 17.25 1.77
-2 -7 0 238.86 14.97
-2 -7 0 295.98 11.71
-2 -7 0 299.37 9.63
2 7 0 291.87 9.36
2 7 0 298.7 10.94
2 7 0 276.31 9.71
-3 -7 0 104.92 4.5
-3 -7 0 97.46 5.7
-3 -7 0 86.62 7.77
-3 -7 0 98.76 6.66
3 7 0 98.04 4.11
-4 -7 0 62.69 4.93
-4 -7 0 54.5 4.8
-4 -7 0 51.91 3.65
4 7 0 48.49 3.19
-5 -7 0 69.47 4.4
-5 -7 0 52.86 5.32
5 7 0 69.92 3.97
3 -8 0 0.22 2.19
3 -8 0 2.37 1.89
-3 8 0 -2.02 1.96
-3 8 0 4.05 1.96
2 -8 0 91.42 5.78
2 -8 0 91.89 4.37
-2 8 0 85.3 4.86
-2 8 0 87.93 4.25
1 -8 0 58.51 4.2
1 -8 0 59.09 3.29
-1 8 0 56.43 3.13
-1 8 0 55.61 3.63
0 -8 0 4.25 1.47
0 -8 0 4 1.59
0 8 0 2.91 1.25
0 8 0 2.59 1.53
-1 -8 0 61.24 3.79
-1 -8 0 59.66 3.15
1 8 0 63.19 3.53
1 8 0 63.35 3.02
-2 -8 0 11.94 2.99
-2 -8 0 13.23 1.83
-2 -8 0 11.94 2.32
2 8 0 13.7 1.87
2 8 0 18.49 1.87
-3 -8 0 0.88 1.66
-3 -8 0 -0.47 2.07
-3 -8 0 -1.07 2.03
-3 -8 0 2.4 2.08
3 8 0 0.53 1.16
-4 -8 0 5.65 2.66
-4 -8 0 9.45 2.29
-4 -8 0 7.06 2.49
4 8 0 7.47 1.87
5 8 0 132.07 5.99
2 -9 0 12 2.54
2 -9 0 13.1 2.34
-2 9 0 11.88 2.12
-2 9 0 10.56 2.37
1 -9 0 5.01 2.04
1 -9 0 4.26 1.78
-1 9 0 7.41 1.8
-1 9 0 5.45 1.97
0 -9 0 182.03 9.29
0 -9 0 191.62 6.92
0 9 0 196.65 8.09
0 9 0 183.16 6.82
-1 -9 0 51.86 3.08
-1 -9 0 49.6 3.45
1 9 0 45.37 3.32
1 9 0 42.99 2.78
-2 -9 0 77.5 3.84
-2 -9 0 57.98 5.89
-2 -9 0 66.3 4.7
2 9 0 76.23 4.04
2 9 0 70.62 3.47
-3 -9 0 6.97 1.98
-3 -9 0 6.1 2.68
-3 -9 0 6.97 2.48
-3 -9 0 5.81 2.9
3 9 0 7.92 1.67
-4 -9 0 -3.04 1.95
-4 -9 0 -1.84 2.01
-4 -9 0 -1.06 2.45
4 9 0 0.13 1.62
1 -10 0 45.4 3.41
1 -10 0 47.85 4.26
-1 10 0 35.89 3.56
-1 10 0 43.99 3.26
0 -10 0 144.73 7.64
0 10 0 141.03 5.71
0 10 0 141 6.77
1 10 0 300.79 10.16
1 10 0 291.15 11.87
-2 -10 0 4.79 2.68
-2 -10 0 9.01 1.99
-2 -10 0 7.08 2.42
2 10 0 8.14 1.96
2 10 0 6.17 1.69
-3 -10 0 12.38 2.39
-3 -10 0 6.12 2.65
-3 -10 0 6.33 2.93
3 10 0 9.59 1.81
0 -11 0 25.21 2.7
0 11 0 25.1 3.06
-1 -11 0 10.52 2.23
-1 -11 0 8.18 3.29
1 11 0 10.67 1.96
1 11 0 11.48 2.33
-2 -11 0 20.69 4.06
-2 -11 0 21.7 2.78
2 11 0 27.94 2.74
2 11 0 34.67 3.2
2 11 -1 4.74 1.87
1 11 -1 4.24 2.08
0 -11 1 14.84 2.82
3 10 -1 125.76 5.04
-3 -10 1 115.14 10.94
-3 -10 1 108.36 6.64
-3 -10 1 102.41 8.37
2 10 -1 3.82 1.69
2 10 -1 1.16 1.29
2 10 -1 2.85 1.53
-2 -10 1 0.29 1.86
-2 -10 1 2.72 2.18
-2 -10 1 1.24 2.49
-2 -10 1 0.74 3.16
1 10 -1 4.36 1.84
1 10 -1 3.1 1.49
-1 -10 1 1.33 2.41
-1 -10 1 1.19 1.76
-1 -10 1 5.15 1.92
0 10 -1 11.64 1.88
0 10 -1 7.83 2.23
0 -10 1 9.77 2.17
0 -10 1 11.67 2.09
0 -10 1 3.31 2.82
-1 10 -1 25.29 3.01
-1 10 -1 31.6 2.76
1 -10 1 24.43 3.12
4 9 -1 5.47 1.78
-4 -9 1 6.7 2.86
-4 -9 1 6.1 2.69
-4 -9 1 8.42 2.35
3 9 -1 80.27 3.73
3 9 -1 78.16 3.62
-3 -9 1 67.96 6.2
-3 -9 1 66.47 7.38
-3 -9 1 75.71 4.18
-3 -9 1 65.03 5.08
2 9 -1 46.88 2.69
2 9 -1 45.97 3.15
2 9 -1 43.51 2.59
-2 -9 1 32.5 5.58
-2 -9 1 38.7 3.8
-2 -9 1 37.63 4.9
-2 -9 1 45.94 3.18
1 9 -1 153.34 6.9
1 9 -1 159.38 5.88
-1 -9 1 154 7.9
-1 -9 1 160.91 6.1
0 9 -1 6.05 1.94
0 9 -1 6.72 1.54
0 -9 1 3.96 1.67
0 -9 1 6.35 1.88
-1 9 -1 24.14 2.71
-1 9 -1 28.95 2.6
1 -9 1 30.9 3.24
1 -9 1 29.22 2.53
-2 9 -1 101.18 5.79
-2 9 -1 122.41 5.09
2 -9 1 113.89 6.84
2 -9 1 104.99 5.12
4 8 -1 119.31 5.07
4 8 -1 118.69 4.99
-4 -8 1 117.8 5.55
-4 -8 1 116.56 7.91
-4 -8 1 96.34 6.68
3 8 -1 -1.01 1.12
3 8 -1 1.23 1.15
-3 -8 1 1.72 2.13
-3 -8 1 0.57 2.19
-3 -8 1 0.77 2.09
-3 -8 1 1.9 1.69
2 8 -1 15.05 1.59
2 8 -1 17.78 1.84
2 8 -1 17.97 2.05
-2 -8 1 17.72 2.13
-2 -8 1 17.52 2.55
-2 -8 1 13.15 3.68
-2 -8 1 16.55 3.29
1 8 -1 2.94 1.49
1 8 -1 1.61 1.17
-1 -8 1 0.67 2.25
-1 -8 1 1.21 1.41
-1 -8 1 2.51 1.39
0 8 -1 12.09 1.57
0 8 -1 13.53 1.98
0 -8 1 14.81 1.75
0 -8 1 13.47 2.05
-1 8 -1 96.54 4.99
-1 8 -1 101.82 4.3
1 -8 1 104.75 5.96
1 -8 1 93.55 4.3
-2 8 -1 24.05 2.79
-2 8 -1 29.82 2.56
2 -8 1 34.72 3.76
2 -8 1 26.09 2.47
-3 8 -1 -0.42 2.09
-3 8 -1 3.94 1.94
3 -8 1 1.54 1.96
3 -8 1 3.09 2.25
5 7 -1 8.64 2.05
5 7 -1 7.26 1.7
-5 -7 1 8.44 2.44
-5 -7 1 4.54 2.79
4 7 -1 135.16 5.55
4 7 -1 131.67 5.51
-4 -7 1 144.32 8.54
-4 -7 1 148.89 6.05
-4 -7 1 117.91 7.33
3 7 -1 82.76 3.74
3 7 -1 85.66 3.7
-3 -7 1 78.74 7.03
-3 -7 1 82.31 5.26
-3 -7 1 83.79 4.09
-3 -7 1 82.98 6.23
2 7 -1 37.48 2.12
2 7 -1 40.52 2.25
-2 -7 1 28.65 3.85
-2 -7 1 36.99 2.54
-2 -7 1 31.93 4.83
-2 -7 1 40.77 3.38
1 7 -1 80.13 3.88
1 7 -1 80.1 3.28
-1 -7 1 78.89 3.43
-1 -7 1 74.9 4.35
0 7 -1 7.89 1.57
0 7 -1 8.11 1.25
0 -7 1 9.15 1.44
0 -7 1 8.94 1.74
-1 7 -1 62.57 3.02
-1 7 -1 61.41 3.51
1 -7 1 53.33 4.09
1 -7 1 63.55 3.09
-2 7 -1 168.99 7.47
-2 7 -1 180.85 6.49
2 -7 1 173.81 6.49
2 -7 1 170.58 8.96
-3 7 -1 20.34 2.55
-3 7 -1 25.46 2.56
3 -7 1 16.83 2.91
3 -7 1 23.78 2.44
5 6 -1 1.72 1.63
5 6 -1 -0.83 1.29
-5 -6 1 -0.76 2.31
4 6 -1 3.1 1.49
4 6 -1 6.19 1.35
-4 -6 1 5.96 2.04
-4 -6 1 8.03 2.59
-4 -6 1 5.04 1.89
3 6 -1 587.61 18.78
3 6 -1 586.09 19.85
-3 -6 1 642.68 29.89
-3 -6 1 589.97 23.16
-3 -6 1 618 19.07
-3 -6 1 561.33 37.61
2 6 -1 68.39 3.34
2 6 -1 68.39 2.96
2 6 -1 64.97 2.99
-2 -6 1 78.78 6.43
-2 -6 1 71.03 3.22
-2 -6 1 63.2 5.03
-2 -6 1 75.21 4.25
1 6 -1 24.93 1.66
1 6 -1 30.32 1.99
-1 -6 1 27.34 1.86
-1 -6 1 27.43 2.27
0 6 -1 2.94 1.12
0 6 -1 3.96 0.93
0 -6 1 4.09 1.29
0 -6 1 5.02 1.03
-1 6 -1 15.46 1.75
-1 6 -1 17.3 1.6
1 -6 1 20.73 1.69
1 -6 1 13.66 1.94
-2 6 -1 71.59 3.25
-2 6 -1 66.1 3.67
2 -6 1 66.56 3.29
2 -6 1 66.77 4.54
-3 6 -1 3.44 1.68
-3 6 -1 6.71 1.59
3 -6 1 4.06 2.12
3 -6 1 5.85 1.71
-4 6 -1 49.16 3.85
-4 6 -1 64.58 3.74
4 -6 1 62.02 3.79
4 -6 1 64.34 5.15
5 5 -1 7.76 1.89
5 5 -1 3.99 1.44
-5 -5 1 6.57 2.42
4 5 -1 323.67 10.73
4 5 -1 322.44 11.18
-4 -5 1 320.2 10.96
-4 -5 1 325.97 16.34
-4 -5 1 290.81 13.4
3 5 -1 34.74 2.11
3 5 -1 36.37 2.26
-3 -5 1 44.64 3.57
-3 -5 1 35.64 3.44
-3 -5 1 34.65 2.54
2 5 -1 24.5 1.54
2 5 -1 21.53 1.79
2 5 -1 26.18 1.8
2 5 -1 25.66 1.59
-2 -5 1 25.35 2.82
-2 -5 1 28.31 2.66
-2 -5 1 26.67 1.88
-2 -5 1 27.8 3.39
1 5 -1 122.46 5.76
1 5 -1 121.1 4.25
1 5 -1 117.03 4.21
1 5 -1 117.24 4.89
1 5 -1 123.14 5.13
-1 -5 1 120.18 4.34
-1 -5 1 129.34 5.37
0 5 -1 195.16 6.33
0 5 -1 193.87 7.45
0 5 -1 186.04 6.3
0 5 -1 198.77 8.85
0 -5 1 193.23 6.34
0 -5 1 186.62 8.83
-1 5 -1 148.85 4.75
-1 5 -1 138.69 5.7
-1 5 -1 133.52 4.78
-1 5 -1 139.6 4.87
1 -5 1 138.22 4.9
1 -5 1 133.81 6.81
-2 5 -1 0.61 1.11
-2 5 -1 1.2 1.01
2 -5 1 0.08 1.39
2 -5 1 1.57 1.06
2 -5 1 -0.21 0.83
-3 5 -1 535.97 20.24
-3 5 -1 554.84 17.29
3 -5 1 560.98 17.3
3 -5 1 537.97 24.44
3 -5 1 537.48 16.61
-4 5 -1 1.14 1.61
-4 5 -1 -0.48 1.55
4 -5 1 0.33 1.61
4 -5 1 0.28 1.96
5 4 -1 21.46 2.47
5 4 -1 17.45 2.05
-5 -4 1 17.87 2.62
4 4 -1 121.48 4.89
4 4 -1 126.3 4.99
-4 -4 1 123.95 5.15
-4 -4 1 115.63 6.43
3 4 -1 5.21 1.04
3 4 -1 6.49 1.23
-3 -4 1 5.7 1.36
-3 -4 1 5 1.72
-3 -4 1 3.54 1.34
2 4 -1 709.75 33.28
2 4 -1 777.38 23.77
2 4 -1 760.56 25.32
2 4 -1 763.62 23.75
-2 -4 1 744.2 27.7
-2 -4 1 849.46 37.68
-2 -4 1 792.1 23.91
-2 -4 1 829.82 29
1 4 -1 85.52 3.15
1 4 -1 83.23 3.63
1 4 -1 86.36 3.18
1 4 -1 92.77 3.95
-1 -4 1 96.87 4.13
-1 -4 1 86.44 3.63
-1 -4 1 95.87 5.46
0 4 -1 319.39 10.1
0 4 -1 326.53 10.1
0 4 -1 335.63 14.26
0 4 -1 323.36 11.9
0 -4 1 321.4 10.1
0 -4 1 316.87 11.9
0 -4 1 324.16 14.25
-1 4 -1 666.4 20.47
-1 4 -1 680 19.92
-1 4 -1 667.13 24.19
-1 4 -1 662.34 20.53
1 -4 1 660.53 29.04
1 -4 1 688.74 20.53
-2 4 -1 471.66 14.75
-2 4 -1 488.95 17.41
2 -4 1 467.81 20.9
2 -4 1 459.42 14.26
2 -4 1 472.36 14.75
-3 4 -1 335.39 10.77
-3 4 -1 330.25 12.59
3 -4 1 326.01 10.74
3 -4 1 327.52 10.32
-4 4 -1 12.84 1.93
-4 4 -1 15.72 2
4 -4 1 16.55 2
4 -4 1 13.19 1.46
-5 4 -1 9.57 2.08
-5 4 -1 7.06 1.87
5 -4 1 13.71 2.17
5 3 -1 1.35 1.56
5 3 -1 1.37 1.29
-5 -3 1 2.79 1.92
4 3 -1 247.34 8.28
4 3 -1 244.15 8.64
-4 -3 1 223.67 10.26
3 3 -1 36.78 2.03
3 3 -1 38.35 2.08
-3 -3 1 36.65 2.27
-3 -3 1 37.94 3.03
2 3 -1 512.38 17.26
2 3 -1 558.77 17.3
2 3 -1 555.71 18.42
-2 -3 1 608.22 27.31
-2 -3 1 599.56 21.16
-2 -3 1 540.92 18.37
-2 -3 1 561.96 17.41
1 3 -1 574.26 26.38
1 3 -1 565.13 21.96
1 3 -1 621.49 18.75
1 3 -1 636.22 22.66
1 3 -1 609.87 18.74
-1 -3 1 591.07 21.96
-1 -3 1 653.78 29.8
-1 -3 1 637.11 18.82
-1 -3 1 667.42 22.78
0 3 -1 618.52 22.94
0 3 -1 613.08 19.45
0 3 -1 667.2 19.49
0 3 -1 668.58 27.58
0 -3 1 652.73 19.47
0 -3 1 638.74 27.57
-1 3 -1 1934.8 58.47
-1 3 -1 2002.25 62.7
-1 3 -1 1960.76 68.97
-1 3 -1 1967.83 58.43
1 -3 1 1985.54 58.46
1 -3 1 1953.45 57.01
1 -3 1 1884.08 69
1 -3 1 1915.91 82.87
-2 3 -1 1577.95 46.08
-2 3 -1 1580.95 55.8
-2 3 -1 1594.36 47.3
-2 3 -1 1548.59 47.31
2 -3 1 1582.59 46.09
2 -3 1 1535.71 47.28
-3 3 -1 9.5 1.41
-3 3 -1 8.43 1.3
3 -3 1 7.96 1.06
3 -3 1 7.46 1.24
3 -3 1 7.09 1.34
-4 3 -1 0.93 1.33
-4 3 -1 1.13 1.34
4 -3 1 -0.27 0.98
4 -3 1 0.34 1.3
4 -3 1 1.66 1.34
-5 3 -1 3.76 1.77
-5 3 -1 -0.12 1.52
5 -3 1 2.14 1.7
5 -3 1 3.48 1.91
5 -3 1 1.68 1.24
6 2 -1 -1.26 1.83
6 2 -1 0.84 1.61
-6 -2 1 2 2.29
5 2 -1 9.74 1.85
5 2 -1 7.68 1.74
-5 -2 1 7.86 2.02
4 2 -1 102.81 4.2
4 2 -1 99.19 4.3
-4 -2 1 100.14 4.43
3 2 -1 25.7 1.7
3 2 -1 26.24 1.73
-3 -2 1 27.81 2.45
2 2 -1 129.71 6.32
2 2 -1 117.93 4.36
2 2 -1 119.07 4.16
2 2 -1 111.79 4.14
-2 -2 1 111 4.2
-2 -2 1 120.04 4.12
-2 -2 1 118.9 4.31
-2 -2 1 127.45 5.34
-2 -2 1 121.34 6.31
1 2 -1 778.01 27.38
1 2 -1 739.39 22.66
1 2 -1 689.61 31.95
1 2 -1 738.28 22.64
1 2 -1 736.62 24.23
-1 -2 1 730.45 22.68
-1 -2 1 798.4 35.85
-1 -2 1 797.33 27.43
0 2 -1 566.95 17.1
0 2 -1 575.25 20.17
0 2 -1 577.88 24.24
0 2 -1 554.12 17.09
0 -2 1 556.67 24.23
0 -2 1 570.4 20.17
-1 2 -1 338.46 10.35
-1 2 -1 340.47 10.08
-1 2 -1 335.05 12.26
-1 2 -1 332.56 10.36
1 -2 1 343.4 12.31
1 -2 1 336.95 10.35
1 -2 1 330.11 10.09
-2 2 -1 89.07 3.9
-2 2 -1 89.61 3.31
-2 2 -1 91.88 3.16
-2 2 -1 92.96 3.35
2 -2 1 88.34 3.29
2 -2 1 92.59 3.16
2 -2 1 92.87 3.95
2 -2 1 95 3.58
-3 2 -1 218.92 8.51
-3 2 -1 219.17 7.37
3 -2 1 225.27 7.84
3 -2 1 218.14 7.01
3 -2 1 209.77 7.24
-4 2 -1 61.44 3.33
-4 2 -1 58.29 3.21
4 -2 1 59.1 3.2
4 -2 1 60.68 2.82
4 -2 1 61.55 3.09
-5 2 -1 2.73 1.44
-5 2 -1 6.15 1.79
5 -2 1 5.92 1.72
5 -2 1 2.95 1.25
5 -2 1 1.95 1.71
6 1 -1 8.68 2.09
6 1 -1 4.67 1.8
-6 -1 1 7.63 2.36
5 1 -1 99.63 4.37
5 1 -1 86.92 4.38
-5 -1 1 92.68 4.65
4 1 -1 384.98 12.53
4 1 -1 388.32 13.33
-4 -1 1 384.13 12.7
3 1 -1 204.43 7.32
3 1 -1 206.01 6.92
-3 -1 1 207.32 8.52
-3 -1 1 206.49 7.05
2 1 -1 491.05 18.77
2 1 -1 503.86 16.6
2 1 -1 495.35 15.53
2 1 -1 483.74 15.55
-2 -1 1 517.53 15.54
-2 -1 1 518.75 16.58
-2 -1 1 527.07 18.88
1 1 -1 283.58 9.35
1 1 -1 299.6 13.76
1 1 -1 277.56 8.74
1 1 -1 265.57 8.74
-1 -1 1 300.42 10.68
-1 -1 1 274.72 8.77
-1 -1 1 286.62 13.73
-1 -1 1 274.8 9.32
0 1 -1 902.9 38.91
0 1 -1 897.58 32.32
0 -1 1 859.66 38.85
0 -1 1 1002.3 43.38
0 -1 1 914.19 32.33
-1 1 -1 2185.54 66.06
-1 1 -1 2286.37 70.85
-1 1 -1 2229.6 77.98
-1 1 -1 2101.41 66.07
-1 1 -1 2237.43 64.49
1 -1 1 2228.23 77.98
1 -1 1 2175.74 64.48
1 -1 1 2289.36 70.85
1 -1 1 2167.73 66.05
-2 1 -1 372.21 12.36
-2 1 -1 377.66 11.55
-2 1 -1 369.05 13.58
-2 1 -1 370.43 11.59
2 -1 1 364.22 11.22
2 -1 1 375.66 12.37
2 -1 1 368.91 11.53
-3 1 -1 64.69 3.13
-3 1 -1 67.68 2.94
3 -1 1 65.78 2.77
3 -1 1 62.59 2.64
3 -1 1 63.78 2.9
-4 1 -1 177.89 7.4
-4 1 -1 185.72 6.69
4 -1 1 191.72 6.31
4 -1 1 177.92 6.91
4 -1 1 183.55 6.53
-5 1 -1 84.87 4.15
-5 1 -1 73.24 4
5 -1 1 80.9 3.91
5 -1 1 71.22 3.92
5 -1 1 80.24 3.64
5 0 -1 2.67 1.59
5 0 -1 3.91 1.35
5 0 -1 3.19 1.44
-5 0 1 3.11 1.73
-5 0 1 2.94 1.79
4 0 -1 0.08 1.07
4 0 -1 0.26 1.18
-4 0 1 -1.4 1.28
3 0 -1 320.78 10.54
3 0 -1 340.16 11.27
-3 0 1 324.66 10.66
2 0 -1 840.66 25.98
2 0 -1 877.34 27.85
-2 0 1 862.25 27.81
-2 0 1 839.61 26.04
-2 0 1 864.47 25.98
1 0 -1 8.16 0.73
1 0 -1 9.63 0.78
1 0 -1 8.44 0.87
1 0 -1 6.57 0.84
-1 0 1 8.59 0.78
0 0 -1 163.03 8.13
0 0 -1 209.66 5.59
0 0 -1 208.39 5.53
0 0 -1 204.87 5.61
0 0 -1 164.43 6.49
-1 0 -1 198.89 6.55
-1 0 -1 222.85 7.89
-1 0 -1 212.28 6.25
-1 0 -1 207.39 6.53
-1 0 -1 207.08 6.97
1 0 1 205.4 6.25
1 0 1 220.79 6.99
1 0 1 206.05 6.53
1 0 1 206.02 6.39
1 0 1 226.72 7.9
-2 0 -1 868.39 26.44
-2 0 -1 868.53 31.04
-2 0 -1 903.36 31.76
-2 0 -1 907.01 28.23
-2 0 -1 901.8 26.39
2 0 1 743.08 31.69
2 0 1 892.02 28.21
2 0 1 888.84 26.39
2 0 1 868.47 25.73
-3 0 -1 25.81 2.17
-3 0 -1 27.68 1.93
-3 0 -1 24.98 1.79
3 0 1 28.25 1.77
3 0 1 27.51 1.67
3 0 1 25.6 1.7
-4 0 -1 4.13 1.13
-4 0 -1 4.74 1.51
4 0 1 3.58 1.11
4 0 1 4.9 1.27
4 0 1 3.59 1.3
-5 0 -1 39.38 3.03
5 0 1 33.06 2.73
5 0 1 30.81 2.61
5 0 1 32.18 2.51
5 -1 -1 26.68 2.45
5 -1 -1 16.09 1.77
5 -1 -1 18.94 2.28
-5 1 1 16.4 2.06
-5 1 1 24.67 2.58
4 -1 -1 122.41 5.12
4 -1 -1 126.67 4.54
4 -1 -1 129.27 4.9
-4 1 1 125.83 5.06
-4 1 1 120.3 5.3
3 -1 -1 409.01 12.96
3 -1 -1 412.03 13.88
3 -1 -1 407.69 12.49
-3 1 1 411.05 13.07
2 -1 -1 16.98 1.23
2 -1 -1 15.53 1.27
2 -1 -1 13.88 1.21
-2 1 1 16.04 1.15
-2 1 1 13.37 1.19
-2 1 1 18.6 1.32
1 -1 -1 88.89 3.03
1 -1 -1 90.72 3.27
1 -1 -1 94.33 3.46
1 -1 -1 89.19 3.08
-1 1 1 89.98 3.07
-1 1 1 90.16 3.04
0 -1 -1 854.22 29.69
0 -1 -1 818.03 25.18
0 -1 -1 857.29 24.47
0 -1 -1 843.59 30.28
0 -1 -1 828.53 25.18
0 1 1 837.47 29.69
0 1 1 830.8 25.18
0 1 1 837.06 30.28
0 1 1 838.72 24.46
-1 -1 -1 39.4 1.94
-1 -1 -1 32.76 1.26
-1 -1 -1 30.46 1.47
-1 -1 -1 34.13 1.42
1 1 1 37.99 1.87
1 1 1 32.89 1.28
1 1 1 35.5 1.45
-2 -1 -1 313.46 11.71
-2 -1 -1 314.09 10.2
-2 -1 -1 309.53 9.62
2 1 1 300.36 9.62
2 1 1 305.82 10.19
2 1 1 299.87 9.65
-3 -1 -1 1576.54 48.25
-3 -1 -1 1619 58.06
3 1 1 1566.93 48.15
3 1 1 1615.71 51.49
-4 -1 -1 0.68 1.4
-4 -1 -1 -0.28 1.27
-4 -1 -1 0.13 0.86
4 1 1 -0.09 0.98
4 1 1 -0.38 1.04
-5 -1 -1 43.12 3.19
5 1 1 41.54 2.88
5 1 1 36.38 2.71
5 1 1 32.93 2.62
-6 -1 -1 1.59 2.1
6 1 1 0.28 1.85
6 1 1 -1.02 1.84
6 1 1 -0.9 1.55
5 -2 -1 66.11 3.26
5 -2 -1 73.2 3.81
-5 2 1 70.53 3.94
4 -2 -1 145.71 5.05
4 -2 -1 143.93 5.45
4 -2 -1 139.63 5.81
-4 2 1 143.68 5.57
3 -2 -1 371.33 11.53
3 -2 -1 389.86 12.95
3 -2 -1 375.82 12.03
-3 2 1 373.68 12.11
2 -2 -1 87.97 3.27
2 -2 -1 89.35 3.4
2 -2 -1 93.01 3.55
2 -2 -1 92.04 3.76
-2 2 1 88.9 3.7
-2 2 1 89.24 3.34
-2 2 1 90.1 3.31
1 -2 -1 591.88 20.83
1 -2 -1 578.05 17.72
1 -2 -1 587.53 19
1 -2 -1 590.8 17.76
-1 2 1 586.93 17.72
-1 2 1 586.4 20.82
-1 2 1 565.95 17.73
0 -2 -1 398.12 12.01
0 -2 -1 392.32 14.37
0 -2 -1 394.61 12
0 2 1 393.3 14.35
0 2 1 421.16 12.79
0 2 1 387.42 11.99
0 2 1 380.05 11.99
0 2 1 381.52 14.11
-1 -2 -1 637.73 23.5
-1 -2 -1 646.52 20.02
-1 -2 -1 668.02 19.97
-1 -2 -1 698.85 24.2
1 2 1 657.17 19.98
1 2 1 662.95 20
-2 -2 -1 584.7 20.28
-2 -2 -1 525.1 16.69
-2 -2 -1 539.7 16.58
2 2 1 544.82 20.15
2 2 1 542.6 16.64
2 2 1 515.5 16.61
-3 -2 -1 433.28 14.02
-3 -2 -1 427.07 16.16
3 2 1 407.6 13.94
3 2 1 406.25 13.19
-4 -2 -1 21.19 2.15
-4 -2 -1 16.39 2.37
4 2 1 22.67 2.01
4 2 1 19.47 1.79
-5 -2 -1 -0.69 1.76
-5 -2 -1 1.56 1.74
5 2 1 -0.03 1.49
5 2 1 0.47 1.28
-6 -2 -1 49.74 3.97
6 2 1 30.24 2.89
6 2 1 42.69 3.29
6 2 1 49.2 3.47
5 -3 -1 13.19 2.23
5 -3 -1 21.63 2.33
-5 3 1 20.35 2.41
4 -3 -1 0.46 1.27
4 -3 -1 1.67 0.9
4 -3 -1 -0.54 1.2
-4 3 1 1.33 1.35
-4 3 1 0.95 1.17
3 -3 -1 309.3 10.68
3 -3 -1 300.73 9.89
-3 3 1 300.43 11.44
-3 3 1 306.48 9.96
2 -3 -1 165.1 5.66
2 -3 -1 165.51 6.63
2 -3 -1 175.01 6.13
-2 3 1 168.52 5.71
-2 3 1 170.93 6.56
1 -3 -1 241.15 7.53
1 -3 -1 234.79 8.79
1 -3 -1 228.97 7.5
1 -3 -1 235.77 8.03
-1 3 1 248.4 8.05
-1 3 1 237.69 7.53
-1 3 1 233.88 7.48
-1 3 1 235 8.79
0 -3 -1 7.5 0.77
0 -3 -1 4.28 0.72
0 -3 -1 6.08 0.74
0 3 1 6.88 0.83
0 3 1 6.55 0.7
0 3 1 7.61 0.77
-1 -3 -1 258.83 8.24
-1 -3 -1 255.53 9.57
-1 -3 -1 262.68 8.18
-1 -3 -1 272.17 10.03
1 3 1 247.7 9.59
1 3 1 267.22 8.2
1 3 1 278.28 10
1 3 1 254.85 8.17
-2 -3 -1 214.11 7.06
-2 -3 -1 245.47 11.1
-2 -3 -1 226.95 8.91
-2 -3 -1 220.08 7.24
2 3 1 202.85 7.09
2 3 1 212.88 7.12
-3 -3 -1 138.89 6.15
-3 -3 -1 133.71 4.89
3 3 1 124.8 4.81
3 3 1 131.34 4.77
-4 -3 -1 0.79 1.65
4 3 1 -0.76 1.13
4 3 1 -0.27 0.92
-5 -3 -1 42.98 3.36
-5 -3 -1 38.02 3.78
5 3 1 34.99 2.68
5 3 1 44 2.97
-6 -3 -1 29.56 3.23
6 3 1 18.25 2.26
6 3 1 23.48 2.82
6 3 1 19.31 2.34
5 -4 -1 2.82 2
5 -4 -1 -0.32 1.79
-5 4 1 0.84 1.81
4 -4 -1 16.75 2.07
4 -4 -1 14.65 1.99
-4 4 1 19.01 2.13
-4 4 1 15.34 1.96
3 -4 -1 118.51 4.84
3 -4 -1 117.82 4.55
-3 4 1 112.35 5.1
-3 4 1 120.33 4.61
2 -4 -1 10.65 1.27
2 -4 -1 10.08 1.26
-2 4 1 11.09 1.25
-2 4 1 10.82 1.33
1 -4 -1 1128.57 34.92
-1 4 1 1135.66 41.11
-1 4 1 1152.58 34.9
-1 4 1 1119.36 34.95
-1 4 1 1239.46 37.46
0 -4 -1 15.19 1.14
0 -4 -1 16.37 1.2
0 -4 -1 14.8 1.43
0 4 1 14.88 1.1
0 4 1 16.3 1.15
0 4 1 15.47 1.34
-1 -4 -1 677.9 24.35
-1 -4 -1 682.32 20.71
-1 -4 -1 673.25 20.75
-1 -4 -1 698.27 25.07
1 4 1 654.45 24.35
1 4 1 664.33 20.69
1 4 1 714.09 25.02
1 4 1 678.57 20.71
-2 -4 -1 19.84 1.49
-2 -4 -1 21.55 2.1
-2 -4 -1 19.67 1.56
2 4 1 19.79 1.38
-3 -4 -1 496.98 15.46
-3 -4 -1 483 18.74
3 4 1 474.27 15.26
-4 -4 -1 31.71 2.56
-4 -4 -1 29.3 3.12
4 4 1 27.89 2.23
4 4 1 25.07 1.93
-5 -4 -1 6.77 2.43
-5 -4 -1 9.26 2.24
5 4 1 8.24 1.88
5 4 1 6.7 1.55
-6 -4 -1 20.77 3.11
6 4 1 23.27 2.94
6 4 1 16.82 2.17
4 -5 -1 15.71 2.14
-4 5 1 16.24 2.09
-4 5 1 14.46 2.16
3 -5 -1 211.76 7.43
-3 5 1 208.54 7.39
-3 5 1 211.77 8.51
2 -5 -1 205.44 6.99
-2 5 1 209.19 8.1
-2 5 1 197.93 6.94
1 -5 -1 271.61 12.39
1 -5 -1 272.39 8.88
-1 5 1 276.51 8.9
-1 5 1 277.46 10.4
0 -5 -1 311.24 9.72
0 -5 -1 295.94 13.47
0 5 1 312.25 9.7
0 5 1 306.84 11.39
0 5 1 304.88 9.71
-1 -5 -1 73.64 2.91
-1 -5 -1 75.12 3.66
1 5 1 71.89 3.29
1 5 1 69.82 2.82
1 5 1 78.42 2.91
1 5 1 76.11 3.49
-2 -5 -1 113.47 4.34
-2 -5 -1 118.64 5.5
2 5 1 116.56 4.18
-3 -5 -1 8.31 1.83
-3 -5 -1 8.87 1.57
-3 -5 -1 8.67 1.92
3 5 1 11.74 1.47
-4 -5 -1 19.01 2.24
-4 -5 -1 15.56 2.66
4 5 1 18.73 2.11
-5 -5 -1 6.13 2.58
5 5 1 6.21 1.46
5 5 1 5.92 1.91
4 -6 -1 57.47 3.62
-4 6 1 47.29 3.69
-4 6 1 58.06 3.62
3 -6 -1 17.74 2.05
-3 6 1 15.99 1.93
-3 6 1 13.96 2.1
2 -6 -1 271.77 9.08
-2 6 1 271.29 9.11
-2 6 1 267.07 10.57
1 -6 -1 0.42 1.3
1 -6 -1 0.38 1.05
-1 6 1 0.35 1.08
-1 6 1 -0.53 0.89
0 -6 -1 107.58 5.43
0 -6 -1 111.36 4.09
0 6 1 110.6 4.08
0 6 1 110.86 4.74
-1 -6 -1 206.07 8.23
-1 -6 -1 195.58 6.72
1 6 1 199.67 7.81
1 6 1 199.43 6.67
-2 -6 -1 238.44 8.17
-2 -6 -1 257.1 10.1
2 6 1 235.29 7.96
2 6 1 237.11 9.31
-3 -6 -1 442.26 18.27
-3 -6 -1 471.25 23.31
-3 -6 -1 482.78 15.1
3 6 1 463.18 14.85
-4 -6 -1 36.87 3.04
-4 -6 -1 33.97 3.6
4 6 1 37.08 2.69
-5 -6 -1 18.43 2.72
-5 -6 -1 19.46 3.21
5 6 1 27.06 2.74
4 -7 -1 108.61 7.21
4 -7 -1 111.92 5.13
-4 7 1 89.27 5.47
3 -7 -1 0.57 2.06
3 -7 -1 2.41 1.69
-3 7 1 2.59 1.65
-3 7 1 -1.42 1.71
2 -7 -1 18.47 2.65
2 -7 -1 22.89 2.13
-2 7 1 20.61 2.04
-2 7 1 19.61 2.34
1 -7 -1 413.72 18.5
1 -7 -1 416.29 13.28
-1 7 1 400.58 15.48
-1 7 1 416.87 13.27
0 -7 -1 304.29 14.04
0 -7 -1 312.29 10.2
0 7 1 319.94 10.2
0 7 1 314.79 11.92
-1 -7 -1 416.62 15.76
-1 -7 -1 401.53 13.03
1 7 1 396.11 12.96
1 7 1 419.48 15.27
-2 -7 -1 106.8 4.35
-2 -7 -1 104.23 5.45
2 7 1 104.35 4.1
2 7 1 104.58 4.78
-3 -7 -1 104.02 8.73
-3 -7 -1 122.12 4.89
-3 -7 -1 105.81 5.94
-3 -7 -1 104.5 6.99
3 7 1 113.77 4.48
-4 -7 -1 0.72 2.16
-4 -7 -1 -1.96 1.67
-4 -7 -1 0.35 1.75
4 7 1 0.32 1.4
-5 -7 -1 18.18 2.78
-5 -7 -1 14.41 3.2
5 7 1 17.29 2.47
3 -8 -1 18.41 2.42
3 -8 -1 11.5 2.83
-3 8 1 10.67 2.42
-3 8 1 17.42 2.44
2 -8 -1 9.1 1.93
2 -8 -1 5.9 2.19
-2 8 1 4.79 1.97
-2 8 1 6.95 1.76
1 -8 -1 3.62 1.58
1 -8 -1 -0.5 1.55
-1 8 1 2.7 1.46
-1 8 1 2.09 1.65
0 -8 -1 7.1 1.65
0 -8 -1 9.67 1.56
0 8 1 9.43 1.45
0 8 1 7.33 1.71
-1 -8 -1 51.95 3.55
-1 -8 -1 54.94 2.97
1 8 1 50.91 2.78
1 8 1 59.03 3.3
-2 -8 -1 168.74 6.31
-2 -8 -1 163.22 7.68
2 8 1 168.26 7.1
2 8 1 167.85 6.07
-3 -8 -1 14.79 3.43
-3 -8 -1 16.32 2.23
-3 -8 -1 16.68 3.01
-3 -8 -1 18.15 2.84
3 8 1 17.99 1.94
-4 -8 -1 1.23 2.35
-4 -8 -1 2.47 1.94
-4 -8 -1 -0.42 1.99
4 8 1 2.31 1.54
-5 -8 -1 232.22 8.73
-5 -8 -1 183.69 10.71
5 8 1 219.99 8.27
2 -9 -1 27.96 3.19
2 -9 -1 27.76 2.83
-2 9 1 30.27 2.74
-2 9 1 21.75 2.82
1 -9 -1 106.26 4.77
1 -9 -1 100.37 6.08
-1 9 1 105.63 5.33
-1 9 1 105.01 4.66
0 -9 -1 13.96 2.03
0 -9 -1 13.11 1.97
0 9 1 12.91 1.84
0 9 1 13.6 2.16
-1 -9 -1 146.56 5.67
1 9 1 141.93 5.49
1 9 1 142.2 6.42
-2 -9 -1 261.76 11.44
-2 -9 -1 271.69 9.49
2 9 1 273.8 9.27
2 9 1 274.62 10.86
-3 -9 -1 1.19 1.7
-3 -9 -1 4.07 2.31
-3 -9 -1 0.79 2.27
3 9 1 1.17 1.31
-4 -9 -1 15.58 2.65
-4 -9 -1 19.45 3.46
-4 -9 -1 14.96 3.13
4 9 1 19.1 2.35
2 -10 -1 1.73 2.26
1 -10 -1 2.22 2.08
-1 10 1 -0.81 1.71
-1 10 1 0.38 1.98
0 -10 -1 13.75 2.24
0 -10 -1 12.02 2.12
0 10 1 16.89 2.5
0 10 1 15.03 2.15
-1 -10 -1 121.04 5.14
1 10 1 115.49 4.91
1 10 1 110.14 5.69
-2 -10 -1 26.57 4.16
-2 -10 -1 29.66 2.81
-2 -10 -1 29.68 3.21
2 10 1 40.91 2.81
2 10 1 42.43 3.25
-3 -10 -1 82.48 7.21
-3 -10 -1 108.38 5.04
-3 -10 -1 95.11 6.14
3 10 1 113.38 4.64
0 11 1 54.55 4.12
0 11 1 52.73 3.56
-1 -11 -1 -0.38 1.89
1 11 1 0.69 1.61
1 11 1 1.22 1.97
-2 -11 -1 2.73 1.95
-2 -11 -1 1.17 2.73
2 11 1 4.48 1.89
2 11 1 4.7 2.02
3 10 -2 10.46 1.74
-3 -10 2 12.4 3.77
-3 -10 2 10.69 2.81
-3 -10 2 12.88 3.49
2 10 -2 5.27 1.61
2 10 -2 8.47 1.62
2 10 -2 8.28 1.88
-2 -10 2 6.48 3.69
-2 -10 2 4.19 2.1
-2 -10 2 2.9 2.77
1 10 -2 8.76 2.02
1 10 -2 8.39 1.67
-1 -10 2 6.44 2.98
-1 -10 2 6.56 4.24
-1 -10 2 10.03 2.14
-1 -10 2 6.97 2.04
0 10 -2 1.33 1.48
0 10 -2 -0.24 1.91
0 -10 2 0.49 1.83
0 -10 2 0.23 2.65
-1 10 -2 10.47 2.46
-1 10 -2 11.85 1.95
1 -10 2 12.07 2.67
1 -10 2 7.73 3.15
4 9 -2 2.34 1.52
-4 -9 2 1.37 2.18
-4 -9 2 0.61 2.79
-4 -9 2 2.06 2.46
3 9 -2 40.22 2.76
3 9 -2 44.48 2.75
-3 -9 2 33 3.11
-3 -9 2 34.03 3.85
-3 -9 2 35.89 5.51
-3 -9 2 38.95 4.99
2 9 -2 49.24 2.76
2 9 -2 49.6 3.22
2 9 -2 51.68 2.8
-2 -9 2 46.45 3.23
-2 -9 2 39.51 3.88
-2 -9 2 35.56 5
-2 -9 2 36.96 6.19
1 9 -2 75.1 3.46
1 9 -2 78.71 4.28
-1 -9 2 53.4 6.03
-1 -9 2 86.23 3.92
-1 -9 2 72.89 4.77
0 9 -2 1.25 1.84
0 9 -2 0.12 1.25
0 -9 2 -0.3 2.3
0 -9 2 0.78 1.66
0 -9 2 -0.5 1.52
-1 9 -2 34.33 3.13
-1 9 -2 32.3 2.61
1 -9 2 28.3 2.48
1 -9 2 21.8 3.84
1 -9 2 34.84 3.83
-2 9 -2 12.71 2.15
-2 9 -2 8.17 2.46
2 -9 2 5.67 2.9
2 -9 2 13.65 2.8
4 8 -2 66.97 3.63
4 8 -2 72.12 3.8
-4 -8 2 70.92 5.96
-4 -8 2 74.92 4.38
-4 -8 2 51.93 5.18
3 8 -2 50.38 2.89
3 8 -2 50.76 2.93
-3 -8 2 47.35 4.3
-3 -8 2 49.1 5.77
-3 -8 2 51.28 3.43
-3 -8 2 42.75 5.04
2 8 -2 12.15 1.53
2 8 -2 14.34 1.66
2 8 -2 15.91 1.97
-2 -8 2 15.58 2.03
-2 -8 2 13.22 2.44
-2 -8 2 15.09 3.96
-2 -8 2 12.64 3.16
1 8 -2 -0.18 1.42
1 8 -2 -0.19 1.09
-1 -8 2 -1.19 1.29
-1 -8 2 1.19 1.49
-1 -8 2 -0.38 2.03
0 8 -2 22.14 2.33
0 8 -2 20.04 1.94
0 -8 2 23.45 2.6
0 -8 2 21.06 2.01
0 -8 2 15.45 3.24
-1 8 -2 2.87 1.44
-1 8 -2 1.49 1.73
1 -8 2 2.22 1.48
1 -8 2 3.17 1.93
-2 8 -2 -1.06 1.78
-2 8 -2 2.06 1.5
2 -8 2 2.4 2.08
2 -8 2 -0.86 1.74
-3 8 -2 -1.69 1.98
-3 8 -2 0.28 1.71
3 -8 2 0.28 2.2
5 7 -2 7.52 1.76
5 7 -2 6.89 1.98
-5 -7 2 5.44 2.34
4 7 -2 9.33 1.88
4 7 -2 10.92 1.67
-4 -7 2 10.64 2.27
-4 -7 2 6.77 2.64
-4 -7 2 7.35 2.49
3 7 -2 25.8 2.11
3 7 -2 26.19 2.33
-3 -7 2 23.45 3.17
-3 -7 2 28.51 3.85
-3 -7 2 25.09 2.53
-3 -7 2 26.18 4.04
2 7 -2 9.17 1.36
2 7 -2 10.82 1.57
2 7 -2 10.34 1.4
-2 -7 2 9.53 2.14
-2 -7 2 11.58 1.71
-2 -7 2 9.5 3.11
-2 -7 2 8.52 2.58
1 7 -2 47.59 2.35
1 7 -2 44.52 2.8
-1 -7 2 31.78 4.14
-1 -7 2 45.2 2.59
-1 -7 2 49.94 3.34
0 7 -2 1.31 1.32
0 7 -2 0.36 0.97
0 -7 2 -0.69 1.92
0 -7 2 1.43 1.4
0 -7 2 1.92 1.18
-1 7 -2 173.28 7.37
-1 7 -2 180.89 6.28
1 -7 2 169.7 8.82
1 -7 2 174.81 6.25
-2 7 -2 93.49 4.1
-2 7 -2 85.79 4.65
2 -7 2 88.6 5.73
2 -7 2 94.93 4.18
-3 7 -2 -1.61 1.75
-3 7 -2 3 1.69
3 -7 2 2.28 2.1
3 -7 2 1.11 1.73
5 6 -2 32.69 2.75
5 6 -2 33.09 3.04
4 6 -2 29.39 2.34
4 6 -2 32.08 2.59
-4 -6 2 31.55 3.76
-4 -6 2 24.43 3.35
-4 -6 2 34.49 2.99
3 6 -2 39.69 2.32
3 6 -2 33.39 2.32
-3 -6 2 31.87 3.98
-3 -6 2 40.19 4.02
-3 -6 2 36.9 2.75
-3 -6 2 38.16 3.74
2 6 -2 0.98 0.9
2 6 -2 1.36 1.06
2 6 -2 1.15 0.92
-2 -6 2 2.4 1.71
-2 -6 2 0.4 1.71
-2 -6 2 1.65 2.09
-2 -6 2 2.53 1.19
1 6 -2 181.11 7.01
1 6 -2 184.26 6.23
1 6 -2 182.15 5.99
-1 -6 2 184.38 6.14
-1 -6 2 147.94 9.82
-1 -6 2 175.64 8.37
0 6 -2 3.45 0.89
0 6 -2 3.27 1.17
0 6 -2 3.41 0.91
0 -6 2 3.12 1.01
0 -6 2 5.01 1.41
-1 6 -2 75.28 3.74
-1 6 -2 76.48 3.21
1 -6 2 74.86 4.52
1 -6 2 70.88 3.2
-2 6 -2 14.75 1.72
-2 6 -2 13.97 1.9
2 -6 2 13.3 2.27
2 -6 2 17.21 1.78
-3 6 -2 3.95 1.74
-3 6 -2 6.75 1.61
3 -6 2 5.97 2.25
3 -6 2 3.24 1.27
3 -6 2 6.61 1.75
-4 6 -2 50.68 3.88
-4 6 -2 62.62 3.59
4 -6 2 53.82 4.84
5 5 -2 0.31 1.37
5 5 -2 2.12 1.72
4 5 -2 208.94 7.65
4 5 -2 201.47 7.36
-4 -5 2 174.31 9.33
-4 -5 2 215.54 11.2
-4 -5 2 212.37 7.67
3 5 -2 23.13 1.81
3 5 -2 19.79 1.86
-3 -5 2 23.1 2.95
-3 -5 2 18.88 2.85
-3 -5 2 24.51 2.86
-3 -5 2 23.98 2.21
2 5 -2 6.5 1.04
2 5 -2 7.28 1.04
-2 -5 2 5.28 0.98
-2 -5 2 7.72 1.78
-2 -5 2 7.59 1.3
-2 -5 2 3.92 1.81
-2 -5 2 6.77 2.14
1 5 -2 41.32 1.95
1 5 -2 42.85 2.24
1 5 -2 36.28 2.3
1 5 -2 42.2 1.92
-1 -5 2 42.66 2.71
-1 -5 2 44.93 4.76
-1 -5 2 39.56 2.71
-1 -5 2 41.06 2.1
-1 -5 2 40.64 3.55
0 5 -2 2.58 0.77
0 5 -2 3.47 0.95
0 5 -2 4.53 0.82
0 -5 2 2.05 1.15
0 -5 2 3.08 0.85
-1 5 -2 -0.3 0.7
-1 5 -2 0.6 0.8
-1 5 -2 0.25 0.92
1 -5 2 2.66 0.94
1 -5 2 0.27 1.19
-2 5 -2 3.23 1.18
-2 5 -2 5.43 1.35
2 -5 2 4.85 1.06
2 -5 2 4.74 1.65
2 -5 2 5.93 1.29
-3 5 -2 -0.09 1.39
-3 5 -2 1.33 1.29
3 -5 2 -0.3 1.84
3 -5 2 0.2 1
3 -5 2 1.6 1.4
-4 5 -2 0.16 1.5
-4 5 -2 -0.65 1.61
4 -5 2 -1.74 1.55
4 -5 2 1.23 2.06
4 -5 2 0.31 1.15
5 4 -2 36.62 3.03
5 4 -2 33.81 2.72
-5 -4 2 42.65 3.52
4 4 -2 450.53 14.53
4 4 -2 448.7 15.43
3 4 -2 16.71 1.56
3 4 -2 18.82 1.75
-3 -4 2 16.62 2.24
-3 -4 2 21.43 2.53
-3 -4 2 19.24 1.88
2 4 -2 -0.88 0.64
2 4 -2 -0.1 0.68
2 4 -2 -0.26 0.72
2 4 -2 0.44 0.74
-2 -4 2 0.01 1.25
-2 -4 2 -0.24 1.27
-2 -4 2 -0.03 1.17
-2 -4 2 0.08 0.87
1 4 -2 129.24 5.46
1 4 -2 129.71 6.22
1 4 -2 124.88 5.16
1 4 -2 135.23 4.47
1 4 -2 132.97 4.48
-1 -4 2 135.49 4.58
-1 -4 2 132.11 5.16
-1 -4 2 136.79 7.47
-1 -4 2 126.19 6.27
-1 -4 2 147.99 5.71
0 4 -2 78.86 2.88
0 4 -2 78.97 4.07
0 4 -2 79.56 3.4
0 -4 2 82.84 5.07
0 -4 2 76.24 4.12
0 -4 2 80.85 2.89
0 -4 2 77.37 3.42
-1 4 -2 -0.13 0.63
-1 4 -2 -0.68 0.56
-1 4 -2 0.31 0.64
-1 4 -2 -0.01 0.75
1 -4 2 -0.83 0.7
1 -4 2 0.26 0.94
-2 4 -2 3.44 1.1
-2 4 -2 2.42 0.83
-2 4 -2 1.53 0.91
2 -4 2 0.82 0.78
2 -4 2 1.6 1.36
2 -4 2 1.09 0.92
-3 4 -2 3.16 1.17
-3 4 -2 2.97 1.32
3 -4 2 0.81 1.13
3 -4 2 2.29 1.76
3 -4 2 1.54 0.94
-4 4 -2 8.62 1.73
-4 4 -2 7.73 1.76
4 -4 2 4.91 2.24
4 -4 2 7.81 1.6
4 -4 2 7.62 1.32
-5 4 -2 30.98 2.96
-5 4 -2 16.16 2.37
5 -4 2 25.65 2.71
5 -4 2 25.61 3.5
5 -4 2 21.65 2.01
5 3 -2 427.97 15.17
5 3 -2 429.15 14.36
-5 -3 2 443.33 14.66
4 3 -2 1.88 1.26
4 3 -2 1.54 1.17
-4 -3 2 2.92 1.5
3 3 -2 17.89 1.57
3 3 -2 21.45 1.75
-3 -3 2 19.47 2.25
-3 -3 2 18.56 2.27
-3 -3 2 19.46 1.78
2 3 -2 24.82 1.5
2 3 -2 23.94 1.52
2 3 -2 25.47 1.5
-2 -3 2 28.96 2.35
-2 -3 2 26.44 2.37
-2 -3 2 25.95 1.73
-2 -3 2 25.59 1.48
1 3 -2 94.65 3.56
1 3 -2 93.97 4.15
1 3 -2 92.32 3.77
1 3 -2 94.59 3.31
1 3 -2 93.21 3.33
-1 -3 2 98.81 3.45
-1 -3 2 110.89 4.36
-1 -3 2 99.99 3.33
-1 -3 2 99.84 5.54
-1 -3 2 92.48 3.77
0 3 -2 39.67 1.67
0 3 -2 41.69 1.7
0 3 -2 43.2 2.01
0 -3 2 45.43 3.13
0 -3 2 38.73 2.47
-1 3 -2 816.07 24.28
-1 3 -2 807.29 23.68
-1 3 -2 800.54 28.68
1 -3 2 807.46 23.7
1 -3 2 771.72 34.43
-2 3 -2 1532.88 46.23
-2 3 -2 1529.66 46.21
-2 3 -2 1526.83 54.6
2 -3 2 1524.28 46.21
2 -3 2 1509.62 65.59
2 -3 2 1581.97 45.13
-3 3 -2 41.49 2.64
-3 3 -2 42.17 2.32
3 -3 2 40.77 2.25
3 -3 2 43.15 2.16
-4 3 -2 48.29 3.17
-4 3 -2 50.09 2.94
4 -3 2 56.31 2.94
4 -3 2 53.36 2.69
-5 3 -2 4.96 1.81
-5 3 -2 1.61 1.63
5 -3 2 0.93 1.23
5 -3 2 2.85 1.74
5 2 -2 175.06 7.24
5 2 -2 180.12 6.92
-5 -2 2 197.84 7.32
4 2 -2 8.83 1.49
4 2 -2 12.65 1.69
-4 -2 2 13.19 1.93
3 2 -2 282.04 9.38
3 2 -2 306.71 14.44
3 2 -2 289.33 10.01
-3 -2 2 276.4 14.37
2 2 -2 941.37 29.81
2 2 -2 991.71 31.92
2 2 -2 980.07 29.81
-2 -2 2 990.88 46.93
-2 -2 2 991.82 31.87
-2 -2 2 949.31 29.86
-2 -2 2 1043.4 36.16
1 2 -2 2098.86 68.1
1 2 -2 1928.87 89.95
1 2 -2 2188.69 76.55
1 2 -2 2049.28 63.52
1 2 -2 2185.96 100.4
-1 -2 2 2151.08 63.57
-1 -2 2 2227.24 100.48
-1 -2 2 2163.4 76.57
0 2 -2 912.3 40.2
0 2 -2 940.6 33.43
0 -2 2 1043.43 44.99
0 -2 2 866.88 40.18
0 -2 2 957.6 33.46
-1 2 -2 1608.54 56.28
1 -2 2 1576.6 67.59
1 -2 2 1584.04 46.53
-2 2 -2 640.88 23.12
-2 2 -2 631.69 19.54
-2 2 -2 642.72 19.07
-2 2 -2 647.18 19.54
2 -2 2 639.22 19.08
2 -2 2 630.64 19.49
-3 2 -2 178.12 7.18
-3 2 -2 179.46 6.16
3 -2 2 183.37 6.59
3 -2 2 180.43 5.92
3 -2 2 169.39 6.05
-4 2 -2 269.99 9.16
-4 2 -2 269.97 10.57
4 -2 2 277.68 9.07
4 -2 2 258.15 9.69
4 -2 2 267.15 8.77
-5 2 -2 4.94 1.63
-5 2 -2 11.11 2.02
5 -2 2 6.55 1.44
5 -2 2 10.42 1.91
5 -2 2 4.36 1.85
5 1 -2 26.84 2.62
5 1 -2 25.41 2.55
-5 -1 2 22.73 2.76
-5 -1 2 27.68 2.73
4 1 -2 60.65 3.14
4 1 -2 59.31 3.04
-4 -1 2 62.8 3.32
3 1 -2 51.82 2.44
3 1 -2 52.72 2.54
-3 -1 2 49.94 2.63
2 1 -2 25.66 1.49
2 1 -2 24.47 1.87
2 1 -2 24.08 1.44
2 1 -2 26.12 1.43
2 1 -2 25.84 1.94
-2 -1 2 25.62 2.05
-2 -1 2 23.89 1.45
1 1 -2 5.07 0.9
1 1 -2 6.32 0.74
1 1 -2 5.77 0.69
1 1 -2 6.4 0.71
-1 -1 2 6.52 0.87
-1 -1 2 6.49 1.07
0 1 -2 534.96 18.73
0 1 -2 498.42 17.9
0 1 -2 568.46 25.19
0 -1 2 485.57 22.51
0 -1 2 554.85 25.2
0 -1 2 503.68 17.9
0 -1 2 537.19 18.74
-1 1 -2 3060.28 94.78
-1 1 -2 2931.89 104.34
-1 1 -2 2965.34 86.31
1 -1 2 2921.86 125.35
1 -1 2 2929.77 86.32
-2 1 -2 552.32 16.18
-2 1 -2 544.39 19.94
-2 1 -2 553.57 16.86
-2 1 -2 558.99 16.48
-2 1 -2 556.62 18.07
-2 1 -2 534.01 16.88
2 -1 2 551.01 16.47
2 -1 2 545.35 16.83
2 -1 2 561.07 18.09
-3 1 -2 405.79 12.9
-3 1 -2 395.33 15.07
-3 1 -2 421.68 12.93
3 -1 2 403.05 13.7
3 -1 2 398.41 12.79
3 -1 2 414.93 12.51
-4 1 -2 21.91 2.11
-4 1 -2 24.6 2.14
4 -1 2 25.44 1.92
4 -1 2 25.8 2.04
4 -1 2 21.26 2
-5 1 -2 13.83 2.07
-5 1 -2 8.93 1.76
5 -1 2 13.85 1.96
5 -1 2 12.22 1.67
5 -1 2 7.82 1.78
5 0 -2 8.83 1.88
5 0 -2 8.88 1.8
5 0 -2 10.97 1.59
-5 0 2 8.69 1.97
-5 0 2 11.73 2.15
4 0 -2 24.66 2.19
4 0 -2 27.17 2.32
-4 0 2 25.13 2.29
-4 0 2 26.47 2.38
3 0 -2 244.83 8.45
3 0 -2 236.19 7.88
-3 0 2 233.55 8.01
2 0 -2 37.37 1.85
2 0 -2 31.65 2.29
2 0 -2 36.85 1.73
2 0 -2 35.92 2.18
-2 0 2 38.78 2.08
-2 0 2 36.8 1.71
-2 0 2 33.34 1.81
-2 0 2 37.16 1.81
1 0 -2 2401.81 69.37
1 0 -2 2372.17 74.38
1 0 -2 2212.68 109.49
-1 0 2 2324.3 69.39
-1 0 2 2298.87 109.51
-1 0 2 2323.92 78.4
0 0 -2 410.61 12.3
0 0 -2 432.18 19.98
0 0 -2 418.27 12.12
0 0 -2 418.69 13.5
0 0 -2 422.84 12.25
0 0 -2 418.75 14.26
0 0 -2 402.79 17.86
0 0 2 425.95 19.96
0 0 2 423.37 14.26
0 0 2 412.77 17.87
0 0 2 413.26 12.31
0 0 2 421.71 12.13
0 0 2 423.25 12.26
-1 0 -2 4303.29 137.18
-1 0 -2 4207.14 122.93
1 0 2 4236.8 181.82
1 0 2 4207.35 123.11
1 0 2 4272.95 124.97
1 0 2 4493.27 154.19
-2 0 -2 49.81 2.08
-2 0 -2 44.96 2.1
-2 0 -2 46.61 2.36
-2 0 -2 54.53 2.54
-2 0 -2 46.77 2.01
2 0 2 51.79 2.47
2 0 2 48.63 2.02
2 0 2 47.84 1.99
2 0 2 48.58 2.11
-3 0 -2 121.04 5.32
-3 0 -2 123.45 4.41
-3 0 -2 128.71 5.14
-3 0 -2 123.93 4.55
3 0 2 125.33 4.44
3 0 2 119.74 4.61
3 0 2 115.58 4.27
-4 0 -2 10.16 1.53
-4 0 -2 12.44 1.78
-4 0 -2 9.54 1.66
4 0 2 9.49 1.51
4 0 2 11.01 1.52
4 0 2 12.42 1.48
-5 0 -2 0.32 1.33
-5 0 -2 -0.79 1.61
5 0 2 0.88 1.44
5 0 2 -0.4 1.23
5 0 2 1.75 1.33
5 -1 -2 0.19 1.54
5 -1 -2 -0.64 1.34
5 -1 -2 -1.15 1.06
-5 1 2 1.79 1.68
-5 1 2 0.15 1.33
4 -1 -2 29.2 2.28
4 -1 -2 27.2 2.26
4 -1 -2 29.08 1.95
-4 1 2 31.45 2.49
-4 1 2 34.72 2.6
3 -1 -2 322.8 10.5
3 -1 -2 325.09 11.28
-3 1 2 329.87 11.76
-3 1 2 327.77 10.62
2 -1 -2 0.58 0.65
2 -1 -2 -0.06 0.64
2 -1 -2 0.54 0.73
2 -1 -2 0.19 0.67
2 -1 -2 0.2 0.68
-2 1 2 0.6 0.75
-2 1 2 -0.99 0.63
-2 1 2 0.11 0.74
1 -1 -2 1565.65 49.26
1 -1 -2 1531.24 45.92
1 -1 -2 1490.28 51.84
1 -1 -2 1518.68 45.96
-1 1 2 1559.57 45.96
-1 1 2 1538.23 51.84
0 -1 -2 520.83 18.68
0 -1 -2 512.08 18.27
0 -1 -2 508.83 17.53
0 1 2 522.76 15.09
0 1 2 522.75 17.54
0 1 2 507.64 14.91
-1 -1 -2 1170.94 35.94
-1 -1 -2 1145.96 34.55
-1 -1 -2 1255.92 43.33
1 1 2 1130.74 34.56
1 1 2 1295.93 43.33
1 1 2 1197.35 35.92
-2 -1 -2 173.72 5.57
-2 -1 -2 191.23 7.3
-2 -1 -2 182.98 6.21
-2 -1 -2 188.13 5.93
2 1 2 179.4 5.61
2 1 2 183.24 6.2
2 1 2 183.62 5.93
-3 -1 -2 228.41 7.44
-3 -1 -2 229.09 9.12
-3 -1 -2 231.25 7.58
3 1 2 222.55 7.28
3 1 2 226.76 7.45
3 1 2 215.92 7.79
-4 -1 -2 12.8 1.74
-4 -1 -2 12.76 1.55
-4 -1 -2 10.88 1.93
4 1 2 10.32 1.45
4 1 2 11.16 1.44
4 1 2 11.81 1.58
-5 -1 -2 14.89 2.33
-5 -1 -2 15.95 2
-5 -1 -2 16.8 2.27
5 1 2 16.8 1.98
5 1 2 17.98 1.98
5 1 2 19.23 2.24
6 1 2 0.21 1.82
6 1 2 4.08 1.71
6 1 2 2.31 1.81
5 -2 -2 14.15 2.09
5 -2 -2 14.49 1.6
5 -2 -2 17.88 2.24
-5 2 2 13.59 1.75
-5 2 2 15.01 2.22
4 -2 -2 92.64 4.18
4 -2 -2 89.33 3.91
4 -2 -2 87.49 3.45
-4 2 2 85.98 4.05
-4 2 2 88.33 4.04
3 -2 -2 56.66 2.69
3 -2 -2 59.15 2.86
-3 2 2 61.36 2.88
-3 2 2 59.75 2.85
2 -2 -2 3.49 0.88
2 -2 -2 3.31 0.84
2 -2 -2 2.57 0.76
-2 2 2 2.51 0.8
1 -2 -2 190.52 7.07
1 -2 -2 189.66 6.55
1 -2 -2 188.37 6.1
1 -2 -2 195.64 6.16
-1 2 2 192.28 6.1
-1 2 2 196.63 7.09
-1 2 2 193.72 6.13
0 -2 -2 2725.83 94.1
0 -2 -2 2568.11 79.88
0 -2 -2 2680.62 79.81
0 -2 -2 2710.96 77.54
0 -2 -2 2699.61 95.98
0 2 2 2654.27 77.61
0 2 2 2656.35 96.06
0 2 2 2672.77 79.81
0 2 2 2695.32 94.19
-1 -2 -2 1.63 0.84
-1 -2 -2 2.11 0.6
-1 -2 -2 1.75 0.69
-1 -2 -2 -0.03 0.46
1 2 2 1.61 0.61
1 2 2 -0.15 0.46
-2 -2 -2 545.9 17.43
-2 -2 -2 552.16 17.31
-2 -2 -2 594.73 21.15
2 2 2 557.77 17.37
2 2 2 584.85 21.09
-3 -2 -2 210.7 7.15
-3 -2 -2 204.51 8.53
3 2 2 204.27 6.91
-4 -2 -2 -0.1 1.38
-4 -2 -2 0.22 1.55
4 2 2 2.88 1.24
4 2 2 1.23 0.99
-5 -2 -2 15.36 2.51
-5 -2 -2 16.51 2.31
-5 -2 -2 14.34 1.86
5 2 2 18.1 2.21
5 2 2 16.56 1.93
5 2 2 20.88 2.08
-6 -2 -2 24.6 2.99
6 2 2 21.54 2.56
6 2 2 14.75 2.12
6 2 2 20.41 2.37
5 -3 -2 44.21 3.27
-5 3 2 47.91 3.33
4 -3 -2 64.97 3.33
4 -3 -2 60.36 3.48
-4 3 2 70.48 3.44
3 -3 -2 96.52 4.06
3 -3 -2 93.8 3.74
-3 3 2 91.59 4.1
-3 3 2 92.52 3.8
2 -3 -2 58.53 2.47
2 -3 -2 56.2 2.64
2 -3 -2 56.27 2.72
-2 3 2 62.25 2.75
-2 3 2 58.9 2.52
1 -3 -2 453.91 16.72
1 -3 -2 467.09 15.29
1 -3 -2 449.65 14.27
1 -3 -2 467.94 14.31
-1 3 2 458.23 16.74
-1 3 2 463.89 14.27
-1 3 2 461.99 14.29
-1 3 2 495.66 15.32
0 -3 -2 313.33 11.19
0 -3 -2 314.21 9.53
0 -3 -2 309.75 11.39
0 -3 -2 299.51 9.52
0 3 2 300.76 9.16
0 3 2 307.03 9.51
0 3 2 312.84 9.53
0 3 2 299.5 11.18
0 3 2 312.89 11.35
-1 -3 -2 251.31 9.79
-1 -3 -2 250.9 8
-1 -3 -2 259.84 8.07
1 3 2 251.23 8.01
1 3 2 253.71 8.02
1 3 2 272.76 9.79
-2 -3 -2 1391.9 40.95
-2 -3 -2 1435.46 49.61
-2 -3 -2 1363.96 41.09
2 3 2 1370.83 41
2 3 2 1285.81 39.29
2 3 2 1309.58 40.97
-3 -3 -2 320.63 12.33
-3 -3 -2 303.26 10.04
3 3 2 299.32 9.94
-4 -3 -2 5.34 1.85
4 3 2 2.96 1.28
-5 -3 -2 0.72 1.83
-5 -3 -2 -0.57 1.92
5 3 2 0.61 1.48
5 3 2 -0.3 1.15
-6 -3 -2 93.11 5
-6 -3 -2 65.99 5.31
6 3 2 85.68 4.31
6 3 2 67.63 4
6 3 2 81.55 4.4
5 -4 -2 11.47 2.33
5 -4 -2 18.14 2.44
-5 4 2 19.85 2.54
4 -4 -2 10.57 1.8
4 -4 -2 10.38 1.85
-4 4 2 10.72 1.85
-4 4 2 6.93 1.66
3 -4 -2 264.69 9.48
3 -4 -2 261.16 8.84
-3 4 2 264.02 10.13
-3 4 2 263.23 8.87
2 -4 -2 12.75 1.38
2 -4 -2 11.39 1.29
-2 4 2 12.08 1.29
-2 4 2 13.2 1.43
1 -4 -2 246.78 7.93
1 -4 -2 230.71 9.19
1 -4 -2 245.39 7.93
1 -4 -2 246.69 8.43
-1 4 2 248.7 7.89
-1 4 2 245.53 7.94
-1 4 2 244.82 9.24
-1 4 2 263.16 8.47
0 -4 -2 1071.77 32.46
0 -4 -2 1106.61 38.97
0 -4 -2 1083.85 32.48
0 -4 -2 1048.58 38.35
0 4 2 1081.38 32.45
0 4 2 1066.96 32.47
0 4 2 1064.56 31.4
0 4 2 1105.31 38.9
0 4 2 1049.76 38.22
-1 -4 -2 51.58 2.13
-1 -4 -2 51.48 2.72
-1 -4 -2 53.49 2.48
-1 -4 -2 50.61 2.15
1 4 2 54.99 2.63
1 4 2 52.66 2.14
1 4 2 49.27 2.48
1 4 2 51.03 2.1
-2 -4 -2 0.33 0.78
-2 -4 -2 0.45 1.11
-2 -4 -2 -0.19 0.67
-2 -4 -2 0.09 0.79
2 4 2 0.42 0.68
2 4 2 0.29 0.58
-3 -4 -2 91.86 3.9
-3 -4 -2 97.55 4.99
3 4 2 94.49 3.74
-4 -4 -2 32.63 3.29
-4 -4 -2 34.33 2.59
4 4 2 33.29 2.4
-5 -4 -2 2.55 1.92
-5 -4 -2 3.09 2.29
5 4 2 4.98 1.72
-6 -4 -2 -0.64 2.42
-6 -4 -2 -1.1 2.34
6 4 2 0.75 1.91
4 -5 -2 13.87 2.11
4 -5 -2 12.25 2.03
-4 5 2 14.57 2.05
-4 5 2 11.27 1.98
3 -5 -2 1.13 1.23
3 -5 -2 0.51 1.35
-3 5 2 -0.54 1.37
-3 5 2 0.85 1.32
2 -5 -2 4.07 1.19
2 -5 -2 3.74 1.1
-2 5 2 3.28 1.08
-2 5 2 4.67 1.34
1 -5 -2 -0.28 0.78
-1 5 2 0.83 0.8
-1 5 2 -0.35 0.89
0 -5 -2 316.39 10.19
0 -5 -2 307.23 14.09
0 5 2 353.92 10.8
0 5 2 321.73 10.2
0 5 2 311.63 11.93
-1 -5 -2 727.75 26.15
-1 -5 -2 700.49 21.65
1 5 2 686.25 25.44
1 5 2 701.78 21.62
1 5 2 721.11 26.04
-2 -5 -2 87.74 4.47
-2 -5 -2 90.03 3.55
2 5 2 86.18 3.34
-3 -5 -2 8.95 1.72
-3 -5 -2 10.6 2.01
-3 -5 -2 9.57 1.58
3 5 2 10.49 1.41
-4 -5 -2 111.36 4.83
-4 -5 -2 107.58 6.1
4 5 2 113.16 4.63
-5 -5 -2 34.84 3.87
5 5 2 41.64 3.07
4 -6 -2 49.1 3.41
-4 6 2 38.65 3.48
-4 6 2 46.55 3.41
3 -6 -2 12.59 1.88
-3 6 2 15.85 1.93
-3 6 2 13.72 2.1
2 -6 -2 49.17 2.78
-2 6 2 43.46 3.03
-2 6 2 49.52 2.7
1 -6 -2 50.6 2.5
1 -6 -2 44.95 3.18
-1 6 2 46.23 2.7
-1 6 2 43.93 2.38
0 -6 -2 24.3 1.71
0 -6 -2 21.88 1.96
0 6 2 22.6 1.8
0 6 2 27.74 1.69
-1 -6 -2 365.38 13.56
-1 -6 -2 346.12 11.16
1 6 2 344.75 13.05
1 6 2 343.79 11.11
-2 -6 -2 4.27 1.54
-2 -6 -2 5.65 1.3
2 6 2 5.65 1.07
-3 -6 -2 296.26 14.56
-3 -6 -2 265.64 11.64
-3 -6 -2 270.8 9.48
3 6 2 282.81 8.72
3 6 2 272.68 9.28
-4 -6 -2 13.87 2.16
-4 -6 -2 6.06 2.38
4 6 2 8.4 1.69
-5 -6 -2 14.32 2.42
-5 -6 -2 11.46 2.76
5 6 2 18.62 2.46
4 -7 -2 49.66 3.71
-4 7 2 38.13 3.7
-4 7 2 51.57 3.61
3 -7 -2 3.59 1.81
-3 7 2 3.45 1.72
-3 7 2 4.37 1.92
2 -7 -2 75.86 4.92
2 -7 -2 78.74 3.71
-2 7 2 67.75 4.04
-2 7 2 72.52 3.61
1 -7 -2 0.3 1.44
1 -7 -2 0.44 1.26
-1 7 2 -0.77 1.36
-1 7 2 1.67 1.14
0 -7 -2 229.98 10.64
0 -7 -2 234.26 7.86
0 7 2 230.48 9.14
0 7 2 236.9 7.86
-1 -7 -2 153.48 5.54
-1 -7 -2 151 6.66
1 7 2 155.36 5.48
1 7 2 155.43 6.4
-2 -7 -2 4.38 1.32
-2 -7 -2 4.21 1.8
2 7 2 2.91 1.13
2 7 2 7.21 1.47
-3 -7 -2 11.76 2.37
-3 -7 -2 12.81 2.56
-3 -7 -2 10.76 1.87
3 7 2 10.48 1.33
3 7 2 13.79 1.65
-4 -7 -2 45.34 4.19
-4 -7 -2 48.27 3.49
-4 -7 -2 47.67 4.33
4 7 2 44.2 2.96
-5 -7 -2 34.13 4.05
-5 -7 -2 48.19 3.74
5 7 2 45.84 3.39
3 -8 -2 47.3 4.57
3 -8 -2 47.69 3.57
-3 8 2 54.59 3.56
-3 8 2 37.24 3.59
2 -8 -2 93.37 4.31
2 -8 -2 81.59 5.62
-2 8 2 84.47 4.7
-2 8 2 87.55 4.18
1 -8 -2 20.24 2.5
1 -8 -2 21.68 2.08
-1 8 2 19.78 2.03
-1 8 2 19.98 2.33
0 -8 -2 41.46 3.01
0 -8 -2 35.69 2.54
0 8 2 35.47 2.45
0 8 2 42.75 2.95
-1 -8 -2 5.64 1.42
-1 -8 -2 1.6 1.53
1 8 2 4.86 1.53
1 8 2 3.39 1.3
-2 -8 -2 1 1.36
-2 -8 -2 -0.38 1.72
2 8 2 -0.41 1.36
2 8 2 -1.85 1.08
-3 -8 -2 -1.08 1.42
-3 -8 -2 0.5 2.06
-3 -8 -2 0.71 1.94
3 8 2 2.21 1.22
-4 -8 -2 106.65 6.78
-4 -8 -2 130.15 5.65
-4 -8 -2 118.88 7.76
4 8 2 126.44 5.23
-5 -8 -2 -1.48 2.52
-5 -8 -2 0.91 2.16
5 8 2 1.29 1.74
2 -9 -2 11.01 2.16
2 -9 -2 9.68 2.44
-2 9 2 11.84 2.13
-2 9 2 8.59 2.32
1 -9 -2 -2.83 1.58
1 -9 -2 1.26 1.66
-1 9 2 0.37 1.76
-1 9 2 0.41 1.59
0 -9 -2 2.82 1.51
0 -9 -2 3.96 1.58
0 9 2 1.56 1.45
0 9 2 3.75 1.75
-1 -9 -2 53.66 3.78
-1 -9 -2 59.29 3.23
1 9 2 54.55 3.01
1 9 2 47.76 3.44
-2 -9 -2 13.03 2.5
-2 -9 -2 18.73 2.28
2 9 2 16.75 2.28
2 9 2 19.56 1.98
-3 -9 -2 5.6 2.35
-3 -9 -2 2.87 2.29
-3 -9 -2 4.65 1.87
3 9 2 3.93 1.44
-4 -9 -2 73.12 4.33
-4 -9 -2 62.74 5.58
-4 -9 -2 55.73 5.15
4 9 2 69.7 3.8
2 -10 -2 -0.58 2.05
2 -10 -2 0.55 2.11
1 -10 -2 1.9 1.9
1 -10 -2 0.38 1.82
-1 10 2 3.24 1.88
-1 10 2 3.39 2.1
0 -10 -2 10.99 2.01
0 -10 -2 14.93 2.18
0 10 2 15.83 2.4
0 10 2 11.86 1.98
-1 -10 -2 54.83 3.4
1 10 2 53.2 3.17
1 10 2 46.52 3.64
-2 -10 -2 6.34 2.31
-2 -10 -2 5.82 1.92
2 10 2 8.37 1.73
2 10 2 8.04 2.01
-3 -10 -2 26.81 4.1
-3 -10 -2 33 3.05
-3 -10 -2 27.93 3.5
3 10 2 33.25 2.66
-4 -10 -2 17.34 3.48
-4 -10 -2 17.99 2.98
-4 -10 -2 16.06 3.28
4 10 2 17.88 1.88
4 10 2 18.18 2.4
0 11 2 49.58 3.44
0 11 2 50.62 4.01
-1 -11 -2 3.01 2.1
1 11 2 3.57 2.13
1 11 2 3.11 1.84
-2 -11 -2 30.52 3.06
-2 -11 -2 25.87 3.32
2 11 2 33.82 3.17
2 11 2 32.61 2.84
-3 -11 -2 6.14 2.76
3 11 2 11.06 2.04
2 10 -3 13.84 2.12
2 10 -3 7.94 1.7
2 10 -3 12.45 1.8
-2 -10 3 11.34 3.54
-2 -10 3 9.1 4.07
1 10 -3 24.41 2.25
1 10 -3 26.85 2.78
-1 -10 3 31.86 3.51
-1 -10 3 24.99 5.87
-1 -10 3 20.91 4.2
0 10 -3 -0.02 1.52
0 10 -3 -1.74 1.97
0 -10 3 -2.02 3.7
0 -10 3 2.1 1.99
0 -10 3 -0.19 2.76
1 -10 3 52.07 4.79
3 9 -3 5.9 1.62
3 9 -3 6.29 1.55
-3 -9 3 3.65 2.61
-3 -9 3 4.79 3.03
2 9 -3 34.35 2.87
2 9 -3 36.37 2.45
2 9 -3 39.69 2.63
-2 -9 3 32.5 4.84
-2 -9 3 39.67 3.05
-2 -9 3 24.97 2.7
-2 -9 3 34.83 5.95
1 9 -3 247.82 9.41
1 9 -3 235.91 7.88
-1 -9 3 207.56 17.38
-1 -9 3 194.2 13.24
-1 -9 3 233.53 11.02
0 9 -3 2.38 1.43
0 9 -3 2.58 1.92
0 -9 3 5.41 2.88
0 -9 3 4.06 1.94
-1 9 -3 51.02 3
-1 9 -3 44.77 3.76
1 -9 3 46.68 4.37
1 -9 3 36.6 4.86
-2 9 -3 9.4 2.02
-2 9 -3 4.96 2.26
2 -9 3 6.29 2.55
2 -9 3 4.25 2.77
4 8 -3 7.49 1.81
4 8 -3 7.59 1.71
-4 -8 3 9.83 2.96
-4 -8 3 9.13 2.32
3 8 -3 8.25 1.59
3 8 -3 9.66 1.66
-3 -8 3 9.84 2.12
-3 -8 3 12.96 3.43
-3 -8 3 9.88 2.93
2 8 -3 393 12.51
2 8 -3 402.35 14.61
2 8 -3 383.85 13.31
-2 -8 3 395.06 12.76
-2 -8 3 405.62 15.51
-2 -8 3 352.22 20.59
-2 -8 3 355.84 26.22
1 8 -3 135.92 5
1 8 -3 137.24 5.94
-1 -8 3 146.82 7.1
-1 -8 3 121.4 11.43
-1 -8 3 114.4 8.69
0 8 -3 11.63 2.04
0 8 -3 15.67 1.77
0 -8 3 11.2 3.02
0 -8 3 14.77 1.75
0 -8 3 13.33 2.17
-1 8 -3 -2.47 1.33
-1 8 -3 -0.42 1.72
1 -8 3 0.43 2.21
1 -8 3 1.51 1.43
1 -8 3 0.51 1.86
-2 8 -3 25.1 2.36
-2 8 -3 22.67 2.68
2 -8 3 16.94 3.23
2 -8 3 24.05 3.24
-3 8 -3 -3.82 2.18
3 -8 3 0.99 2.31
4 7 -3 0.07 1.33
4 7 -3 1.45 1.49
-4 -7 3 -2.19 1.78
-4 -7 3 0.55 2.09
3 7 -3 36 2.43
3 7 -3 33.37 2.51
-3 -7 3 36.52 4.68
-3 -7 3 38.66 4.45
-3 -7 3 42.22 4.01
-3 -7 3 37.69 2.98
2 7 -3 806.59 24.45
2 7 -3 799.98 28.62
2 7 -3 804.82 26.16
-2 -7 3 717.56 39.27
-2 -7 3 781.27 50.65
-2 -7 3 795.94 24.64
-2 -7 3 826.61 29.85
1 7 -3 82.54 3.28
1 7 -3 82.19 3.94
-1 -7 3 76.13 7.86
-1 -7 3 61.28 5.79
-1 -7 3 84.23 4.72
0 7 -3 36.61 2.76
0 7 -3 35.07 2.11
0 -7 3 32.38 4.18
0 -7 3 34.96 2.24
0 -7 3 34.26 3.15
-1 7 -3 10.86 1.53
-1 7 -3 10.87 1.83
1 -7 3 12.2 2.23
1 -7 3 11.3 2.76
-2 7 -3 2.15 1.5
-2 7 -3 3.36 1.71
2 -7 3 4.01 2.11
2 -7 3 4.8 1.55
2 -7 3 0.52 2.09
-3 7 -3 3.11 1.74
-3 7 -3 0.5 1.84
3 -7 3 0.63 2.15
3 -7 3 2.59 2.11
5 6 -3 2.89 1.54
5 6 -3 4.95 1.86
4 6 -3 21.93 2.24
4 6 -3 17.77 2.15
-4 -6 3 20.82 3.19
-4 -6 3 22.39 2.59
3 6 -3 71.75 3.49
3 6 -3 71.33 3.36
-3 -6 3 68.69 6.25
-3 -6 3 81.19 3.85
-3 -6 3 78.82 5.65
-3 -6 3 70.21 4.9
2 6 -3 129.34 5.03
2 6 -3 127.52 5.3
2 6 -3 127.11 4.69
-2 -6 3 117.26 7.97
-2 -6 3 129.38 4.93
-2 -6 3 130.74 10.02
-2 -6 3 132.67 6.24
1 6 -3 15.81 1.43
1 6 -3 18.71 1.5
1 6 -3 20.93 1.8
-1 -6 3 19.69 3.1
-1 -6 3 21 2.13
-1 -6 3 23.14 4.22
0 6 -3 151.72 5.22
0 6 -3 163.51 6.32
0 6 -3 157.04 5.29
0 -6 3 126.6 8.78
0 -6 3 154.67 7.53
-1 6 -3 6.83 1.45
-1 6 -3 5.81 1.23
-1 6 -3 4.19 1
1 -6 3 6.68 1.84
1 -6 3 8.01 1.32
1 -6 3 4.81 2.11
-2 6 -3 7.4 1.46
-2 6 -3 6.62 1.65
2 -6 3 8.88 1.52
2 -6 3 3.99 2.02
2 -6 3 8.38 2.14
-3 6 -3 10.72 1.86
-3 6 -3 11.11 2.07
3 -6 3 14.56 1.95
3 -6 3 12.28 1.63
3 -6 3 11.46 2.56
-4 6 -3 266.05 9.2
-4 6 -3 235.42 10.65
4 -6 3 261.85 13.06
4 -6 3 265.39 8.81
5 5 -3 -0.04 1.5
5 5 -3 -0.84 1.36
-5 -5 3 0.29 1.9
4 5 -3 15.95 2.01
4 5 -3 6.64 1.51
-4 -5 3 12.12 2.01
-4 -5 3 12.53 2.51
3 5 -3 619.51 19.96
3 5 -3 629.4 21.31
-3 -5 3 632.45 20.19
-3 -5 3 648.34 40.3
-3 -5 3 664.59 31.64
2 5 -3 30.98 1.85
2 5 -3 36.3 2.02
2 5 -3 31.32 1.91
-2 -5 3 37.62 4.17
-2 -5 3 35.77 2.23
-2 -5 3 41.1 3.06
-2 -5 3 32.55 3.49
1 5 -3 1.01 0.71
1 5 -3 -0.18 0.82
1 5 -3 1.05 0.71
-1 -5 3 -0.42 1.07
-1 -5 3 -1.44 1.35
-1 -5 3 -0.19 1.93
0 5 -3 112.48 4.56
0 5 -3 111.38 3.82
0 -5 3 109.08 3.83
0 -5 3 94.54 6.5
0 -5 3 104.44 5.5
-1 5 -3 42.36 2
-1 5 -3 40.86 2.48
1 -5 3 31.85 3.58
1 -5 3 43.23 2.13
1 -5 3 45.03 3.17
-2 5 -3 0.81 1.08
-2 5 -3 -0.88 1.14
2 -5 3 -0.8 1.05
2 -5 3 -1.68 0.97
2 -5 3 -0.21 1.59
2 -5 3 -0.74 1.36
-3 5 -3 30.79 2.35
-3 5 -3 24.38 2.49
3 -5 3 32.82 3.47
3 -5 3 28.34 2.17
3 -5 3 31.18 2.29
-4 5 -3 93.3 5.16
-4 5 -3 105.44 4.59
4 -5 3 108.65 4.89
4 -5 3 101.78 4.28
4 -5 3 96.5 6.44
5 4 -3 8.88 1.95
5 4 -3 5.32 1.65
-5 -4 3 6.24 2.21
-5 -4 3 4.58 2.54
4 4 -3 4.98 1.39
4 4 -3 6.79 1.55
3 4 -3 249.79 8.96
3 4 -3 248.84 8.43
-3 -4 3 249.83 8.59
-3 -4 3 268.21 13.27
-3 -4 3 244.7 16.42
2 4 -3 152.46 5.93
2 4 -3 147.06 5.53
2 4 -3 163.14 5.59
-2 -4 3 161.53 5.75
-2 -4 3 188.63 11.46
-2 -4 3 169.77 7.21
-2 -4 3 170.14 9.08
1 4 -3 677.54 20.83
1 4 -3 682.42 29.69
1 4 -3 633.78 24.43
1 4 -3 661.42 25.16
-1 -4 3 793.03 43.34
-1 -4 3 688.85 24.51
-1 -4 3 652.27 29.54
-1 -4 3 686.54 33.43
0 4 -3 34.24 1.88
0 -4 3 29.65 2.39
0 -4 3 35.08 4.33
0 -4 3 31.21 2.94
-1 4 -3 8.64 0.93
-1 4 -3 9.08 1.18
1 -4 3 8.96 1.47
1 -4 3 8.16 1.85
-2 4 -3 12.39 1.51
-2 4 -3 12.45 1.28
-2 4 -3 10.55 1.12
2 -4 3 7.93 1.77
2 -4 3 13.3 1.27
2 -4 3 12.21 1.87
-3 4 -3 761.87 28.21
-3 4 -3 786.26 23.88
3 -4 3 763.27 23.85
3 -4 3 773.72 33.96
3 -4 3 774.78 23.28
-4 4 -3 129.98 6.25
-4 4 -3 138.72 5.45
4 -4 3 138.55 5.41
4 -4 3 139.1 7.85
4 -4 3 142.66 5.24
-5 4 -3 19.49 2.53
5 -4 3 30.47 3.93
5 -4 3 21.99 2.06
5 3 -3 27.29 2.72
5 3 -3 23.57 2.43
-5 -3 3 27.63 2.84
-5 -3 3 28.07 3.29
4 3 -3 78.89 3.62
4 3 -3 78.57 3.75
-4 -3 3 78.26 3.87
3 3 -3 124.1 5.06
3 3 -3 125.02 4.78
-3 -3 3 144.01 9.14
-3 -3 3 125.27 4.94
-3 -3 3 136.34 7.42
2 3 -3 52.23 2.37
2 3 -3 57.41 2.42
2 3 -3 56.69 2.57
-2 -3 3 60.13 3.91
-2 -3 3 59.55 2.58
-2 -3 3 61.81 4.73
1 3 -3 10.96 1.3
1 3 -3 14.74 1.36
1 3 -3 12.6 1.69
1 3 -3 12.34 1.05
-1 -3 3 12.07 1.8
-1 -3 3 12.32 1.24
-1 -3 3 10.97 2.14
0 3 -3 36.22 1.63
0 3 -3 34.74 2.25
0 3 -3 35.95 1.84
0 -3 3 38.73 1.99
0 -3 3 47.09 4.24
0 -3 3 33.58 2.33
0 -3 3 34.18 2.83
-1 3 -3 104.93 3.65
-1 3 -3 106.54 4.44
1 -3 3 110.67 6.03
1 -3 3 105.09 3.7
1 -3 3 106.98 5.37
-2 3 -3 764.42 23.29
-2 3 -3 775.33 27.66
-2 3 -3 758.51 23.29
2 -3 3 771.26 33.19
2 -3 3 746.38 22.79
2 -3 3 765.72 23.28
-3 3 -3 241.22 9.5
-3 3 -3 239.29 7.99
3 -3 3 233.59 7.93
3 -3 3 238.3 11.45
3 -3 3 243.3 7.81
-4 3 -3 47.9 2.86
-4 3 -3 46.37 3.13
4 -3 3 41.16 2.72
4 -3 3 45.57 4.12
4 -3 3 45.74 2.61
-5 3 -3 8.97 1.85
-5 3 -3 4.51 1.77
5 -3 3 5.24 1.46
5 -3 3 6.71 2.6
5 2 -3 -0.47 1.45
5 2 -3 -0.15 1.36
-5 -2 3 2.33 1.86
-5 -2 3 -1.59 2.05
4 2 -3 33.38 2.38
4 2 -3 34.05 2.39
-4 -2 3 35.52 3.06
-4 -2 3 34.46 2.72
3 2 -3 0.05 0.84
3 2 -3 0.65 0.89
-3 -2 3 1.29 1.1
-3 -2 3 0.17 1.16
2 2 -3 727.31 23.48
2 2 -3 857.12 37.2
2 2 -3 764.32 23.48
2 2 -3 762.71 25.19
-2 -2 3 765.11 37.05
-2 -2 3 747.91 23.55
1 2 -3 913.59 32.76
1 2 -3 867.64 29.1
1 2 -3 948.7 42.98
-1 -2 3 855.03 30.7
-1 -2 3 907.43 42.97
0 2 -3 39.22 1.87
0 2 -3 38.85 1.75
0 2 -3 45.26 2.75
0 -2 3 42.81 1.99
0 -2 3 37.34 2.39
0 -2 3 43.84 2.84
-1 2 -3 9.52 1.04
-1 2 -3 7.68 0.77
1 -2 3 10.35 0.9
1 -2 3 10.38 2.15
1 -2 3 10.16 1.36
-2 2 -3 835.48 24.83
-2 2 -3 813.7 29.44
2 -2 3 815.32 35.3
2 -2 3 803.38 24.29
-3 2 -3 79.4 3.9
-3 2 -3 81.85 3.33
-3 2 -3 81.6 3.26
3 -2 3 80.44 3.24
3 -2 3 80.9 3.23
-4 2 -3 28.91 2.53
-4 2 -3 31.28 2.41
4 -2 3 31.32 2.17
4 -2 3 27.86 2.23
-5 2 -3 54.48 3.37
-5 2 -3 48.25 3.48
5 -2 3 51.85 3.27
5 -2 3 50.61 2.96
5 1 -3 1.82 1.47
5 1 -3 1.6 1.61
-5 -1 3 3.49 1.89
-5 -1 3 0.47 1.87
4 1 -3 205.19 7.71
4 1 -3 199.6 7.2
-4 -1 3 208.52 8.41
-4 -1 3 205.01 7.43
3 1 -3 138.6 5.27
3 1 -3 135.27 4.93
-3 -1 3 137.34 5.07
-3 -1 3 138.76 5.78
2 1 -3 47.48 2.05
2 1 -3 48.49 3.1
2 1 -3 43.52 2.05
2 1 -3 49.25 2.23
-2 -1 3 47.5 3.16
-2 -1 3 48.52 2.59
-2 -1 3 49.63 2.17
-2 -1 3 49.94 2.34
1 1 -3 187.2 9.11
1 1 -3 177.79 6.16
-1 -1 3 175.51 6.54
-1 -1 3 179.95 9.12
0 1 -3 319.13 14.14
0 1 -3 293.7 10.43
0 1 -3 268.38 9.95
0 1 -3 278.41 8.54
0 -1 3 275.58 12.58
0 -1 3 280.76 9.97
0 -1 3 286.92 14.08
0 -1 3 287.63 10.45
0 -1 3 289.82 8.56
-1 1 -3 420.87 18.6
-1 1 -3 438.11 15.6
1 -1 3 425.92 18.64
1 -1 3 435.32 12.89
-2 1 -3 68.02 2.74
-2 1 -3 66.66 3.09
-2 1 -3 65.14 2.51
-2 1 -3 64.27 2.45
-2 1 -3 69.18 2.54
-2 1 -3 63 2.55
2 -1 3 68.05 2.56
2 -1 3 66.45 2.49
2 -1 3 63.86 2.6
2 -1 3 68.27 3.72
-3 1 -3 49.59 2.76
-3 1 -3 47.17 2.26
-3 1 -3 51.41 2.46
3 -1 3 47.64 2.29
3 -1 3 49.4 2.5
3 -1 3 51.44 2.33
-4 1 -3 136.87 5.19
-4 1 -3 135.09 5.92
4 -1 3 137.53 4.95
4 -1 3 133.02 5.04
4 -1 3 124.64 5.32
-5 1 -3 -1.01 1.45
-5 1 -3 -1.33 1.61
5 -1 3 0.63 1.23
5 -1 3 0.16 1.39
5 -1 3 -0.63 1.56
5 0 -3 -0.86 1.34
5 0 -3 0.69 1.54
-5 0 3 1.74 1.67
-5 0 3 0.13 1.61
4 0 -3 19.2 1.93
4 0 -3 14.97 1.8
-4 0 3 15.43 2.01
-4 0 3 17.43 2.08
3 0 -3 46.56 2.34
3 0 -3 48.56 2.47
-3 0 3 49.25 2.83
-3 0 3 43.94 2.53
2 0 -3 199.81 6.9
2 0 -3 199.87 6.4
2 0 -3 189.91 7.82
2 0 -3 190.55 6.42
-2 0 3 200.65 7.31
-2 0 3 196.29 6.48
1 0 -3 79.82 2.92
1 0 -3 74.76 4.19
-1 0 3 76.18 4.28
-1 0 3 77.88 3.1
0 0 -3 1070.27 34.15
0 0 -3 1069.86 30.97
0 0 -3 1013.45 45.15
0 0 -3 1044.99 31.1
0 0 -3 1051.38 36.02
0 0 -3 1088.14 30.66
0 0 -3 1118.07 50.44
0 0 3 1081.91 30.98
0 0 3 1074.56 30.66
0 0 3 1070.32 50.4
0 0 3 1052.42 31.11
0 0 3 1056.3 36.03
0 0 3 1040.67 45.17
-1 0 -3 824.46 36.38
1 0 3 879.06 36.43
1 0 3 857.59 30.85
1 0 3 857.69 25.15
1 0 3 853.02 24.78
-2 0 -3 641.98 19.48
-2 0 -3 684.26 20.27
-2 0 -3 642.07 24
-2 0 -3 649.13 20.29
-2 0 -3 668.35 21.66
2 0 3 662.85 19.5
2 0 3 711.03 24.41
2 0 3 674.93 20.25
2 0 3 659.72 19.85
-3 0 -3 76.11 3.74
-3 0 -3 73.88 3.62
-3 0 -3 76.79 3.24
-3 0 -3 79.78 3.08
3 0 3 75.4 3.09
3 0 3 77.93 3.06
3 0 3 81.56 3.25
-4 0 -3 3.47 1.44
-4 0 -3 5.55 1.36
-4 0 -3 5.14 1.45
4 0 3 3.43 1.22
4 0 3 4.14 1.35
4 0 3 5.32 1.23
-5 0 -3 12.11 1.98
-5 0 -3 21.08 2.37
5 0 3 20.86 2
5 0 3 17.63 2.05
5 0 3 20.83 2.17
5 -1 -3 1.2 1.18
5 -1 -3 0.9 1.49
5 -1 -3 1.93 1.6
-5 1 3 1.14 1.47
-5 1 3 2.02 1.71
4 -1 -3 29.05 2.3
4 -1 -3 29.49 2.39
-4 1 3 34.32 2.58
-4 1 3 29.39 2.52
3 -1 -3 8.93 1.21
3 -1 -3 7.22 1.2
-3 1 3 8.73 1.34
-3 1 3 8 1.33
2 -1 -3 190.65 6.32
2 -1 -3 193.7 6.23
2 -1 -3 192.31 6.73
-2 1 3 184.26 6.29
-2 1 3 189.65 7
1 -1 -3 26.65 1.41
1 -1 -3 26.84 1.26
1 -1 -3 27.15 1.33
1 -1 -3 25.29 1.38
-1 1 3 25.05 1.35
-1 1 3 29.27 1.35
-1 1 3 26.29 1.46
0 -1 -3 596.76 17.42
0 1 3 610.66 17.65
0 1 3 611.68 20.52
0 1 3 587.22 17.43
-1 -1 -3 619.93 18.45
-1 -1 -3 623.49 22.76
1 1 3 619.4 18.45
1 1 3 607.22 18.19
1 1 3 654.28 22.75
-2 -1 -3 173.55 5.39
-2 -1 -3 142.19 5.12
-2 -1 -3 177.03 6.7
2 1 3 164.65 5.35
2 1 3 164.46 5.19
2 1 3 162.19 5.42
2 1 3 172.29 5.42
-3 -1 -3 3.25 0.78
-3 -1 -3 2.28 0.67
-3 -1 -3 3.71 1.23
-3 -1 -3 4.44 0.9
-3 -1 -3 3.34 1.08
3 1 3 3.89 0.98
3 1 3 3.2 0.91
3 1 3 3.23 0.88
-4 -1 -3 122.84 5.93
-4 -1 -3 129.48 5.06
-4 -1 -3 126.73 5.57
4 1 3 128.57 4.85
4 1 3 130.47 4.78
4 1 3 123.52 4.96
-5 -1 -3 0.69 1.62
-5 -1 -3 -0.26 1.63
-5 -1 -3 0.14 1.37
5 1 3 1.29 1.3
5 1 3 0.34 1.47
5 1 3 1.06 1.36
6 1 3 9.91 2.16
6 1 3 8.72 1.92
6 1 3 2.79 1.9
5 -2 -3 9.49 1.98
5 -2 -3 9.6 1.97
-5 2 3 13.2 2.25
-5 2 3 7.75 1.7
4 -2 -3 1.86 1.36
4 -2 -3 0.8 1.19
-4 2 3 1.93 1.19
-4 2 3 3.95 1.47
3 -2 -3 116.22 4.63
3 -2 -3 112.83 4.27
-3 2 3 111.91 4.63
-3 2 3 112.04 4.38
2 -2 -3 210.24 7.31
2 -2 -3 212.28 6.9
2 -2 -3 206.52 6.76
-2 2 3 204.1 7.5
-2 2 3 204.43 6.82
1 -2 -3 1027.96 34.73
1 -2 -3 1023.19 33.03
1 -2 -3 1014.95 30.79
1 -2 -3 1049.44 30.85
-1 2 3 982.41 34.71
-1 2 3 1018.25 36.16
-1 2 3 1042.42 30.82
0 -2 -3 137.5 4.38
0 -2 -3 136.84 5.19
0 -2 -3 137.27 5.32
0 -2 -3 132.2 4.96
0 -2 -3 142.54 4.3
0 2 3 139.63 4.31
0 2 3 138.78 5.21
-1 -2 -3 61.79 2.22
-1 -2 -3 60.61 2.86
-1 -2 -3 63.67 2.17
-1 -2 -3 65.13 2.33
1 2 3 58.92 2.19
1 2 3 66.23 2.25
1 2 3 60.06 2.19
-2 -2 -3 26.03 1.51
-2 -2 -3 27.03 1.34
-2 -2 -3 25.99 1.97
-2 -2 -3 23.4 1.26
2 2 3 25.04 1.43
2 2 3 24.77 1.31
2 2 3 28.38 1.9
-3 -2 -3 25.28 1.59
-3 -2 -3 27.94 2.4
3 2 3 25.43 1.69
-4 -2 -3 -0.01 1.36
-4 -2 -3 -0.65 1.55
4 2 3 0.61 1.11
4 2 3 0.48 0.97
4 2 3 0.64 1.11
-5 -2 -3 0.92 1.64
-5 -2 -3 0.34 1.81
-5 -2 -3 -0.32 1.25
5 2 3 2.61 1.46
5 2 3 0.88 1.47
5 2 3 0.05 1.28
6 2 3 2.03 1.9
6 2 3 1.39 1.65
6 2 3 0.93 1.56
5 -3 -3 1.39 1.69
5 -3 -3 -0.01 1.8
-5 3 3 2.77 1.73
4 -3 -3 222.89 7.71
4 -3 -3 207.3 8.25
-4 3 3 218.04 7.75
3 -3 -3 10.35 1.49
3 -3 -3 12.62 1.44
-3 3 3 11.79 1.49
2 -3 -3 249.56 9.48
2 -3 -3 255.52 8.23
2 -3 -3 258.25 8.84
-2 3 3 254.57 8.27
1 -3 -3 0.39 0.59
1 -3 -3 -0.18 0.62
1 -3 -3 0.21 0.6
1 -3 -3 -0.67 0.6
-1 3 3 -0.61 0.56
-1 3 3 -0.62 0.6
-1 3 3 -0.54 0.54
-1 3 3 0.18 0.74
-1 3 3 -0.53 0.5
0 -3 -3 80.4 3.12
0 -3 -3 79.67 3.42
0 -3 -3 83.69 3.35
0 -3 -3 82.19 2.87
0 -3 -3 81.66 2.87
0 3 3 83.62 3.37
0 3 3 84.32 2.88
0 3 3 83.47 3.39
0 3 3 80.65 2.74
-1 -3 -3 772.36 23.18
-1 -3 -3 751.58 28.03
-1 -3 -3 759.42 22.47
-1 -3 -3 776.48 23.23
1 3 3 766.02 22.33
1 3 3 733.12 22.46
1 3 3 776.31 23.18
1 3 3 800.37 28.03
-2 -3 -3 0.27 0.96
-2 -3 -3 0.07 0.73
-2 -3 -3 -0.23 0.57
-2 -3 -3 -0.15 0.49
2 3 3 -0.11 0.54
2 3 3 0.04 0.79
2 3 3 0.32 0.64
-3 -3 -3 112.22 5.31
-3 -3 -3 110.07 4.21
3 3 3 108.44 4.12
-4 -3 -3 7.29 1.93
4 3 3 6.27 1.39
-5 -3 -3 11.06 2.44
-5 -3 -3 13.22 2.25
5 3 3 6.83 1.47
5 3 3 8.45 1.81
5 3 3 14.89 2.07
-6 -3 -3 -1.11 2.17
-6 -3 -3 1.92 2.35
6 3 3 1.79 1.7
6 3 3 -1.6 1.54
6 3 3 -1.45 1.71
5 -4 -3 36.85 3.13
-5 4 3 34.48 3.08
4 -4 -3 120.83 4.96
4 -4 -3 105.68 5.07
-4 4 3 115.43 4.9
3 -4 -3 40.65 2.59
3 -4 -3 42.57 2.53
-3 4 3 40.9 2.51
-3 4 3 41.14 2.61
2 -4 -3 513.53 16.36
2 -4 -3 538.57 17.56
-2 4 3 535.54 19.12
-2 4 3 513.47 16.36
1 -4 -3 226.25 7.3
1 -4 -3 233.56 7.78
1 -4 -3 216.18 8.46
1 -4 -3 228.83 8.59
1 -4 -3 219.95 7.3
-1 4 3 221.95 7.32
-1 4 3 220.55 8.49
-1 4 3 235.72 7.79
0 -4 -3 150.08 5.67
0 -4 -3 142.14 4.83
0 -4 -3 142.59 5.75
0 -4 -3 144.88 4.84
0 4 3 141.57 4.58
0 4 3 140.06 5.65
0 4 3 144.85 4.83
0 4 3 142.89 4.81
0 4 3 148.23 5.69
-1 -4 -3 13.98 1.13
-1 -4 -3 14.44 1.14
-1 -4 -3 18.61 1.36
-1 -4 -3 14.8 1.42
1 4 3 15.01 1.4
1 4 3 15.23 1.13
1 4 3 13.23 1.11
-2 -4 -3 337.87 10.74
-2 -4 -3 348.85 10.63
-2 -4 -3 341.41 13.13
2 4 3 334.01 10.64
2 4 3 328.27 10.17
-3 -4 -3 273.13 8.93
-3 -4 -3 266.39 10.88
3 4 3 257.58 8.73
-4 -4 -3 2.83 1.43
-4 -4 -3 5.74 1.99
4 4 3 8.94 1.55
-5 -4 -3 15.68 2.84
-5 -4 -3 23.18 2.66
5 4 3 23.79 2.48
-6 -4 -3 0.86 2.43
6 4 3 0.86 1.73
6 4 3 0.13 1.87
4 -5 -3 -0.74 1.51
4 -5 -3 0.84 1.5
-4 5 3 -0.94 1.62
-4 5 3 1.3 1.52
3 -5 -3 12.37 1.76
3 -5 -3 12.69 1.77
-3 5 3 12.8 1.86
-3 5 3 14.75 1.81
2 -5 -3 40.37 2.39
2 -5 -3 44.48 2.42
-2 5 3 39.08 2.31
-2 5 3 44.44 2.6
1 -5 -3 17.9 1.44
-1 5 3 17.65 1.48
-1 5 3 18.72 1.67
0 -5 -3 687.52 25.07
0 -5 -3 693.65 20.93
0 -5 -3 677.65 20.91
0 5 3 681.21 20.16
0 5 3 679.37 24.6
0 5 3 674.95 24.96
0 5 3 681.3 20.92
-1 -5 -3 3.79 0.83
-1 -5 -3 5.12 0.91
-1 -5 -3 3.83 1.12
1 5 3 3.64 0.96
1 5 3 4.58 0.88
1 5 3 3.83 0.94
-2 -5 -3 222.92 7.5
-2 -5 -3 219.56 9.15
2 5 3 228.4 7.03
2 5 3 223.78 7.35
-3 -5 -3 55.22 2.93
-3 -5 -3 53.35 3.67
3 5 3 55.15 2.39
3 5 3 57.15 2.7
-4 -5 -3 6.13 1.64
-4 -5 -3 4.22 2.08
4 5 3 9.37 1.68
-5 -5 -3 25.66 3.48
5 5 3 36.52 2.88
4 -6 -3 3.27 1.87
4 -6 -3 9.66 2.18
-4 6 3 9.47 2.13
-4 6 3 4.71 2
3 -6 -3 174.01 6.48
3 -6 -3 166.3 6.81
-3 6 3 170.44 6.43
-3 6 3 171.26 7.29
2 -6 -3 184.46 6.59
-2 6 3 180.66 7.49
-2 6 3 185.2 6.58
1 -6 -3 72.53 3.24
-1 6 3 71.85 3.19
-1 6 3 78.61 3.67
0 -6 -3 236.39 7.68
0 -6 -3 225.92 9.07
0 6 3 231.74 7.19
0 6 3 234.25 8.95
0 6 3 233.32 7.67
0 6 3 229.6 8.91
-1 -6 -3 44.84 2.21
-1 -6 -3 41.71 2.73
1 6 3 44.78 2.15
1 6 3 41.77 2.49
-2 -6 -3 -0.83 1.02
-2 -6 -3 0.01 1.26
2 6 3 -0.04 0.85
-3 -6 -3 166.23 7.82
-3 -6 -3 176.4 6.38
3 6 3 178.32 6.16
3 6 3 165.55 5.69
-4 -6 -3 397.43 17.78
-4 -6 -3 467.52 14.81
4 6 3 468.6 14.56
-5 -6 -3 1.29 2.27
-5 -6 -3 2.98 1.96
5 6 3 1.73 1.7
4 -7 -3 13.72 2.51
-4 7 3 15.73 2.46
3 -7 -3 10.7 2.06
-3 7 3 13.35 2.12
-3 7 3 12.24 2.16
2 -7 -3 0.67 1.45
-2 7 3 -0.43 1.57
-2 7 3 -2.02 1.26
1 -7 -3 21.64 2.3
1 -7 -3 26.01 2.09
-1 7 3 22.24 1.94
-1 7 3 21.61 2.12
0 -7 -3 10.48 1.44
0 7 3 9.18 1.37
0 7 3 9.4 1.49
-1 -7 -3 40.5 2.95
-1 -7 -3 46.67 2.45
1 7 3 42.69 2.73
1 7 3 45.82 2.34
-2 -7 -3 47.73 2.71
-2 -7 -3 45.37 3.41
2 7 3 48.03 2.49
-3 -7 -3 99.97 4.44
-3 -7 -3 87.22 5.44
3 7 3 101.78 3.82
3 7 3 103.04 4.13
-4 -7 -3 6.41 2.45
-4 -7 -3 6.1 2.07
-4 -7 -3 10.29 2.19
4 7 3 8.74 1.72
-5 -7 -3 8.16 2.29
-5 -7 -3 4.99 2.57
5 7 3 8.47 2.06
3 -8 -3 1.8 1.93
-3 8 3 0.86 2
-3 8 3 1.52 1.83
2 -8 -3 100.24 6.32
2 -8 -3 108.44 4.83
-2 8 3 116.01 4.83
-2 8 3 105.79 5.35
1 -8 -3 71.28 4.49
1 -8 -3 74.5 3.63
-1 8 3 66.94 3.04
-1 8 3 66.81 3.94
-1 8 3 63.97 3.42
0 -8 -3 229.12 7.85
0 -8 -3 220.9 10.46
0 8 3 227.69 9.16
0 8 3 226.89 7.81
-1 -8 -3 30.85 2.37
-1 -8 -3 31.34 2.86
1 8 3 34.79 2.68
1 8 3 32.65 2.24
-2 -8 -3 1.34 1.37
-2 -8 -3 -1.9 1.66
2 8 3 1.79 1.14
-3 -8 -3 223.67 10.53
-3 -8 -3 248.31 8.61
3 8 3 242.23 8.33
3 8 3 243.05 7.88
-4 -8 -3 1.38 2.27
-4 -8 -3 2.21 1.91
-4 -8 -3 3.77 2.05
4 8 3 1.65 1.52
-5 -8 -3 -0.6 2.1
-5 -8 -3 0.12 2.44
5 8 3 0.69 1.78
2 -9 -3 0.15 2.05
2 -9 -3 4.25 1.92
-2 9 3 3.52 1.95
-2 9 3 2.74 1.76
1 -9 -3 8.81 1.91
1 -9 -3 8.54 2.04
-1 9 3 8.1 1.38
-1 9 3 8.54 1.8
-1 9 3 7.33 2.06
0 -9 -3 7.26 1.63
0 -9 -3 8.33 1.79
0 9 3 8.63 1.91
0 9 3 5.02 1.54
-1 -9 -3 1.74 1.61
-1 -9 -3 1.85 1.56
1 9 3 4.18 1.71
1 9 3 3.55 1.49
-2 -9 -3 122.58 6.34
-2 -9 -3 120.32 5.16
2 9 3 123.11 5.78
2 9 3 120.45 4.87
-3 -9 -3 0.73 1.67
-3 -9 -3 3.32 2.22
3 9 3 1.67 1.31
-4 -9 -3 -1.07 2.26
-4 -9 -3 3.23 2.01
-4 -9 -3 -0.08 1.92
4 9 3 0.56 1.57
4 9 3 -0.72 1.19
2 -10 -3 67.02 5.11
2 -10 -3 65.61 4.22
-2 10 3 64.03 3.99
-2 10 3 52.36 4.35
1 -10 -3 4.47 2.02
1 -10 -3 2.9 1.94
-1 10 3 6.13 2.21
-1 10 3 5.5 1.97
0 -10 -3 15.02 2.18
0 -10 -3 17.96 2.23
0 10 3 18.64 2.16
0 10 3 19.45 2.48
-1 -10 -3 2.3 1.69
-1 -10 -3 0.11 1.85
1 10 3 -0.59 1.76
1 10 3 0.31 1.49
-2 -10 -3 32.95 3.42
-2 -10 -3 31.91 2.76
2 10 3 36.56 3.26
2 10 3 35.91 2.69
-3 -10 -3 10.08 2.22
-3 -10 -3 7.31 2.56
3 10 3 11.15 1.94
-4 -10 -3 3.06 2.26
-4 -10 -3 2.69 2.37
-4 -10 -3 2.72 2.59
4 10 3 2.01 1.45
4 10 3 2.29 1.85
0 -11 -3 -1.49 1.91
0 11 3 3.63 2.03
0 11 3 -1.49 1.76
1 11 3 174.91 7.99
1 11 3 178.52 6.89
-2 -11 -3 1.37 2.31
-2 -11 -3 1.1 1.93
2 11 3 0.39 1.62
2 11 3 1.3 1.9
-3 -11 -3 -1.14 2.43
-3 -11 -3 0.57 2.54
-3 -11 -3 -0.74 1.92
3 11 3 0.12 1.65
2 10 -4 10.33 1.99
2 10 -4 8.88 1.91
-2 -10 4 7.16 3.68
-2 -10 4 6.37 3.32
1 10 -4 15.96 2.35
1 10 -4 13.5 1.89
-1 -10 4 18.4 4
-1 -10 4 15.66 2.63
-1 -10 4 9.45 4.51
0 10 -4 31.84 2.56
0 10 -4 25.58 3
0 -10 4 35.62 3.96
0 -10 4 24.02 6.06
0 -10 4 22.58 4.36
3 9 -4 6.38 1.64
3 9 -4 5.94 1.62
-3 -9 4 4.47 3.05
-3 -9 4 4.06 2.35
-3 -9 4 3.88 2.72
2 9 -4 19.01 2.02
2 9 -4 23.02 2.3
2 9 -4 21.18 2.13
-2 -9 4 17.75 2.35
-2 -9 4 18.86 4.5
-2 -9 4 14.75 3.66
1 9 -4 21.62 2.45
1 9 -4 20.97 2.02
-1 -9 4 20.47 4.07
-1 -9 4 19.22 5.07
-1 -9 4 20.01 2.72
0 9 -4 194.75 7.93
0 -9 4 154.01 11.15
0 -9 4 197.8 9.39
0 -9 4 158.82 14.96
-1 9 -4 2.85 1.46
-1 9 -4 3.22 2.15
1 -9 4 2.75 2.18
1 -9 4 -1.87 3.88
1 -9 4 3.15 2.72
2 -9 4 16.31 3.07
4 8 -4 1.5 1.49
4 8 -4 3.1 1.58
-4 -8 4 -0.44 2.35
-4 -8 4 -1.14 2.44
3 8 -4 11.73 1.87
3 8 -4 11.83 1.76
-3 -8 4 9.06 2.38
-3 -8 4 6.41 3.12
-3 -8 4 10.63 3
2 8 -4 34.73 2.33
2 8 -4 34.35 2.68
2 8 -4 33.77 2.53
-2 -8 4 34.22 2.87
-2 -8 4 31.46 5.43
-2 -8 4 37.96 5.01
-2 -8 4 34.8 2.75
1 8 -4 101.16 4.93
1 8 -4 106.33 4.14
-1 -8 4 107.28 5.98
-1 -8 4 93.79 7.67
-1 -8 4 96.26 9.83
0 8 -4 3.44 1.26
0 8 -4 0.87 1.71
0 -8 4 2.28 2.47
0 -8 4 3.83 1.42
0 -8 4 2.21 3.48
0 -8 4 1.79 1.75
-1 8 -4 19.22 1.92
-1 8 -4 18.88 2.44
1 -8 4 21.13 2.89
1 -8 4 13.1 3.24
1 -8 4 11.7 4.66
-2 8 -4 0.75 1.75
2 -8 4 -0.53 2.08
2 -8 4 0.44 2.36
4 7 -4 0.67 1.38
4 7 -4 2.17 1.43
-4 -7 4 -1.52 2.13
-4 -7 4 -1.24 2.34
-4 -7 4 -0.03 1.88
3 7 -4 10.84 1.71
3 7 -4 7.55 1.61
-3 -7 4 8.46 2.92
-3 -7 4 9.37 2.42
-3 -7 4 11.18 2.06
-3 -7 4 7.14 2.61
2 7 -4 48.31 2.83
2 7 -4 47.16 2.6
2 7 -4 55.06 3
-2 -7 4 47.64 6.03
-2 -7 4 54.29 2.99
-2 -7 4 42.2 5.03
-2 -7 4 54.91 3.62
1 7 -4 51.62 2.51
1 7 -4 55.4 3.14
-1 -7 4 42.5 6.22
-1 -7 4 51.68 2.76
-1 -7 4 50.97 3.8
-1 -7 4 44.07 4.95
0 7 -4 31.18 2.71
0 7 -4 37.16 2.14
0 -7 4 35.15 3.32
0 -7 4 33.43 5.89
0 -7 4 34.91 4.34
-1 7 -4 14.79 2
1 -7 4 17.63 1.74
1 -7 4 18.4 3.25
1 -7 4 17.91 2.66
-2 7 -4 4.98 1.47
-2 7 -4 5.36 1.77
2 -7 4 4.16 2.26
2 -7 4 2.26 2.28
-3 7 -4 -1.64 1.74
-3 7 -4 1.03 1.59
3 -7 4 1.7 2.15
5 6 -4 14.23 2.21
4 6 -4 8.87 1.63
4 6 -4 9.71 1.71
-4 -6 4 8.82 2.14
-4 -6 4 9.87 2.7
-4 -6 4 10.14 2.7
3 6 -4 12.84 1.72
3 6 -4 11.72 1.59
-3 -6 4 11.67 2.71
-3 -6 4 11.14 2.39
-3 -6 4 16 2.05
-3 -6 4 16.18 3.2
2 6 -4 175.54 6.66
2 6 -4 177.18 6.16
-2 -6 4 175.14 7.32
-2 -6 4 173.46 10.47
-2 -6 4 175.93 13.12
-2 -6 4 184.86 6.46
1 6 -4 163.62 6.38
-1 -6 4 164.44 6.21
-1 -6 4 142.74 9.36
-1 -6 4 143.21 11.97
-1 -6 4 162.35 7.84
0 6 -4 208.98 7.82
0 -6 4 202.34 9.4
0 -6 4 183.8 14.66
0 -6 4 174.56 10.99
-1 6 -4 55.98 3.15
1 -6 4 59.59 4.06
1 -6 4 43.27 4.49
-2 6 -4 32.68 2.7
2 -6 4 32.45 3.47
2 -6 4 28.15 3.49
-3 6 -4 2.79 1.79
-3 6 -4 1.97 1.48
3 -6 4 2.26 2.05
3 -6 4 1.65 1.97
-4 6 -4 3.25 1.84
-4 6 -4 0.25 1.86
4 -6 4 -0.24 1.43
4 -6 4 2.29 2.36
4 -6 4 0.24 3.73
5 5 -4 20.37 2.4
5 5 -4 23.12 2.51
-5 -5 4 22.33 3.3
-5 -5 4 30.83 3.22
4 5 -4 2.92 1.37
4 5 -4 3.73 1.41
-4 -5 4 2.88 2
-4 -5 4 3.02 1.8
-4 -5 4 6.96 2.54
3 5 -4 147.01 5.86
3 5 -4 144.19 5.51
-3 -5 4 148.79 8.84
-3 -5 4 153.4 6.82
-3 -5 4 147.38 5.78
-3 -5 4 153.96 10.85
2 5 -4 404.03 14.4
2 5 -4 401.15 13.37
-2 -5 4 437.14 21.74
-2 -5 4 422.59 13.63
-2 -5 4 471.69 27.92
-2 -5 4 423.89 15.48
1 5 -4 0.76 0.87
-1 -5 4 -1.1 1.38
-1 -5 4 0.39 1.04
-1 -5 4 0.94 1.27
-1 -5 4 -0.28 1.94
0 5 -4 825.91 28.9
0 -5 4 747.61 39.19
0 -5 4 809.47 51.25
0 -5 4 824.78 34.8
-1 5 -4 2.7 1.09
1 -5 4 2.24 1.5
1 -5 4 0.81 1.65
-2 5 -4 0.98 1.23
2 -5 4 0.53 1.62
2 -5 4 0.64 1.65
-3 5 -4 54.3 3.46
-3 5 -4 52.6 2.95
3 -5 4 55.02 4.37
3 -5 4 56.06 3.02
3 -5 4 53.06 2.89
-4 5 -4 90.66 4.21
-4 5 -4 85.09 4.82
4 -5 4 82.73 5.98
4 -5 4 86.53 3.97
5 4 -4 25.86 2.65
5 4 -4 26.63 2.72
-5 -4 4 28.04 3.12
-5 -4 4 23.98 3.35
4 4 -4 29.34 2.4
4 4 -4 20.86 2.18
-4 -4 4 30.11 3.19
-4 -4 4 24.41 3.19
3 4 -4 249.74 8.69
3 4 -4 254.67 9.32
-3 -4 4 273.07 17.27
-3 -4 4 269.27 10.37
-3 -4 4 271.7 13.82
-3 -4 4 249.01 8.87
2 4 -4 35.68 1.9
2 4 -4 33.97 2.01
2 4 -4 31.82 1.82
-2 -4 4 37.68 3.87
-2 -4 4 35.09 3.26
-2 -4 4 38 2.73
-2 -4 4 32.2 2.07
1 4 -4 31.14 1.76
1 4 -4 31.99 2.11
-1 -4 4 33.45 3.94
-1 -4 4 31.73 2.11
-1 -4 4 27.14 2.97
-1 -4 4 30.2 1.89
0 4 -4 0.44 0.71
0 -4 4 0.29 1.31
0 -4 4 0.18 1.02
0 -4 4 0.52 1.97
-1 4 -4 42.56 2.4
1 -4 4 44.14 5.3
1 -4 4 43.66 3.1
1 -4 4 38.96 3.46
-2 4 -4 4.15 1.18
2 -4 4 3.32 1.58
2 -4 4 3.9 1.56
2 -4 4 3.12 1.04
-3 4 -4 59.59 2.84
-3 4 -4 47.93 3.22
3 -4 4 56.88 2.85
3 -4 4 52.05 4.19
-4 4 -4 213.78 7.46
-4 4 -4 201.33 8.76
4 -4 4 198.69 10.67
4 -4 4 216.16 7.28
5 3 -4 176.17 7.46
5 3 -4 179.72 7.09
-5 -3 4 191.15 7.49
-5 -3 4 205.42 8.7
4 3 -4 86.31 3.95
4 3 -4 92 4.26
-4 -3 4 91.37 4.3
-4 -3 4 99.06 5.32
-4 -3 4 90.13 5.88
3 3 -4 77.04 3.3
3 3 -4 82.01 3.61
-3 -3 4 85.46 4.43
-3 -3 4 78.27 5.16
-3 -3 4 79.8 6.11
2 3 -4 45.73 2.32
2 3 -4 45.89 2.13
-2 -3 4 51.57 4.34
-2 -3 4 44.83 2.26
-2 -3 4 44.97 3.51
-2 -3 4 47.22 2.88
1 3 -4 1564.37 51.19
1 3 -4 1577.44 57.48
-1 -3 4 1567.51 53.95
-1 -3 4 1638.91 75.64
0 3 -4 5.84 0.81
0 -3 4 4.11 0.97
0 -3 4 4.86 2.03
0 -3 4 6 1.14
0 -3 4 5.59 1.49
-1 3 -4 516.98 18.74
1 -3 4 511.26 22.51
1 -3 4 516.67 15.53
1 -3 4 508.1 25.14
-2 3 -4 642.17 23.14
2 -3 4 631.44 19.08
2 -3 4 623.82 27.7
-3 3 -4 21.87 1.74
-3 3 -4 21.23 2.1
3 -3 4 21.83 1.73
3 -3 4 19.23 1.71
3 -3 4 25.96 2.77
-4 3 -4 8.19 1.8
-4 3 -4 6.23 1.59
4 -3 4 4.55 2.17
4 -3 4 8.69 1.54
4 -3 4 5.99 3.04
4 -3 4 6.12 1.42
-5 3 -4 -0.29 1.6
-5 3 -4 1.15 1.69
5 -3 4 -0.78 2.32
5 -3 4 -1.4 1.29
5 2 -4 19.12 2.24
5 2 -4 11.65 2.01
-5 -2 4 17.74 2.5
-5 -2 4 11.07 2.54
4 2 -4 35.06 2.49
4 2 -4 28.9 2.37
-4 -2 4 36.68 2.8
-4 -2 4 40.26 3.23
3 2 -4 62.32 2.78
3 2 -4 62.83 3
-3 -2 4 62.47 4.27
-3 -2 4 61.14 2.96
-3 -2 4 65.78 3.68
2 2 -4 49.16 2.1
2 2 -4 45.39 2.07
2 2 -4 45.59 2.28
-2 -2 4 45.54 3.39
-2 -2 4 51.82 4.09
-2 -2 4 48.64 2.72
-2 -2 4 44.47 2.16
1 2 -4 322.91 14.69
1 2 -4 287 11.11
1 2 -4 265.27 12.86
1 2 -4 279.49 9.82
-1 -2 4 278.44 14.54
-1 -2 4 277.77 10.37
-1 -2 4 329.61 18.93
0 2 -4 735.2 26.81
0 2 -4 782.87 28.06
0 2 -4 827.85 37.77
0 -2 4 747.81 26.8
0 -2 4 909.02 49.31
0 -2 4 734.43 33.77
0 -2 4 774.03 37.76
-1 2 -4 365.81 16.54
-1 2 -4 381.39 11.45
-1 2 -4 395.54 13.9
1 -2 4 388.64 13.93
1 -2 4 367.43 11.46
1 -2 4 377.88 16.63
1 -2 4 360.57 18.45
-2 2 -4 163.83 6.6
2 -2 4 161.56 5.43
2 -2 4 161.45 7.84
-3 2 -4 41.12 2.63
-3 2 -4 39.52 2.07
-3 2 -4 38.55 2.15
3 -2 4 36.97 2.03
3 -2 4 35.32 4.55
3 -2 4 38.06 3.29
3 -2 4 39.64 2.17
-4 2 -4 18.08 1.92
-4 2 -4 14.64 2.01
4 -2 4 16.25 1.72
4 -2 4 18.51 2.67
4 -2 4 14.6 1.69
-5 2 -4 3.43 1.73
-5 2 -4 0.83 1.61
5 -2 4 2.36 1.4
5 -2 4 1.12 2.21
5 1 -4 35.4 2.88
5 1 -4 30.27 2.83
-5 -1 4 28.68 3.05
-5 -1 4 39.01 3.17
4 1 -4 106.76 4.5
4 1 -4 113.27 4.84
-4 -1 4 107.81 5.41
-4 -1 4 117.16 4.82
3 1 -4 20.93 1.8
3 1 -4 18.03 1.67
-3 -1 4 21.17 2.04
-3 -1 4 20.41 1.83
2 1 -4 1342.78 41.83
2 1 -4 1380.96 41.8
2 1 -4 1378.34 44.89
2 1 -4 1411.86 66.04
-2 -1 4 1384.98 41.88
-2 -1 4 1374.72 66.03
-2 -1 4 1421.44 85.41
-2 -1 4 1400.46 47.39
1 1 -4 126.61 5.25
1 1 -4 135.7 4.98
1 1 -4 145.15 7.41
-1 -1 4 162.86 9.78
-1 -1 4 134.66 5.29
-1 -1 4 144.26 4.4
-1 -1 4 138.96 7.42
0 1 -4 322.36 9.6
0 1 -4 323.49 11.69
0 1 -4 308.87 11.18
0 1 -4 353.56 15.87
0 1 -4 331.54 9.55
0 1 -4 315.21 9.73
0 -1 4 327.01 15.82
0 -1 4 319.88 11.22
0 -1 4 322.01 9.61
0 -1 4 304.18 14.11
-1 1 -4 1067.28 37.92
-1 1 -4 1019.76 45.41
-1 1 -4 1172.11 50.59
1 -1 4 1050.97 50.54
1 -1 4 1036.61 45.46
1 -1 4 1039.46 31.35
-2 1 -4 239.85 8.51
-2 1 -4 241.53 9.55
2 -1 4 243.49 11.35
2 -1 4 285.24 16.58
2 -1 4 240.97 7.87
-3 1 -4 13.11 1.56
-3 1 -4 11.34 1.34
3 -1 4 11.98 1.28
3 -1 4 9.89 2.31
3 -1 4 12.5 1.25
3 -1 4 13.75 1.87
-4 1 -4 26.36 2.16
-4 1 -4 21.99 2.29
4 -1 4 25.04 2
4 -1 4 23.76 1.93
4 -1 4 23.86 2.75
-5 1 -4 28.87 2.59
-5 1 -4 23.88 2.64
5 -1 4 29.4 2.33
5 -1 4 28.27 2.37
5 -1 4 23.66 3.11
5 0 -4 18.68 2.24
5 0 -4 14.29 2.15
-5 0 4 19.97 2.49
-5 0 4 18 2.36
4 0 -4 42.79 2.68
4 0 -4 45.69 2.82
-4 0 4 48.44 3.04
-4 0 4 42.16 3.17
3 0 -4 421.01 14.07
3 0 -4 409.84 13.04
-3 0 4 387.22 13.12
-3 0 4 428.39 14.85
2 0 -4 -0.31 0.81
2 0 -4 0.22 0.67
2 0 -4 0.51 0.7
2 0 -4 -0.73 0.62
-2 0 4 1.32 0.81
-2 0 4 0.47 0.88
1 0 -4 465.69 15.17
-1 0 4 455.42 15.99
-1 0 4 465.49 13.69
-1 0 4 457.73 22.38
0 0 -4 37.82 1.45
0 0 -4 38.69 2.43
0 0 -4 35.82 1.54
0 0 -4 37.06 1.7
0 0 -4 38.13 1.43
0 0 -4 37.41 1.43
0 0 -4 35.93 2.03
0 0 4 35.71 2.15
0 0 4 37.13 1.51
0 0 4 35.2 1.45
0 0 4 36.67 1.45
0 0 4 37.57 2.52
0 0 4 38.4 1.74
-1 0 -4 30.6 1.43
-1 0 -4 31.44 1.34
-1 0 -4 28.32 1.76
-1 0 -4 30.37 1.97
1 0 4 29.38 1.42
1 0 4 30.21 1.48
1 0 4 28.93 1.4
-2 0 -4 1.61 0.77
-2 0 -4 1.82 0.63
-2 0 -4 2.11 0.61
2 0 4 2.34 1.03
2 0 4 1.92 0.68
2 0 4 0.62 0.64
-3 0 -4 52.79 2.96
-3 0 -4 55.36 2.57
-3 0 -4 54.55 2.41
3 0 4 55.56 2.51
3 0 4 55.23 2.42
-4 0 -4 120.95 4.83
-4 0 -4 121.39 5.6
-4 0 -4 119.92 5.52
4 0 4 118.17 4.65
4 0 4 123.27 4.67
4 0 4 122.17 4.93
-5 0 -4 9.92 1.91
-5 0 -4 8.09 1.92
5 0 4 10.38 1.72
5 0 4 9.3 1.73
5 -1 -4 7.78 1.87
5 -1 -4 6.97 1.78
-5 1 4 7.39 1.78
-5 1 4 9.25 2.06
4 -1 -4 51.35 3
4 -1 -4 44.95 2.77
-4 1 4 51.01 3.18
-4 1 4 51.54 3.1
3 -1 -4 80.16 3.27
3 -1 -4 78.29 3.52
-3 1 4 80 3.68
-3 1 4 74.63 3.38
2 -1 -4 66.26 2.7
2 -1 -4 59.89 3.95
2 -1 -4 66.85 2.6
2 -1 -4 68.9 2.88
-2 1 4 69.17 3.01
-2 1 4 64.47 2.68
1 -1 -4 304.79 10.09
-1 1 4 296.71 10.6
-1 1 4 304.94 9.13
0 -1 -4 2155.1 101.27
0 -1 -4 2138.51 61.61
0 1 4 2181.91 72.66
0 1 4 2100 62.29
0 1 4 2143.52 61.62
-1 -1 -4 1.2 0.63
-1 -1 -4 1.5 0.5
-1 -1 -4 1.19 0.62
-1 -1 -4 1.73 0.47
1 1 4 1.57 0.65
1 1 4 0.94 0.56
1 1 4 1.84 0.53
1 1 4 1.66 0.57
-2 -1 -4 193.4 7.41
-2 -1 -4 187.24 5.84
2 1 4 198.6 8.48
2 1 4 174.17 5.95
2 1 4 179.18 7.31
2 1 4 186.05 5.86
-3 -1 -4 143.19 5.08
-3 -1 -4 142.98 6.15
-3 -1 -4 135.18 4.88
3 1 4 145.13 4.93
3 1 4 140.49 4.71
3 1 4 143.75 4.95
-4 -1 -4 23.84 2.26
-4 -1 -4 22.08 2.34
-4 -1 -4 28.49 2.25
4 1 4 21.92 1.89
4 1 4 23.76 1.98
4 1 4 21.98 1.86
-5 -1 -4 76.92 4.27
-5 -1 -4 66.6 4.49
-5 -1 -4 78.44 4.01
5 1 4 68.28 3.62
5 1 4 73.22 3.76
5 1 4 77.86 3.75
6 1 4 5.02 1.99
5 -2 -4 11.31 2.15
5 -2 -4 17.11 2.37
-5 2 4 11.48 1.8
-5 2 4 13.67 2.25
4 -2 -4 170.75 6.16
4 -2 -4 164.97 6.59
-4 2 4 162.71 6.24
-4 2 4 157.97 6.61
3 -2 -4 47.86 2.4
3 -2 -4 44.62 2.53
-3 2 4 42.32 2.51
-3 2 4 45.1 2.53
2 -2 -4 2.48 0.85
2 -2 -4 1.68 0.81
2 -2 -4 0.75 0.77
-2 2 4 1.67 0.81
-2 2 4 1.68 0.81
1 -2 -4 929.9 27
1 -2 -4 893.65 26.93
1 -2 -4 908.56 28.93
-1 2 4 883.29 30.43
-1 2 4 918.52 26.96
-1 2 4 921.46 26.94
-1 2 4 892.23 26.23
-1 2 4 792.3 28.86
0 -2 -4 27.48 1.52
0 -2 -4 27.36 1.38
0 -2 -4 25.16 1.46
0 2 4 26.8 1.19
0 2 4 29.17 1.26
-1 -2 -4 780.15 28.29
1 2 4 779.52 22.87
1 2 4 782.59 22.81
1 2 4 762.62 22.59
-2 -2 -4 264.07 10.04
-2 -2 -4 256.34 7.83
-2 -2 -4 253.48 8.07
2 2 4 264.01 7.88
2 2 4 249.18 8.02
-3 -2 -4 198.47 8.02
-3 -2 -4 187.18 6.3
3 2 4 188.28 6.08
3 2 4 185.18 6.37
3 2 4 190.9 6.33
-4 -2 -4 2.93 1.46
-4 -2 -4 0.45 1.5
4 2 4 1.35 1.19
4 2 4 3.55 1.24
-5 -2 -4 230.83 8.47
-5 -2 -4 223.12 10.09
-5 -2 -4 222.23 9.49
5 2 4 240.66 8.15
5 2 4 234.83 8.24
-6 -2 -4 18.36 2.92
-6 -2 -4 17.68 2.61
6 2 4 24.43 2.91
6 2 4 15.59 2.18
6 2 4 24.12 2.46
5 -3 -4 7.74 2.06
5 -3 -4 9.1 2.07
-5 3 4 4.31 1.87
4 -3 -4 104.4 4.43
4 -3 -4 106.23 4.76
-4 3 4 98.24 4.47
-4 3 4 99.99 4.45
3 -3 -4 1.09 1.09
3 -3 -4 2.53 1.13
-3 3 4 2.31 1.1
-3 3 4 2.84 0.96
2 -3 -4 0.09 0.77
2 -3 -4 -0.21 0.63
2 -3 -4 0.16 0.82
-2 3 4 0.67 0.81
-2 3 4 -0.52 0.7
1 -3 -4 2.01 0.71
1 -3 -4 2.04 0.69
1 -3 -4 0.2 0.45
1 -3 -4 0.99 0.6
1 -3 -4 2.11 0.72
-1 3 4 1.57 0.68
-1 3 4 1.49 0.62
-1 3 4 2.68 0.77
-1 3 4 1.52 0.6
0 -3 -4 145.64 5.41
0 -3 -4 143.01 5.59
0 -3 -4 139.51 4.57
0 -3 -4 136.94 4.58
0 3 4 144.67 5.44
0 3 4 134.78 4.54
0 3 4 137.3 4.48
0 3 4 143.45 4.6
-1 -3 -4 3.75 0.65
-1 -3 -4 3.7 0.72
-1 -3 -4 3.76 0.92
1 3 4 3.62 0.59
1 3 4 2.59 0.6
1 3 4 5.38 0.72
1 3 4 2.96 0.61
-2 -3 -4 64.24 2.45
-2 -3 -4 68.48 2.52
-2 -3 -4 67.62 2.49
-2 -3 -4 68.39 3.4
-2 -3 -4 66.29 2.69
2 3 4 64.38 2.49
2 3 4 68.44 2.61
-3 -3 -4 215.56 8.74
-3 -3 -4 204 6.8
-3 -3 -4 208.46 7.03
3 3 4 205.1 6.93
3 3 4 200.13 6.54
-4 -3 -4 8.99 2.01
4 3 4 11.07 1.55
4 3 4 10.31 1.53
-5 -3 -4 75.03 4.07
-5 -3 -4 61.87 4.6
5 3 4 68 3.67
5 3 4 65.46 3.62
-6 -3 -4 8.42 2.59
6 3 4 14.37 2.4
6 3 4 10.42 2.03
5 -4 -4 18.56 2.73
-5 4 4 21.23 2.54
4 -4 -4 4.29 1.61
4 -4 -4 5.23 1.7
-4 4 4 4.67 1.67
3 -4 -4 -0.56 1.13
3 -4 -4 0.31 1.18
-3 4 4 2.05 1.22
2 -4 -4 118.95 4.64
2 -4 -4 119.29 4.35
-2 4 4 115.2 4.84
-2 4 4 116 4.33
1 -4 -4 10.45 1.09
1 -4 -4 12.76 1.13
1 -4 -4 13.33 1.16
1 -4 -4 8.45 1.03
1 -4 -4 10.69 1.11
-1 4 4 11.4 1.11
-1 4 4 14.54 1.3
-1 4 4 12.66 1.15
0 -4 -4 430.46 15.56
0 -4 -4 404.08 12.91
0 -4 -4 411.85 12.9
0 -4 -4 426.19 15.21
0 4 4 418.75 12.52
0 4 4 417.09 12.92
0 4 4 412.35 15.21
-1 -4 -4 667.41 20.01
-1 -4 -4 651.52 20.02
-1 -4 -4 656.4 24.23
1 4 4 643.36 19.36
1 4 4 661.35 20
1 4 4 659.79 24.14
-2 -4 -4 1100.17 40.96
-2 -4 -4 1117.37 32.75
-2 -4 -4 1107.33 33.9
-2 -4 -4 1151.9 33.81
2 4 4 1111.25 32.54
2 4 4 1117.49 33.82
-3 -4 -4 7.68 1.32
-3 -4 -4 5.77 1.62
3 4 4 7.18 1.16
3 4 4 5.23 0.96
-4 -4 -4 403.29 12.94
-4 -4 -4 373.79 15.72
4 4 4 397.74 12.77
-5 -4 -4 91.34 5.91
-5 -4 -4 104.08 4.97
5 4 4 105.74 4.62
5 4 4 101.79 4.58
-6 -4 -4 10.09 2.8
6 4 4 9.64 2.35
4 -5 -4 6.87 1.8
4 -5 -4 6.31 1.89
-4 5 4 3.68 1.72
3 -5 -4 55.58 3.16
3 -5 -4 61.24 3.33
-3 5 4 61.03 3.38
-3 5 4 63.26 3.2
2 -5 -4 34.37 2.19
2 -5 -4 32 2.21
-2 5 4 37.11 2.41
-2 5 4 34.57 2.17
1 -5 -4 777.11 24.91
1 -5 -4 749.36 23.35
1 -5 -4 765.82 27.91
-1 5 4 765.48 23.4
-1 5 4 754.5 22.62
-1 5 4 755.73 27.4
0 -5 -4 138.55 4.84
0 -5 -4 135.9 5.24
0 -5 -4 144.71 4.83
0 -5 -4 138.5 5.79
0 5 4 141.21 4.6
0 5 4 143.03 5.67
0 5 4 144.69 4.87
-1 -5 -4 24.66 1.54
-1 -5 -4 24.03 1.22
-1 -5 -4 24.95 1.47
-1 -5 -4 23.04 1.96
1 5 4 20.08 1.42
1 5 4 20.9 1.22
-2 -5 -4 793.93 23.07
-2 -5 -4 681.61 22.01
-2 -5 -4 767.76 23.03
-2 -5 -4 749.51 27.83
2 5 4 754.56 22.02
2 5 4 738.07 22.88
-3 -5 -4 29.35 2.2
-3 -5 -4 24.57 2.54
3 5 4 27.15 1.91
3 5 4 24.72 1.72
-4 -5 -4 220.63 10.14
-4 -5 -4 232.76 8.25
4 5 4 234.25 8.08
-5 -5 -4 117.02 6.87
5 5 4 131.64 5.4
4 -6 -4 3.69 2
4 -6 -4 4.32 1.74
-4 6 4 2.96 1.88
-4 6 4 1.45 1.82
3 -6 -4 138.03 5.78
3 -6 -4 138.13 5.54
-3 6 4 142.33 6.21
-3 6 4 135.11 5.5
2 -6 -4 56.78 2.99
2 -6 -4 57.61 2.99
-2 6 4 53.48 2.93
-2 6 4 53.62 3.22
1 -6 -4 136.52 5.8
1 -6 -4 137.47 5.11
-1 6 4 140.96 5.86
-1 6 4 139.34 5.12
-1 6 4 146.16 4.85
0 -6 -4 23.29 1.94
0 -6 -4 23.77 1.76
0 6 4 26.01 1.73
0 6 4 23.64 1.89
0 6 4 24.56 1.44
-1 -6 -4 11.63 1.3
-1 -6 -4 10.26 1.53
1 6 4 8.8 1.18
1 6 4 12.19 1.44
-2 -6 -4 0.69 1.25
-2 -6 -4 0.39 1.01
2 6 4 0.81 0.87
2 6 4 0.55 0.81
-3 -6 -4 128.65 5.04
-3 -6 -4 121.19 6.25
3 6 4 126.19 4.79
3 6 4 128.65 4.52
-4 -6 -4 384.35 12.31
-4 -6 -4 331.28 14.83
4 6 4 364.77 12
-5 -6 -4 9.77 2.17
-5 -6 -4 6.58 2.52
5 6 4 12.17 2.13
3 -7 -4 9.64 1.95
-3 7 4 10.55 1.93
-3 7 4 9.04 2.04
2 -7 -4 96.96 4.23
-2 7 4 85.99 4.61
-2 7 4 99.38 4.23
1 -7 -4 29.53 2.22
-1 7 4 26.41 1.94
-1 7 4 24.89 2.4
-1 7 4 27.6 2.17
0 -7 -4 87.53 4.32
0 -7 -4 95.42 3.79
0 7 4 92.59 4.29
0 7 4 85.54 3.31
0 7 4 95.78 3.76
-1 -7 -4 632.67 23.53
-1 -7 -4 621.33 19.48
1 7 4 624.67 22.92
1 7 4 622.06 19.45
-2 -7 -4 52.03 2.78
-2 -7 -4 50.23 3.55
2 7 4 50.03 2.56
-3 -7 -4 346.56 14.57
-3 -7 -4 366.24 11.96
3 7 4 355.2 11.69
3 7 4 362.78 11.15
-4 -7 -4 54 3.58
-4 -7 -4 49.08 4.41
4 7 4 54.63 3.15
4 7 4 52.54 2.72
-5 -7 -4 1.19 1.98
-5 -7 -4 0.29 2.24
5 7 4 0.92 1.69
3 -8 -4 12.6 2.33
-3 8 4 19.07 2.47
-3 8 4 14.53 2.43
2 -8 -4 8.81 1.91
-2 8 4 9.51 2.06
-2 8 4 9.26 1.91
1 -8 -4 67.56 3.55
1 -8 -4 67.87 4.39
-1 8 4 71.84 3.96
-1 8 4 65.22 3.04
-1 8 4 63.62 3.42
0 -8 -4 106.64 4.45
0 8 4 111.31 4.43
0 8 4 107.29 5.11
-1 -8 -4 82.62 3.71
-1 -8 -4 80.73 4.46
1 8 4 84.03 3.61
1 8 4 82.11 4.22
-2 -8 -4 115.78 5.93
-2 -8 -4 118.15 4.84
2 8 4 118.89 4.61
-3 -8 -4 28.48 2.66
-3 -8 -4 26.22 3.24
3 8 4 29.5 2.25
3 8 4 31.85 2.25
-4 -8 -4 3.4 1.93
-4 -8 -4 3.13 2.3
-4 -8 -4 1.77 1.83
4 8 4 0.81 1.49
4 8 4 2.05 1.23
-5 -8 -4 -0.69 2.11
-5 -8 -4 -1.12 2.37
5 8 4 0.25 1.83
2 -9 -4 28.79 3.36
2 -9 -4 30.05 2.8
-2 9 4 31.39 3.1
-2 9 4 34.44 2.84
-2 9 4 29.62 2.43
1 -9 -4 22.43 2.64
1 -9 -4 22.28 2.36
-1 9 4 17.19 1.73
-1 9 4 26.7 2.48
-1 9 4 21.49 2.56
0 -9 -4 15.5 1.99
0 9 4 14.74 1.89
0 9 4 10.01 2.04
-1 -9 -4 9.25 1.75
-1 -9 -4 7.46 1.92
1 9 4 12.04 2.02
1 9 4 10.43 1.65
-2 -9 -4 7.93 1.78
-2 -9 -4 6.27 2.05
2 9 4 4.61 1.45
-3 -9 -4 0.3 2.1
-3 -9 -4 -0.54 1.56
3 9 4 -0.1 1.22
3 9 4 -0.4 1.27
-4 -9 -4 0.66 2.31
-4 -9 -4 -1.02 1.94
-4 -9 -4 -1.46 1.89
4 9 4 0.89 1.59
4 9 4 -1.53 1.18
2 -10 -4 19.35 2.68
2 -10 -4 21.53 3.11
-2 10 4 23.3 2.72
1 -10 -4 205.96 10.49
-1 10 4 219.29 7.24
-1 10 4 219.99 7.97
-1 10 4 205.33 9.22
0 -10 -4 12.14 2.01
0 10 4 12.27 2.03
0 10 4 14.43 2.39
-1 -10 -4 18.96 2.59
-1 -10 -4 29.8 2.69
1 10 4 31.14 2.89
1 10 4 29.35 2.57
-2 -10 -4 2.17 2.11
-2 -10 -4 1.52 1.83
2 10 4 2.81 1.49
-3 -10 -4 38.39 4.05
-3 -10 -4 51.97 3.53
3 10 4 45.82 2.82
3 10 4 44.9 3.04
-4 -10 -4 0.42 2.25
-4 -10 -4 0.45 2.16
-4 -10 -4 0.54 2.57
4 10 4 1.77 1.42
4 10 4 4.65 1.86
0 -11 -4 2.5 1.93
0 11 4 5.48 2.21
0 11 4 6.22 1.92
-1 -11 -4 16.08 2.39
1 11 4 19.2 2.3
1 11 4 16.61 2.65
-2 -11 -4 2.28 2.01
-2 -11 -4 2 2.31
2 11 4 4.04 1.83
-3 -11 -4 11.3 2.48
-3 -11 -4 6.93 2.81
3 11 4 10.49 2.03
3 9 -5 8.65 1.82
-3 -9 5 11.68 3.57
-3 -9 5 7.02 2.4
-3 -9 5 7.06 3.43
2 9 -5 6.34 1.49
2 9 -5 10.78 1.95
2 9 -5 11.18 1.92
-2 -9 5 8.8 3.31
-2 -9 5 10.26 2.31
-2 -9 5 3.89 3.32
1 9 -5 21.23 2.38
-1 -9 5 22.51 2.9
-1 -9 5 19.05 5.46
-1 -9 5 18.78 3.97
0 9 -5 29.3 2.94
0 -9 5 28.46 4.65
0 -9 5 27.33 3.22
0 -9 5 24.72 5.97
-1 9 -5 64.12 3.28
-1 9 -5 65.26 4.33
1 -9 5 71.88 5.25
1 -9 5 58.77 6.34
1 -9 5 47.97 8.33
3 8 -5 6.63 1.64
3 8 -5 7.38 1.61
-3 -8 5 6.68 2.34
-3 -8 5 5.5 3.11
-3 -8 5 8.63 3.04
2 8 -5 4.39 1.55
2 8 -5 3.72 1.29
2 8 -5 6.21 1.53
-2 -8 5 2.53 1.78
-2 -8 5 5.36 3.07
-2 -8 5 4.86 2.69
1 8 -5 97.38 4.67
-1 -8 5 91.21 5.69
-1 -8 5 83.39 7.31
-1 -8 5 84.24 9.48
0 8 -5 9.99 2.05
0 -8 5 9.99 2.25
0 -8 5 7.66 3.04
0 -8 5 9.14 4.21
-1 8 -5 45.26 3.51
1 -8 5 47.14 7.45
1 -8 5 39.08 5.2
1 -8 5 52.95 4.44
-2 8 -5 43.09 3.55
2 -8 5 30.61 4.36
2 -8 5 46.73 4.49
2 -8 5 27.17 6.28
4 7 -5 0.1 1.46
4 7 -5 0.47 1.38
-4 -7 5 -0.91 2.19
-4 -7 5 0.43 2.35
3 7 -5 -0.24 1.25
3 7 -5 1.94 1.38
-3 -7 5 0.77 2.28
-3 -7 5 -1.64 2
-3 -7 5 1.3 2.36
2 7 -5 3.41 1.41
-2 -7 5 2.79 1.73
-2 -7 5 5.18 1.61
-2 -7 5 2.63 2.68
-2 -7 5 5.27 2.53
1 7 -5 57.67 3.28
-1 -7 5 58.83 4.22
-1 -7 5 46.57 5.23
-1 -7 5 51.01 6.95
0 7 -5 243.97 9.26
0 -7 5 209.2 17.33
0 -7 5 242.42 11.15
0 -7 5 210.05 13.16
-1 7 -5 -1.05 1.44
1 -7 5 -1.84 1.75
1 -7 5 -2.44 3.21
1 -7 5 0.02 2.12
-2 7 -5 9.79 1.99
2 -7 5 13.83 2.68
2 -7 5 9.28 4.35
2 -7 5 8.64 2.71
-3 7 -5 -1.26 1.86
-3 7 -5 0.5 1.51
3 -7 5 -1.74 2.14
3 -7 5 -0.44 3.76
4 6 -5 33.81 2.72
4 6 -5 26.96 2.57
-4 -6 5 34.39 4.13
-4 -6 5 28.81 3.42
3 6 -5 12.14 1.8
3 6 -5 10.64 1.67
-3 -6 5 9.24 2.62
-3 -6 5 12.51 2.39
-3 -6 5 11.92 3.06
2 6 -5 11.66 1.64
2 6 -5 15.06 1.56
-2 -6 5 12.48 2.04
-2 -6 5 10.46 3.15
-2 -6 5 11.02 2.71
1 6 -5 39.57 2.55
-1 -6 5 30.78 4.1
-1 -6 5 40.88 3.45
-1 -6 5 41.22 2.53
-1 -6 5 37.6 5.5
0 6 -5 305.49 11.13
0 -6 5 299.34 13.46
0 -6 5 260.96 15.56
0 -6 5 282.27 20.59
-1 6 -5 541.96 19.07
1 -6 5 551.35 23.02
1 -6 5 493.52 34.3
1 -6 5 448.94 25.8
-2 6 -5 -0.23 1.45
2 -6 5 1.23 1.92
2 -6 5 0.78 3.45
2 -6 5 -1.33 1.86
-3 6 -5 40.41 3.37
3 -6 5 42.22 4.17
5 5 -5 7.41 1.98
5 5 -5 9.75 1.91
4 5 -5 -1.43 1.23
4 5 -5 -0.33 1.32
-4 -5 5 0.4 1.93
-4 -5 5 -1.12 2.14
3 5 -5 25.53 2.23
3 5 -5 23.83 2.06
-3 -5 5 24.74 2.74
-3 -5 5 25.22 3.87
-3 -5 5 22.6 2.18
-3 -5 5 23.99 3.29
2 5 -5 296.69 10.8
-2 -5 5 301.72 16.34
-2 -5 5 310.34 11.63
-2 -5 5 331.72 20.97
1 5 -5 50.37 2.62
1 5 -5 52.15 2.57
-1 -5 5 49.15 3.56
-1 -5 5 53.06 4.46
-1 -5 5 45.24 5.47
-1 -5 5 50.78 2.75
0 5 -5 298.3 10.83
0 -5 5 296.14 13.17
0 -5 5 265.47 15.11
0 -5 5 276.35 19.83
-1 5 -5 350.66 12.57
1 -5 5 348 15.22
1 -5 5 301.94 17.1
1 -5 5 310.11 22.77
-2 5 -5 60.53 3.42
2 -5 5 54.94 7.06
2 -5 5 49.1 4.55
2 -5 5 65.36 4.42
-3 5 -5 6.17 1.77
3 -5 5 2.36 3.4
3 -5 5 5.72 1.44
3 -5 5 5.1 2.2
-4 5 -5 62.03 3.37
-4 5 -5 52.78 3.89
4 -5 5 57.38 3.32
4 -5 5 41.27 7
4 -5 5 64.46 5.03
5 4 -5 14.91 2.12
5 4 -5 13.79 2.14
-5 -4 5 14.51 2.89
-5 -4 5 17.39 2.69
4 4 -5 57.9 3.15
4 4 -5 59.12 3.36
-4 -4 5 59.2 4.43
-4 -4 5 59.56 4.79
-4 -4 5 59.92 3.54
3 4 -5 68.25 3.38
3 4 -5 63.72 3.08
-3 -4 5 74.9 5.96
-3 -4 5 63.7 3.29
-3 -4 5 68.66 5.08
-3 -4 5 72.76 4.27
2 4 -5 270.47 9.84
-2 -4 5 273.83 10.56
-2 -4 5 276.88 14.71
-2 -4 5 304.77 18.92
1 4 -5 123.21 4.77
-1 -4 5 120.9 6.32
-1 -4 5 126.29 7.39
-1 -4 5 135.92 9.71
-1 -4 5 121.17 5.04
0 4 -5 344.47 12.51
0 -4 5 331.58 15.16
0 -4 5 336.92 22.7
0 -4 5 334.7 17.29
-1 4 -5 0.15 0.89
1 -4 5 0.68 2.28
1 -4 5 0.73 1.4
1 -4 5 0.12 1.3
-2 4 -5 13.76 1.68
2 -4 5 15.11 2.24
2 -4 5 13.29 3.57
2 -4 5 10.22 2.06
2 -4 5 16.77 1.57
-3 4 -5 116.3 5.5
3 -4 5 119.42 6.75
3 -4 5 113.17 10.18
3 -4 5 120.17 4.66
-4 4 -5 69.96 4.14
-4 4 -5 72.77 3.54
4 -4 5 50.84 7.33
4 -4 5 76.96 5.35
5 3 -5 4.66 1.75
5 3 -5 5.98 1.7
-5 -3 5 5.82 2.13
-5 -3 5 8.15 2.56
4 3 -5 154.69 6.51
4 3 -5 156.19 6.01
-4 -3 5 167.63 9.34
-4 -3 5 168.47 7.47
-4 -3 5 167.71 6.41
3 3 -5 704.59 23.77
3 3 -5 681.42 22.04
-3 -3 5 715.95 44.78
-3 -3 5 720.91 34.93
-3 -3 5 744.21 25.35
2 3 -5 12.36 1.37
-2 -3 5 16.5 2.77
-2 -3 5 12.84 1.62
-2 -3 5 11.62 2.09
1 3 -5 44.57 2.17
1 3 -5 42.06 2.53
-1 -3 5 44.98 3.46
-1 -3 5 47.69 4.44
-1 -3 5 44.97 2.41
0 3 -5 161.33 6.3
0 -3 5 164.85 8.83
0 -3 5 166.34 11.73
0 -3 5 168.13 6.5
0 -3 5 158.03 7.76
0 -3 5 159.34 5.98
-1 3 -5 95.32 4.2
1 -3 5 97.49 5.15
1 -3 5 107.9 8.03
1 -3 5 87.14 5.64
1 -3 5 93.15 3.57
-2 3 -5 220.57 8.65
2 -3 5 214.89 10.37
2 -3 5 216.6 7.16
-3 3 -5 0.6 1.18
3 -3 5 -0.79 2.44
3 -3 5 2.29 1.64
3 -3 5 0.28 1.09
-4 3 -5 44.84 3.18
4 -3 5 41.14 4.11
4 -3 5 41.12 2.67
4 -3 5 30.44 5.12
-5 3 -5 -1.03 1.7
-5 3 -5 -0.37 1.63
5 -3 5 -0.26 1.35
5 -3 5 -0.64 2.24
5 2 -5 21.55 2.43
5 2 -5 20.96 2.33
-5 -2 5 17.48 2.8
-5 -2 5 19.82 2.64
4 2 -5 46.78 2.96
4 2 -5 49.93 2.81
-4 -2 5 52.45 3.14
-4 -2 5 46.03 3.81
3 2 -5 189.81 6.48
3 2 -5 188.23 7.05
-3 -2 5 189.44 10.23
-3 -2 5 195.95 7.74
-3 -2 5 179.34 6.62
2 2 -5 176.31 6.4
-2 -2 5 169.28 9.38
-2 -2 5 179.05 11.95
-2 -2 5 176.82 6.89
1 2 -5 1216.07 40.13
-1 -2 5 1160.51 42.25
-1 -2 5 1193.15 59.19
-1 -2 5 1390.5 76.89
0 2 -5 35.64 2.56
0 2 -5 31.29 1.65
0 2 -5 30.84 1.57
0 2 -5 28.74 1.46
0 2 -5 32.73 1.44
0 -2 5 22.41 1.73
0 -2 5 31.75 2.59
0 -2 5 31.82 1.73
0 -2 5 31.8 3.54
0 -2 5 31.65 2.28
-1 2 -5 5.63 1.15
-1 2 -5 8.4 1.1
1 -2 5 6.7 2.1
1 -2 5 6.95 0.91
1 -2 5 4.94 1.27
1 -2 5 5.61 1.26
-2 2 -5 94.56 4.57
2 -2 5 97.88 5.51
2 -2 5 123.43 8.4
2 -2 5 102.42 3.85
-3 2 -5 372.37 14.3
3 -2 5 388.53 17.11
3 -2 5 363.72 24.65
3 -2 5 369.73 11.76
-4 2 -5 1.59 1.44
4 -2 5 0.26 2.11
4 -2 5 1.13 1.18
4 -2 5 2.44 1.27
4 -2 5 0.05 1.85
-5 2 -5 14.05 2.07
-5 2 -5 10.49 2.12
5 -2 5 13.82 2.79
5 -2 5 17.22 1.95
5 1 -5 0.55 1.47
5 1 -5 1.85 1.59
-5 -1 5 -0.62 1.82
-5 -1 5 0.99 1.93
4 1 -5 1.79 1.29
4 1 -5 1.08 1.2
-4 -1 5 0.79 1.46
-4 -1 5 3.82 1.76
3 1 -5 21.2 1.92
3 1 -5 21.9 1.78
-3 -1 5 21.01 1.87
-3 -1 5 27.47 2.28
2 1 -5 246.28 8.5
2 1 -5 232.46 7.76
-2 -1 5 240.44 7.5
-2 -1 5 244.26 15.91
-2 -1 5 245.15 12.47
-2 -1 5 246.23 9.02
1 1 -5 214.67 8.32
1 1 -5 235.85 11.72
1 1 -5 231.48 7.9
-1 -1 5 220.55 8.32
-1 -1 5 227.78 7.02
-1 -1 5 249.76 15.23
-1 -1 5 229.09 7.86
0 1 -5 0.33 0.65
0 1 -5 0.4 0.53
0 1 -5 0.85 0.42
0 1 -5 0.21 0.74
0 1 -5 1.04 0.49
0 1 -5 0.63 0.46
0 1 -5 1.17 0.43
0 -1 5 0.17 0.66
0 -1 5 0.23 1.21
0 -1 5 -0.63 0.95
0 -1 5 0.52 0.84
0 -1 5 -0.27 0.47
-1 1 -5 6.1 0.77
-1 1 -5 7.1 1.12
-1 1 -5 7 1.02
-1 1 -5 6.73 0.7
-1 1 -5 5.47 0.93
-1 1 -5 3.61 0.6
1 -1 5 6.49 1.21
1 -1 5 6.8 1.85
1 -1 5 6.39 0.84
1 -1 5 4.52 1.15
-2 1 -5 30.49 2.11
2 -1 5 32.35 1.78
2 -1 5 35.26 3.79
2 -1 5 32.73 2.58
-3 1 -5 81.81 4.1
3 -1 5 88.88 4.98
3 -1 5 84.24 3.41
3 -1 5 81.1 6.83
-4 1 -5 5.66 1.49
-4 1 -5 6.7 1.64
4 -1 5 1.19 1.91
4 -1 5 4.39 1.21
4 -1 5 4.49 1.96
4 -1 5 4.17 1.3
-5 1 -5 188.13 7.06
-5 1 -5 182.26 8.2
5 -1 5 188.49 6.86
5 -1 5 189.14 9.9
5 0 -5 127.01 5.36
5 0 -5 122.22 5.74
-5 0 5 132.98 6.1
-5 0 5 129.7 5.69
4 0 -5 171.06 6.28
4 0 -5 168.99 6.81
-4 0 5 177.25 7.27
-4 0 5 169.96 6.48
3 0 -5 10.1 1.39
3 0 -5 10.44 1.32
-3 0 5 6.7 1.41
-3 0 5 10.19 1.58
2 0 -5 37.17 1.88
2 0 -5 39.26 2.09
-2 0 5 44.63 2.41
1 0 -5 28.88 1.59
1 0 -5 28.25 2.3
-1 0 5 30.23 1.76
-1 0 5 30.23 3.06
-1 0 5 28.56 2.43
-1 0 5 27.92 1.54
-1 0 5 30.99 1.4
0 0 -5 78.8 4.02
0 0 -5 82.36 2.78
0 0 -5 87.2 3.27
0 0 -5 83.79 2.75
0 0 -5 81.22 3.04
0 0 -5 80.86 2.78
0 0 -5 81.48 4.63
0 0 5 81.35 3.3
0 0 5 87.95 6.19
0 0 5 84.49 2.79
0 0 5 84.18 4.71
0 0 5 82.98 2.8
-1 0 -5 39.55 2.34
-1 0 -5 42.53 1.76
-1 0 -5 41.4 1.98
-1 0 -5 41.55 1.89
-1 0 -5 43.36 1.73
-1 0 -5 43.11 2.66
1 0 5 43.06 2.73
1 0 5 40.4 1.84
1 0 5 42.62 1.82
1 0 5 49.26 3.88
-2 0 -5 86.01 3.88
-2 0 -5 79.22 3.22
2 0 5 86.54 4.51
2 0 5 82.47 3.17
2 0 5 95.72 6.48
2 0 5 88.06 3.14
-3 0 -5 20.99 1.98
-3 0 -5 19.72 1.47
3 0 5 18.53 2.75
3 0 5 21.26 1.67
3 0 5 20.98 2.4
-4 0 -5 10.83 1.66
-4 0 -5 4.59 1.52
4 0 5 6.73 1.27
4 0 5 4.59 1.3
4 0 5 5.96 1.79
-5 0 -5 6.51 1.84
-5 0 -5 4.29 1.79
5 0 5 6.11 1.61
5 0 5 5.34 1.56
5 0 5 4.88 2.04
5 -1 -5 8.53 1.98
5 -1 -5 9.83 1.99
-5 1 5 9.07 2.06
-5 1 5 6.15 1.75
4 -1 -5 23.04 2.27
4 -1 -5 22.77 2.12
-4 1 5 19.35 2.17
-4 1 5 22.7 2.27
3 -1 -5 3.86 1.09
3 -1 -5 1.93 0.98
-3 1 5 1.49 1.08
-3 1 5 2.79 1.26
2 -1 -5 823.52 24.8
2 -1 -5 823.99 26.72
2 -1 -5 803.9 24.89
-2 1 5 824.11 28.09
-2 1 5 797 24.84
1 -1 -5 10.54 1.04
1 -1 -5 13.15 1.14
1 -1 -5 10.67 1.48
-1 1 5 12.93 1
-1 1 5 12.83 1.18
-1 1 5 13.77 1.08
0 -1 -5 35.77 2.06
0 -1 -5 34.02 1.54
0 -1 -5 37.17 2.51
0 -1 -5 35.39 1.42
0 -1 -5 36.54 1.4
0 1 5 39.14 1.53
0 1 5 36.89 1.52
0 1 5 36.75 1.49
0 1 5 36.79 3.27
0 1 5 35.83 1.82
-1 -1 -5 2126.07 76.89
-1 -1 -5 2143.15 100.86
-1 -1 -5 2066.63 90.42
-1 -1 -5 2222.35 62.42
-1 -1 -5 2171.49 72.23
1 1 5 2068.03 90.43
1 1 5 2084.82 61.54
1 1 5 2201.32 62.41
-2 -1 -5 332.64 12.77
2 1 5 329.91 10.36
2 1 5 343.86 14.81
2 1 5 332.7 10.21
2 1 5 342.88 12.67
-3 -1 -5 1.09 1.13
3 1 5 1.67 0.82
3 1 5 0.84 0.83
3 1 5 0.4 0.84
3 1 5 0.98 1.15
-4 -1 -5 138.41 6.53
-4 -1 -5 145.13 6.38
-4 -1 -5 147.89 5.52
4 1 5 140.72 5.32
4 1 5 152.22 7.43
4 1 5 138.35 5.29
-5 -1 -5 193.87 7.28
-5 -1 -5 180.08 8.55
-5 -1 -5 192.22 8.38
5 1 5 202.76 9.8
5 1 5 191.83 7.08
5 1 5 194.44 7.07
5 -2 -5 40.02 3.19
5 -2 -5 33.12 3.1
-5 2 5 38.59 3.09
-5 2 5 36.9 3.03
4 -2 -5 134.57 5.83
4 -2 -5 136.82 5.39
-4 2 5 139.63 5.93
-4 2 5 143.41 5.59
3 -2 -5 -0.43 0.96
3 -2 -5 -0.08 0.98
-3 2 5 1.2 1.08
-3 2 5 1.1 1.11
2 -2 -5 106.24 4.13
2 -2 -5 104.64 3.76
2 -2 -5 106.77 3.89
-2 2 5 96.58 3.77
-2 2 5 102.59 4.22
1 -2 -5 772.74 22.78
1 -2 -5 743.02 24.42
1 -2 -5 733.97 25.7
-1 2 5 763.79 24.39
-1 2 5 765.69 22.72
-1 2 5 739.44 22.16
-1 2 5 727.44 25.71
0 -2 -5 144.19 5.78
0 -2 -5 142.17 5.55
0 -2 -5 147.09 5.42
0 2 5 147.65 5.44
0 2 5 148.22 4.68
0 2 5 148.93 4.57
-1 -2 -5 313.85 11.79
-1 -2 -5 321.38 9.49
1 2 5 304.96 9.41
1 2 5 313.55 9.48
1 2 5 310.54 9.49
1 2 5 313.56 11.72
-2 -2 -5 17.38 1.69
2 2 5 14.8 1.16
2 2 5 17.79 1.25
-3 -2 -5 197.76 8.06
-3 -2 -5 182.26 6.32
3 2 5 186.92 6.39
3 2 5 202.15 8.92
3 2 5 191.63 6.23
-4 -2 -5 48.58 2.95
-4 -2 -5 53.69 3.6
4 2 5 45.65 2.62
4 2 5 48.15 2.42
4 2 5 49.89 2.73
-5 -2 -5 -0.71 1.74
-5 -2 -5 0.77 1.66
-5 -2 -5 -0.92 1.51
5 2 5 -1.72 1.39
5 2 5 3.74 1.56
-6 -2 -5 61.36 4.78
5 -3 -5 38.36 3.4
5 -3 -5 49.44 3.41
-5 3 5 47.76 3.42
4 -3 -5 11.12 1.92
4 -3 -5 12.86 1.79
-4 3 5 10.33 1.55
-4 3 5 10.23 1.8
3 -3 -5 17.21 1.67
3 -3 -5 13.45 1.69
-3 3 5 13.33 1.5
-3 3 5 15.33 1.65
2 -3 -5 286.42 9.09
2 -3 -5 286.29 9.8
-2 3 5 281.37 10.15
-2 3 5 272.69 9.09
1 -3 -5 714.05 25.12
1 -3 -5 761.12 22.35
1 -3 -5 719.14 22.26
1 -3 -5 737.6 23.89
-1 3 5 727.59 22.27
-1 3 5 728.99 21.71
-1 3 5 727.3 26.13
-1 3 5 751.02 23.87
-1 3 5 719.93 25.14
0 -3 -5 1948.81 67.67
0 -3 -5 2004.02 72.11
0 -3 -5 2069.26 58.26
0 -3 -5 1996.53 70.6
0 3 5 1970.2 58.25
0 3 5 2005.48 57.63
-1 -3 -5 1031.73 29.45
-1 -3 -5 1008.56 36.55
1 3 5 995 29.43
1 3 5 985.75 29.47
1 3 5 992.47 29.17
-2 -3 -5 0.09 0.94
2 3 5 -0.29 0.62
2 3 5 -0.09 0.7
2 3 5 -0.35 0.63
-3 -3 -5 181.77 7.9
-3 -3 -5 187.04 6.41
-3 -3 -5 177.71 6.16
3 3 5 188.13 6.27
3 3 5 189.9 6.07
3 3 5 191.27 6.34
-4 -3 -5 254.72 10.97
4 3 5 267 8.35
4 3 5 260.22 8.82
4 3 5 261.36 8.72
-5 -3 -5 234.51 8.29
-5 -3 -5 206.6 9.9
5 3 5 215.55 7.83
5 3 5 224.23 8
-6 -3 -5 7.39 2.61
4 -4 -5 73.39 4.2
4 -4 -5 83.91 4.09
-4 4 5 84.07 4.09
3 -4 -5 22.47 2.08
3 -4 -5 18.63 1.95
-3 4 5 23.54 2.05
2 -4 -5 319.73 10.86
2 -4 -5 321.83 10.14
-2 4 5 305.07 10.11
-2 4 5 307.89 11.17
1 -4 -5 23.99 1.68
1 -4 -5 27.8 1.63
1 -4 -5 28.31 1.6
1 -4 -5 26.32 1.59
-1 4 5 25.54 1.52
-1 4 5 27.91 1.57
-1 4 5 30.26 1.76
-1 4 5 27.8 1.61
-1 4 5 25.72 1.62
0 -4 -5 23.44 1.32
0 -4 -5 20.58 1.41
0 -4 -5 23.63 1.64
0 -4 -5 22.08 1.68
0 -4 -5 23.61 1.39
0 4 5 23.69 1.66
0 4 5 22.57 1.35
0 4 5 23.78 1.35
-1 -4 -5 962.12 28.87
-1 -4 -5 977.27 28.08
-1 -4 -5 950.09 34.93
1 4 5 956.66 27.86
1 4 5 925.74 28.04
-2 -4 -5 1782.7 64.72
-2 -4 -5 1803.67 53.52
-2 -4 -5 1737.75 53.6
2 4 5 1772.89 53.52
2 4 5 1803.87 51.57
-3 -4 -5 25.12 2.41
-3 -4 -5 22.68 1.86
3 4 5 22.07 1.69
3 4 5 18.94 1.5
-4 -4 -5 108.05 4.43
-4 -4 -5 100.87 5.63
4 4 5 109.75 3.96
4 4 5 98.16 4.24
4 4 5 98.37 4.26
-5 -4 -5 23.07 3.09
-5 -4 -5 34.86 3.07
5 4 5 28.28 2.61
5 4 5 26.78 2.45
4 -5 -5 3.57 1.86
4 -5 -5 1.34 1.62
-4 5 5 2.72 1.61
3 -5 -5 13.69 1.93
3 -5 -5 17.32 1.96
-3 5 5 14.27 1.87
2 -5 -5 136.55 5.14
2 -5 -5 149.86 5.52
-2 5 5 133.24 5.13
-2 5 5 142.45 5.83
1 -5 -5 291.91 9.58
1 -5 -5 278.76 9.03
1 -5 -5 277.11 10.71
-1 5 5 267.64 9.03
-1 5 5 285.01 8.75
-1 5 5 268.92 10.47
0 -5 -5 23.68 1.6
0 -5 -5 25.9 1.52
0 -5 -5 28.28 1.96
0 -5 -5 26.24 1.61
0 5 5 28.06 1.52
0 5 5 25.37 1.81
0 5 5 25.86 1.59
-1 -5 -5 48.36 2.22
-1 -5 -5 50.54 2.01
-1 -5 -5 49.49 2.84
-1 -5 -5 48.22 2.16
1 5 5 48.56 2.01
1 5 5 51.76 2.2
-2 -5 -5 442.2 16.92
-2 -5 -5 426.34 13.73
-2 -5 -5 451.4 13.92
2 5 5 442.37 13.78
2 5 5 441.69 13.3
-3 -5 -5 26.28 2.09
-3 -5 -5 21.94 2.4
3 5 5 23.4 1.74
3 5 5 23.94 1.81
-4 -5 -5 327.94 10.87
-4 -5 -5 308.38 13.24
4 5 5 314.01 10.02
4 5 5 324.28 10.69
-5 -5 -5 13.17 2.79
5 5 5 14.16 2.08
5 5 5 18.35 2.3
4 -6 -5 2.55 1.74
4 -6 -5 1.94 2
-4 6 5 3.54 1.93
3 -6 -5 158.77 6.23
3 -6 -5 156.35 6.53
-3 6 5 169.43 6.96
-3 6 5 162.55 6.24
2 -6 -5 0.54 1.16
2 -6 -5 0.45 1.26
2 -6 -5 1.48 1.04
-2 6 5 1.6 1.33
-2 6 5 1.04 1.23
1 -6 -5 16.47 1.64
1 -6 -5 15.43 1.47
1 -6 -5 14.5 1.56
-1 6 5 19.57 1.5
-1 6 5 18.21 1.75
-1 6 5 20.55 1.88
0 -6 -5 624.15 23.15
0 -6 -5 629.2 19.26
0 6 5 621.38 18.59
0 6 5 626.02 22.65
0 6 5 608.17 19.23
-1 -6 -5 124.12 5.43
-1 -6 -5 122.94 4.39
1 6 5 115.03 4.02
1 6 5 115.27 4.32
-2 -6 -5 29.86 2.04
-2 -6 -5 27.64 2.54
2 6 5 28.36 1.74
2 6 5 27.52 1.82
-3 -6 -5 0.96 1.53
-3 -6 -5 0.16 1.23
3 6 5 0.87 1.07
3 6 5 0.18 0.99
-4 -6 -5 26.97 2.55
-4 -6 -5 29.55 3.25
4 6 5 31.79 2.55
4 6 5 25.86 1.99
-5 -6 -5 8.68 2.11
-5 -6 -5 7.64 2.44
5 6 5 11.3 2.05
3 -7 -5 161.95 6.56
3 -7 -5 166.46 6.87
-3 7 5 172.17 6.63
-3 7 5 169.17 7.35
2 -7 -5 98.1 4.31
-2 7 5 93.85 4.11
-2 7 5 96.17 4.74
-2 7 5 92.39 4.25
1 -7 -5 1.78 1.27
1 -7 -5 0.97 1.08
-1 7 5 2.22 1.12
-1 7 5 -0.39 1.27
-1 7 5 1.1 1.24
0 -7 -5 26.02 2.29
0 -7 -5 27.31 2.06
0 7 5 27.4 2.32
0 7 5 26.2 1.96
0 7 5 25.59 1.72
-1 -7 -5 271.2 10.57
-1 -7 -5 260.96 8.65
1 7 5 256.85 8.6
1 7 5 247.48 8.08
1 7 5 262.19 10.17
-2 -7 -5 29.76 2.68
-2 -7 -5 26.69 2.16
2 7 5 30.96 2
2 7 5 24.83 1.89
-3 -7 -5 212.41 9.71
-3 -7 -5 223.39 7.95
3 7 5 230.52 7.41
3 7 5 223.51 7.7
-4 -7 -5 2.05 1.84
-4 -7 -5 2.85 2.19
4 7 5 6.65 1.64
4 7 5 4.07 1.27
-5 -7 -5 1.02 1.9
-5 -7 -5 2 2.3
5 7 5 0.41 1.68
3 -8 -5 7.85 2.16
-3 8 5 10.23 2.21
-3 8 5 9.69 2.17
2 -8 -5 24.27 2.5
-2 8 5 22.31 2.53
-2 8 5 23.75 2.48
-2 8 5 20.58 2.16
1 -8 -5 63.9 3.36
-1 8 5 58.71 2.9
-1 8 5 57.25 3.61
-1 8 5 55.49 3.2
0 -8 -5 44.26 2.73
0 -8 -5 40.43 2.98
0 8 5 41.97 2.59
0 8 5 43.58 2.25
0 8 5 36.8 2.98
-1 -8 -5 1.92 1.31
-1 -8 -5 2.04 1.62
1 8 5 4.48 1.49
1 8 5 2.74 1.24
-2 -8 -5 5.81 1.58
-2 -8 -5 3.4 1.81
2 8 5 4.44 1.27
-3 -8 -5 291.89 9.95
-3 -8 -5 272.17 12.15
3 8 5 283.32 9.66
3 8 5 296.73 9.28
-4 -8 -5 47.15 4.62
-4 -8 -5 60.27 3.86
4 8 5 59.1 3.39
4 8 5 62.87 3.05
-5 -8 -5 22.43 2.99
-5 -8 -5 12.36 2.95
5 8 5 20.59 2.61
5 8 5 22.15 1.97
2 -9 -5 2.11 2.1
2 -9 -5 3.55 1.9
-2 9 5 3.75 1.65
-2 9 5 6.31 2.05
-2 9 5 5.69 1.96
1 -9 -5 236.5 8.3
1 -9 -5 223.34 11.04
-1 9 5 228.59 9.56
-1 9 5 227.27 8.24
-1 9 5 229.94 7.68
0 -9 -5 15.17 2.19
0 -9 -5 27.83 2.35
0 9 5 27.55 2.29
0 9 5 25.47 2.64
-1 -9 -5 13.46 2.16
-1 -9 -5 16.33 1.98
1 9 5 16.76 1.95
1 9 5 20.26 2.34
-2 -9 -5 0.59 1.84
-2 -9 -5 1.43 1.59
2 9 5 1.05 1.33
-3 -9 -5 34.18 2.93
-3 -9 -5 20.66 3.15
3 9 5 28.25 2.35
3 9 5 27.73 2.2
-4 -9 -5 23.15 2.81
-4 -9 -5 19.2 3.25
4 9 5 23.81 2.47
4 9 5 23.15 2.05
2 -10 -5 -1.55 2.08
1 -10 -5 53.76 4.34
1 -10 -5 55.87 3.77
-1 10 5 54.77 3.03
-1 10 5 58.3 3.62
-1 10 5 59.55 4.12
0 -10 -5 11.02 2.03
0 10 5 9 2.17
0 10 5 10.61 1.93
-1 -10 -5 18.86 2.66
-1 -10 -5 21.68 2.41
1 10 5 23.25 2.58
1 10 5 21.04 2.27
-2 -10 -5 81.42 4.22
-2 -10 -5 73.07 4.99
2 10 5 81.43 3.87
-3 -10 -5 0.5 1.8
-3 -10 -5 -1.69 2.27
3 10 5 0.35 1.5
3 10 5 0.57 1.31
-4 -10 -5 6.05 2.24
-4 -10 -5 2.66 2.55
-4 -10 -5 1.6 2.29
4 10 5 5.8 1.96
4 10 5 3.7 1.51
0 11 5 31.84 3.3
0 11 5 32.62 2.85
-1 -11 -5 4.05 2.05
-1 -11 -5 4.16 2.13
1 11 5 3.67 1.75
1 11 5 3.48 2.01
-2 -11 -5 16.38 2.88
-2 -11 -5 16.33 2.53
2 11 5 20.88 2.37
-3 -11 -5 -3.31 2.32
-3 -11 -5 -0.03 2.13
3 11 5 -0.85 1.56
3 11 5 -1.84 1.38
2 9 -6 14.64 2.17
-2 -9 6 12.11 3.6
-2 -9 6 11.14 4.16
1 9 -6 9.51 2.08
1 9 -6 6.2 1.66
-1 -9 6 10.22 2.44
-1 -9 6 10.26 4.25
-1 -9 6 10.87 3.51
0 9 -6 118.46 5.91
0 -9 6 106.33 8.85
0 -9 6 111.21 11.95
0 -9 6 125.99 7.22
1 -9 6 104.45 6.9
3 8 -6 1.56 1.56
3 8 -6 2.4 1.32
-3 -8 6 3.42 2.12
-3 -8 6 2.41 2.63
-3 -8 6 2.33 2.7
2 8 -6 14.65 2.02
-2 -8 6 9.72 3.75
-2 -8 6 14.12 3.39
-2 -8 6 14.55 2.14
1 8 -6 5.78 1.47
1 8 -6 4.71 1.73
-1 -8 6 4 3.42
-1 -8 6 7.3 2.21
-1 -8 6 3.92 2.79
0 8 -6 298.58 11.56
0 -8 6 262.88 16.37
0 -8 6 268.87 21.71
0 -8 6 316.87 14.07
-1 8 -6 -1.48 1.63
1 -8 6 -3.82 3.05
1 -8 6 1.64 2.08
1 -8 6 0.55 2.43
-2 8 -6 0.4 1.92
2 -8 6 1.91 2.35
2 -8 6 1.85 4.09
2 -8 6 3.27 2.58
4 7 -6 0.01 1.54
4 7 -6 1.11 1.42
-4 -7 6 1.88 2.56
-4 -7 6 3.69 2.51
3 7 -6 126.73 5.14
3 7 -6 140.14 5.72
-3 -7 6 143.85 6.45
-3 -7 6 106.44 10.37
-3 -7 6 134.07 8.91
2 7 -6 31.42 2.53
-2 -7 6 23.47 4.61
-2 -7 6 34.44 3.04
-2 -7 6 25.94 4.13
1 7 -6 284.69 9.93
1 7 -6 283.76 10.66
-1 -7 6 254.83 19.99
-1 -7 6 291.91 13.17
-1 -7 6 241.29 15.27
0 7 -6 8.98 1.81
0 -7 6 11.81 2.36
0 -7 6 10.32 4.31
0 -7 6 7.55 2.82
-1 7 -6 3.31 1.7
1 -7 6 9.38 2.83
1 -7 6 6.81 3.88
1 -7 6 8 2.3
-2 7 -6 1.13 1.73
2 -7 6 -0.26 2.12
2 -7 6 0.48 3.85
2 -7 6 -0.16 2.14
3 -7 6 5.26 4.11
4 6 -6 9.14 1.73
4 6 -6 10.48 1.96
-4 -6 6 10.91 2.87
-4 -6 6 8.91 2.63
3 6 -6 389.95 13.66
3 6 -6 380.27 12.64
-3 -6 6 386.95 14.69
-3 -6 6 392.17 20.48
-3 -6 6 384.65 25.95
2 6 -6 59.46 3.15
-2 -6 6 63.36 3.72
-2 -6 6 54.94 5.22
-2 -6 6 52.69 6.17
1 6 -6 277.79 10.21
1 6 -6 274.21 9.5
-1 -6 6 235.3 18.84
-1 -6 6 281 12.64
-1 -6 6 243.11 14.52
-1 -6 6 265.13 9.79
0 6 -6 10.94 1.61
0 -6 6 12.74 2.92
0 -6 6 8.74 3.74
0 -6 6 14.71 2.37
-1 6 -6 1.83 1.41
1 -6 6 0.27 1.85
1 -6 6 1.22 2.11
1 -6 6 0.01 3.13
-2 6 -6 1.15 1.59
2 -6 6 1.52 2
2 -6 6 0.99 3.63
2 -6 6 1.79 2.08
-3 6 -6 108.27 5.6
3 -6 6 106.87 6.89
4 5 -6 8.57 1.66
4 5 -6 5.62 1.76
-4 -5 6 6.43 2.44
3 5 -6 0.21 1.26
3 5 -6 0.81 1.13
-3 -5 6 1.75 1.89
-3 -5 6 -0.14 2
-3 -5 6 1.15 2.08
2 5 -6 17.38 1.74
-2 -5 6 12.34 3.11
-2 -5 6 16.02 2.07
-2 -5 6 15.92 2.78
1 5 -6 179.11 6.58
1 5 -6 180.74 6.94
-1 -5 6 167.48 10.14
-1 -5 6 177.41 8.75
-1 -5 6 178.22 6.84
-1 -5 6 170.06 13.2
0 5 -6 1.65 1.05
0 -5 6 1.26 2.7
0 -5 6 1.59 1.56
0 -5 6 0.49 1.79
-1 5 -6 88.92 4.14
1 -5 6 74.02 5.83
1 -5 6 76.68 8.26
1 -5 6 92.16 5.28
-2 5 -6 63.61 3.59
2 -5 6 61.93 7.41
2 -5 6 65.26 4.62
2 -5 6 52.23 4.71
-3 5 -6 162.19 7.16
3 -5 6 180.06 6.12
3 -5 6 126.27 12.88
3 -5 6 163.22 8.7
-4 5 -6 15.23 2.45
4 -5 6 21.03 2.11
4 -5 6 21.48 3.37
4 -5 6 12.39 4.58
5 4 -6 6.05 1.83
5 4 -6 6.81 1.93
-5 -4 6 6.51 2.79
4 4 -6 186.13 7.01
4 4 -6 190.85 7.66
-4 -4 6 201.21 11.14
-4 -4 6 188.5 7.33
-4 -4 6 204.64 8.66
3 4 -6 9.34 1.59
3 4 -6 8.91 1.37
-3 -4 6 8.96 2.05
-3 -4 6 8.8 2.28
-3 -4 6 8.19 2.33
2 4 -6 206.84 7.68
-2 -4 6 206.31 11.52
-2 -4 6 209.53 8.28
-2 -4 6 217.42 14.78
1 4 -6 1.02 0.87
-1 -4 6 -0.3 1.75
-1 -4 6 0.74 1.1
-1 -4 6 1.16 1.51
0 4 -6 9.9 1.19
0 -4 6 8.48 2.03
0 -4 6 10.47 3.01
0 -4 6 12.19 1.85
-1 4 -6 430.12 16.2
1 -4 6 428.39 19.53
1 -4 6 445.02 21.96
1 -4 6 437.23 29.12
-2 4 -6 28.34 2.36
2 -4 6 28.55 3.16
2 -4 6 24.82 3
2 -4 6 26.96 4.61
2 -4 6 28.43 2.21
-3 4 -6 2.28 1.46
3 -4 6 3.12 2.01
3 -4 6 1.47 3.14
3 -4 6 3.34 1.38
-4 4 -6 34.5 3.16
4 -4 6 43.7 2.88
4 -4 6 25.17 5.23
4 -4 6 38.23 4.25
5 3 -6 -0.33 1.31
5 3 -6 3.75 1.64
-5 -3 6 0.92 2.27
4 3 -6 29 2.4
4 3 -6 28.79 2.52
-4 -3 6 37.06 3.39
-4 -3 6 29.01 3.52
-4 -3 6 27.52 2.58
3 3 -6 126.65 5.42
-3 -3 6 134.48 9.83
-3 -3 6 138.57 6.16
-3 -3 6 136.21 8.02
2 3 -6 331.49 11.94
-2 -3 6 340.84 17.69
-2 -3 6 378.26 22.94
-2 -3 6 335.66 12.68
1 3 -6 82.05 3.5
-1 -3 6 85.17 3.75
-1 -3 6 86.86 6.95
-1 -3 6 86.7 5.43
0 3 -6 114.82 4.56
0 3 -6 121.63 4.82
0 -3 6 114.98 6.02
0 -3 6 112.63 9.09
0 -3 6 115.32 4.6
0 -3 6 127.68 6.93
-1 3 -6 233.14 9.22
1 -3 6 233.7 11.12
1 -3 6 244.78 12.44
1 -3 6 241.84 16.69
-2 3 -6 -0.44 0.97
2 -3 6 0.62 2.32
2 -3 6 0.79 1.27
2 -3 6 -2.06 1.4
2 -3 6 1.44 1.03
-3 3 -6 1.39 1.31
3 -3 6 2.26 2.69
3 -3 6 3.79 1.29
3 -3 6 4.41 1.89
-4 3 -6 60.64 3.95
4 -3 6 63.57 3.38
4 -3 6 63.07 4.94
-5 3 -6 14.72 2.49
5 -3 6 21 3.27
5 2 -6 3.02 1.63
5 2 -6 3.46 1.67
-5 -2 6 5.51 2.31
-5 -2 6 4.07 2.06
4 2 -6 30.75 2.48
4 2 -6 30.32 2.66
-4 -2 6 32.34 2.64
-4 -2 6 32.09 3.14
3 2 -6 54.51 2.91
3 2 -6 52.52 2.59
-3 -2 6 53.36 3.56
-3 -2 6 53.81 4.26
-3 -2 6 52.92 2.81
2 2 -6 87.55 3.68
-2 -2 6 89.86 6.83
-2 -2 6 82.11 5.43
-2 -2 6 84.25 4.02
1 2 -6 700.72 23.47
-1 -2 6 708.47 34.7
-1 -2 6 682.51 24.69
-1 -2 6 768.21 45.1
0 2 -6 1264.18 44.92
0 2 -6 1292.48 36.69
0 2 -6 1219.1 43.03
0 -2 6 1247.42 60.41
0 -2 6 1258.61 43.04
0 -2 6 1212.73 54.11
0 -2 6 1357.86 78.58
-1 2 -6 338.91 13.4
-1 2 -6 375.88 11.1
-1 2 -6 391.03 18.01
1 -2 6 341.85 11.14
1 -2 6 348.24 17.86
1 -2 6 322.23 16.01
1 -2 6 406.7 23.84
-2 2 -6 1.29 0.98
2 -2 6 2.6 1.41
2 -2 6 2.99 2.16
2 -2 6 1.23 0.94
-3 2 -6 63.61 3.64
3 -2 6 63.69 4.45
3 -2 6 65.87 3.09
3 -2 6 65.32 6.41
-4 2 -6 2.1 1.54
4 -2 6 2.15 2.4
4 -2 6 2.47 2.02
4 -2 6 3.46 1.39
-5 2 -6 0.41 1.75
-5 2 -6 3.51 1.64
5 -2 6 4 1.58
5 -2 6 2.29 2.26
5 1 -6 0.07 1.43
5 1 -6 3.05 1.64
-5 -1 6 1.33 1.91
-5 -1 6 3.16 1.9
4 1 -6 68.76 3.41
4 1 -6 72.93 3.78
-4 -1 6 73.43 3.78
-4 -1 6 73.55 4.36
3 1 -6 132.6 5.22
3 1 -6 127.85 4.71
-3 -1 6 127.78 4.48
-3 -1 6 138.01 5.71
-3 -1 6 113.06 4.8
2 1 -6 77.97 3.37
-2 -1 6 78.58 5.01
-2 -1 6 78.1 6.16
-2 -1 6 75.82 2.86
-2 -1 6 80.22 3.72
1 1 -6 742.32 24.25
1 1 -6 732.26 21.82
-1 -1 6 732.74 35.82
-1 -1 6 722.57 25.53
-1 -1 6 787.77 46.47
-1 -1 6 727.24 21.83
0 1 -6 715.68 31.63
0 1 -6 722.72 26.16
0 1 -6 728.92 21.54
0 1 -6 707.43 21.72
0 1 -6 740.39 21.37
0 1 -6 730.28 23.84
0 1 -6 718.95 25.09
0 1 -6 769.78 35.3
0 -1 6 804.58 45.94
0 -1 6 722.11 25.12
0 -1 6 705.41 31.56
0 -1 6 731.46 35.28
0 -1 6 713.48 21.56
-1 1 -6 6 1.15
-1 1 -6 3.8 0.65
-1 1 -6 4.72 0.67
-1 1 -6 3.91 0.9
1 -1 6 4.35 1.14
1 -1 6 4.86 1.75
1 -1 6 4.69 0.87
1 -1 6 4.15 1.21
-2 1 -6 340.19 13.25
2 -1 6 335.34 10.92
2 -1 6 388.18 23.04
2 -1 6 339.91 15.75
-3 1 -6 17.45 1.92
3 -1 6 13.74 2.86
3 -1 6 16.77 2.17
3 -1 6 18.01 1.61
-4 1 -6 4.36 1.62
4 -1 6 6.98 1.51
4 -1 6 8.97 2.17
4 -1 6 3.73 2.21
-5 1 -6 21.3 2.33
-5 1 -6 16.34 2.44
5 -1 6 24.4 2.28
5 -1 6 18.66 2.95
5 0 -6 4.19 1.68
5 0 -6 1.56 1.45
-5 0 6 2.63 1.81
-5 0 6 1.96 1.87
4 0 -6 1.25 1.24
4 0 -6 2.81 1.29
-4 0 6 2.33 1.5
-4 0 6 4.19 1.75
3 0 -6 279.19 10.1
3 0 -6 282.54 9.3
-3 0 6 274.7 9.41
-3 0 6 298.4 10.74
2 0 -6 94.09 3.8
-2 0 6 87.98 3.29
-2 0 6 93.6 4.06
1 0 -6 369.14 12.53
-1 0 6 375.57 13.24
-1 0 6 366.01 18.56
-1 0 6 376.32 11.32
-1 0 6 384.23 24.03
0 0 -6 13.65 0.96
0 0 -6 14.08 1.13
0 0 -6 15.27 1.7
0 0 -6 13.54 1.35
0 0 -6 14.05 0.97
0 0 -6 12.24 0.95
0 0 -6 14.11 1.01
0 0 6 14.12 1.74
0 0 6 14.28 1.06
0 0 6 14.16 2.35
0 0 6 14.05 1.28
0 0 6 16.01 1.02
-1 0 -6 9.85 0.93
-1 0 -6 12.14 1.38
-1 0 -6 12.99 1.03
-1 0 -6 10.8 1.2
-1 0 -6 10.71 0.91
-1 0 -6 8.33 0.82
-1 0 -6 10.15 0.96
1 0 6 10.6 0.98
1 0 6 8.68 1.4
1 0 6 9.79 2.01
1 0 6 9.92 1.31
1 0 6 12.49 1.05
-2 0 -6 244.82 8.67
-2 0 -6 251.67 9.89
2 0 6 257.72 8.02
2 0 6 258.6 11.67
2 0 6 248.96 8.14
2 0 6 275.05 16.9
-3 0 -6 29.71 2.32
3 0 6 32.66 2.78
3 0 6 28.18 1.96
3 0 6 26.26 3.36
-4 0 -6 85.12 4.68
4 0 6 89.32 3.93
4 0 6 98 5.6
-5 0 -6 8.74 1.9
-5 0 -6 7.18 2
5 0 6 10.41 2.46
5 0 6 7.34 1.69
5 -1 -6 74.83 4.45
5 -1 -6 85.19 4.15
-5 1 6 85.06 4.64
4 -1 -6 168.54 6.91
4 -1 -6 178.98 6.38
-4 1 6 168.36 6.52
-4 1 6 174.29 7.21
3 -1 -6 2.51 1.08
3 -1 -6 3.57 1.11
-3 1 6 4.38 1.42
-3 1 6 4.25 1.22
2 -1 -6 181.95 6.68
-2 1 6 174.7 5.95
-2 1 6 197.94 7.04
-2 1 6 179.34 6.12
1 -1 -6 1039.92 33.7
-1 1 6 1028.86 30.54
-1 1 6 1043.37 35.55
-1 1 6 1042.3 33.64
0 -1 -6 30.19 1.77
0 -1 -6 30.25 1.31
0 -1 -6 29.45 1.44
0 -1 -6 32.03 1.94
0 -1 -6 31.05 1.36
0 -1 -6 31.16 2.4
0 1 6 32.87 1.41
0 1 6 31.03 1.43
0 1 6 30.42 1.45
0 1 6 32.27 3.18
0 1 6 34.28 1.8
-1 -1 -6 142.25 4.56
-1 -1 -6 138.2 7.26
-1 -1 -6 133.96 6.4
-1 -1 -6 143.39 4.57
-1 -1 -6 136.43 5.57
-1 -1 -6 137.31 5.24
-1 -1 -6 141.73 4.55
1 1 6 138.55 4.55
1 1 6 143.7 4.61
1 1 6 135.84 6.46
1 1 6 151.37 9.63
1 1 6 137.44 4.57
-2 -1 -6 83.7 3.91
2 1 6 87.04 4.45
2 1 6 84.3 3.76
2 1 6 85.9 3.2
2 1 6 86.04 3.25
2 1 6 95.12 6.53
-3 -1 -6 315.85 12.53
3 1 6 310.51 20.61
3 1 6 335.5 10.02
3 1 6 307.09 10.17
3 1 6 339.58 14.53
-4 -1 -6 9.5 1.81
-4 -1 -6 9.38 1.77
-4 -1 -6 16.01 1.81
4 1 6 8.46 1.51
4 1 6 11.01 1.98
4 1 6 13.24 1.53
-5 -1 -6 29.1 2.61
-5 -1 -6 23.84 2.67
-5 -1 -6 20.49 2.55
5 1 6 21.59 2.23
5 1 6 25.14 2.98
5 -2 -6 1.32 1.68
5 -2 -6 1.36 1.76
-5 2 6 4.86 1.92
-5 2 6 0.97 1.49
4 -2 -6 23.21 2.42
4 -2 -6 30.29 2.45
-4 2 6 24.19 2.3
-4 2 6 25.46 2.33
3 -2 -6 95.17 4.19
3 -2 -6 96.05 3.82
-3 2 6 89.24 3.87
-3 2 6 93.64 4.27
2 -2 -6 152.01 5.22
2 -2 -6 150.27 5.33
2 -2 -6 162.17 5.77
-2 2 6 145.82 5.24
-2 2 6 149.54 5.95
-2 2 6 156.97 5.17
1 -2 -6 10.1 1.07
-1 2 6 11.08 1.17
-1 2 6 11.91 1.07
-1 2 6 13.42 1.11
0 -2 -6 251.12 7.68
0 -2 -6 251.99 9.1
0 -2 -6 256.04 9.73
0 2 6 253.14 7.71
0 2 6 258.45 9.15
0 2 6 252.54 7.85
-1 -2 -6 409.49 12.49
-1 -2 -6 418.58 15.52
-1 -2 -6 420.06 12.39
-1 -2 -6 397.42 14.51
1 2 6 398.45 12.39
1 2 6 431.97 26.26
1 2 6 425.13 12.5
1 2 6 417.56 12.53
1 2 6 419.58 15.46
-2 -2 -6 163.85 6.66
2 2 6 161.99 10.72
2 2 6 164.98 5.29
2 2 6 153.85 5.32
-3 -2 -6 96.18 4.72
3 2 6 98.31 3.75
3 2 6 97.13 3.66
-4 -2 -6 395.46 15.66
4 2 6 387.72 12.58
4 2 6 408.82 17.79
4 2 6 388.96 12.21
-5 -2 -6 28.82 2.98
-5 -2 -6 36.31 2.89
-5 -2 -6 24.04 2.91
5 2 6 34.03 2.7
5 2 6 36.37 2.66
5 2 6 29.63 3.43
-5 3 6 23.68 2.68
4 -3 -6 107.34 4.61
4 -3 -6 107.48 5
-4 3 6 102.18 4.87
-4 3 6 113.79 4.73
3 -3 -6 41.18 2.69
3 -3 -6 44.2 2.48
-3 3 6 44.45 2.59
-3 3 6 47.6 2.73
2 -3 -6 714.94 22.78
2 -3 -6 686.1 21.14
2 -3 -6 689.45 21.28
-2 3 6 680.86 21.16
-2 3 6 680.9 23.83
-2 3 6 670.12 20.62
1 -3 -6 76.25 3.14
-1 3 6 76.9 3.32
-1 3 6 76.45 2.9
-1 3 6 80.65 3.11
0 -3 -6 154.39 6.13
0 -3 -6 152.61 5.89
0 -3 -6 148.31 5.69
0 3 6 155.24 4.96
0 3 6 149.85 4.84
-1 -3 -6 88.31 3.97
-1 -3 -6 94.54 3.3
1 3 6 87.66 3.07
1 3 6 87.53 3.13
1 3 6 88.36 3.14
-2 -3 -6 186.09 7.54
2 3 6 184.64 5.92
2 3 6 178.16 5.94
-3 -3 -6 0.66 1.2
3 3 6 -0.96 0.89
3 3 6 -0.21 0.83
-4 -3 -6 61.71 4.11
4 3 6 61.35 3.09
4 3 6 67.73 2.98
4 3 6 65.41 3.19
-5 -3 -6 29.84 2.78
-5 -3 -6 18.93 2.77
5 3 6 22.76 2.3
5 3 6 22.84 2.31
4 -4 -6 20.62 2.38
4 -4 -6 20.62 2.32
-4 4 6 18.15 2.25
3 -4 -6 31.86 2.43
3 -4 -6 30.76 2.35
-3 4 6 28.98 2.19
-3 4 6 29.88 2.34
2 -4 -6 107.36 4.36
2 -4 -6 106.81 4.07
-2 4 6 108.31 4.02
-2 4 6 104 4.38
-2 4 6 103.04 4.03
1 -4 -6 562.39 16.98
1 -4 -6 558.62 18.13
1 -4 -6 544.89 16.93
-1 4 6 548.1 19.09
-1 4 6 543.21 19.83
-1 4 6 533.79 16.94
-1 4 6 546.63 16.51
0 -4 -6 196.67 6.55
0 -4 -6 213.66 8.07
0 4 6 198.32 6.54
0 4 6 202.48 6.46
0 4 6 203.02 6.36
-1 -4 -6 10.4 1.3
1 4 6 11.71 0.99
1 4 6 10.54 0.96
1 4 6 10.63 0.98
-2 -4 -6 555.63 21.04
2 4 6 556.55 16.86
2 4 6 563.69 16.67
-3 -4 -6 1104.18 41.52
-3 -4 -6 1080.17 34.06
-3 -4 -6 1151.84 34.36
3 4 6 1148.97 32.95
3 4 6 1126.65 34.21
3 4 6 1128.24 33.48
-4 -4 -6 118.38 6.25
-4 -4 -6 127.76 4.99
4 4 6 125.05 4.55
4 4 6 119.33 4.79
4 4 6 119.49 4.84
-5 -4 -6 1.94 2.01
-5 -4 -6 -0.91 1.74
5 4 6 -0.06 1.52
5 4 6 -0.66 1.38
4 -5 -6 9.13 1.98
4 -5 -6 9.98 2.11
-4 5 6 10.3 1.95
3 -5 -6 10.34 1.8
3 -5 -6 8.88 1.73
-3 5 6 10.71 1.77
2 -5 -6 3.33 1.25
2 -5 -6 3.06 1.16
-2 5 6 2.11 1.19
-2 5 6 3.47 1.14
-2 5 6 4 1.22
-2 5 6 3.2 0.96
1 -5 -6 3.68 1.05
1 -5 -6 4.62 1.02
1 -5 -6 4.9 1
-1 5 6 4.15 0.99
-1 5 6 5.79 1.1
-1 5 6 6.9 1.21
0 -5 -6 45.86 2.69
0 -5 -6 49.48 2.22
0 -5 -6 43.91 2.09
0 5 6 49.91 2.16
0 5 6 49.12 2.61
0 5 6 50.68 2.22
-1 -5 -6 18.93 1.8
-1 -5 -6 21.05 1.45
-1 -5 -6 18.93 1.34
1 5 6 18.56 1.37
1 5 6 20.89 1.31
1 5 6 17.97 1.3
-2 -5 -6 14.16 1.43
-2 -5 -6 13.42 1.8
-2 -5 -6 13.44 1.24
2 5 6 14.72 1.29
2 5 6 12.55 1.23
-3 -5 -6 121.68 4.78
-3 -5 -6 118.57 5.94
3 5 6 125.04 4.45
3 5 6 122.86 4.59
-4 -5 -6 194.08 9.16
-4 -5 -6 204.47 7.39
4 5 6 202.94 6.81
4 5 6 209.55 7.17
4 5 6 197.9 7.22
-5 -5 -6 262.61 12.28
5 5 6 298.7 9.96
5 5 6 283.44 9.72
4 -6 -6 3.37 1.77
4 -6 -6 5.02 2.04
-4 6 6 3.6 1.98
3 -6 -6 31.05 2.65
3 -6 -6 29.77 2.63
-3 6 6 33.82 2.67
2 -6 -6 188.33 6.9
2 -6 -6 193.42 7.99
2 -6 -6 193.84 7.27
-2 6 6 189.48 6.93
-2 6 6 198.18 6.74
-2 6 6 198.02 7.86
1 -6 -6 86.21 3.66
1 -6 -6 89.1 4.22
1 -6 -6 88.1 3.68
-1 6 6 88.72 3.5
-1 6 6 89.93 4.17
-1 6 6 89.04 3.66
0 -6 -6 31.59 2.39
0 -6 -6 31.5 2.02
0 6 6 33.88 2
0 6 6 37.17 2.36
0 6 6 36.02 1.93
-1 -6 -6 365.34 14.08
-1 -6 -6 367.17 11.55
1 6 6 357.73 11.51
1 6 6 358.57 11.1
-2 -6 -6 11.15 1.42
-2 -6 -6 9.86 1.8
2 6 6 11.34 1.29
2 6 6 10.76 1.2
-3 -6 -6 -1.48 1.43
-3 -6 -6 -1.19 1.15
3 6 6 0.52 1.02
3 6 6 0.19 1.05
-4 -6 -6 85.48 4.12
-4 -6 -6 80.14 5.23
4 6 6 84.38 3.59
4 6 6 80.77 3.87
-5 -6 -6 -2.83 1.96
-5 -6 -6 1.54 1.75
5 6 6 -1.15 1.58
5 6 6 0.23 1.54
3 -7 -6 0.84 1.74
3 -7 -6 -1.45 1.46
-3 7 6 -1.24 1.72
-3 7 6 -1.18 1.74
-3 7 6 0.47 1.56
2 -7 -6 2.02 1.35
2 -7 -6 1.6 1.53
-2 7 6 0.93 1.47
-2 7 6 0.97 1.48
-2 7 6 4.65 1.57
1 -7 -6 93.45 3.97
1 -7 -6 88.91 4.42
-1 7 6 87.84 3.91
-1 7 6 90.12 3.69
-1 7 6 92.1 4.47
0 -7 -6 77.92 3.48
0 -7 -6 81.33 4.14
0 7 6 76.23 3.4
0 7 6 82.87 3.24
0 7 6 81.41 4.05
-1 -7 -6 168.23 5.98
-1 -7 -6 175.11 7.4
1 7 6 171.02 5.95
1 7 6 161.24 5.56
-2 -7 -6 17.99 1.84
-2 -7 -6 18.75 2.29
2 7 6 21.22 1.76
2 7 6 20.8 1.63
2 7 6 18.68 1.41
-3 -7 -6 46.1 2.87
-3 -7 -6 40.2 3.55
3 7 6 43.3 2.54
3 7 6 45.01 2.52
-4 -7 -6 68.19 3.86
-4 -7 -6 54.95 4.61
4 7 6 67.85 3.19
4 7 6 63.84 3.43
-5 -7 -6 11.77 2.86
-5 -7 -6 13.29 2.45
5 7 6 12.74 2.25
3 -8 -6 1 1.96
-3 8 6 0.49 1.92
-3 8 6 5.41 2
-3 8 6 -0.15 1.84
2 -8 -6 13.82 2.11
-2 8 6 8.97 2.04
-2 8 6 10.85 2.02
-2 8 6 9.9 1.83
1 -8 -6 140.88 5.56
1 -8 -6 134.13 6.29
-1 8 6 147.62 6.38
-1 8 6 141.56 5.14
-1 8 6 135.59 5.48
0 -8 -6 681.54 25.58
0 -8 -6 679.92 21.29
0 8 6 681.26 21.29
0 8 6 678.02 25.03
0 8 6 679.73 20.46
-1 -8 -6 661.7 20.42
-1 -8 -6 657.24 24.69
1 8 6 632.51 20.34
-2 -8 -6 71.61 4.45
-2 -8 -6 70.58 3.48
2 8 6 69.58 3.2
2 8 6 66.89 3.21
-3 -8 -6 14.58 2.51
-3 -8 -6 11.77 1.92
3 8 6 16.52 1.79
3 8 6 16.05 1.78
-4 -8 -6 2.47 1.82
-4 -8 -6 3.42 2.34
4 8 6 4.09 1.58
4 8 6 4.29 1.35
-5 -8 -6 3.54 2.35
-5 -8 -6 2.92 2.54
5 8 6 2.98 1.97
5 8 6 3.67 1.45
2 -9 -6 3.56 1.95
-2 9 6 -0.11 1.54
-2 9 6 1.59 1.87
-2 9 6 2.75 1.85
1 -9 -6 6.89 1.87
1 -9 -6 8.04 1.92
-1 9 6 4.28 1.98
-1 9 6 9.03 1.95
-1 9 6 7.66 1.53
0 -9 -6 9.53 2.04
0 -9 -6 12.04 1.84
0 9 6 10.88 1.44
0 9 6 12.87 2.18
0 9 6 11.93 1.79
-1 -9 -6 70.14 4.48
-1 -9 -6 70.81 3.62
1 9 6 74.14 3.55
1 9 6 70.05 4.13
-2 -9 -6 2.41 1.59
-2 -9 -6 0.27 1.92
2 9 6 1.47 1.33
-3 -9 -6 4.19 1.73
-3 -9 -6 3.86 2.25
3 9 6 2.78 1.34
3 9 6 4.19 1.46
-4 -9 -6 6.24 2.63
-4 -9 -6 10.66 2.28
4 9 6 11.56 1.66
4 9 6 11.52 1.99
1 -10 -6 79.21 4.53
-1 10 6 94.65 5.25
-1 10 6 94.81 4.54
-1 10 6 91.89 4.03
0 -10 -6 368.99 15.14
0 -10 -6 382.99 12.74
0 10 6 387.85 12.69
0 10 6 376.31 14.9
-1 -10 -6 12.53 2.34
-1 -10 -6 11.71 2.01
1 10 6 14.27 2.01
1 10 6 13.32 2.24
-2 -10 -6 11.56 2.48
-2 -10 -6 7.52 1.96
2 10 6 9.2 1.73
-3 -10 -6 8.19 2.13
-3 -10 -6 5.86 2.56
3 10 6 8.15 1.61
3 10 6 7.88 1.81
-4 -10 -6 7.35 2.93
4 10 6 7.32 1.64
4 10 6 8.15 2.1
0 11 6 50.72 3.46
0 11 6 48.93 4.01
-1 -11 -6 18.14 2.43
-1 -11 -6 16.72 2.78
1 11 6 18.21 2.6
1 11 6 14.61 2.21
-2 -11 -6 2.32 2.24
-2 -11 -6 2.1 1.98
2 11 6 2.99 1.68
-3 -11 -6 6.67 2.83
3 11 6 6.04 1.93
3 11 6 8.73 1.77
1 9 -7 3.75 1.69
1 9 -7 6.41 1.93
-1 -9 7 0.87 3.43
-1 -9 7 5.58 2.34
0 -9 7 1.47 2.3
-3 -8 7 0.76 2.93
2 8 -7 2.47 1.59
-2 -8 7 -0.76 2.54
-2 -8 7 0.08 2.52
-2 -8 7 0.67 1.72
1 8 -7 -1.99 1.55
1 8 -7 1.3 1.4
-1 -8 7 -0.9 2.93
-1 -8 7 -1.66 1.9
-1 -8 7 2.05 2.55
0 8 -7 9.42 2.06
0 -8 7 12.61 2.61
0 -8 7 9.71 3.25
0 -8 7 8.36 4.51
-1 8 -7 2.57 1.87
1 -8 7 5.06 4.3
1 -8 7 5.14 2.95
1 -8 7 3.86 2.33
3 7 -7 10.07 1.9
-3 -7 7 8.54 2.27
-3 -7 7 7.18 2.89
-3 -7 7 8.4 3.29
2 7 -7 1.51 1.41
-2 -7 7 1.61 1.7
-2 -7 7 -1.58 2.48
-2 -7 7 1.24 2.45
1 7 -7 42.14 2.78
1 7 -7 38.04 2.87
-1 -7 7 34.82 6.19
-1 -7 7 32.79 4.69
-1 -7 7 42.77 3.98
-1 -7 7 39.57 2.71
0 7 -7 3.43 1.56
0 -7 7 2.99 3.36
0 -7 7 2.06 2.39
0 -7 7 2.12 2.01
-1 7 -7 15.75 2.17
1 -7 7 17.74 2.82
1 -7 7 14.14 4.94
1 -7 7 14.19 3.27
-2 7 -7 -3.97 1.62
2 -7 7 -1.37 3.57
2 -7 7 0.9 2.16
2 -7 7 -0.55 2.09
4 6 -7 1.32 1.56
4 6 -7 1.15 1.29
-4 -6 7 -1.13 2.16
-4 -6 7 0.69 2.24
3 6 -7 50.31 3.24
-3 -6 7 50.98 3.9
-3 -6 7 46.19 5.1
-3 -6 7 47.53 6
2 6 -7 10.92 1.69
-2 -6 7 7.57 2.68
-2 -6 7 9.4 1.93
-2 -6 7 5.85 2.96
1 6 -7 216.38 7.91
1 6 -7 225.76 8.42
-1 -6 7 219.68 8.13
-1 -6 7 213.73 10.52
-1 -6 7 191.08 15.83
-1 -6 7 190.14 12.16
0 6 -7 44.74 2.83
0 -6 7 47.58 3.97
0 -6 7 39.55 6.42
0 -6 7 35.51 4.49
-1 6 -7 110.48 5.09
1 -6 7 120.97 6.48
1 -6 7 86.62 7.09
1 -6 7 99.62 10.39
-2 6 -7 1.49 1.65
2 -6 7 -0.18 2.07
2 -6 7 4.53 2.26
2 -6 7 -1.34 3.48
-3 6 -7 0.76 1.67
3 -6 7 0.44 2.24
3 -6 7 0.96 3.84
4 5 -7 3.8 1.72
-4 -5 7 6.65 2.51
-4 -5 7 5.29 2.39
3 5 -7 51.23 3.2
-3 -5 7 49.98 4.94
-3 -5 7 50.45 5.73
-3 -5 7 53.41 3.9
2 5 -7 23.61 2.11
-2 -5 7 16.57 3.65
-2 -5 7 20.55 3.28
-2 -5 7 24.4 2.33
1 5 -7 5.52 1.28
-1 -5 7 5.89 1.4
-1 -5 7 5.32 2.19
-1 -5 7 5.13 2.76
0 5 -7 787.12 27.33
0 -5 7 792.24 33.13
0 -5 7 692.55 48.64
0 -5 7 734.03 37.25
-1 5 -7 14.2 1.83
1 -5 7 12.82 4.27
1 -5 7 13.38 2.67
1 -5 7 17.4 2.48
-2 5 -7 0.73 1.4
2 -5 7 0.78 1.98
2 -5 7 0.2 1.78
2 -5 7 0.75 3.4
-3 5 -7 0.5 1.53
3 -5 7 0.73 2.23
3 -5 7 0.45 1.58
3 -5 7 -0.92 3.52
4 -5 7 -1.4 3.41
4 -5 7 -0.18 1.59
4 4 -7 3.58 1.6
-4 -4 7 4.56 2.19
-4 -4 7 3.29 2.12
3 4 -7 11.9 1.84
-3 -4 7 9.37 2.57
-3 -4 7 10.21 2.8
-3 -4 7 12.51 2.2
2 4 -7 71.2 3.37
-2 -4 7 67.53 6.44
-2 -4 7 66.51 3.79
-2 -4 7 65.21 5.17
1 4 -7 54.73 2.72
-1 -4 7 42.56 5.31
-1 -4 7 55.88 4.42
-1 -4 7 52.69 2.89
0 4 -7 524.43 18.54
0 -4 7 528.38 22.59
0 -4 7 438.8 32.97
0 -4 7 528.54 25.46
-1 4 -7 265.89 9.94
1 -4 7 253.99 13.5
1 -4 7 237.49 18.09
1 -4 7 251.59 11.99
-2 4 -7 21.32 2.23
2 -4 7 27.76 3.06
2 -4 7 28.41 2.18
2 -4 7 22.61 2.84
2 -4 7 17.94 4.29
-3 4 -7 1.31 1.47
3 -4 7 0.79 1.37
3 -4 7 -0.16 2.01
3 -4 7 -0.51 3.14
-4 4 -7 2.14 1.79
4 -4 7 0.86 1.57
4 -4 7 -2.15 3.11
4 -4 7 3.7 2.31
5 3 -7 50.75 3.61
4 3 -7 87.57 4.43
4 3 -7 84.52 3.99
-4 -3 7 95.43 6.41
-4 -3 7 91.55 5.16
3 3 -7 2.44 1.27
-3 -3 7 3.34 1.91
-3 -3 7 4.62 2.21
-3 -3 7 3 1.75
2 3 -7 4.91 1.24
-2 -3 7 8.77 2.52
-2 -3 7 4.6 1.5
-2 -3 7 6.57 1.98
1 3 -7 208.57 7.52
-1 -3 7 215.98 11.33
-1 -3 7 209.3 7.89
-1 -3 7 200.47 14.56
0 3 -7 94.54 4.02
0 -3 7 93.42 5.2
0 -3 7 99.02 3.94
0 -3 7 82.72 7.62
0 -3 7 95.77 5.91
-1 3 -7 11.21 1.4
1 -3 7 12.5 1.91
1 -3 7 9.1 2.83
1 -3 7 12.48 2.07
-2 3 -7 22.13 2.14
2 -3 7 20.72 2.61
2 -3 7 25.05 1.95
2 -3 7 17.51 3.76
2 -3 7 27.12 2.79
-3 3 -7 94.37 4.86
3 -3 7 102.91 4.22
3 -3 7 96.88 6.01
3 -3 7 90.65 8.78
-4 3 -7 26.02 2.74
4 -3 7 27.7 2.37
4 -3 7 14.41 4.21
4 -3 7 28.93 3.42
5 2 -7 11.41 1.82
5 2 -7 14.03 2.22
-5 -2 7 14.74 2.67
4 2 -7 289.38 10.55
4 2 -7 277.33 9.57
-4 -2 7 275.37 9.11
-4 -2 7 291.38 11.34
3 2 -7 325.33 10.83
3 2 -7 342.07 11.91
-3 -2 7 336.6 12.67
-3 -2 7 336.28 17.39
2 2 -7 147.52 5.95
-2 -2 7 161.54 6.45
-2 -2 7 155.67 8.87
-2 -2 7 163.23 11.35
1 2 -7 131.1 4.94
-1 -2 7 123.85 5.19
-1 -2 7 130.04 9.69
-1 -2 7 133.11 7.47
0 2 -7 1133.11 34.77
0 2 -7 1213.97 42.32
0 -2 7 1178.97 40.55
0 -2 7 1237.73 74.07
0 -2 7 1170.85 51.01
0 -2 7 1193.65 56.98
-1 2 -7 116.61 4.97
-1 2 -7 110.79 4.42
1 -2 7 114.7 4.24
1 -2 7 113.17 5.98
1 -2 7 115.68 6.63
1 -2 7 126.66 9.15
-2 2 -7 0.47 0.99
2 -2 7 -0.03 2.01
2 -2 7 0.4 1
2 -2 7 1.16 1.47
2 -2 7 -0.03 1.13
-3 2 -7 146.99 6.53
3 -2 7 140.87 5.39
3 -2 7 144.15 11.32
3 -2 7 148.01 7.76
-4 2 -7 7.47 1.93
4 -2 7 3.19 2.7
4 -2 7 9.45 1.69
4 -2 7 10.44 2.38
-5 2 -7 4.12 2.06
5 -2 7 4.07 2.37
5 -2 7 7.34 1.76
5 1 -7 5.54 1.83
5 1 -7 5.06 1.59
-5 -1 7 1.29 1.53
-5 -1 7 8.89 2.24
4 1 -7 3.63 1.48
4 1 -7 5.38 1.42
-4 -1 7 3.23 1.61
-4 -1 7 2.11 1.22
-4 -1 7 3.64 1.91
3 1 -7 24.01 2.18
-3 -1 7 24.61 2.41
-3 -1 7 24.09 1.72
-3 -1 7 21.98 1.96
2 1 -7 69.28 3.15
-2 -1 7 69.09 4.72
-2 -1 7 65.16 3.46
-2 -1 7 68.83 5.8
-2 -1 7 64.6 2.64
1 1 -7 201.31 6.3
1 1 -7 205.43 7.17
-1 -1 7 196.32 10.67
-1 -1 7 209.82 13.81
-1 -1 7 194.7 7.55
-1 -1 7 199.69 6.34
0 1 -7 162.16 5.09
0 1 -7 154.48 5.08
0 1 -7 156.46 5.69
0 1 -7 163.04 6.2
0 -1 7 154.34 7.6
0 -1 7 157.25 5.12
0 -1 7 158.24 8.62
0 -1 7 155.37 6.02
0 -1 7 174.19 11.38
-1 1 -7 202.13 7.85
-1 1 -7 193.58 7.28
1 -1 7 220.15 13.89
1 -1 7 198.3 6.55
1 -1 7 189.31 9.32
1 -1 7 200.26 10.41
-2 1 -7 876.32 32.12
2 -1 7 944.93 55.69
2 -1 7 863.31 38.36
2 -1 7 860.31 26.53
-3 1 -7 13.42 1.87
3 -1 7 11.16 2.77
3 -1 7 13.87 1.58
3 -1 7 14.29 2.13
-4 1 -7 1.43 1.5
4 -1 7 2.49 1.88
4 -1 7 1.79 2.01
4 -1 7 0.88 1.39
-5 1 -7 16.45 2.56
5 -1 7 15.55 2.1
5 -1 7 19.21 2.95
5 0 -7 149.63 6.12
5 0 -7 153.04 6.78
-5 0 7 164.69 7.21
4 0 -7 225.57 7.88
4 0 -7 216.83 8.6
-4 0 7 226.29 8.09
-4 0 7 232.19 9.16
3 0 -7 131.81 5.33
-3 0 7 132.87 4.69
-3 0 7 135.8 5.73
-3 0 7 115.32 4.84
2 0 -7 241.97 8.47
-2 0 7 231.67 7.52
-2 0 7 237.3 8.94
1 0 -7 369.8 11.5
1 0 -7 381.88 12.79
-1 0 7 376.29 13.52
-1 0 7 394.24 24.59
-1 0 7 373.72 18.97
-1 0 7 383.77 11.54
0 0 -7 635.04 18.79
0 0 -7 645.29 18.51
0 0 -7 635.62 20.62
0 0 -7 625.85 18.71
0 0 7 623.88 18.51
0 0 7 632.27 30.61
0 0 7 619.23 18.72
0 0 7 624.69 21.82
-1 0 -7 56.42 2.72
-1 0 -7 61.88 3.42
-1 0 -7 56.76 2.57
-1 0 -7 67.02 3.74
1 0 7 66.47 5.26
1 0 7 53.65 3.73
1 0 7 54.58 3.39
1 0 7 60.52 2.47
1 0 7 55.31 2.37
-2 0 -7 167.82 7.02
2 0 7 162.2 8.18
2 0 7 183.17 11.98
2 0 7 175.3 5.71
2 0 7 171.12 5.79
-3 0 -7 34.91 2.59
3 0 7 27.7 3.7
3 0 7 36.83 3.03
3 0 7 35.02 2.2
-4 0 -7 87.1 4.68
4 0 7 84.52 5.36
4 0 7 82.98 3.84
-5 0 -7 3.27 1.58
-5 0 -7 2.63 1.75
5 0 7 3.7 2.11
5 0 7 5.26 1.66
5 -1 -7 46.53 3.21
5 -1 -7 42.1 3.39
-5 1 7 48.92 3.75
4 -1 -7 7.61 1.6
4 -1 -7 6.9 1.64
-4 1 7 8.21 1.9
-4 1 7 7.83 1.75
3 -1 -7 578.04 19.39
3 -1 -7 577.01 17.88
-3 1 7 582.56 20.35
-3 1 7 554.74 17.94
-3 1 7 565.73 17.43
2 -1 -7 263.78 9.26
-2 1 7 261.26 9.72
-2 1 7 260.19 8.29
1 -1 -7 47.99 2.27
-1 1 7 45.8 2.5
-1 1 7 47.35 2.06
0 -1 -7 172.23 5.93
0 -1 -7 175.46 5.39
0 -1 -7 166.52 7.84
0 -1 -7 169.07 5.34
0 1 7 167.37 5.38
0 1 7 172.52 5.5
0 1 7 178.5 11.75
0 1 7 166.72 6.4
-1 -1 -7 243.7 12.36
-1 -1 -7 249.4 9.46
-1 -1 -7 239.8 10.96
1 1 7 236.07 11
1 1 7 250.25 7.73
1 1 7 251.61 16.22
1 1 7 249.8 7.66
1 1 7 250.77 7.74
-2 -1 -7 512.17 19.95
2 1 7 574.86 33.96
2 1 7 534.49 16.28
2 1 7 550.27 16.09
2 1 7 511.64 23.31
-3 -1 -7 169.05 7.2
3 1 7 168.7 5.75
3 1 7 170.4 5.9
3 1 7 169.17 11.66
3 1 7 170.42 8.19
-4 -1 -7 328.89 13.34
-4 -1 -7 328.36 13.19
4 1 7 354.45 15.47
4 1 7 323.79 10.87
-5 -1 -7 101.56 5.67
-5 -1 -7 115.4 4.89
5 1 7 112.88 4.85
5 1 7 111.99 6.62
-5 2 7 0.64 1.91
4 -2 -7 11.75 1.82
4 -2 -7 11.32 1.88
-4 2 7 12.36 1.95
-4 2 7 13.64 1.92
3 -2 -7 -1.27 1.07
3 -2 -7 -0.2 1.14
-3 2 7 -0.1 1.09
-3 2 7 1.49 1.3
-3 2 7 1.06 1.1
2 -2 -7 48.69 2.31
2 -2 -7 53.1 2.67
-2 2 7 53.4 2.44
-2 2 7 57.28 2.91
-2 2 7 47.75 2.3
1 -2 -7 53.16 2.43
-1 2 7 50.8 2.23
-1 2 7 53.74 2.63
0 -2 -7 64.69 2.39
0 -2 -7 67.25 3.12
0 -2 -7 63.46 3.41
0 2 7 65.28 2.5
0 2 7 69.08 2.98
0 2 7 66.35 2.43
-1 -2 -7 623.44 18.99
-1 -2 -7 637.48 23.54
-1 -2 -7 652.46 30.82
-1 -2 -7 627.05 27.39
1 2 7 639.51 19.05
1 2 7 659.26 40.02
1 2 7 639.24 19.02
1 2 7 627.88 18.85
-2 -2 -7 423.05 16.43
2 2 7 455 27.61
2 2 7 429.59 13.3
2 2 7 431.72 13.15
-3 -2 -7 4.2 1.35
3 2 7 5 1.61
3 2 7 4.61 1.07
3 2 7 7.04 1.23
-4 -2 -7 51.76 3.72
4 2 7 53.42 3.72
4 2 7 55.89 3
4 2 7 55.98 2.79
-5 -2 -7 13.1 2.34
-5 -2 -7 15.86 2.19
-5 -2 -7 10.32 2.23
5 2 7 14.83 2.34
5 2 7 15.09 1.99
4 -3 -7 76.54 3.75
4 -3 -7 70.97 4.07
-4 3 7 74.53 3.99
-4 3 7 78.48 3.91
3 -3 -7 212.96 7.91
3 -3 -7 205.36 7.24
-3 3 7 207.39 8.14
-3 3 7 217.09 7.22
-3 3 7 201.67 7.28
2 -3 -7 165.94 5.99
2 -3 -7 179.73 5.91
2 -3 -7 171.85 6.41
-2 3 7 171.65 5.84
-2 3 7 173.59 6.69
-2 3 7 165.19 5.87
1 -3 -7 319.1 10.7
-1 3 7 309.6 9.78
-1 3 7 315.44 11.32
0 -3 -7 66.74 2.97
0 -3 -7 65.56 3.17
0 3 7 69.35 2.59
0 3 7 63.99 2.46
-1 -3 -7 532.56 19.74
1 3 7 516.31 15.74
1 3 7 535.34 15.91
1 3 7 531.84 15.81
-2 -3 -7 191.7 7.88
2 3 7 189.99 6.28
2 3 7 194.13 6.25
-3 -3 -7 24.76 2.31
3 3 7 20.78 1.62
3 3 7 23.57 1.75
-4 -3 -7 7.21 1.89
4 3 7 6.74 1.29
4 3 7 8.1 1.46
4 3 7 7.18 1.5
-5 -3 -7 24.53 2.96
-5 -3 -7 29.02 2.71
5 3 7 23.76 2.25
5 3 7 22.36 2.04
4 -4 -7 7.93 1.91
4 -4 -7 4.65 1.67
-4 4 7 5.91 1.5
-4 4 7 5.72 1.83
3 -4 -7 83.54 3.71
3 -4 -7 78.26 3.93
-3 4 7 81.61 3.74
-3 4 7 79.71 3.85
-3 4 7 78.77 3.67
2 -4 -7 90.44 3.56
2 -4 -7 86.57 3.82
-2 4 7 86.55 3.53
-2 4 7 87.42 3.9
-2 4 7 80.65 3.47
1 -4 -7 1.06 0.78
1 -4 -7 1.5 0.83
1 -4 -7 1.01 0.8
-1 4 7 1.16 0.86
-1 4 7 1.9 0.87
0 -4 -7 44.34 2.6
0 4 7 45.85 2.06
0 4 7 48.97 2
-1 -4 -7 338.78 12.83
1 4 7 327.32 10.22
1 4 7 331.22 10.16
-2 -4 -7 45.96 2.89
2 4 7 44.76 2.1
2 4 7 43.59 2.15
-3 -4 -7 128.87 6.29
3 4 7 139.79 5.01
3 4 7 144.48 4.93
-4 -4 -7 11.77 1.76
-4 -4 -7 11.5 2.22
4 4 7 10.1 1.59
4 4 7 11.61 1.59
4 4 7 14.05 1.59
-5 -4 -7 58.09 4.58
-5 -4 -7 66.06 3.93
5 4 7 62.13 3.49
5 4 7 61.35 3.15
4 -5 -7 77.14 4.35
4 -5 -7 77.07 4.21
-4 5 7 81.26 4.21
3 -5 -7 -0.27 1.4
3 -5 -7 1.96 1.37
-3 5 7 0.68 1.42
-3 5 7 1.3 1.11
-3 5 7 0.55 1.46
2 -5 -7 7.2 1.33
2 -5 -7 4.73 1.24
-2 5 7 6.57 1.35
-2 5 7 5.88 1.3
-2 5 7 5.51 1.17
1 -5 -7 68.36 3.09
1 -5 -7 66.12 2.91
1 -5 -7 69.37 2.99
1 -5 -7 67.62 3.52
-1 5 7 72.59 2.93
-1 5 7 66.62 2.91
-1 5 7 67.98 3.29
0 -5 -7 521.72 19.25
0 5 7 496.8 15.84
0 5 7 507.27 15.3
0 5 7 520.16 15.5
-1 -5 -7 561.13 17.66
-1 -5 -7 580.3 21.57
-1 -5 -7 582.88 17.71
1 5 7 584.43 17.14
1 5 7 560.31 17.23
-2 -5 -7 50.04 3.18
-2 -5 -7 45.21 2.43
-2 -5 -7 47.58 2.18
2 5 7 50.86 2.36
2 5 7 51.04 2.27
2 5 7 50.08 2.28
-3 -5 -7 108.09 5.61
-3 -5 -7 117.04 4.41
3 5 7 121.84 4.39
3 5 7 116.17 4.39
3 5 7 111.58 4.35
-4 -5 -7 3.99 1.57
-4 -5 -7 1.75 1.87
4 5 7 4.03 1.27
4 5 7 4.42 1.44
4 5 7 3.36 1.36
-5 -5 -7 -0.02 2.17
5 5 7 0.4 1.47
4 -6 -7 28.56 2.8
-4 6 7 24.45 2.74
3 -6 -7 7.91 1.84
3 -6 -7 9.69 1.79
-3 6 7 7.75 1.82
-3 6 7 5.32 1.81
2 -6 -7 6.63 1.5
2 -6 -7 8.8 1.64
2 -6 -7 6.99 1.42
-2 6 7 7.42 1.61
-2 6 7 10.33 1.63
-2 6 7 8.07 1.6
1 -6 -7 1.02 1.15
1 -6 -7 -0.26 1.05
-1 6 7 0.97 1.17
-1 6 7 0.83 1.07
-1 6 7 1.63 1.07
0 -6 -7 2.94 1.11
0 -6 -7 3.75 1.21
0 6 7 3.71 1.02
0 6 7 4.41 1.09
-1 -6 -7 834.69 30.3
-1 -6 -7 825.92 24.97
-1 -6 -7 814.06 24.94
1 6 7 819 24.23
1 6 7 787.74 24.91
1 6 7 800.8 24.06
-2 -6 -7 87.88 3.64
-2 -6 -7 85.68 4.64
2 6 7 87.83 3.36
2 6 7 85.81 3.45
2 6 7 85.71 3.45
-3 -6 -7 12.1 2.07
-3 -6 -7 11.64 1.69
3 6 7 11.56 1.54
3 6 7 15.25 1.58
-4 -6 -7 5.19 1.71
-4 -6 -7 2.53 2.03
4 6 7 4.73 1.46
4 6 7 4.83 1.37
4 6 7 5.98 1.57
-5 -6 -7 0.7 2.13
-5 -6 -7 0.65 1.7
5 6 7 0.11 1.27
5 6 7 2.03 1.6
3 -7 -7 70.71 4.01
3 -7 -7 70.98 4.04
3 -7 -7 73.96 4.28
-3 7 7 79.4 4.24
-3 7 7 75.9 4.04
-3 7 7 72.48 4.11
2 -7 -7 14.2 1.8
2 -7 -7 15.19 1.93
2 -7 -7 15.06 2.06
-2 7 7 14.16 2
-2 7 7 18.3 2.14
-2 7 7 14.76 1.91
1 -7 -7 1.72 1.07
1 -7 -7 2.04 1.33
1 -7 -7 1.4 1.33
-1 7 7 1.05 1.29
-1 7 7 2.95 1.46
-1 7 7 1.68 1.25
0 -7 -7 185.25 7.88
0 -7 -7 188.31 6.51
0 7 7 184.46 7.62
0 7 7 178.26 6.44
0 7 7 184.11 6.2
-1 -7 -7 74.68 4.16
-1 -7 -7 74.14 3.28
1 7 7 71.41 3.19
1 7 7 77.2 3.12
1 7 7 69.62 3
-2 -7 -7 82.01 3.55
-2 -7 -7 74.66 4.52
2 7 7 74.75 3.3
2 7 7 75.82 3.11
2 7 7 75.36 3.27
-3 -7 -7 -0.64 1.34
-3 -7 -7 2.51 1.79
3 7 7 -0.2 1.08
3 7 7 1.01 1.15
-4 -7 -7 8.11 2.45
-4 -7 -7 10.44 1.97
4 7 7 11.73 1.7
4 7 7 11.15 1.79
-5 -7 -7 49.04 3.54
-5 -7 -7 32.49 3.96
5 7 7 41.29 2.77
5 7 7 45.63 3.26
3 -8 -7 -0.79 1.64
3 -8 -7 0.22 2
-3 8 7 0.6 1.79
-3 8 7 -0.97 1.86
-3 8 7 0.03 1.82
2 -8 -7 47.96 3.26
-2 8 7 52.37 3.59
-2 8 7 46.7 3.28
-2 8 7 47.09 3.05
1 -8 -7 63.32 3.51
1 -8 -7 61.54 3.82
-1 8 7 64.04 3.42
-1 8 7 68.65 3.27
-1 8 7 67.7 3.91
0 -8 -7 516.95 16.28
0 -8 -7 509.2 19.57
0 8 7 509.53 19.12
0 8 7 504.24 15.62
0 8 7 509.43 16.25
-1 -8 -7 0.77 1.61
-1 -8 -7 2.88 1.4
1 8 7 0.45 0.99
1 8 7 1.98 1.25
-2 -8 -7 197.5 8.82
-2 -8 -7 193.09 7.06
2 8 7 188.99 6.45
2 8 7 195.57 6.87
2 8 7 201.21 6.74
-3 -8 -7 -0.37 1.45
-3 -8 -7 0.62 1.88
3 8 7 2.47 1.27
3 8 7 0.97 1.29
-4 -8 -7 6.7 2.03
-4 -8 -7 4.29 2.46
4 8 7 8.39 1.81
4 8 7 6.05 1.56
5 8 7 7.29 1.56
2 -9 -7 4.1 2.03
-2 9 7 0.83 1.53
-2 9 7 6.04 2.1
-2 9 7 2.96 1.89
1 -9 -7 3.16 1.62
1 -9 -7 3.81 1.7
-1 9 7 4.61 1.71
-1 9 7 6.33 1.51
-1 9 7 1.66 1.84
0 -9 -7 146.05 5.66
0 -9 -7 138.94 6.72
0 9 7 141.37 5.56
0 9 7 139.47 5.16
0 9 7 145.95 6.61
-1 -9 -7 14.81 2.36
-1 -9 -7 18.95 2.1
1 9 7 15.66 1.89
-2 -9 -7 117.74 6.35
-2 -9 -7 115.5 5.09
2 9 7 129.9 4.8
2 9 7 114.02 4.8
-3 -9 -7 13.8 2.73
-3 -9 -7 18 2.23
3 9 7 20.73 2.07
3 9 7 14.76 1.81
-4 -9 -7 33.43 3.98
-4 -9 -7 44.23 3.62
4 9 7 46.8 2.88
4 9 7 45.46 3.18
1 -10 -7 208.78 8.06
-1 10 7 215.08 7.53
-1 10 7 215.12 9.35
-1 10 7 216.63 8.01
0 -10 -7 3.96 1.96
0 -10 -7 2.86 1.69
0 10 7 0.58 1.2
0 10 7 3.13 1.57
0 10 7 3.36 1.98
-1 -10 -7 7.74 1.89
-1 -10 -7 6.78 2.22
1 10 7 8.83 1.83
-2 -10 -7 -0.63 1.67
-2 -10 -7 -0.23 2.03
2 10 7 0.58 1.44
2 10 7 -1.05 1.25
-3 -10 -7 24.41 2.72
-3 -10 -7 23.4 3.31
3 10 7 31.43 2.62
3 10 7 24.74 2.24
4 10 7 11.46 2.23
0 -11 -7 1.22 1.85
0 11 7 1.21 1.77
0 11 7 4.1 2.18
-1 -11 -7 0.66 1.84
-1 -11 -7 2.41 2.14
1 11 7 0.08 1.67
-2 -11 -7 6.62 2.15
-2 -11 -7 2.83 2.32
2 11 7 4.67 1.71
2 11 7 3.83 1.54
3 11 7 72.94 4.02
2 8 -8 2.36 1.77
-2 -8 8 0.48 2.82
-2 -8 8 3.67 1.85
1 8 -8 18.37 2.25
1 8 -8 20.16 2.34
-1 -8 8 18.85 4.08
-1 -8 8 12.97 4.62
0 8 -8 -1.87 1.64
0 -8 8 -0.36 3.54
0 -8 8 -1.33 2.14
0 -8 8 1.85 2.87
-1 8 -8 13.83 2.36
1 -8 8 14.61 3.65
1 -8 8 15.81 2.99
1 -8 8 14.61 5.37
3 7 -8 -0.84 1.46
-3 -7 8 0.35 1.97
-3 -7 8 1.41 2.73
-3 -7 8 -0.09 2.78
2 7 -8 18.16 2.21
-2 -7 8 18.55 2.29
-2 -7 8 13.79 4.01
-2 -7 8 18.29 3.81
1 7 -8 125.44 5.3
1 7 -8 117.82 5.06
-1 -7 8 115.62 5
-1 -7 8 95.27 8.1
-1 -7 8 91.3 10.26
0 7 -8 75.38 3.98
0 -7 8 65.8 8.65
0 -7 8 59.77 6.13
0 -7 8 71 5.21
-1 7 -8 12.39 2.06
1 -7 8 10.39 4.55
1 -7 8 11.46 3.12
1 -7 8 15.66 2.76
-2 7 -8 14.44 2.43
2 -7 8 8.87 4.9
2 -7 8 18.93 3.13
2 -7 8 12.97 3.19
3 6 -8 0.46 1.52
-3 -6 8 -3.61 1.81
-3 -6 8 -0.86 2.6
-3 -6 8 0.63 2.29
2 6 -8 64.39 3.42
-2 -6 8 52.93 5.53
-2 -6 8 68.28 3.82
-2 -6 8 47.21 6.49
1 6 -8 2.41 1.32
1 6 -8 2.41 1.39
-1 -6 8 -0.32 2.58
-1 -6 8 2.85 2.4
-1 -6 8 4.36 1.41
0 6 -8 65.07 3.66
0 -6 8 58.72 5.71
0 -6 8 82.39 5.22
0 -6 8 68.81 8.06
-1 6 -8 0.53 1.4
1 -6 8 1.93 2
1 -6 8 0.58 2.17
1 -6 8 0.78 3.23
-2 6 -8 24.95 2.6
2 -6 8 24.16 5.65
2 -6 8 30.55 3.53
2 -6 8 23.59 3.51
-3 6 -8 39.37 3.71
3 -6 8 19.74 5.68
3 -6 8 31.99 4.15
4 5 -8 2.29 1.37
4 5 -8 5.29 1.83
-4 -5 8 3.45 2.37
-4 -5 8 3.35 2.27
3 5 -8 1.56 1.46
-3 -5 8 1.05 2.35
-3 -5 8 0.92 1.89
-3 -5 8 -0.98 2.17
2 5 -8 178.26 6.88
-2 -5 8 173.17 10.52
-2 -5 8 184.94 7.34
-2 -5 8 159.49 13.22
1 5 -8 29.69 2.27
-1 -5 8 26.48 3.7
-1 -5 8 28.48 2.35
-1 -5 8 26.77 4.83
0 5 -8 151.62 6.09
0 -5 8 136.13 8.92
0 -5 8 154.92 7.87
0 -5 8 129.7 11.88
-1 5 -8 173.51 7.25
1 -5 8 156.28 10
1 -5 8 189.86 9.09
1 -5 8 163.42 14
-2 5 -8 232.94 9.22
2 -5 8 191.07 16.91
2 -5 8 248.94 11.39
2 -5 8 203.17 12.14
-3 5 -8 -2.32 1.45
3 -5 8 -0.49 2.26
3 -5 8 -1.83 3.47
3 -5 8 3.68 1.67
4 4 -8 11.4 2.06
4 4 -8 9.71 1.62
-4 -4 8 11.81 2.54
-4 -4 8 13.62 3.01
3 4 -8 84.71 4.23
-3 -4 8 88.67 7.79
-3 -4 8 83.13 4.78
-3 -4 8 82.96 6.35
2 4 -8 168.87 6.61
-2 -4 8 166.4 12.77
-2 -4 8 170.69 10
-2 -4 8 169.72 7.05
1 4 -8 24.13 2.01
-1 -4 8 22 3.12
-1 -4 8 19.27 3.86
-1 -4 8 26.46 2.14
0 4 -8 460.72 16.56
0 -4 8 461.23 15.85
0 -4 8 467.07 20.28
0 -4 8 461.1 22.86
0 -4 8 385.7 29.56
-1 4 -8 127.4 5.58
1 -4 8 128.33 7.78
1 -4 8 131.26 6.99
1 -4 8 114.88 10.57
-2 4 -8 0.25 1.33
2 -4 8 0.39 1.94
2 -4 8 4.01 3.23
2 -4 8 0.39 1.65
2 -4 8 0.41 1.38
-3 4 -8 103.65 5.33
3 -4 8 113.8 6.83
3 -4 8 112.79 4.69
3 -4 8 87.45 9.85
-4 4 -8 20.84 2.75
4 -4 8 30.95 3.89
4 -4 8 17 5
4 -4 8 32.57 2.64
4 3 -8 37.06 2.49
4 3 -8 37.95 3
-4 -3 8 36.59 4.16
-4 -3 8 40.89 3.75
3 3 -8 215.34 8.67
-3 -3 8 231.73 12.86
-3 -3 8 234.83 9.37
-3 -3 8 241.25 16.28
2 3 -8 97.12 4.27
-2 -3 8 95.15 8.02
-2 -3 8 100.14 6.48
-2 -3 8 89.74 4.6
1 3 -8 65.38 3.13
-1 -3 8 61.54 4.73
-1 -3 8 59.67 6.06
-1 -3 8 65.55 3.29
0 3 -8 0.39 0.73
0 -3 8 0.16 1.58
0 -3 8 -0.97 1.91
0 -3 8 0.13 1.39
0 -3 8 1.28 0.99
-1 3 -8 24.12 1.99
1 -3 8 24.91 2.87
1 -3 8 20.49 3.88
1 -3 8 23.66 2.85
-2 3 -8 2.24 1.24
2 -3 8 1.23 2.52
2 -3 8 2.73 1.56
2 -3 8 2.14 1.27
2 -3 8 2.12 1.93
-3 3 -8 35.76 2.93
3 -3 8 32.56 2.55
3 -3 8 37.09 4.01
3 -3 8 34.08 5.58
-4 3 -8 17.31 2.43
4 -3 8 21.14 2.21
4 -3 8 22.16 3.2
4 -3 8 10.53 3.97
4 2 -8 6.45 1.45
4 2 -8 4.73 1.64
-4 -2 8 7.47 2.15
-4 -2 8 3.81 1.23
3 2 -8 1.05 1.23
-3 -2 8 1.15 1.85
-3 -2 8 1.7 1.72
-3 -2 8 2.22 0.98
2 2 -8 23.61 2.02
-2 -2 8 17.86 2.77
-2 -2 8 21.91 3.59
-2 -2 8 28.95 2.41
1 2 -8 270.47 9.45
-1 -2 8 265.6 18.32
-1 -2 8 267.33 14.12
-1 -2 8 272.55 9.98
0 2 -8 28.15 1.77
0 2 -8 29.55 1.81
0 -2 8 28.66 1.98
0 -2 8 30.57 2.77
0 -2 8 20.4 3.59
0 -2 8 30.99 3.03
-1 2 -8 39.03 2.38
1 -2 8 34.74 3.07
1 -2 8 40.84 3.36
1 -2 8 40.15 2.28
1 -2 8 39.22 4.64
-2 2 -8 55.6 3.28
2 -2 8 53.32 4.17
2 -2 8 62.3 6.07
2 -2 8 59.14 2.92
-3 2 -8 94.49 4.86
3 -2 8 98.68 5.98
3 -2 8 89.56 4.05
3 -2 8 93.13 8.34
-4 2 -8 3.48 1.73
4 -2 8 5.48 2.26
4 -2 8 4.61 1.6
4 -2 8 3.44 2.77
4 1 -8 13.58 1.99
-4 -1 8 18.46 2.53
-4 -1 8 13.57 1.63
3 1 -8 72.3 3.63
-3 -1 8 69.11 4.09
-3 -1 8 68.77 3.01
2 1 -8 149.81 5.85
-2 -1 8 153.57 6.26
-2 -1 8 148.71 5.09
-2 -1 8 158.71 11.12
-2 -1 8 144.83 8.67
1 1 -8 212.8 7.52
-1 -1 8 210.04 7.96
-1 -1 8 202.06 11.24
-1 -1 8 206.13 6.66
-1 -1 8 218 14.52
0 1 -8 37.48 1.97
0 1 -8 38.39 2.05
0 -1 8 39.99 2.28
0 -1 8 34.43 3.18
0 -1 8 35.62 1.77
0 -1 8 38.56 2.83
0 -1 8 41.11 4.39
-1 1 -8 114.57 4.84
1 -1 8 103.52 5.79
1 -1 8 118.86 8.69
1 -1 8 109.34 6.41
1 -1 8 110.62 4.11
-2 1 -8 4.49 1.23
2 -1 8 8.26 1.27
2 -1 8 7.14 1.75
2 -1 8 4.91 2.28
-3 1 -8 18.69 2.18
3 -1 8 25.46 2.79
3 -1 8 19.63 1.94
3 -1 8 18.24 3.44
-4 1 -8 79.06 4.66
4 -1 8 91.07 5.68
4 -1 8 80.22 3.95
-5 1 -8 -1.05 1.79
5 -1 8 -0.03 2.12
5 -1 8 1.1 1.52
4 0 -8 -0.47 1.23
4 0 -8 1.19 1.3
-4 0 8 -1.78 1.2
-4 0 8 -1.03 1.71
3 0 -8 47.77 2.95
-3 0 8 51.31 3.41
-3 0 8 48.4 2.54
-3 0 8 45.34 2.67
2 0 -8 423.39 14.46
-2 0 8 427.3 12.96
-2 0 8 416.06 15.21
1 0 -8 10.53 1.17
-1 0 8 10.82 1.42
-1 0 8 8.86 2.19
-1 0 8 9.3 1.88
-1 0 8 10.87 1.06
0 0 -8 1.18 0.65
0 0 -8 0.99 0.61
0 0 8 0.92 0.62
0 0 8 1.47 1.49
0 0 8 -0.18 1.17
0 0 8 0.46 0.81
0 0 8 1.73 0.71
-1 0 -8 17.42 1.57
-1 0 -8 18.51 1.46
1 0 8 19.32 1.4
1 0 8 20.23 3.12
1 0 8 17.01 2.12
1 0 8 20.57 1.45
1 0 8 17.53 2.07
-2 0 -8 30.72 2.25
-2 0 -8 26.96 1.93
2 0 8 26.52 1.97
2 0 8 32.57 3.88
2 0 8 29.73 1.86
2 0 8 28.88 2.64
-3 0 -8 55.94 3.38
3 0 8 51.32 5.26
3 0 8 55.65 2.86
3 0 8 56.83 3.94
-4 0 -8 -0.7 1.39
4 0 8 0.21 1.95
4 0 8 1.01 1.37
4 0 8 -0.11 1.71
-5 0 -8 13.86 2.48
5 0 8 16.47 2.13
5 0 8 16.39 2.78
4 -1 -8 2.53 1.44
4 -1 -8 2.09 1.39
-4 1 8 3.02 1.69
-4 1 8 3.07 1.54
-4 1 8 1.97 1.45
3 -1 -8 424.35 14.94
3 -1 -8 434.27 13.69
-3 1 8 429.27 15.67
-3 1 8 431.59 13.43
2 -1 -8 135.82 5.37
-2 1 8 138.18 4.81
-2 1 8 137.12 5.7
1 -1 -8 28.29 1.76
-1 1 8 30.25 1.65
-1 1 8 28.54 2.07
0 -1 -8 53.35 2.35
0 1 8 55.26 4.98
0 1 8 57.36 2.73
0 1 8 53.49 2.22
0 1 8 61.07 2.34
-1 -1 -8 122.11 4.97
-1 -1 -8 113.91 5.79
1 1 8 116.54 4.1
1 1 8 119.3 8.61
1 1 8 115.31 4.07
1 1 8 120.1 4.08
1 1 8 112.17 5.74
-2 -1 -8 16.87 1.67
2 1 8 17.52 2.88
2 1 8 19.71 1.94
2 1 8 16.3 1.42
2 1 8 19.16 1.48
-3 -1 -8 221.51 9.41
-3 -1 -8 237.29 9.43
3 1 8 229.38 7.73
3 1 8 234.95 10.87
3 1 8 227.58 15.56
3 1 8 238.06 7.62
-4 -1 -8 234.89 9.69
-4 -1 -8 223.89 9.66
4 1 8 223.43 7.9
4 1 8 235.24 11.14
-5 -1 -8 39.96 3.54
5 1 8 42.92 4.15
5 1 8 41.57 3.06
4 -2 -8 24.06 2.48
4 -2 -8 33.69 2.52
-4 2 8 17.12 2.15
-4 2 8 27.26 2.37
-4 2 8 24.97 2.51
3 -2 -8 168.63 5.99
3 -2 -8 164.89 6.59
-3 2 8 166.73 5.96
-3 2 8 169.03 6.9
-3 2 8 162.88 6.02
2 -2 -8 2.66 1.04
-2 2 8 2.83 1.24
-2 2 8 2.34 1.02
1 -2 -8 200.37 7.26
-1 2 8 207.25 6.68
-1 2 8 208.2 7.78
0 -2 -8 22.79 1.85
0 -2 -8 24.92 1.79
0 2 8 26.05 1.47
0 2 8 25.96 1.75
0 2 8 26.27 1.41
-1 -2 -8 524.4 23.29
-1 -2 -8 543.09 20.08
1 2 8 540.29 34.13
1 2 8 537.4 16.09
1 2 8 543.34 16.25
1 2 8 544.7 16.21
-2 -2 -8 32.1 2.48
-2 -2 -8 35.16 2.35
2 2 8 32.61 3.59
2 2 8 33.36 1.91
2 2 8 34.79 1.89
-3 -2 -8 19.56 2.04
3 2 8 17.8 2.09
3 2 8 22.2 1.8
3 2 8 18.76 1.64
3 2 8 17.88 2.82
-4 -2 -8 10.95 1.96
4 2 8 9.92 1.81
4 2 8 13.35 1.72
4 2 8 13.83 1.65
-5 -2 -8 34.93 3.34
-5 -2 -8 27.52 3
5 2 8 29.8 3.38
5 2 8 30.33 2.55
4 -3 -8 136.22 5.35
4 -3 -8 125.19 5.83
-4 3 8 124.35 5.45
-4 3 8 135.98 5.96
3 -3 -8 113.76 4.49
3 -3 -8 110.05 4.86
-3 3 8 111.65 4.51
-3 3 8 111.27 5.05
-3 3 8 104.52 4.43
2 -3 -8 -0.33 0.9
-2 3 8 -0.03 0.95
-2 3 8 1 1.08
1 -3 -8 398.68 13.47
-1 3 8 401.09 14.3
-1 3 8 400.26 12.34
0 -3 -8 4.58 1.01
0 3 8 4.73 0.82
0 3 8 5.19 0.82
-1 -3 -8 203.5 8.2
1 3 8 203.04 6.54
1 3 8 205 6.46
1 3 8 203.69 6.59
-2 -3 -8 9.69 1.45
-2 -3 -8 11.74 1.61
2 3 8 14.4 1.29
2 3 8 9.5 1.18
-3 -3 -8 378.62 15.08
3 3 8 388.89 12.14
3 3 8 387.44 11.97
-4 -3 -8 26.08 2.69
4 3 8 29.19 2.27
4 3 8 27.01 2.07
-5 -3 -8 64.44 3.66
-5 -3 -8 64.38 4.25
-5 -3 -8 60.18 4.47
5 3 8 59.12 3.21
5 3 8 57.79 3.47
4 -4 -8 143.6 5.9
4 -4 -8 138.78 6.28
-4 4 8 142.17 5.98
-4 4 8 149.21 6.34
-4 4 8 150.69 5.98
3 -4 -8 7.83 1.67
3 -4 -8 11.91 1.81
-3 4 8 11.9 1.61
-3 4 8 8.63 1.73
-3 4 8 6.99 1.56
2 -4 -8 14.9 1.67
2 -4 -8 24.09 1.87
-2 4 8 24.22 1.93
-2 4 8 16.73 1.76
-2 4 8 16.94 1.62
1 -4 -8 18.44 1.55
-1 4 8 25.11 1.72
-1 4 8 19.35 1.71
0 -4 -8 -0.42 0.83
0 4 8 -0.42 0.66
0 4 8 -0.73 0.65
-1 -4 -8 100.03 4.62
1 4 8 97.98 3.62
1 4 8 102.22 3.64
-2 -4 -8 3.76 1.29
2 4 8 5.08 0.97
2 4 8 3.65 0.94
-3 -4 -8 209.47 9.08
3 4 8 216.88 7.13
3 4 8 213.95 7.18
-4 -4 -8 30.5 3.02
4 4 8 34.76 2.49
4 4 8 32.85 2.34
-5 -4 -8 40.44 3.1
-5 -4 -8 28.41 3.29
5 4 8 32.28 2.46
5 4 8 25.93 2.43
4 -5 -8 113.97 5.49
4 -5 -8 117.13 5.24
-4 5 8 112.59 5.22
3 -5 -8 50.59 3.06
3 -5 -8 42.72 2.98
-3 5 8 45.74 2.99
-3 5 8 46.21 3.03
-3 5 8 49.66 2.96
2 -5 -8 17.44 1.77
2 -5 -8 17.39 1.77
-2 5 8 14.84 1.62
-2 5 8 16.05 1.71
-2 5 8 16.96 1.79
1 -5 -8 0.81 0.84
1 -5 -8 2.01 1
1 -5 -8 2.33 1.08
1 -5 -8 0.64 0.89
-1 5 8 0.94 1.02
-1 5 8 1.52 0.72
0 -5 -8 36.05 2.54
0 5 8 40.13 1.89
0 5 8 35.17 1.97
-1 -5 -8 1.16 1.07
1 5 8 0.77 0.83
1 5 8 2.03 0.81
-2 -5 -8 840.64 32.36
2 5 8 888.32 25.95
2 5 8 878.77 25.95
2 5 8 870.43 25.75
-3 -5 -8 157.21 7.42
3 5 8 169.25 5.79
3 5 8 164.21 5.79
-4 -5 -8 19.04 2.6
-4 -5 -8 20.18 2.12
4 5 8 19.8 1.96
4 5 8 16.92 1.87
4 5 8 17.2 1.83
-5 -5 -8 0.52 1.98
5 5 8 2.83 1.51
5 5 8 2.45 1.4
3 -6 -8 62.29 3.53
3 -6 -8 60.37 3.59
-3 6 8 62.76 3.6
-3 6 8 64.62 3.55
-3 6 8 60.5 3.41
2 -6 -8 54.22 3.02
2 -6 -8 53.84 2.99
2 -6 -8 57.25 3.48
-2 6 8 51.76 2.96
-2 6 8 49.39 2.98
-2 6 8 54.11 3.16
1 -6 -8 0.52 1.15
1 -6 -8 -0.32 1.17
-1 6 8 -0.22 1.05
-1 6 8 1.95 1.13
0 -6 -8 26.84 1.91
0 -6 -8 25.75 2.32
0 -6 -8 22.15 1.61
0 6 8 23.11 1.79
0 6 8 22.76 1.8
0 6 8 23.96 1.63
-1 -6 -8 497.05 19.01
1 6 8 501.27 15.05
1 6 8 490.47 15.12
-2 -6 -8 328.53 11.12
-2 -6 -8 331.1 13.88
-2 -6 -8 362.44 11.37
2 6 8 356.23 10.95
2 6 8 360.56 10.9
2 6 8 355.78 10.95
-3 -6 -8 148.46 7.2
-3 -6 -8 160.16 5.83
3 6 8 147.42 5.56
3 6 8 153.48 5.54
3 6 8 156.76 5.56
-4 -6 -8 86.28 5.47
-4 -6 -8 99.98 4.45
4 6 8 88.26 3.96
4 6 8 93.78 4.13
4 6 8 92.6 4.15
-5 -6 -8 15.9 2.36
-5 -6 -8 16.49 2.99
5 6 8 15.43 1.87
5 6 8 13.99 2
3 -7 -8 -0.52 1.5
3 -7 -8 0.58 1.52
3 -7 -8 -1.34 1.76
-3 7 8 -1.4 1.69
-3 7 8 0.68 1.72
2 -7 -8 50.13 3.13
2 -7 -8 46.85 2.98
2 -7 -8 50.17 3.48
-2 7 8 52.44 3.36
-2 7 8 56.21 3.08
-2 7 8 49.67 3.14
1 -7 -8 24.01 2.35
1 -7 -8 29.08 2.3
-1 7 8 30.04 2.51
-1 7 8 26.79 2.2
-1 7 8 28.56 2.21
0 -7 -8 31.19 2.76
0 -7 -8 30.3 2.21
0 7 8 28.92 2.15
0 7 8 31.57 2.15
-1 -7 -8 81.11 4.48
-1 -7 -8 73.97 3.45
1 7 8 83.44 3.34
1 7 8 79.5 3.4
1 7 8 81.82 3.3
-2 -7 -8 191.77 8.64
-2 -7 -8 198.83 6.93
2 7 8 198.12 6.66
2 7 8 196.02 6.52
2 7 8 185.85 6.7
-3 -7 -8 -0.27 1.41
-3 -7 -8 -0.05 1.59
3 7 8 0.07 1.04
3 7 8 -0.41 1.16
3 7 8 -0.36 1.12
-4 -7 -8 52.97 3.41
-4 -7 -8 38.91 3.88
4 7 8 40.14 2.91
4 7 8 48.46 2.88
4 7 8 50.9 2.96
-5 -7 -8 2.64 2.49
-5 -7 -8 1.91 1.86
5 7 8 0.73 1.57
5 7 8 3.25 1.48
2 -8 -8 8.41 1.89
2 -8 -8 10.55 1.9
2 -8 -8 9.94 1.79
-2 8 8 14.34 2.17
-2 8 8 12.11 1.85
-2 8 8 9.7 2
1 -8 -8 -2 1.41
1 -8 -8 0.71 1.48
-1 8 8 0.7 1.37
-1 8 8 -0.7 1.5
-1 8 8 -0.23 1.42
0 -8 -8 373.09 14.34
0 -8 -8 349.22 11.78
0 8 8 359.14 11.79
0 8 8 355.43 11.37
-1 -8 -8 295.15 11.91
-1 -8 -8 285.38 9.65
1 8 8 283.56 9.2
1 8 8 281.43 9.57
1 8 8 287.37 9.27
-2 -8 -8 -1.07 1.77
-2 -8 -8 0.27 1.39
2 8 8 1.14 1.04
2 8 8 -0.28 1.14
2 8 8 0.05 1.11
-3 -8 -8 97.13 4.32
-3 -8 -8 84.68 5.43
3 8 8 95.58 4.03
3 8 8 89.49 3.99
-4 -8 -8 2.61 2.18
-4 -8 -8 2.55 1.77
4 8 8 5.02 1.53
4 8 8 6.13 1.67
4 8 8 6.13 1.55
2 -9 -8 9.11 2.17
-2 9 8 8.5 1.92
-2 9 8 9.46 2.2
-2 9 8 10.45 2.29
1 -9 -8 3.16 1.75
1 -9 -8 1.83 1.75
-1 9 8 3.86 1.88
-1 9 8 6.8 1.63
-1 9 8 5.3 1.72
0 -9 -8 1.2 1.67
0 -9 -8 0.32 1.5
0 9 8 -0.27 1.34
0 9 8 -0.75 1.17
-1 -9 -8 26.27 2.32
-1 -9 -8 22.64 2.77
1 9 8 28.38 2.05
1 9 8 20.44 1.86
1 9 8 23.83 2.22
-2 -9 -8 46.22 3.13
-2 -9 -8 43.6 4.04
2 9 8 48.43 2.86
2 9 8 45.98 2.52
2 9 8 50.95 2.94
-3 -9 -8 186.33 7.2
-3 -9 -8 182.72 9.06
3 9 8 189.47 6.93
3 9 8 193.75 6.8
-4 -9 -8 13.21 2.36
-4 -9 -8 10.52 2.92
4 9 8 14.59 1.88
1 -10 -8 85.03 4.56
-1 10 8 88.03 5.22
-1 10 8 95.34 4.6
-1 10 8 93.37 4.29
0 -10 -8 78.94 4.13
0 -10 -8 80.64 4.96
0 10 8 80.25 3.99
0 10 8 76.37 3.61
0 10 8 84.03 4.79
-1 -10 -8 29.33 3.26
-1 -10 -8 27.83 2.6
1 10 8 30.7 2.22
1 10 8 30.22 2.59
-2 -10 -8 -1.41 1.97
-2 -10 -8 -1.42 1.71
2 10 8 -0.09 1.45
2 10 8 -1.11 1.28
-3 -10 -8 14.77 2.39
-3 -10 -8 17.57 3.09
3 10 8 21.55 2.31
3 10 8 15.75 2.01
0 -11 -8 -0.35 2.13
0 11 8 1.83 1.8
0 11 8 1.44 2.04
-1 -11 -8 2.27 1.84
-1 -11 -8 3.8 2.26
1 11 8 3.26 1.87
-2 -11 -8 33.41 3.86
2 11 8 50.45 3.23
2 7 -9 16.18 2.14
-2 -7 9 15.61 2.26
-2 -7 9 12.32 3.48
-2 -7 9 10.57 3.88
1 7 -9 17.14 2.16
-1 -7 9 12.78 4.27
-1 -7 9 13.12 3.5
0 7 -9 -0.48 1.47
0 -7 9 5.02 2.35
0 -7 9 0.63 3.45
0 -7 9 0.26 2.57
-1 7 -9 7.06 1.91
1 -7 9 10.13 2.66
1 -7 9 4.64 4.18
1 -7 9 8.14 3.1
3 6 -9 0.59 1.55
-3 -6 9 -0.49 1.98
-3 -6 9 0.64 2.49
-3 -6 9 -0.76 2.62
2 6 -9 11.16 1.92
-2 -6 9 4.79 2.81
-2 -6 9 8.79 1.97
-2 -6 9 5.63 3.43
1 6 -9 33.29 2.59
-1 -6 9 35.05 2.7
-1 -6 9 24.46 3.99
-1 -6 9 20.39 4.83
0 6 -9 63.7 3.51
0 -6 9 47.24 7.25
0 -6 9 69.01 4.97
0 -6 9 57.11 5.67
-1 6 -9 1.29 1.45
1 -6 9 0.95 2.05
1 -6 9 3.76 2.49
1 -6 9 1.81 3.37
-2 6 -9 12.66 2.16
2 -6 9 13.17 2.8
2 -6 9 14.03 3.08
2 -6 9 12.71 4.96
3 5 -9 -1.08 1.4
-3 -5 9 1.94 2
-3 -5 9 1.77 2.42
2 5 -9 2.56 1.47
-2 -5 9 0.78 2.63
-2 -5 9 2.6 1.72
-2 -5 9 3.38 2.49
1 5 -9 -1.29 1.16
-1 -5 9 2.03 1.41
-1 -5 9 -0.41 2.42
-1 -5 9 2.97 2.28
0 5 -9 2.21 1.12
0 -5 9 1.89 1.96
0 -5 9 1.19 2.77
0 -5 9 1.8 2.19
-1 5 -9 94.47 4.59
1 -5 9 105.84 6.09
1 -5 9 82.06 6.46
1 -5 9 81.39 9.21
-2 5 -9 5.1 1.71
2 -5 9 2.98 2.28
2 -5 9 4.28 3.81
2 -5 9 3.53 2.17
-3 5 -9 2.81 1.78
3 -5 9 2.71 3.86
3 -5 9 4.7 2.69
4 4 -9 8.36 1.93
-4 -4 9 7.71 2.7
-4 -4 9 10.7 2.56
3 4 -9 5.74 1.61
-3 -4 9 4.58 2.02
-3 -4 9 3.94 2.61
-3 -4 9 3.44 2.4
2 4 -9 28.76 2.44
-2 -4 9 23.63 2.54
-2 -4 9 24.79 3.67
-2 -4 9 18.53 4.12
1 4 -9 15 1.74
-1 -4 9 7.29 3.07
-1 -4 9 14.55 1.85
-1 -4 9 10.02 2.53
0 4 -9 35.6 2.26
0 -4 9 27.73 5.07
0 -4 9 38.99 3.63
0 -4 9 35.81 2.42
0 -4 9 35.79 3.94
-1 4 -9 71.83 3.69
1 -4 9 66.71 5.21
1 -4 9 56.25 7.23
1 -4 9 68.63 4.85
-2 4 -9 30.84 2.78
2 -4 9 28.73 3.57
2 -4 9 22.75 4.9
2 -4 9 37.93 3.72
-3 4 -9 -0.97 1.48
3 -4 9 1.72 2.46
3 -4 9 0.01 3.25
3 -4 9 -0.92 1.51
4 3 -9 39.24 3.18
-4 -3 9 41.76 3.83
3 3 -9 0.84 1.34
-3 -3 9 0.77 1.75
-3 -3 9 -0.85 1.95
-3 -3 9 -1.67 1.97
2 3 -9 6.5 1.51
-2 -3 9 6.66 2.66
-2 -3 9 6.19 1.77
-2 -3 9 6.57 2.38
1 3 -9 107.69 4.46
-1 -3 9 104.68 4.64
-1 -3 9 102.48 6.72
-1 -3 9 93.51 8.62
0 3 -9 45.6 2.56
0 3 -9 47.85 2.6
0 -3 9 49.36 4.28
0 -3 9 50.54 3.86
0 -3 9 53.11 2.79
0 -3 9 39.82 5.38
-1 3 -9 85.25 4.08
1 -3 9 89.84 5.78
1 -3 9 69.29 7.59
1 -3 9 87.58 5.33
-2 3 -9 68.26 3.75
2 -3 9 62.16 4.65
2 -3 9 56.21 6.78
2 -3 9 60.23 4.68
2 -3 9 64.69 3.35
-3 3 -9 2.95 1.59
3 -3 9 2.39 2.26
3 -3 9 3.68 1.6
3 -3 9 2.77 3.02
-4 3 -9 37.49 3.48
4 -3 9 43.91 3.12
4 -3 9 48.67 4.98
4 -3 9 29.96 5.47
4 2 -9 17.12 2.32
-4 -2 9 15.06 1.67
-4 -2 9 21.51 2.78
3 2 -9 217.29 8.46
-3 -2 9 220.74 12.44
-3 -2 9 224.98 9.09
2 2 -9 40.03 2.57
-2 -2 9 39.37 2.95
-2 -2 9 38.42 3.97
-2 -2 9 33.89 4.67
1 2 -9 21.82 1.87
-1 -2 9 18.95 1.43
-1 -2 9 23.52 2.13
-1 -2 9 22.25 2.94
-1 -2 9 24.3 3.98
0 2 -9 18.81 1.6
0 2 -9 22.18 1.71
0 -2 9 23.88 2.86
0 -2 9 22.17 2.4
0 -2 9 22.09 1.97
0 -2 9 18.53 3.68
-1 2 -9 1.08 0.91
1 -2 9 -0.35 1.54
1 -2 9 0.04 1.45
1 -2 9 -0.13 2.03
-2 2 -9 22.09 2.23
2 -2 9 25.59 2.02
2 -2 9 17.74 3.69
2 -2 9 25.69 2.83
2 -2 9 24.42 2.8
-3 2 -9 12.8 2.12
3 -2 9 10.01 3.34
3 -2 9 13.02 2.58
3 -2 9 19.58 2.04
-4 2 -9 13.28 2.28
4 -2 9 18.72 2.17
4 -2 9 7.74 3.29
4 -2 9 18.1 3.03
4 1 -9 16.89 2.23
-4 -1 9 19.73 1.87
-4 -1 9 21.77 2.76
3 1 -9 157.63 6.39
-3 -1 9 154.85 6.85
-3 -1 9 152.05 5.43
2 1 -9 29.65 2.23
-2 -1 9 30.7 4.06
-2 -1 9 26.93 1.79
-2 -1 9 29.37 3.45
-2 -1 9 34.59 2.63
1 1 -9 188.69 6.76
-1 -1 9 187.21 13.11
-1 -1 9 177.35 7.16
-1 -1 9 178.29 10.11
-1 -1 9 178.78 5.95
0 1 -9 90.24 3.69
0 1 -9 92.13 3.96
0 -1 9 89.41 3.37
0 -1 9 95.83 4.08
0 -1 9 88.39 5.78
0 -1 9 88.69 7.58
-1 1 -9 1.55 0.87
1 -1 9 1.01 1.43
1 -1 9 0.03 1.9
1 -1 9 2.96 1.46
1 -1 9 0.81 0.95
-2 1 -9 248.62 9.87
2 -1 9 233.6 11.6
2 -1 9 255.73 17.12
2 -1 9 245.36 8.19
-3 1 -9 336.68 12.95
3 -1 9 332.4 15.31
3 -1 9 325 10.68
3 -1 9 308.37 21.94
-4 1 -9 3.62 1.69
4 -1 9 0.05 2.28
4 -1 9 3.43 2.23
4 -1 9 0.54 1.49
5 -1 9 19.07 3.16
4 0 -9 37.63 2.51
4 0 -9 34.29 2.9
-4 0 9 40.29 2.7
-4 0 9 40.53 3.46
3 0 -9 43.15 2.9
-3 0 9 42.18 2.47
-3 0 9 40.85 3.26
2 0 -9 108.3 4.58
-2 0 9 105.63 4
-2 0 9 107.98 4.92
1 0 -9 668.78 21.94
-1 0 9 655.57 42.1
-1 0 9 667.05 19.82
-1 0 9 653.7 23.16
0 0 -9 265.57 9.13
0 0 9 275.1 17.91
0 0 9 265.2 9.77
0 0 9 248.34 8.19
0 0 9 265.36 8.34
0 0 9 268.39 13.8
-1 0 -9 106.38 4.67
-1 0 -9 104.75 4.58
1 0 9 111.36 8.4
1 0 9 106.19 3.88
1 0 9 107.76 3.93
1 0 9 104.52 6.28
1 0 9 101.53 5.53
-2 0 -9 0.75 1.02
-2 0 -9 0.96 0.83
2 0 9 1.56 1.05
2 0 9 0.99 1.99
2 0 9 1.63 1.34
-3 0 -9 -0.03 1.22
3 0 9 0.96 1.21
3 0 9 0.11 1.52
3 0 9 1.2 2.09
-4 0 -9 0.45 1.59
4 0 9 1.12 2.25
4 0 9 0.86 1.96
4 0 9 0.26 1.4
-5 0 -9 44.86 3.93
5 0 9 50.29 4.65
5 0 9 49.85 3.39
4 -1 -9 17.66 2.24
4 -1 -9 22.3 2.14
-4 1 9 23.68 2.59
-4 1 9 17.51 2.07
3 -1 -9 208.97 7.88
-3 1 9 198.67 8.29
-3 1 9 203.53 7.02
2 -1 -9 33.54 2.27
-2 1 9 33.15 2.64
-2 1 9 30.61 2.05
1 -1 -9 94.62 3.89
-1 1 9 92.56 4.21
-1 1 9 98.85 3.58
0 -1 -9 79.81 3.3
0 1 9 80.74 3.07
0 1 9 88.28 3.18
0 1 9 86.75 3.76
0 1 9 83.68 6.86
-1 -1 -9 91.72 4.2
1 1 9 92.89 3.48
1 1 9 92.69 3.45
1 1 9 91.16 3.49
1 1 9 96.77 7.42
1 1 9 91.54 4.86
-2 -1 -9 185.61 7.58
2 1 9 191.45 12.97
2 1 9 195.25 6.26
2 1 9 173.92 8.7
2 1 9 181.12 6.27
-3 -1 -9 27.52 2.54
-3 -1 -9 22.06 2.19
3 1 9 19.04 3.25
3 1 9 22.2 1.87
3 1 9 24.15 2.49
3 1 9 21.46 1.86
-4 -1 -9 129.63 6.4
-4 -1 -9 140.45 6.39
4 1 9 135.73 7.31
4 1 9 125.29 5.23
-5 -1 -9 7.92 2.25
5 1 9 12.27 1.97
5 1 9 11.64 2.43
4 -2 -9 70.04 3.57
4 -2 -9 66.08 3.91
-4 2 9 72.14 3.76
-4 2 9 72.46 4.19
3 -2 -9 1.54 1.25
-3 2 9 2.28 1.59
-3 2 9 1.88 1.26
2 -2 -9 228.41 8.35
-2 2 9 227.45 7.54
-2 2 9 228.79 8.82
1 -2 -9 24.73 1.72
-1 2 9 21.4 1.62
-1 2 9 23.94 2.03
0 -2 -9 143.89 6.21
0 2 9 160.24 5.08
0 2 9 149.57 5.89
0 2 9 139.56 4.87
-1 -2 -9 11.03 1.41
1 2 9 13 1.19
1 2 9 10.8 1.14
1 2 9 10.81 1.16
1 2 9 9.9 2.25
-2 -2 -9 36.92 2.53
2 2 9 36.68 4.04
2 2 9 42.63 2.14
2 2 9 40.39 2.12
2 2 9 34.62 2.56
-3 -2 -9 99.58 4.98
3 2 9 100.5 4.01
3 2 9 98.95 5.28
3 2 9 101.24 7.76
3 2 9 104.78 4.09
-4 -2 -9 117.56 5.99
-4 -2 -9 120.01 6.02
4 2 9 121.08 4.79
4 2 9 124.31 4.96
4 2 9 124.56 6.51
-5 -2 -9 55.68 4.26
-5 -2 -9 62.79 4.29
5 2 9 55.83 3.41
4 -3 -9 2.88 1.74
4 -3 -9 2.45 1.55
-4 3 9 4.23 1.8
-4 3 9 4.92 1.71
3 -3 -9 18.02 1.96
3 -3 -9 17.11 2.01
-3 3 9 14.3 1.7
-3 3 9 20.68 2.05
-3 3 9 18.11 2.1
2 -3 -9 327.34 11.48
-2 3 9 324.8 10.45
-2 3 9 329.22 12.11
1 -3 -9 87.15 3.58
-1 3 9 85.79 3.95
-1 3 9 83.29 3.36
0 -3 -9 0.32 0.77
0 3 9 0.46 0.64
0 3 9 0.08 0.65
-1 -3 -9 106.42 4.69
1 3 9 105.02 3.77
1 3 9 98.77 3.71
1 3 9 98.12 3.58
-2 -3 -9 28.88 2.43
2 3 9 31.63 1.93
2 3 9 31.61 1.87
-3 -3 -9 17.83 2.12
3 3 9 19.55 1.75
3 3 9 17.26 1.65
-4 -3 -9 38.64 3.31
4 3 9 36.31 2.55
4 3 9 33.57 2.56
-5 -3 -9 1.21 1.88
-5 -3 -9 -0.06 1.84
5 3 9 1.25 1.43
5 3 9 1.82 1.58
4 -4 -9 21.93 2.38
4 -4 -9 16.03 2.24
-4 4 9 16.8 2.35
-4 4 9 17.57 2.13
3 -4 -9 63.24 3.36
3 -4 -9 62.16 3.52
-3 4 9 64.84 3.6
-3 4 9 59.66 3.26
-3 4 9 57.41 3.3
2 -4 -9 1.9 1.11
2 -4 -9 2.45 1.19
-2 4 9 1.39 1.2
-2 4 9 1.89 1.21
-2 4 9 0.71 1.05
1 -4 -9 22.56 1.71
-1 4 9 23.4 1.99
-1 4 9 23.4 1.81
0 -4 -9 70.14 3.65
0 4 9 71.45 2.79
0 4 9 69.65 2.89
-1 -4 -9 90.47 4.38
1 4 9 92.64 3.47
1 4 9 88.85 3.44
-2 -4 -9 9.34 1.62
2 4 9 8.43 1.22
2 4 9 8.26 1.17
-3 -4 -9 195.78 8.7
3 4 9 202.49 6.88
3 4 9 202.86 6.85
-4 -4 -9 351.1 14.68
4 4 9 365.81 11.79
4 4 9 367.72 11.58
-5 -4 -9 5.59 1.87
-5 -4 -9 3.1 2.17
5 4 9 5.11 1.72
5 4 9 5.68 1.55
3 -5 -9 119.09 5.01
3 -5 -9 119.19 5.3
-3 5 9 115.75 4.97
-3 5 9 114.36 5.34
-3 5 9 128.04 5.05
2 -5 -9 32.97 2.39
2 -5 -9 32.47 2.39
-2 5 9 36.96 2.56
-2 5 9 32.56 2.41
-2 5 9 32.5 2.3
1 -5 -9 2.29 1.24
1 -5 -9 0.95 0.93
-1 5 9 2.49 1.12
0 -5 -9 29.6 2.45
0 5 9 27.7 1.76
0 5 9 31.87 1.89
-1 -5 -9 207.42 8.62
1 5 9 206.43 6.82
1 5 9 206.28 6.79
-2 -5 -9 48.17 3.26
2 5 9 46.77 2.33
2 5 9 48.08 2.46
2 5 9 48.19 2.5
-3 -5 -9 198.87 9
3 5 9 205.9 7.03
3 5 9 213.35 7.08
-4 -5 -9 55.93 4.22
4 5 9 63.89 3.21
4 5 9 59.51 3.26
-5 -5 -9 0.63 2.01
5 5 9 -3.19 1.4
5 5 9 -1.85 1.27
3 -6 -9 11.3 1.98
3 -6 -9 11.74 1.97
-3 6 9 12.58 2.07
-3 6 9 11.87 1.77
-3 6 9 13.03 2.01
2 -6 -9 13.4 1.96
2 -6 -9 12.23 1.71
2 -6 -9 14.92 1.86
-2 6 9 14.48 1.9
-2 6 9 13.27 1.85
1 -6 -9 0.22 1.31
1 -6 -9 0.24 1.18
-1 6 9 1.21 1.23
-1 6 9 1.69 0.82
0 -6 -9 211.49 8.88
0 6 9 210.67 6.93
0 6 9 215.07 7.13
-1 -6 -9 85.37 4.53
1 6 9 85.91 3.45
1 6 9 82.48 3.4
-2 -6 -9 10.67 1.89
2 6 9 15.58 1.34
2 6 9 12.48 1.46
2 6 9 15.59 1.53
-3 -6 -9 178.73 8.5
3 6 9 193.4 6.64
3 6 9 190.92 6.54
-4 -6 -9 10.01 2.33
-4 -6 -9 17.32 2.13
4 6 9 18.32 1.95
4 6 9 13.26 1.76
-5 -6 -9 2.85 2.27
5 6 9 2.24 1.58
5 6 9 2.33 1.41
3 -7 -9 -1.21 1.56
3 -7 -9 -0.04 1.71
3 -7 -9 -0.41 1.79
-3 7 9 0.64 1.73
2 -7 -9 108.58 5.39
2 -7 -9 98.38 4.52
2 -7 -9 105.81 4.71
-2 7 9 105.29 5.06
-2 7 9 104.26 4.62
-2 7 9 102.83 4.49
1 -7 -9 9.81 1.82
1 -7 -9 9.67 1.69
-1 7 9 10.56 1.59
-1 7 9 8.06 1.2
-1 7 9 11.79 1.73
0 -7 -9 241.3 8.26
0 -7 -9 246.93 10.16
0 7 9 239.79 8.06
0 7 9 237.14 8.2
0 7 9 251.7 7.96
-1 -7 -9 -0.21 1.49
-1 -7 -9 0.54 1.2
1 7 9 1.42 1.09
1 7 9 -0.89 0.92
1 7 9 0.14 1.02
-2 -7 -9 239.21 10.41
2 7 9 242.59 8.02
2 7 9 249.31 8.1
2 7 9 240.75 8.16
-3 -7 -9 -0.85 1.55
-3 -7 -9 -1.25 1.41
3 7 9 -0.76 1.26
3 7 9 -0.2 1.07
3 7 9 1.07 1.14
-4 -7 -9 15.4 2.12
-4 -7 -9 13.56 2.65
4 7 9 12.63 1.75
4 7 9 15.13 1.87
-5 -7 -9 4.45 2.65
5 7 9 8.28 1.87
5 7 9 6.47 1.66
2 -8 -9 28.21 2.51
2 -8 -9 27.48 2.6
2 -8 -9 27.6 2.75
-2 8 9 35.05 3.12
-2 8 9 31.02 2.59
-2 8 9 30.61 2.7
1 -8 -9 26.99 2.68
1 -8 -9 25.29 2.29
-1 8 9 24.87 2.33
-1 8 9 31.4 2.4
0 -8 -9 12.48 1.83
0 -8 -9 10.65 2.1
0 8 9 7.67 1.51
0 8 9 8.98 1.34
0 8 9 10.79 1.64
-1 -8 -9 98.7 4.3
-1 -8 -9 102.85 5.5
1 8 9 103.57 4.12
1 8 9 100.51 4.03
1 8 9 97 4.13
-2 -8 -9 212.73 7.33
-2 -8 -9 203.84 9.2
2 8 9 206.36 7.02
2 8 9 193.17 7.04
2 8 9 191.4 6.8
-3 -8 -9 -0.55 1.52
-3 -8 -9 0.99 1.96
3 8 9 -0.83 1.33
3 8 9 1.8 1.25
3 8 9 0.59 1.13
-4 -8 -9 31.93 3.58
-4 -8 -9 35.78 3.11
4 8 9 40.08 2.85
4 8 9 41.03 2.87
2 -9 -9 3.41 1.96
-2 9 9 4.78 2.15
-2 9 9 4.02 2.02
1 -9 -9 18.05 2.23
1 -9 -9 19.74 2.58
-1 9 9 21.37 2.32
-1 9 9 29.9 2.41
-1 9 9 24.86 2.66
0 -9 -9 18.23 2.05
0 -9 -9 16.92 2.44
0 9 9 17.12 2.01
0 9 9 18.2 1.84
-1 -9 -9 117.51 4.89
-1 -9 -9 119.62 6.21
1 9 9 112.53 4.75
1 9 9 113.95 4.48
1 9 9 114.3 4.59
-2 -9 -9 17.8 2.14
-2 -9 -9 18.16 2.92
2 9 9 17.13 1.65
2 9 9 16 1.84
2 9 9 16.74 1.93
-3 -9 -9 0.08 1.58
-3 -9 -9 0.79 2.01
3 9 9 1.67 1.43
3 9 9 0.32 1.2
-4 -9 -9 3.57 2.5
-4 -9 -9 2.4 2.03
4 9 9 1.53 1.43
4 9 9 0.75 1.52
1 -10 -9 25.38 2.9
-1 10 9 33.69 2.88
-1 10 9 32.34 3.23
-1 10 9 37.81 2.9
0 -10 -9 27.62 3.13
0 -10 -9 36.2 2.93
0 10 9 32.03 2.48
0 10 9 31.42 2.67
-1 -10 -9 7.34 2.39
-1 -10 -9 7.32 1.87
1 10 9 7.37 1.45
1 10 9 6.77 1.52
1 10 9 8.88 1.87
-2 -10 -9 27.55 3.29
-2 -10 -9 24.95 2.54
2 10 9 22.64 2.28
2 10 9 28.37 2.23
2 10 9 20.88 2.1
-3 -10 -9 49.82 4.81
-3 -10 -9 48.75 3.54
3 10 9 55.19 3.28
-1 -11 -9 25.94 3.44
1 11 9 31.05 2.9
-2 -11 -9 29.57 3.59
1 7 -10 85.38 4.35
-1 -7 10 63.27 8.55
-1 -7 10 77.36 7.11
0 7 -10 20.85 2.31
0 -7 10 24.89 4.38
0 -7 10 14.63 4.85
0 -7 10 29.81 3.58
2 6 -10 40.18 3.05
-2 -6 10 25.71 5.49
-2 -6 10 43.41 3.31
-2 -6 10 27.89 4.33
1 6 -10 57 3.5
-1 -6 10 55.48 5.8
-1 -6 10 63.76 3.61
-1 -6 10 43.14 6.84
0 6 -10 14.66 1.93
0 6 -10 17.67 1.99
0 -6 10 16.46 3.57
0 -6 10 22.71 3.28
0 -6 10 10.69 4.22
-1 6 -10 12.68 1.92
1 -6 10 12.35 3.18
1 -6 10 11.15 4.43
1 -6 10 15.61 2.88
-2 6 -10 19.1 2.49
2 -6 10 19.55 5.79
2 -6 10 23.19 3.7
2 -6 10 21.91 3.65
3 5 -10 1.78 1.61
-3 -5 10 1.98 2.1
-3 -5 10 1.73 2.46
-3 -5 10 0.88 2.65
2 5 -10 3.26 1.58
-2 -5 10 0.24 2.81
-2 -5 10 4.58 2.64
-2 -5 10 3.83 1.74
1 5 -10 47.51 3
-1 -5 10 41.83 4.88
-1 -5 10 28.74 5.52
-1 -5 10 51.86 3.2
0 5 -10 -0.17 1.26
0 5 -10 1.41 1.13
0 -5 10 0.21 2.71
0 -5 10 0.5 1.3
0 -5 10 2.45 2.08
0 -5 10 2.25 2.37
-1 5 -10 12.26 1.84
1 -5 10 16.25 2.8
1 -5 10 11.96 2.86
1 -5 10 8.95 3.84
-2 5 -10 11.49 1.99
2 -5 10 7.33 4.1
2 -5 10 11.16 2.72
2 -5 10 13.63 2.96
3 4 -10 9.27 1.87
-3 -4 10 8.46 2.85
-3 -4 10 3.69 2.89
-3 -4 10 9.68 2.24
2 4 -10 -0.65 1.2
-2 -4 10 0.59 2.24
-2 -4 10 -0.28 2.43
-2 -4 10 1.12 1.64
1 4 -10 78.11 3.77
-1 -4 10 77.81 3.88
-1 -4 10 69.49 5.71
-1 -4 10 52.74 6.9
0 4 -10 43.97 2.6
0 4 -10 42.47 2.69
0 -4 10 41.06 4.46
0 -4 10 42.86 2.76
0 -4 10 35.11 5.63
0 -4 10 46.07 4.04
-1 4 -10 0.59 1.2
1 -4 10 2.55 2.09
1 -4 10 0.13 2.76
1 -4 10 1.55 1.98
-2 4 -10 43.94 3.33
2 -4 10 50.18 4.66
2 -4 10 48.23 4.45
-3 4 -10 -2.4 1.53
3 -4 10 2.26 3.35
3 -4 10 1.9 1.74
3 -4 10 0.24 2.48
3 3 -10 3.03 1.5
-3 -3 10 2.26 2.55
-3 -3 10 0.87 2.33
-3 -3 10 3.74 1.96
2 3 -10 12.38 1.88
-2 -3 10 11.56 2.82
-2 -3 10 13.05 2.08
-2 -3 10 7.53 3.02
1 3 -10 181.94 6.63
-1 -3 10 172.66 9.99
-1 -3 10 175.8 6.94
-1 -3 10 140.93 12.64
0 3 -10 0.85 1.04
0 3 -10 0.98 0.87
0 -3 10 0.43 1.86
0 -3 10 -0.35 1.69
0 -3 10 1.05 1.22
0 -3 10 -0.25 2.22
-1 3 -10 46.75 2.84
1 -3 10 33.99 5.44
1 -3 10 43.84 4.02
1 -3 10 49.42 4.31
-2 3 -10 11.62 1.84
2 -3 10 7.66 3.51
2 -3 10 19.91 2.91
2 -3 10 13.55 2.51
2 -3 10 14.3 1.87
-3 3 -10 5.95 1.78
3 -3 10 4.53 2.58
3 -3 10 3.89 3.26
3 -3 10 5.61 1.65
4 -3 10 2.92 2.76
4 -3 10 1.62 3.32
4 -3 10 1.22 1.73
4 2 -10 13.19 2.25
-4 -2 10 16.79 2.68
3 2 -10 8.26 1.75
-3 -2 10 8.37 2.61
-3 -2 10 5.62 1.19
-3 -2 10 9.26 2.09
2 2 -10 227.97 8.42
-2 -2 10 211.7 15.93
-2 -2 10 221.1 12.49
-2 -2 10 228.26 8.92
1 2 -10 15.98 1.72
-1 -2 10 12.37 1.18
-1 -2 10 18.44 2.03
-1 -2 10 15.32 2.74
-1 -2 10 11.73 3.15
0 2 -10 -0.08 0.76
0 2 -10 2.28 1.01
0 -2 10 0.81 2.2
0 -2 10 -0.65 1.69
0 -2 10 1.09 1.24
-1 2 -10 24.92 2.08
1 -2 10 25.93 2.83
1 -2 10 21.05 2.88
1 -2 10 16.86 3.74
-2 2 -10 16.12 2.02
2 -2 10 11.15 2.2
2 -2 10 15.57 2.57
2 -2 10 15.87 1.81
2 -2 10 10.24 3.31
-3 2 -10 1.89 1.63
3 -2 10 3.25 1.55
3 -2 10 4.4 2.24
3 -2 10 0.77 2.73
-4 2 -10 30.78 3.27
4 -2 10 42.52 3.21
4 -2 10 46.96 4.8
4 1 -10 45.99 3.32
-4 -1 10 49.47 2.85
-4 -1 10 47.14 3.89
3 1 -10 8.66 1.77
-3 -1 10 8.68 1.33
-3 -1 10 9.15 2
2 1 -10 97.09 4.34
-2 -1 10 94.56 3.65
-2 -1 10 95.35 4.72
-2 -1 10 92.03 8.18
1 1 -10 158.06 5.98
-1 -1 10 159.22 6.39
-1 -1 10 149.82 8.97
-1 -1 10 157.97 5.25
-1 -1 10 144.13 11.56
0 1 -10 296.4 10.15
0 -1 10 266.93 19.75
0 -1 10 297.66 9.22
0 -1 10 296.97 15.29
0 -1 10 294.86 10.78
-1 1 -10 7.62 1.29
-1 1 -10 5.71 0.98
1 -1 10 6.46 2.65
1 -1 10 8.78 1.89
1 -1 10 7.55 1.26
1 -1 10 7.82 2.01
-2 1 -10 5.89 1.47
2 -1 10 8.77 1.48
2 -1 10 8.54 1.99
2 -1 10 5.51 2.65
2 -1 10 8.38 1.93
-3 1 -10 238.48 9.94
3 -1 10 253.07 11.8
3 -1 10 214.66 16.76
3 -1 10 244.42 8.27
-4 1 -10 41.04 3.48
4 -1 10 41.22 4.38
4 -1 10 39.24 3.08
4 0 -10 5.1 1.43
4 0 -10 6.7 1.79
-4 0 10 7.17 1.56
-4 0 10 6.24 2.11
3 0 -10 78.08 4.13
-3 0 10 82.34 3.56
-3 0 10 82.4 4.62
2 0 -10 1.41 1.11
-2 0 10 0.69 0.95
-2 0 10 1.15 1.51
1 0 -10 2.4 0.96
-1 0 10 1.72 1.95
-1 0 10 2.15 1.27
-1 0 10 2.34 0.85
0 0 -10 131.65 4.94
0 0 10 132.43 4.59
0 0 10 128.38 9.98
0 0 10 127.59 5.42
-1 0 -10 10.93 1.3
-1 0 -10 14.83 1.6
-1 0 -10 10.05 1.11
1 0 10 11.55 1.35
1 0 10 12.32 1.92
1 0 10 13.36 1.37
1 0 10 10.68 2.7
-2 0 -10 68.25 3.48
-2 0 -10 70.45 3.8
2 0 10 66.99 3.22
2 0 10 76.47 6.7
2 0 10 67.5 4.39
-3 0 -10 1.37 1.4
3 0 10 0.55 2.38
3 0 10 2.04 1.32
3 0 10 1.2 1.63
-4 0 -10 4.11 1.84
4 0 10 4 1.54
4 0 10 3.61 2.9
4 0 10 5.65 2.12
4 -1 -10 -0.39 1.34
4 -1 -10 1.68 1.47
-4 1 10 3.92 1.56
-4 1 10 2.06 1.86
3 -1 -10 6.64 1.62
-3 1 10 11.14 2.12
-3 1 10 13.07 1.62
2 -1 -10 939.79 31.19
-2 1 10 957.28 32.92
-2 1 10 931.43 28.18
1 -1 -10 72.72 3.2
-1 1 10 71.5 2.95
-1 1 10 66.14 3.55
0 -1 -10 175.32 6.25
0 1 10 172.26 12.46
0 1 10 166.89 5.66
0 1 10 175.23 6.83
0 1 10 175.95 5.82
-1 -1 -10 64.96 3.4
1 1 10 72.05 6.25
1 1 10 66.06 2.85
1 1 10 65.75 2.85
1 1 10 68.42 2.9
-2 -1 -10 22.32 1.99
2 1 10 22.05 1.76
2 1 10 23.19 2.48
2 1 10 23.38 3.56
2 1 10 25.35 2.01
-3 -1 -10 5.27 1.32
-3 -1 -10 6.66 1.68
3 1 10 3.66 1.29
3 1 10 4.15 1.56
3 1 10 4.64 1.33
3 1 10 5.75 2.33
-4 -1 -10 115.68 5.99
4 1 10 110.76 4.9
4 1 10 124.79 6.77
-5 -1 -10 4.76 2.12
5 1 10 3.05 1.64
4 -2 -10 4.97 1.69
4 -2 -10 2.3 1.5
-4 2 10 7.86 1.81
-4 2 10 5.06 1.92
3 -2 -10 23.6 2.32
-3 2 10 26.01 2.66
-3 2 10 27.85 2.22
2 -2 -10 20.15 1.99
-2 2 10 26.47 2.07
-2 2 10 22.45 2.28
1 -2 -10 291.87 10.07
-1 2 10 283.03 10.74
-1 2 10 288.05 9.21
0 -2 -10 66.17 3.35
0 2 10 62.94 2.69
0 2 10 63.46 3.18
0 2 10 58.23 2.53
-1 -2 -10 3.68 1.09
1 2 10 1.73 0.84
1 2 10 2.9 0.91
1 2 10 3.04 1.82
1 2 10 2.17 0.84
-2 -2 -10 3.89 1.16
2 2 10 2.73 1.86
2 2 10 2.99 1.11
2 2 10 4.08 1.06
2 2 10 1.63 0.97
-3 -2 -10 1.14 1.27
3 2 10 1.47 1.14
3 2 10 0.01 1.77
3 2 10 0.49 1.17
3 2 10 2.31 1.22
-4 -2 -10 143.67 6.96
-4 -2 -10 148.22 7.06
4 2 10 157.05 5.69
4 2 10 146.19 5.7
4 2 10 144.91 7.6
-5 -2 -10 28.95 3.19
-5 -2 -10 24.91 2.93
5 2 10 24.31 2.44
4 -3 -10 76.73 4.27
4 -3 -10 73.37 3.94
-4 3 10 75.98 4.09
-4 3 10 77.63 4.44
3 -3 -10 199.08 7.78
-3 3 10 196.13 8.14
-3 3 10 199.85 7.11
2 -3 -10 103.28 4.44
-2 3 10 100.58 4.16
1 -3 -10 8.62 1.22
-1 3 10 10.37 1.57
-1 3 10 14.86 1.49
0 -3 -10 69.8 3.6
0 3 10 71.92 2.93
0 3 10 65.94 2.77
-1 -3 -10 59.53 3.3
1 3 10 59.77 2.46
1 3 10 57.85 2.62
1 3 10 60.49 2.68
-2 -3 -10 0.64 1.12
2 3 10 -0.13 0.86
2 3 10 0.5 0.91
-3 -3 -10 29.7 2.79
3 3 10 31.22 2.28
3 3 10 27.52 2.22
-4 -3 -10 4.74 1.81
4 3 10 3.75 1.43
4 3 10 2.52 1.49
-5 -3 -10 117.29 6.52
-5 -3 -10 129.86 6.6
5 3 10 116.34 5.03
5 3 10 122.28 5.29
3 -4 -10 1.85 1.38
3 -4 -10 -0.4 1.47
-3 4 10 -0.58 1.34
-3 4 10 2.77 1.56
2 -4 -10 99.55 4.28
-2 4 10 93.2 4
-2 4 10 91.78 4.53
1 -4 -10 64.18 2.97
1 -4 -10 61.64 3.59
-1 4 10 63.94 3.4
-1 4 10 63.76 2.96
0 -4 -10 19.15 1.97
0 4 10 21.42 1.67
0 4 10 23.68 1.62
-1 -4 -10 5.74 1.34
1 4 10 7.11 1.12
1 4 10 7.09 1.13
-2 -4 -10 4.15 1.42
2 4 10 2.97 0.94
2 4 10 3.76 1.07
-3 -4 -10 67.18 4.15
3 4 10 65.78 3.16
3 4 10 63.1 3.15
-4 -4 -10 6.39 2.01
4 4 10 6.33 1.53
4 4 10 9.21 1.59
-5 -4 -10 20.64 2.89
5 4 10 20.81 2.22
5 4 10 16.78 2
3 -5 -10 10.52 1.93
3 -5 -10 9.96 1.82
-3 5 10 10.42 1.76
-3 5 10 10.48 1.98
2 -5 -10 -0.06 1.16
-2 5 10 0.72 1.27
-2 5 10 0.34 1.25
1 -5 -10 133.57 6.04
1 -5 -10 126.92 5.06
-1 5 10 137.21 4.92
-1 5 10 124.81 4.52
0 -5 -10 232.2 9.53
0 5 10 232.27 7.64
0 5 10 226.98 7.44
-1 -5 -10 12.11 1.68
1 5 10 11.5 1.36
-2 -5 -10 0.85 1.31
2 5 10 0.59 1
2 5 10 1.01 1.04
2 5 10 1.15 0.91
-3 -5 -10 6.3 1.93
3 5 10 8.35 1.45
3 5 10 7.67 1.35
-4 -5 -10 11.35 2.31
4 5 10 13.06 1.81
4 5 10 13.47 1.81
-5 -5 -10 7.21 2.5
5 5 10 8.87 1.78
5 5 10 8 1.85
3 -6 -10 1.03 1.52
3 -6 -10 2.13 1.81
-3 6 10 1.15 1.44
-3 6 10 -0.43 1.56
2 -6 -10 225.88 9.81
2 -6 -10 237.22 8.61
2 -6 -10 227.19 8.12
-2 6 10 235.92 8.06
1 -6 -10 3.53 1.35
1 -6 -10 2.22 1.49
-1 6 10 1.55 1.32
-1 6 10 2.8 0.94
0 -6 -10 93.4 4.69
0 6 10 87.8 3.53
0 6 10 85.48 3.66
-1 -6 -10 155.32 7.28
1 6 10 164.51 5.72
1 6 10 166.37 5.69
-2 -6 -10 59.69 4.01
2 6 10 62.74 3.03
2 6 10 65.02 2.78
2 6 10 58.69 3.01
-3 -6 -10 50.69 4.01
3 6 10 51.38 2.94
3 6 10 50.56 2.74
-4 -6 -10 57.02 4.46
4 6 10 59.1 3.3
4 6 10 58.46 3.33
-5 -6 -10 23.22 3.26
5 6 10 20.45 2.32
5 6 10 23.09 2.28
2 -7 -10 75.39 3.76
2 -7 -10 74.38 4.48
2 -7 -10 68.7 3.71
-2 7 10 72.13 3.73
1 -7 -10 0.04 1.5
1 -7 -10 0.3 1.38
-1 7 10 -0.86 1.4
-1 7 10 -0.8 0.89
-1 7 10 -0.18 1.26
0 -7 -10 57.68 3.81
0 7 10 49.82 2.77
0 7 10 61.64 2.8
0 7 10 60.75 2.97
-1 -7 -10 48.35 3.66
1 7 10 46.31 2.62
1 7 10 51.84 2.69
-2 -7 -10 0.81 1.6
2 7 10 -0.86 1.09
2 7 10 0.06 1.15
-3 -7 -10 3.02 1.87
3 7 10 3.75 1.47
3 7 10 2.81 1.17
-4 -7 -10 35.43 3.7
-4 -7 -10 46.55 3.19
4 7 10 46.01 2.98
4 7 10 46.15 2.97
2 -8 -10 5.85 2.03
2 -8 -10 6.51 1.64
2 -8 -10 8.4 1.86
-2 8 10 9.03 1.92
-2 8 10 4.47 1.22
1 -8 -10 40.89 2.79
1 -8 -10 35.02 3.34
-1 8 10 41.03 2.87
-1 8 10 34.77 2.3
0 -8 -10 12.48 2.18
0 -8 -10 12.69 1.83
0 8 10 13.33 1.68
0 8 10 7.64 1.52
0 8 10 12.51 1.49
-1 -8 -10 10.63 1.73
-1 -8 -10 8.62 2.11
1 8 10 10.14 1.49
1 8 10 9.7 1.54
1 8 10 9.49 1.45
-2 -8 -10 44.13 3.97
-2 -8 -10 47 2.97
2 8 10 42.05 2.61
2 8 10 44.84 2.77
-3 -8 -10 2.92 2.04
-3 -8 -10 1.54 1.63
3 8 10 1.63 1.36
3 8 10 2.79 1.22
-4 -8 -10 69.67 5.2
-4 -8 -10 78.68 4.29
4 8 10 81.88 3.96
4 8 10 74.77 3.87
1 -9 -10 5.29 1.81
1 -9 -10 5.88 2.07
-1 9 10 2.41 1.24
-1 9 10 8.4 1.75
0 -9 -10 -0.65 1.76
0 -9 -10 0.61 1.48
0 9 10 -1.31 1.23
0 9 10 0.37 1.15
-1 -9 -10 2.67 1.58
-1 -9 -10 3.87 2.11
1 9 10 6.91 1.44
1 9 10 5.22 1.34
-2 -9 -10 58.03 4.65
-2 -9 -10 57.71 3.39
2 9 10 55.96 2.99
2 9 10 58.6 3.22
-3 -9 -10 15.71 2.15
-3 -9 -10 15.64 2.87
3 9 10 16.5 2.04
3 9 10 13.93 1.68
0 -10 -10 3.28 1.58
0 -10 -10 1.64 2.02
0 10 10 0.82 1.25
0 10 10 1.13 1.38
-1 -10 -10 51.92 4.49
-1 -10 -10 58.19 3.43
1 10 10 50.47 2.95
1 10 10 53.43 3.19
-2 -10 -10 2.86 2.54
-2 -10 -10 1.85 1.77
2 10 10 1.83 1.43
2 10 10 1.84 1.32
-3 -10 -10 -0.84 2.36
3 10 10 2.44 1.53
-2 -6 11 10.13 4.2
1 6 -11 8.11 1.84
-1 -6 11 4.88 3.03
-1 -6 11 6.2 1.87
-1 -6 11 2.34 3.48
0 6 -11 14.75 1.97
0 -6 11 22.8 3.24
0 -6 11 15.94 3.66
0 -6 11 11.07 4.21
-1 6 -11 12.32 2
1 -6 11 16.63 3.17
1 -6 11 14.86 3.45
1 -6 11 9.55 4.42
2 5 -11 100.33 4.8
-2 -5 11 94.86 7.43
-2 -5 11 106.63 5.19
-2 -5 11 79.12 9.11
1 5 -11 20.24 2.3
-1 -5 11 8.66 3.71
-1 -5 11 17.29 2.16
-1 -5 11 17.79 3.59
0 5 -11 31.85 2.71
0 5 -11 32.3 2.52
0 -5 11 35.67 4.02
0 -5 11 36.36 2.76
0 -5 11 31.93 4.42
-1 5 -11 2.99 1.48
1 -5 11 2.68 3.41
1 -5 11 8.36 2.75
1 -5 11 4.81 2.43
-2 5 -11 17.64 2.37
2 -5 11 21.59 3.47
2 -5 11 24.43 3.5
2 -5 11 13.63 4.65
3 4 -11 28.96 2.86
-3 -4 11 19.94 4.49
-3 -4 11 25.45 3.97
-3 -4 11 30.17 3.1
2 4 -11 4.23 1.57
-2 -4 11 6.25 2.6
-2 -4 11 4.54 1.89
-2 -4 11 4.71 3.04
1 4 -11 5.53 1.57
-1 -4 11 2.47 2.95
-1 -4 11 4.57 1.72
0 4 -11 1.85 1.38
0 4 -11 1.24 1.07
0 -4 11 1.31 1.43
0 -4 11 0.14 2.52
0 -4 11 0.87 1.99
0 -4 11 3.18 2.35
-1 4 -11 67.96 3.78
1 -4 11 62.87 5.49
1 -4 11 73.27 5.29
1 -4 11 53.37 7.27
-2 4 -11 1.86 1.56
2 -4 11 3.49 3.5
2 -4 11 3.55 2.24
2 -4 11 4.08 2.42
-3 4 -11 1.08 1.75
3 -4 11 -1.61 3.41
3 -4 11 0.97 2.64
3 3 -11 55.88 3.64
-3 -3 11 55.14 6.64
-3 -3 11 59.46 5.54
-3 -3 11 61.73 4.21
2 3 -11 0.33 1.34
-2 -3 11 0.09 2.18
-2 -3 11 2.13 1.76
-2 -3 11 0.85 2.54
1 3 -11 107 4.56
-1 -3 11 78.79 8.6
-1 -3 11 99.44 4.75
-1 -3 11 105.11 7
0 3 -11 86.01 4.19
0 3 -11 92.06 4.19
0 -3 11 91.58 6.58
0 -3 11 95.06 4.39
-1 3 -11 345.04 13.67
1 -3 11 358.79 18.67
1 -3 11 361.55 16.74
-2 3 -11 139.17 6.45
2 -3 11 119.37 11.51
2 -3 11 148.44 8.09
2 -3 11 146.22 8.55
-3 3 -11 -0.35 1.53
3 -3 11 1.28 2.48
3 -3 11 -0.71 1.57
3 -3 11 -0.66 3.09
3 2 -11 0.94 1.4
-3 -2 11 0.97 1.84
2 2 -11 8.64 1.65
-2 -2 11 11.16 2.8
-2 -2 11 11.18 2.08
-2 -2 11 7.97 3.08
1 2 -11 305.95 10.46
-1 -2 11 264.75 20.01
-1 -2 11 294.75 11
-1 -2 11 289.75 15.62
0 2 -11 216.43 7.81
0 2 -11 217.05 8.34
0 -2 11 228.2 11.99
0 -2 11 171.26 15.15
0 -2 11 218.04 8.28
-1 2 -11 0.13 1.02
1 -2 11 1.42 1.92
1 -2 11 0.75 2.47
1 -2 11 1.87 1.84
-2 2 -11 23.18 2.39
2 -2 11 20.9 2.09
2 -2 11 24.4 3.05
2 -2 11 17.65 2.79
2 -2 11 19.97 4.13
-3 2 -11 51.54 3.72
3 -2 11 53.21 4.76
3 -2 11 42.06 6.26
3 -2 11 49.72 3.24
4 -2 11 0.66 2.9
4 -2 11 1.44 2.54
4 -2 11 -1.76 1.56
3 1 -11 20.3 2.38
-3 -1 11 14.84 1.68
-3 -1 11 16.07 2.36
2 1 -11 7.72 1.52
-2 -1 11 9 3.02
-2 -1 11 7.08 1.16
-2 -1 11 9.28 1.98
1 1 -11 78.63 3.72
-1 -1 11 84.15 3.22
-1 -1 11 73.68 5.69
-1 -1 11 71.19 7.26
-1 -1 11 81.63 4.09
0 1 -11 134.36 5.29
0 -1 11 132.9 5.71
0 -1 11 134.97 4.81
0 -1 11 130.17 10.58
0 -1 11 136.59 8.2
-1 1 -11 414.96 15.59
-1 1 -11 386.87 13.96
-1 1 -11 410.25 15.64
1 -1 11 425.68 18.82
1 -1 11 427.12 21.05
1 -1 11 406.19 27.56
-2 1 -11 5.52 1.53
2 -1 11 8.25 1.49
2 -1 11 5.45 2.95
2 -1 11 7.43 2.09
2 -1 11 7.72 2.11
-3 1 -11 5.44 1.81
3 -1 11 2.14 2.77
3 -1 11 4.8 1.66
3 -1 11 6.12 2.13
-4 1 -11 110.99 6.04
4 -1 11 121.57 7.33
4 -1 11 111.89 5.09
4 0 -11 8.93 2.24
-4 0 11 5.3 1.5
-4 0 11 8.09 2.29
3 0 -11 6.65 1.68
-3 0 11 7.88 2.08
-3 0 11 5.37 1.33
2 0 -11 156.43 6.21
-2 0 11 150.91 5.45
-2 0 11 149.58 6.65
1 0 -11 80.49 3.51
-1 0 11 71.09 6.92
-1 0 11 75.01 3.13
-1 0 11 68.59 3.86
0 0 -11 207.82 7.51
0 0 11 206.56 6.92
0 0 11 207.51 15
0 0 11 212.31 8.16
-1 0 -11 0.02 0.85
-1 0 -11 0.68 0.84
-1 0 -11 -0.7 0.59
1 0 11 2.08 0.98
1 0 11 -0.06 1.39
1 0 11 0.59 2.05
-2 0 -11 4.14 1.39
2 0 11 1.77 2.35
2 0 11 4.75 1.36
2 0 11 4.42 1.68
-3 0 -11 45.75 3.43
3 0 11 49.31 3.96
3 0 11 48.75 3.06
3 0 11 41.18 5.68
-4 0 -11 34.18 3.32
4 0 11 45.02 4.2
4 0 11 30.87 2.64
4 -1 -11 8.68 1.99
-4 1 11 7.39 1.67
-4 1 11 9.67 2.31
3 -1 -11 6.76 1.68
-3 1 11 9.89 2.12
-3 1 11 11.4 1.61
2 -1 -11 35.75 2.59
-2 1 11 37.67 2.38
-2 1 11 34.49 2.94
1 -1 -11 93.26 3.99
-1 1 11 93.18 4.48
-1 1 11 92.55 3.67
0 -1 -11 314.41 12.18
0 -1 -11 310.84 10.68
0 1 11 310.64 11.54
0 1 11 298.89 9.63
0 1 11 310.56 21.01
0 1 11 312.65 9.85
-1 -1 -11 3.14 1.07
1 1 11 1.39 0.92
1 1 11 2.37 0.97
1 1 11 0.44 0.96
1 1 11 1.47 2.15
-2 -1 -11 11.96 1.58
-2 -1 -11 15.34 1.97
2 1 11 14.32 3.09
2 1 11 16.23 1.68
2 1 11 14.47 1.99
2 1 11 16.63 1.68
-3 -1 -11 37.04 2.78
-3 -1 -11 34.7 3.08
3 1 11 39.11 3.28
3 1 11 37.22 2.69
3 1 11 34.27 2.56
3 1 11 34.43 4.55
-4 -1 -11 6.92 2.01
4 1 11 5.62 2.88
4 1 11 7.22 1.73
4 1 11 11.82 2.33
3 -2 -11 23.59 2.4
-3 2 11 26.01 2.22
-3 2 11 20.88 2.51
2 -2 -11 0.53 1.1
-2 2 11 -0.15 1.48
-2 2 11 1.21 1.1
1 -2 -11 107.76 4.3
-1 2 11 98.17 4.72
-1 2 11 101.72 4
0 -2 -11 288.24 11.43
0 -2 -11 276.53 9.9
0 2 11 297.4 9.27
0 2 11 288.73 10.8
0 2 11 290.64 9.05
-1 -2 -11 671.1 24.57
1 2 11 645.19 41.86
1 2 11 669.75 19.92
1 2 11 651.38 19.81
1 2 11 639.77 19.65
-2 -2 -11 10.88 1.6
2 2 11 8.73 1.52
2 2 11 11.34 2.75
2 2 11 11.04 1.43
2 2 11 7.53 1.32
-3 -2 -11 188.12 8.08
3 2 11 182.6 13.2
3 2 11 189.87 6.62
3 2 11 186.13 6.56
3 2 11 177.61 8.9
-4 -2 -11 6.32 1.81
-4 -2 -11 9.91 2.19
4 2 11 5.82 1.62
4 2 11 7.17 1.82
4 2 11 9.06 1.77
3 -3 -11 8.48 1.73
-3 3 11 10.77 1.94
-3 3 11 8.84 1.72
2 -3 -11 131.61 5.43
-2 3 11 131.83 5.07
-2 3 11 129.64 5.89
1 -3 -11 103.52 4.32
-1 3 11 104.02 4.11
-1 3 11 105.12 4.82
0 -3 -11 3.02 1.14
0 3 11 1.69 0.88
0 3 11 1.17 0.83
-1 -3 -11 36.6 2.72
1 3 11 40.64 2.19
1 3 11 41.39 2.25
1 3 11 38.26 2.03
-2 -3 -11 337.53 13.55
2 3 11 349.59 10.85
2 3 11 339.09 10.84
-3 -3 -11 16.12 2.19
3 3 11 19.17 1.87
3 3 11 19.38 1.84
-4 -3 -11 79.81 4.92
4 3 11 83.79 4.03
4 3 11 84.01 3.93
-5 -3 -11 69.17 5.17
-5 -3 -11 55.42 4.56
5 3 11 58.6 3.55
3 -4 -11 7 1.68
-3 4 11 6.21 1.73
-3 4 11 9.56 1.8
2 -4 -11 133.14 5.55
-2 4 11 134.59 6
-2 4 11 138.06 5.27
1 -4 -11 226.44 8.19
1 -4 -11 220.76 9.47
-1 4 11 233.58 8.93
-1 4 11 228.38 7.69
0 -4 -11 16.45 1.98
0 4 11 18.4 1.68
0 4 11 23.49 1.65
-1 -4 -11 0.83 1.1
1 4 11 0.55 0.85
1 4 11 -0.19 0.87
-2 -4 -11 2.69 1.43
2 4 11 4.05 1.02
2 4 11 3.67 1.15
-3 -4 -11 32.26 3.06
3 4 11 34.37 2.39
3 4 11 33.42 2.47
-4 -4 -11 318.95 13.52
4 4 11 322.15 10.8
4 4 11 330.25 10.69
-5 -4 -11 -0.07 2.02
5 4 11 3.96 1.6
3 -5 -11 337.01 12.25
3 -5 -11 331.04 11.29
-3 5 11 334.16 11.22
-3 5 11 334.84 12.75
2 -5 -11 55.05 3.15
-2 5 11 59.69 3.56
-2 5 11 55.41 3.15
1 -5 -11 66.36 3.22
1 -5 -11 70.76 4.06
-1 5 11 71.69 3.32
0 -5 -11 -0.51 1.17
0 5 11 -0.37 0.81
0 5 11 0.36 0.95
-1 -5 -11 365.46 14.61
1 5 11 370.32 11.61
1 5 11 372.82 11.71
-2 -5 -11 105.64 5.56
2 5 11 116.04 4.14
2 5 11 108.88 4.34
2 5 11 107.02 4.33
-3 -5 -11 -0.16 1.66
3 5 11 1.7 1.3
3 5 11 0.02 1.11
-4 -5 -11 131.59 6.96
4 5 11 135.88 5.44
4 5 11 140.8 5.42
3 -6 -11 1.28 1.56
-3 6 11 2.02 1.54
2 -6 -11 -0.03 1.22
2 -6 -11 -0.52 1.53
2 -6 -11 0.72 1.43
-2 6 11 -0.29 1.32
1 -6 -11 12.37 1.98
-1 6 11 13.81 1.43
-1 6 11 10.51 1.66
0 -6 -11 25.62 2.52
0 6 11 27.16 2.1
0 6 11 28.01 1.95
-1 -6 -11 7.48 1.72
1 6 11 7.71 1.33
1 6 11 8.32 1.34
-2 -6 -11 75.3 4.7
2 6 11 89.12 3.72
2 6 11 78.74 3.63
2 6 11 80.98 3.32
-3 -6 -11 291.25 12.92
3 6 11 315.93 10.19
3 6 11 315.35 10.08
-4 -6 -11 -0.32 1.76
4 6 11 -0.35 1.32
4 6 11 -0.16 1.39
2 -7 -11 3.4 1.5
2 -7 -11 5.6 1.91
2 -7 -11 3.9 1.69
-2 7 11 5.13 1.73
1 -7 -11 1.16 1.39
1 -7 -11 0.37 1.66
-1 7 11 0.12 0.96
-1 7 11 1.57 1.43
0 -7 -11 45.94 3.62
0 7 11 54.77 2.72
0 7 11 51.74 2.87
-1 -7 -11 325.44 13.3
1 7 11 316.64 10.46
1 7 11 328.48 10.42
-2 -7 -11 22.72 2.68
2 7 11 22.72 2
2 7 11 20.63 1.95
-3 -7 -11 18.14 2.83
3 7 11 24.32 2.22
3 7 11 19.17 1.81
-4 -7 -11 3.99 2.14
4 7 11 4.98 1.57
4 7 11 5.83 1.64
2 -8 -11 20.66 2.84
2 -8 -11 24.26 2.36
-2 8 11 25.77 2.56
1 -8 -11 53.12 3.97
1 -8 -11 46.56 3.06
-1 8 11 51.76 2.74
-1 8 11 48.58 3.13
0 -8 -11 2.19 1.79
0 8 11 1.04 1.27
0 8 11 2.12 1.15
-1 -8 -11 26.53 3.03
-1 -8 -11 28.5 2.27
1 8 11 31.98 2.32
1 8 11 26.29 2.1
-2 -8 -11 6.23 2.09
2 8 11 5.87 1.48
2 8 11 3.38 1.34
-3 -8 -11 -1.08 1.9
3 8 11 0.15 1.42
3 8 11 0.56 1.15
-4 -8 -11 6.78 2.5
4 8 11 9.54 1.73
4 8 11 11.43 1.94
1 -9 -11 8.36 2.17
1 -9 -11 4.75 1.79
-1 9 11 6.71 1.85
-1 9 11 4.88 1.39
0 -9 -11 68.3 3.62
0 -9 -11 70.81 4.75
0 9 11 71.6 3.55
0 9 11 71.79 3.46
-1 -9 -11 21.58 2.19
-1 -9 -11 23.55 3.03
1 9 11 27.17 2.14
1 9 11 26.09 2.15
-2 -9 -11 2.87 2.24
2 9 11 6.47 1.58
2 9 11 5.54 1.43
-3 -9 -11 29.61 2.66
-3 -9 -11 30.11 3.62
3 9 11 38.99 2.9
0 -10 -11 6.85 2.33
0 10 11 5.18 1.55
0 10 11 6.58 1.66
-1 -10 -11 7.15 2.54
-1 -10 -11 4.38 1.81
1 10 11 3.65 1.44
1 10 11 6.35 1.53
-2 -10 -11 1.57 2.53
-2 -10 -11 3.66 1.79
2 10 11 7.48 1.55
2 10 11 2.8 1.55
-2 -5 12 20.35 4.84
1 5 -12 2.53 1.65
-1 -5 12 3.75 1.76
-1 -5 12 4.13 3.34
0 5 -12 38.66 2.94
0 5 -12 30.94 2.56
0 -5 12 30.98 4.55
0 -5 12 19 4.99
-1 5 -12 10.04 1.87
1 -5 12 5.52 3.88
1 -5 12 15.44 3.06
1 -5 12 14.2 3.41
2 4 -12 27.77 2.73
-2 -4 12 15.98 4.4
-2 -4 12 27.94 4.17
-2 -4 12 29.49 2.96
1 4 -12 15.47 2.02
-1 -4 12 19.54 2.28
-1 -4 12 8.28 3.75
-1 -4 12 14.67 3.28
0 4 -12 19.73 2.08
0 4 -12 14.71 1.7
0 -4 12 18.54 3.49
0 -4 12 20.58 2.22
0 -4 12 16 4.34
-1 4 -12 0.12 1.23
1 -4 12 1.84 2.34
1 -4 12 2.96 3.22
1 -4 12 1.03 2.22
-2 4 -12 21.45 2.52
2 -4 12 27.84 3.78
2 -4 12 28.53 3.8
2 -4 12 20.17 5.24
-3 -3 12 0.12 2.38
-3 -3 12 1.71 2.13
-3 -3 12 1.64 2.92
2 3 -12 8.74 1.76
-2 -3 12 6.89 2.8
-2 -3 12 6.97 3.4
-2 -3 12 9.61 2.22
1 3 -12 9.22 1.66
-1 -3 12 4.94 3.02
-1 -3 12 9.25 1.89
-1 -3 12 9.61 2.9
0 3 -12 22.45 1.96
0 3 -12 19.2 1.96
0 -3 12 21.88 2.24
0 -3 12 12.72 3.98
0 -3 12 19.18 3.34
-1 3 -12 240.43 10.4
1 -3 12 274.91 13.06
1 -3 12 268.29 14.48
-2 3 -12 11.13 1.98
2 -3 12 8.94 3.95
2 -3 12 17.17 3.06
2 -3 12 12.93 2.82
-3 3 -12 2.11 1.75
3 -3 12 6.02 2.84
3 -3 12 2.18 3.4
3 -3 12 1.53 1.69
3 2 -12 4.76 1.7
-3 -2 12 4.91 2.11
2 2 -12 4.54 1.51
-2 -2 12 2.1 1.04
-2 -2 12 4.47 2.46
-2 -2 12 1.96 2.67
-2 -2 12 4 1.91
1 2 -12 209.72 7.9
-1 -2 12 200.26 11.91
-1 -2 12 204.28 8.35
-1 -2 12 209.71 6.91
0 2 -12 29.16 2.17
0 2 -12 30.02 2.37
0 -2 12 28.62 5.07
0 -2 12 38.26 2.78
0 -2 12 33.94 4.05
-1 2 -12 6.2 1.39
-1 2 -12 2.87 1.1
1 -2 12 5.22 2.36
1 -2 12 3.44 3.08
1 -2 12 6.51 2.27
-2 2 -12 0.01 1.29
2 -2 12 2.36 2.2
2 -2 12 1.63 1.54
2 -2 12 3.03 2.18
2 -2 12 1.81 3.15
-3 2 -12 9.67 2.1
3 -2 12 4.99 3.51
3 -2 12 11 1.96
3 -2 12 11.77 2.79
3 1 -12 29.2 2.79
-3 -1 12 26.71 2.94
-3 -1 12 22.78 1.96
2 1 -12 19.22 2.12
-2 -1 12 19.34 1.69
-2 -1 12 15.04 3.58
-2 -1 12 22.15 2.5
1 1 -12 3.19 1.21
-1 -1 12 3.43 1.04
-1 -1 12 3.59 1.66
-1 -1 12 2.04 2.49
0 1 -12 16.43 1.7
0 -1 12 14.37 2.88
0 -1 12 15.95 1.55
0 -1 12 17.38 2
0 -1 12 14.32 3.59
-1 1 -12 504.44 19.01
-1 1 -12 494.41 17.11
-1 1 -12 508.86 19.16
1 -1 12 471.96 33.45
1 -1 12 534.56 25.72
1 -1 12 527.22 22.96
-2 1 -12 300.88 12.47
2 -1 12 307.65 21.99
2 -1 12 316.17 10.46
2 -1 12 330.98 15.02
-3 1 -12 4.18 1.7
3 -1 12 2.1 2.07
3 -1 12 3.77 1.64
3 -1 12 0.07 3.01
4 -1 12 -0.72 3.1
4 -1 12 -0.76 2.29
3 0 -12 6.47 1.66
-3 0 12 5.25 2.05
-3 0 12 9.09 1.52
2 0 -12 33.24 2.61
-2 0 12 35.35 2.31
-2 0 12 35.22 3.1
1 0 -12 26.83 2.06
-1 0 12 28.38 2.62
-1 0 12 28.37 1.95
-1 0 12 23.63 4.23
0 0 -12 311.13 10.9
0 0 12 301.03 21.48
0 0 12 317.51 11.75
0 0 12 317.06 10.01
-1 0 -12 26.67 2.14
-1 0 -12 22.14 1.66
-1 0 -12 24.67 2.1
1 0 12 19.78 3.85
-2 0 -12 35.67 2.79
-2 0 -12 34.04 2.5
2 0 12 37.86 3.56
2 0 12 34.86 2.53
2 0 12 31.74 4.99
-3 0 -12 4.28 1.72
3 0 12 3.92 1.87
3 0 12 3.17 2.79
3 0 12 5.27 1.65
-4 0 -12 87.91 5.21
4 0 12 97.79 6.12
4 0 12 96.68 4.51
4 0 12 72.8 8.25
3 -1 -12 97.15 4.67
-3 1 12 89.05 4.03
-3 1 12 87.14 4.93
2 -1 -12 4.26 1.34
-2 1 12 4.14 1.24
-2 1 12 5.62 1.78
1 -1 -12 1 0.91
-1 1 12 1.1 0.98
-1 1 12 2.63 1.38
0 -1 -12 719.49 23.88
0 -1 -12 720.02 27.01
0 1 12 709.85 46.27
0 1 12 715.76 21.49
0 1 12 738.18 21.86
0 1 12 725.22 25.46
-1 -1 -12 32.02 2.4
-1 -1 -12 32.38 2.46
1 1 12 30.87 2.09
1 1 12 27.29 2.08
1 1 12 31.86 4.69
-2 -1 -12 1.53 1.05
-2 -1 -12 2.56 1.31
2 1 12 2.37 1.2
2 1 12 2.5 2.43
2 1 12 0.73 1.22
2 1 12 1.57 1.59
-3 -1 -12 1.06 1.54
-3 -1 -12 0.62 1.21
3 1 12 0.3 2.26
3 1 12 0.18 1.34
3 1 12 -0.63 1.58
-4 -1 -12 4.6 1.8
4 1 12 2.76 1.64
4 1 12 1.74 2.69
4 1 12 6.34 2.12
3 -2 -12 45.76 3.17
-3 2 12 48.45 3.57
-3 2 12 45.92 2.99
2 -2 -12 119.45 5.28
-2 2 12 129.75 4.88
-2 2 12 120.45 5.76
1 -2 -12 150.51 5.99
-1 2 12 160.86 5.62
-1 2 12 155.77 6.62
0 -2 -12 38.1 2.67
0 2 12 35 2.59
0 2 12 39.13 2.22
0 2 12 32.08 2.02
-1 -2 -12 109.69 5.2
1 2 12 107.31 4.28
1 2 12 103.32 4.08
1 2 12 109.92 4.2
1 2 12 114.13 9.04
-2 -2 -12 90.26 4.66
2 2 12 93.28 7.96
2 2 12 92.27 3.91
2 2 12 92.4 3.85
-3 -2 -12 102.05 5.27
3 2 12 97.85 5.64
3 2 12 104.53 4.47
3 2 12 101.85 8.58
3 2 12 110.65 4.41
-4 -2 -12 19.81 2.81
-4 -2 -12 15.25 2.3
4 2 12 19.95 2.18
3 -3 -12 5.72 1.68
-3 3 12 8.64 1.78
-3 3 12 9.49 2.03
2 -3 -12 35.04 2.55
-2 3 12 37.5 3.12
-2 3 12 32.12 2.5
1 -3 -12 164 6.32
-1 3 12 161.94 5.91
-1 3 12 169.9 6.97
0 -3 -12 187.39 7.85
0 3 12 182.47 6.35
0 3 12 176.66 6.1
-1 -3 -12 41.68 2.98
1 3 12 39.96 2.32
1 3 12 46.25 2.46
1 3 12 40 2.15
-2 -3 -12 1.46 1.28
2 3 12 0.64 1.02
2 3 12 -0.52 1.04
-3 -3 -12 263.17 11.44
3 3 12 287.38 9.26
3 3 12 277.43 9.24
-4 -3 -12 165.2 7.67
4 3 12 156.59 6.22
4 3 12 156.08 6.07
3 -4 -12 184.51 7.47
-3 4 12 183.98 7.85
-3 4 12 178.31 6.9
2 -4 -12 24.57 2.26
-2 4 12 25.3 2.58
-2 4 12 25.14 2.2
1 -4 -12 6.01 1.19
1 -4 -12 2.66 1.39
-1 4 12 7.88 1.4
-1 4 12 5.52 1.48
0 -4 -12 238.65 10.15
0 4 12 248.29 8.22
0 4 12 248.07 7.96
-1 -4 -12 11.68 1.81
1 4 12 11.53 1.42
1 4 12 10.66 1.41
-2 -4 -12 50.86 3.53
2 4 12 48.22 2.7
2 4 12 48.55 2.53
-3 -4 -12 3.9 1.66
3 4 12 1.15 1.23
3 4 12 0.32 1.17
-4 -4 -12 14.72 2.37
4 4 12 19.82 2.1
4 4 12 22.64 2.17
3 -5 -12 6.66 1.87
-3 5 12 5.84 1.8
2 -5 -12 44.68 3.6
2 -5 -12 38.58 2.73
-2 5 12 40.81 3.14
-2 5 12 38.58 2.83
1 -5 -12 323.79 13.33
-1 5 12 336.95 10.8
0 -5 -12 1.82 1.39
0 5 12 3.8 1.24
0 5 12 3.31 1.05
-1 -5 -12 -0.24 1.19
1 5 12 -0.33 0.95
1 5 12 -0.46 0.99
-2 -5 -12 151.06 7.15
2 5 12 155.23 5.34
2 5 12 151.73 5.59
2 5 12 144.7 5.56
-3 -5 -12 44 3.66
3 5 12 40.23 2.62
3 5 12 41.97 2.76
-4 -5 -12 1.93 1.75
4 5 12 1.93 1.37
4 5 12 -0.06 1.43
2 -6 -12 -0.29 1.25
2 -6 -12 0.76 1.71
-2 6 12 1.43 1.35
1 -6 -12 7.53 1.89
-1 6 12 6.59 1.53
0 -6 -12 54.43 3.78
0 6 12 54.6 2.71
0 6 12 55.1 2.99
-1 -6 -12 48.84 3.56
1 6 12 45.53 2.69
1 6 12 46.04 2.66
-2 -6 -12 0.98 1.61
2 6 12 -0.05 0.95
2 6 12 0.93 1.22
2 6 12 -0.74 1.19
-3 -6 -12 7.26 2.15
3 6 12 9.67 1.53
3 6 12 9.18 1.61
-4 -6 -12 14.98 2.57
4 6 12 17.89 2.04
4 6 12 14.98 2
2 -7 -12 5.86 2.08
2 -7 -12 10.95 1.85
2 -7 -12 7.2 1.77
-2 7 12 13.37 1.95
1 -7 -12 66.45 4.41
-1 7 12 67.5 3.07
-1 7 12 63.34 3.47
0 -7 -12 18.52 2.44
0 7 12 24.77 2.11
0 7 12 23.45 1.95
-1 -7 -12 57.03 4.17
1 7 12 59.96 3.04
-2 -7 -12 32.96 3.22
2 7 12 35.36 2.58
2 7 12 34.1 2.59
-3 -7 -12 1.23 2
3 7 12 1.72 1.43
3 7 12 1.11 1.18
-4 -7 -12 2.98 2.12
4 7 12 1.89 1.46
4 7 12 5.74 1.69
1 -8 -12 1.24 1.53
1 -8 -12 1.39 1.88
-1 8 12 1.54 1.14
-1 8 12 -0.47 1.49
0 -8 -12 92.39 5.41
0 8 12 92.02 4.15
0 8 12 95.92 4.03
-1 -8 -12 1.08 1.83
1 8 12 0.53 1.2
1 8 12 -0.35 1.19
-2 -8 -12 14.25 2.58
2 8 12 19.27 2.02
2 8 12 19.07 1.95
-3 -8 -12 18.63 2.93
3 8 12 22.36 2.24
3 8 12 18.79 1.87
0 -9 -12 0.07 2.02
0 -9 -12 3.65 1.59
0 9 12 2.11 1.32
0 9 12 4.19 1.56
-1 -9 -12 30.3 3.36
-1 -9 -12 30.87 2.51
1 9 12 35.8 2.64
1 9 12 31 2.5
-2 -9 -12 21.14 3.08
2 9 12 22.05 2.08
2 9 12 24.14 2.28
1 4 -13 44.7 3.23
-1 -4 13 43.03 3.5
-1 -4 13 43.03 5.28
-1 -4 13 37.9 6.49
0 4 -13 2.56 1.52
0 -4 13 -2.25 2.62
0 -4 13 3.79 2.8
0 -4 13 -0.72 1.47
-1 4 -13 0.66 1.27
-1 4 -13 0.43 1.34
1 -4 13 0.77 2.43
1 -4 13 0.35 2.55
1 -4 13 -0.17 3.07
2 3 -13 -1.69 1.39
-2 -3 13 -1.47 2.69
-2 -3 13 2.6 1.99
-2 -3 13 -0.72 2.29
1 3 -13 7.7 1.65
-1 -3 13 3.83 3.1
-1 -3 13 7.69 1.97
-1 -3 13 6.67 2.8
0 3 -13 0.36 1.24
0 -3 13 1.39 2.78
0 -3 13 -2.26 2.27
0 -3 13 0.82 1.47
-1 3 -13 -0.24 1.02
-1 3 -13 0.4 1.24
1 -3 13 1.07 3.2
1 -3 13 1.35 2.32
1 -3 13 1.12 2.31
-2 3 -13 0.04 1.4
2 -3 13 1.38 2.63
2 -3 13 2.67 2.42
2 -3 13 -0.89 3.31
2 2 -13 82.25 4.18
-2 -2 13 63.79 7.72
-2 -2 13 80.82 4.66
1 2 -13 30.89 2.52
-1 -2 13 32.49 4.14
-1 -2 13 18.34 4.46
-1 -2 13 26.27 2.11
-1 -2 13 30.53 2.86
0 2 -13 9.12 1.43
0 2 -13 10.57 1.62
0 -2 13 12.22 2.98
0 -2 13 13.62 1.92
-1 2 -13 51.81 2.95
-1 2 -13 54.28 3.33
1 -2 13 59.17 4.81
1 -2 13 55.35 5.15
1 -2 13 44.27 6.52
-2 2 -13 260.52 10.74
2 -2 13 215.35 18.81
2 -2 13 270 14.24
2 -2 13 281.65 13.14
-3 2 -13 1.04 1.7
3 -2 13 2.2 2.56
3 -2 13 -2.39 3.06
3 -2 13 0.84 1.7
3 1 -13 1.08 1.59
2 1 -13 56.93 3.42
-2 -1 13 55.41 2.89
-2 -1 13 55.47 3.89
1 1 -13 1.25 1.1
-1 -1 13 2.41 1.74
-1 -1 13 1.49 1.05
-1 -1 13 0.9 2.5
0 1 -13 2.43 1.05
0 1 -13 1.42 1.01
0 -1 13 2.19 2.57
0 -1 13 3.43 1.51
-1 1 -13 23.07 2.14
-1 1 -13 22.56 2.17
-1 1 -13 23.49 1.86
1 -1 13 22.16 4.5
-2 1 -13 77.17 4.33
2 -1 13 64.67 7.75
2 -1 13 75.34 3.87
2 -1 13 82.55 5.5
-3 1 -13 136.4 6.97
3 -1 13 148.31 8.49
3 -1 13 153.88 6.03
3 0 -13 15.32 2.23
-3 0 13 14.76 1.79
-3 0 13 19.3 2.67
2 0 -13 1.87 1.27
-2 0 13 3.39 1.74
-2 0 13 2 1.14
1 0 -13 14.13 1.7
-1 0 13 9.37 1.93
-1 0 13 10.11 1.39
-1 0 13 9.57 3.12
0 0 -13 15.43 1.62
0 0 -13 13.27 1.71
0 0 13 14.84 1.95
0 0 13 16.91 1.65
0 0 13 10.52 3.34
-1 0 -13 4.07 1.17
-1 0 -13 3.95 1.23
-1 0 -13 4.33 0.99
1 0 13 2.02 2.65
-2 0 -13 246.28 9.92
-2 0 -13 229.31 9.69
2 0 13 231.48 8.22
2 0 13 243.74 11.69
2 0 13 231.42 17.14
-3 0 -13 0.9 1.54
3 0 13 -0.32 2
3 0 13 1.02 2.67
3 0 13 -0.98 1.52
3 -1 -13 22.98 2.53
-3 1 13 20.99 2.14
-3 1 13 26.99 2.91
2 -1 -13 35.21 2.71
-2 1 13 36.58 2.49
-2 1 13 36.49 3.14
1 -1 -13 26.44 2.06
-1 1 13 24.31 1.98
-1 1 13 23.04 2.49
0 -1 -13 0.44 0.98
0 -1 -13 0.54 0.77
0 1 13 1.07 1.01
0 1 13 0.79 0.99
0 1 13 0.26 2.16
0 1 13 2.23 1.3
-1 -1 -13 5.79 1.34
-1 -1 -13 5.78 1.39
-1 -1 -13 5.11 0.98
1 1 13 3.71 1.26
1 1 13 5.8 2.81
-2 -1 -13 14.03 2.03
-2 -1 -13 12.02 1.69
2 1 13 10.7 1.57
2 1 13 8.68 2
2 1 13 10.57 1.61
2 1 13 11.31 3.47
-3 -1 -13 3.99 1.71
3 1 13 3.93 2.73
3 1 13 2.09 1.52
3 1 13 4.11 1.83
-4 -1 -13 1.71 1.81
4 1 13 -1.1 2.81
4 1 13 2.12 1.76
3 -2 -13 4.84 1.64
-3 2 13 6.02 2.15
-3 2 13 6.6 1.62
2 -2 -13 8.14 1.58
-2 2 13 9.07 2.07
-2 2 13 9.42 1.56
1 -2 -13 154.34 6.05
-1 2 13 148.53 5.63
-1 2 13 157.46 6.69
0 -2 -13 129.06 5.03
0 -2 -13 130.32 6.02
0 2 13 134.33 4.93
0 2 13 121.9 4.66
-1 -2 -13 178.96 7.56
1 2 13 162.64 12.91
1 2 13 173.77 6.19
1 2 13 175.24 6.08
1 2 13 167.32 5.97
-2 -2 -13 49.94 3.35
2 2 13 52.93 2.91
2 2 13 49.52 2.89
2 2 13 55.25 5.93
-3 -2 -13 109.48 5.58
-3 -2 -13 101.54 5.29
3 2 13 103.79 4.58
3 2 13 97.39 8.74
3 2 13 111.58 4.55
3 2 13 96.22 5.73
-4 -2 -13 23.5 2.97
-4 -2 -13 17.34 2.37
4 2 13 17.44 2.22
3 -3 -13 9.48 1.9
-3 3 13 8.24 1.7
-3 3 13 8.68 2.19
2 -3 -13 -1.95 1.06
-2 3 13 2.22 1.5
-2 3 13 -0.71 1.23
1 -3 -13 5.95 1.65
1 -3 -13 8.22 1.36
-1 3 13 4.59 1.59
-1 3 13 8.1 1.42
0 -3 -13 0.69 1.13
0 3 13 -0.4 0.85
0 3 13 1.05 1.01
-1 -3 -13 59.2 3.7
1 3 13 59.32 2.72
1 3 13 56.84 2.98
1 3 13 61.7 2.93
-2 -3 -13 16.57 2.2
2 3 13 15.43 1.79
2 3 13 15.34 1.62
-3 -3 -13 29.67 2.92
3 3 13 33.2 2.61
3 3 13 31.03 2.46
-4 -3 -13 5.77 1.88
4 3 13 7.8 1.81
4 3 13 6.45 1.72
2 -4 -13 -0.19 1.22
-2 4 13 1.23 1.47
-2 4 13 1.07 1.38
1 -4 -13 7.65 1.31
1 -4 -13 9.35 1.79
-1 4 13 7.75 1.69
-1 4 13 8.67 1.45
0 -4 -13 203.91 8.89
0 4 13 204.85 6.91
0 4 13 206.93 7.17
-1 -4 -13 259.65 10.7
1 4 13 257.23 8.62
1 4 13 250.54 8.44
-2 -4 -13 67.45 4.16
2 4 13 62.73 3.03
2 4 13 64.18 3.24
-3 -4 -13 16.1 2.38
3 4 13 18.79 2.05
3 4 13 21.4 1.96
-4 -4 -13 2.94 1.72
4 4 13 1.68 1.54
4 4 13 2.66 1.57
2 -5 -13 1.63 1.78
2 -5 -13 -0.68 1.21
-2 5 13 0.26 1.42
-2 5 13 -0.19 1.39
1 -5 -13 2.42 1.55
-1 5 13 2.04 1.27
0 -5 -13 117.68 6.04
0 5 13 127.04 4.66
0 5 13 125.39 4.89
-1 -5 -13 55.51 3.85
1 5 13 57.06 2.93
1 5 13 60.91 3.08
-2 -5 -13 42.65 3.52
2 5 13 39.48 2.36
2 5 13 41.79 2.72
-3 -5 -13 6.52 1.99
3 5 13 3.82 1.35
3 5 13 5.85 1.54
-4 -5 -13 2.05 1.82
4 5 13 2.77 1.61
4 5 13 3.68 1.56
2 -6 -13 24.92 2.35
2 -6 -13 18.99 2.69
-2 6 13 27.38 2.53
1 -6 -13 41.43 3.59
-1 6 13 47.64 2.85
0 -6 -13 229.93 10.29
0 6 13 244.74 8.06
0 6 13 247.44 8.33
-1 -6 -13 1.27 1.43
1 6 13 -0.55 1.16
1 6 13 0.96 1.07
-2 -6 -13 3.3 1.8
2 6 13 3.42 1.37
2 6 13 1.62 1.31
-3 -6 -13 80.69 5.24
3 6 13 81.73 4.01
3 6 13 91.21 3.89
-4 -6 -13 8.45 2.26
4 6 13 8.05 1.78
4 6 13 7.41 1.73
1 -7 -13 -0.39 1.69
-1 7 13 -1.71 1.25
-1 7 13 0.11 0.97
0 -7 -13 19.64 2.49
0 7 13 25.88 2.03
0 7 13 23.45 2.16
-1 -7 -13 107.45 6.09
1 7 13 122.3 4.7
1 7 13 108.89 4.62
-2 -7 -13 -0.7 1.63
2 7 13 1.14 1.28
2 7 13 1.02 1.33
-3 -7 -13 29.44 3.41
3 7 13 33.32 2.45
3 7 13 33.1 2.57
1 -8 -13 9.21 2.31
-1 8 13 13.97 1.99
-1 8 13 10.31 1.49
0 -8 -13 5.43 2.03
0 8 13 5.81 1.57
0 8 13 6.47 1.36
-1 -8 -13 4.56 2.02
1 8 13 3.13 1.27
1 8 13 3.62 1.36
-2 -8 -13 16.31 2.7
2 8 13 14.21 1.94
2 8 13 19.39 2.12
-3 -8 -13 24.53 3.31
3 8 13 24.44 2.36
0 -9 -13 -0.63 2.1
-1 -9 -13 0.69 2.09
1 9 13 0.86 1.34
1 9 13 1.39 1.3
-2 -9 -13 116.66 7.25
2 9 13 113.89 4.99
2 9 13 127.87 5.4
1 3 -14 -0.65 1.36
-1 -3 14 -1.07 2.7
-1 -3 14 -1.63 1.75
-1 -3 14 0.87 2.61
0 3 -14 -1.44 1.18
0 -3 14 -0.55 2.57
0 -3 14 1.75 1.62
0 -3 14 0.69 2.95
-1 3 -14 0.64 1.32
-1 3 -14 1.34 1.29
1 -3 14 -0.97 2.34
1 -3 14 0.8 3.29
1 -3 14 2.09 2.61
2 2 -14 50.27 3.4
-2 -2 14 57.18 4.04
-2 -2 14 38.16 6.37
1 2 -14 25.32 2.43
-1 -2 14 24.5 3.95
-1 -2 14 26.31 2.82
-1 -2 14 19.76 1.87
-1 -2 14 18.71 4.6
0 2 -14 10.21 1.53
0 2 -14 15.22 1.81
0 -2 14 22.71 3.68
0 -2 14 11.62 3.81
0 -2 14 16.21 2.12
-1 2 -14 10.08 1.7
-1 2 -14 11.32 1.52
1 -2 14 14.74 3.12
1 -2 14 6.42 3.6
-2 2 -14 16.02 2.22
2 -2 14 8.18 4.06
2 -2 14 16.53 3.22
2 1 -14 0.58 1.32
-2 -1 14 2.74 1.93
-2 -1 14 2.75 1.25
1 1 -14 1.54 1.13
-1 -1 14 0.23 1.63
-1 -1 14 0.21 1.11
-1 -1 14 0.8 2.55
0 1 -14 25.61 2.11
0 1 -14 23.49 2.23
0 -1 14 25.01 2.46
0 -1 14 20.91 4.67
-1 1 -14 118.91 5.43
-1 1 -14 114.9 4.83
-1 1 -14 127.52 5.58
1 -1 14 95.98 9.94
-2 1 -14 59.79 3.79
2 -1 14 58.32 5.09
2 -1 14 54.59 7.08
3 -1 14 13.88 3.05
3 -1 14 11.76 4.1
2 0 -14 5.99 1.54
-2 0 14 8.19 2.15
-2 0 14 6.75 1.43
1 0 -14 37.03 2.48
-1 0 14 26.53 4.88
-1 0 14 37.11 3.2
-1 0 14 34.4 2.41
0 0 -14 33.48 2.6
0 0 -14 32.43 2.23
0 0 14 29.68 5.09
0 0 14 36.75 2.49
0 0 14 36.62 2.97
-1 0 -14 24.98 2.35
-1 0 -14 25.49 2.36
-1 0 -14 25.88 1.91
1 0 14 22.59 4.57
-2 0 -14 -1.09 1.16
2 0 14 0.99 2.86
2 0 14 0.08 1.3
2 0 14 0.56 1.84
-3 0 -14 0.99 1.61
3 0 14 -0.28 2.73
3 0 14 -0.39 1.49
3 0 14 -1.04 2.15
2 -1 -14 34.29 2.76
-2 1 14 37.53 3.31
-2 1 14 34.44 2.52
1 -1 -14 9.07 1.47
-1 1 14 9.46 1.49
-1 1 14 7.28 1.84
0 -1 -14 12.47 1.78
0 -1 -14 16.82 1.66
0 1 14 16.67 2.08
0 1 14 14.43 1.67
0 1 14 13.54 3.55
-1 -1 -14 219.99 9.13
-1 -1 -14 223.38 9.31
1 1 14 219.55 16.36
-2 -1 -14 2.04 1.39
-2 -1 -14 3.41 1.3
2 1 14 3.77 1.28
2 1 14 0.83 2.92
-3 -1 -14 19.46 2.23
-3 -1 -14 22.26 2.69
3 1 14 24.69 4.73
3 1 14 19.71 2.24
3 1 14 17.58 2.66
2 -2 -14 34.88 2.79
-2 2 14 35.36 2.64
-2 2 14 38.19 3.28
1 -2 -14 3.16 1.1
-1 2 14 2.3 1.45
-1 2 14 0.68 1.16
0 -2 -14 0.47 1.09
0 2 14 0.64 1.07
0 2 14 -0.54 0.96
-1 -2 -14 109 5.48
1 2 14 116.22 4.49
1 2 14 107.71 4.53
-2 -2 -14 6.62 1.57
2 2 14 8.28 3.16
2 2 14 9.93 1.45
2 2 14 7.92 1.6
-3 -2 -14 11.09 2.22
-3 -2 -14 10.99 1.85
3 2 14 9.6 1.83
3 2 14 10.67 3.29
2 -3 -14 1.87 1.31
-2 3 14 0.58 1.66
-2 3 14 0.59 1.31
1 -3 -14 134.37 6.56
1 -3 -14 134.12 5.55
-1 3 14 136.53 6.21
-1 3 14 135.02 5.29
0 -3 -14 68.44 4.06
0 3 14 68.03 3.33
0 3 14 66.78 3.13
-1 -3 -14 1.52 1.28
1 3 14 0.93 1.13
1 3 14 1.52 1.11
-2 -3 -14 129.46 6.32
2 3 14 128.1 4.99
2 3 14 129.15 5.14
-3 -3 -14 1.12 1.47
3 3 14 1.19 1.45
3 3 14 1.49 1.4
2 -4 -14 2.82 1.4
-2 4 14 1.53 1.43
-2 4 14 0.84 1.57
1 -4 -14 2.26 1.09
1 -4 -14 0.62 1.29
-1 4 14 2.35 1.24
0 -4 -14 1.69 1.41
0 4 14 2.64 1.19
0 4 14 1.83 1.02
-1 -4 -14 12.01 1.96
1 4 14 13.06 1.67
1 4 14 13.43 1.61
-2 -4 -14 12.22 2.09
2 4 14 11.87 1.49
2 4 14 14.44 1.81
-3 -4 -14 7.92 1.89
3 4 14 4.94 1.61
3 4 14 11.61 1.72
2 -5 -14 43.96 3.1
2 -5 -14 48.3 4.19
-2 5 14 51.73 3.63
1 -5 -14 26.53 2.74
-1 5 14 28.4 2.31
0 -5 -14 24.87 2.7
0 5 14 26.03 1.99
0 5 14 24.24 2.17
-1 -5 -14 -0.58 1.38
1 5 14 -1.22 1
1 5 14 0.34 1.08
-2 -5 -14 -1.45 1.37
2 5 14 0.69 1.04
2 5 14 1 1.21
-3 -5 -14 31.16 3.24
3 5 14 29.77 2.56
3 5 14 33.76 2.54
1 -6 -14 4.89 1.87
-1 6 14 7.35 1.5
0 -6 -14 1.95 1.59
0 6 14 -0.11 1.02
0 6 14 3.15 1.3
-1 -6 -14 0.74 1.45
1 6 14 0.24 1.17
1 6 14 -0.46 1.09
-2 -6 -14 1.04 1.72
2 6 14 0.24 1.21
2 6 14 -1.61 1.17
-3 -6 -14 0.86 1.81
3 6 14 -0.72 1.24
3 6 14 0.55 1.39
1 -7 -14 -1.56 1.72
-1 7 14 0.53 1.12
0 -7 -14 63.25 4.47
0 7 14 66.15 3.27
0 7 14 67.99 3.59
-1 -7 -14 0.08 1.63
1 7 14 -1.58 1.18
1 7 14 1.62 1.23
-2 -7 -14 46.14 4.06
2 7 14 44.6 2.95
2 7 14 43.83 2.99
-3 -7 -14 10.32 2.49
3 7 14 10.83 2.06
0 -8 -14 4.3 2
0 8 14 0.8 1.51
0 8 14 2.39 1.25
-1 -8 -14 1.95 2.01
1 8 14 4.19 1.45
1 8 14 2.39 1.4
-2 -8 -14 2.39 2.14
2 8 14 1.33 1.5
2 8 14 2.32 1.52
0 2 -15 -0.5 1.12
0 2 -15 0.33 0.95
0 -2 15 1.51 1.6
0 -2 15 0.27 2.85
-1 2 -15 28.56 2.62
-1 2 -15 27.93 2.41
1 -2 15 15.65 4.64
1 1 -15 3.87 1.36
-1 -1 15 0.67 2.76
-1 -1 15 3.91 1.94
-1 -1 15 0.84 1.31
0 1 -15 11.24 1.52
0 1 -15 6.43 1.38
0 -1 15 9.26 1.87
0 -1 15 5.62 3.22
-1 1 -15 12.11 1.57
-1 1 -15 14.3 1.91
-1 1 -15 12.82 1.69
1 -1 15 12.58 4.07
-2 1 -15 34.74 3.15
-2 1 -15 34.5 2.38
2 -1 15 41.52 4.47
2 -1 15 26.91 5.32
1 0 -15 0.41 0.97
-1 0 15 -0.6 1.13
-1 0 15 -1.08 1.53
0 0 -15 7.42 1.43
0 0 -15 7.02 1.33
0 0 15 6.33 1.74
0 0 15 4.29 3.1
0 0 15 8.48 1.58
-1 0 -15 5.04 1.27
-1 0 -15 4.19 1.35
-1 0 -15 3.35 1.03
1 0 15 3.12 3.11
-2 0 -15 5.45 1.16
-2 0 -15 9.5 1.8
2 0 15 3.16 3.32
1 -1 -15 32.08 2.45
-1 1 15 37.9 2.6
-1 1 15 35.66 3.18
0 -1 -15 0.93 1.07
0 -1 -15 0.28 0.8
0 1 15 1.04 1.27
0 1 15 0.18 2.4
-1 -1 -15 68.04 3.79
-1 -1 -15 66.93 3.89
1 1 15 58.51 7.09
-2 -1 -15 27.05 2.62
-2 -1 -15 29.02 2.72
2 1 15 23.05 2.14
2 1 15 23.94 4.7
3 1 15 40.29 6.06
3 1 15 45.43 4.29
2 -2 -15 9.15 1.75
1 -2 -15 53.53 3.73
1 -2 -15 53.11 3.08
-1 2 15 52.44 3.06
-1 2 15 52.27 3.69
0 -2 -15 4.54 1.36
0 -2 -15 2.85 1.01
0 2 15 2.58 1.25
-1 -2 -15 75.27 4.29
-1 -2 -15 69.71 4.07
1 2 15 75.68 3.55
-2 -2 -15 10.43 1.98
-2 -2 -15 8.17 1.74
2 2 15 7.47 1.49
2 2 15 9.94 1.82
2 2 15 6.74 3.22
-3 -2 -15 18.34 2.37
-3 -2 -15 25.59 2.99
3 2 15 24.26 4.52
3 2 15 19.55 2.24
1 -3 -15 2.66 1.16
1 -3 -15 2.55 1.52
-1 3 15 3.63 1.57
-1 3 15 2.46 1.31
0 -3 -15 57.5 3.77
0 3 15 49.79 3.06
0 3 15 56.02 2.87
-1 -3 -15 7.51 1.68
1 3 15 11.47 1.65
1 3 15 8.89 1.52
-2 -3 -15 27.36 2.78
2 3 15 28.84 2.26
2 3 15 28.67 2.44
-3 -3 -15 8.39 1.89
3 3 15 6.07 1.79
3 3 15 5.47 1.6
1 -4 -15 12.71 2.13
-1 4 15 13.5 1.87
0 -4 -15 52.38 3.71
0 4 15 54.71 2.77
0 4 15 45.34 2.88
-1 -4 -15 36.28 3.2
1 4 15 37.86 2.69
1 4 15 35.79 2.45
-2 -4 -15 191 8.82
2 4 15 194.42 6.85
2 4 15 194.69 7.08
-3 -4 -15 131.67 7.07
3 4 15 148.74 5.86
3 4 15 146.72 5.66
1 -5 -15 14.77 2.35
-1 5 15 14.17 1.91
0 -5 -15 14.86 2.27
0 5 15 20.23 2.05
0 5 15 22.55 1.93
-1 -5 -15 -0.79 1.32
1 5 15 0.13 1.1
1 5 15 -0.15 1.09
-2 -5 -15 12.97 2.24
2 5 15 12.07 1.54
2 5 15 11.32 1.77
-3 -5 -15 22.48 2.89
3 5 15 20.63 2.51
3 5 15 21.59 2.07
0 -6 -15 1.3 1.59
0 6 15 1.33 1.06
0 6 15 0.66 1.19
-1 -6 -15 2.28 1.67
1 6 15 6 1.42
1 6 15 5.3 1.44
-2 -6 -15 90.45 5.49
2 6 15 88.84 4.23
0 7 15 55.91 3.03
-1 -7 -15 0.26 1.78
1 7 15 -0.31 1.22
1 7 15 -1.03 1.18
2 7 15 3.2 1.53
2 7 15 4.04 1.52
0 0 -16 12.56 1.56
0 0 -16 6.8 1.52
0 0 16 6.42 3.47
-1 0 -16 71.65 4.14
-1 0 -16 77 4.2
-1 0 -16 76.83 3.58
1 0 16 57.95 7.65
0 -1 -16 5.01 1.16
0 -1 -16 2.85 1.36
0 1 16 3.82 1.5
-1 -1 -16 10.54 1.76
-1 -1 -16 11.22 1.8
1 1 16 5.85 3.32
-2 -1 -16 40.07 3.12
2 1 16 29.79 5.38
1 -2 -16 1.8 1.47
1 -2 -16 3.67 1.25
0 -2 -16 193.17 7.39
0 -2 -16 189.05 8.66
0 2 16 198.76 7.15
-1 -2 -16 36.98 3.07
-1 -2 -16 33.2 2.85
1 2 16 33.52 2.63
-2 -2 -16 -0.37 1.32
-2 -2 -16 1.54 1.39
2 2 16 -2 1.45
2 2 16 2.46 1.31
1 -3 -16 4.31 1.3
0 -3 -16 15.77 2.21
0 3 16 13.6 1.69
0 3 16 19.15 2.03
-1 -3 -16 32.43 3.07
1 3 16 28.9 2.49
1 3 16 26.63 2.28
-2 -3 -16 4.1 1.74
2 3 16 3.3 1.28
2 3 16 3.44 1.6
0 -4 -16 -1.55 1.41
0 4 16 -0.62 1.21
-1 -4 -16 3.18 1.6
1 4 16 1.2 1.3
1 4 16 2.35 1.4
-2 -4 -16 1.64 1.77
2 4 16 2.94 1.16
2 4 16 5.03 1.59
0 5 16 14.57 1.72
-1 -5 -16 33.2 3.29
1 5 16 35.24 2.6
1 5 16 33.25 2.66
-2 -5 -16 13.03 2.33
2 5 16 10.88 1.89
1 6 16 10.85 1.7
