#------------------------------------------------------------------------------
#$Date: 2018-09-26 20:45:16 +0300 (Wed, 26 Sep 2018) $
#$Revision: 211179 $
#$URL: file:///home/coder/svn-repositories/cod/cif/1/54/66/1546691.cif $
#------------------------------------------------------------------------------
#
# This file is available in the Crystallography Open Database (COD),
# http://www.crystallography.net/. The original data for this entry
# were provided by IUCr Journals, http://journals.iucr.org/.
#
# The file may be used within the scientific community so long as
# proper attribution is given to the journal article from which the
# data were obtained.
#
data_1546691
loop_
_publ_author_name
'Tomura, Masaaki'
_publ_section_title
;
 2-Sulfanylidene-1,3-dithiolo[4,5-<i>b</i>]pyrazine-5,6-dicarbonitrile
;
_journal_coeditor_code           WM4053
_journal_issue                   7
_journal_name_full               IUCrData
_journal_page_first              x171023
_journal_paper_doi               10.1107/S2414314617010239
_journal_volume                  2
_journal_year                    2017
_chemical_formula_iupac          'C7 N4 S3'
_chemical_formula_moiety         'C7 N4 S3'
_chemical_formula_sum            'C7 N4 S3'
_chemical_formula_weight         236.29
_chemical_name_systematic
;
2-Sulfanylidene-1,3-dithiolo[4,5-<i>b</i>]pyrazine-5,6-dicarbonitrile
;
_space_group_crystal_system      orthorhombic
_space_group_IT_number           19
_space_group_name_Hall           'P 2ac 2ab'
_space_group_name_H-M_alt        'P 21 21 21'
_symmetry_space_group_name_Hall  'P 2ac 2ab'
_symmetry_space_group_name_H-M   'P 21 21 21'
_atom_sites_solution_primary     direct
_atom_sites_solution_secondary   difmap
_cell_angle_alpha                90
_cell_angle_beta                 90
_cell_angle_gamma                90
_cell_formula_units_Z            4
_cell_length_a                   6.1657(15)
_cell_length_b                   7.0875(19)
_cell_length_c                   20.883(6)
_cell_measurement_reflns_used    3015
_cell_measurement_temperature    173(2)
_cell_measurement_theta_max      30.7
_cell_measurement_theta_min      2.0
_cell_volume                     912.6(4)
_computing_cell_refinement
;
CrystalClear (Rigaku/MSC, 2006)
;
_computing_data_collection
;
CrystalClear (Rigaku/MSC, 2006)
;
_computing_data_reduction
;
CrystalClear (Rigaku/MSC, 2006)
;
_computing_molecular_graphics
;
PLATON (Spek, 2009) and Mercury (Macrae <i>et al.</i>,  2008)
;
_computing_publication_material
;
SHELXL2016 (Sheldrick, 2015)
;
_computing_structure_refinement
;
SHELXL2016 (Sheldrick, 2015)
;
_computing_structure_solution
;
SIR2014 (Burla <i>et al.</i>,  2015)
;
_diffrn_ambient_temperature      173(2)
_diffrn_detector_area_resol_mean 14.7059
_diffrn_measured_fraction_theta_full 0.999
_diffrn_measured_fraction_theta_max 0.924
_diffrn_measurement_device_type  'Rigaku/MSC Mercury CCD'
_diffrn_measurement_method       '\f & \w scans'
_diffrn_radiation_monochromator  'Graphite Monochromator'
_diffrn_radiation_type           MoK\a
_diffrn_radiation_wavelength     0.71073
_diffrn_reflns_av_R_equivalents  0.0307
_diffrn_reflns_limit_h_max       6
_diffrn_reflns_limit_h_min       -8
_diffrn_reflns_limit_k_max       8
_diffrn_reflns_limit_k_min       -9
_diffrn_reflns_limit_l_max       28
_diffrn_reflns_limit_l_min       -23
_diffrn_reflns_number            8289
_diffrn_reflns_theta_full        25.000
_diffrn_reflns_theta_max         30.819
_diffrn_reflns_theta_min         1.950
_exptl_absorpt_coefficient_mu    0.769
_exptl_absorpt_correction_T_max  1.0000
_exptl_absorpt_correction_T_min  0.8249
_exptl_absorpt_correction_type   multi-scan
_exptl_absorpt_process_details
;
(ABSCOR; Higashi, 1995)
;
_exptl_crystal_colour            Orange
_exptl_crystal_density_diffrn    1.720
_exptl_crystal_density_method    'not measured'
_exptl_crystal_description       Prism
_exptl_crystal_F_000             472
_exptl_crystal_size_max          0.300
_exptl_crystal_size_mid          0.300
_exptl_crystal_size_min          0.050
_refine_diff_density_max         0.285
_refine_diff_density_min         -0.346
_refine_ls_abs_structure_details
;
Flack <i>x</i> determined using 803 quotients [(I+)-(I-)]/[(I+)+(I-)]
(Parsons <i>et al.</i>,  2013)
;
_refine_ls_abs_structure_Flack   0.07(4)
_refine_ls_extinction_method     none
_refine_ls_goodness_of_fit_ref   1.114
_refine_ls_hydrogen_treatment    undef
_refine_ls_matrix_type           full
_refine_ls_number_parameters     127
_refine_ls_number_reflns         2561
_refine_ls_number_restraints     0
_refine_ls_restrained_S_all      1.114
_refine_ls_R_factor_all          0.0463
_refine_ls_R_factor_gt           0.0406
_refine_ls_shift/su_max          0.000
_refine_ls_shift/su_mean         0.000
_refine_ls_structure_factor_coef Fsqd
_refine_ls_weighting_details
'w=1/[\s^2^(Fo^2^)+(0.0486P)^2^+0.1364P] where P=(Fo^2^+2Fc^2^)/3'
_refine_ls_weighting_scheme      calc
_refine_ls_wR_factor_gt          0.0975
_refine_ls_wR_factor_ref         0.1030
_reflns_number_gt                2314
_reflns_number_total             2561
_reflns_threshold_expression     'I > 2\s(I)'
_cod_data_source_file            wm4053sup1.cif
_cod_data_source_block           I
_cod_database_code               1546691
_cod_database_fobs_code          1546691
_shelx_space_group_comment
;
The symmetry employed for this shelxl refinement is uniquely defined
by the following loop, which should always be used as a source of
symmetry information in preference to the above space-group names.
They are only intended as comments.
;
_shelx_estimated_absorpt_t_min   0.802
_shelx_estimated_absorpt_t_max   0.963
_shelx_hkl_file
;
   0   0  -2 1159.31   17.71
   0   0   2 1231.94   19.84
   0   0  -3   17.35    8.03
   0   0   3   16.16    6.76
   0   0  -4 4468.26   60.63
   0   0   4 4459.35   60.37
   0   0  -5    2.52    2.76
   0   0   5   16.45    7.35
   0   0  -6 2767.55   43.77
   0   0   6 2624.64   42.36
   0   0  -7   -0.79    4.24
   0   0   7   24.25   10.56
   0   0  -8 2060.41   50.64
   0   0   8 1891.53   48.38
   0   0   9   -8.60    9.13
   0   0   9    1.48    0.87
   0   0  10  333.89   21.99
   0   0  12  293.92   17.71
   0   0  13    1.90   11.20
   0   0  14 6909.28  185.00
   0   0  15  -25.52   12.88
   0   0  16  134.33   16.78
   0   0  17  -11.70   14.47
   0   0  18 3072.40  144.03
   0   0  19  -24.03   15.53
   0   0  20  559.89   67.92
   0   0  21   10.38   14.00
   0   0  22 3415.44 1222.99
   0   0  23   23.81    8.83
   0   0  24  896.36   52.30
   0   0  25   20.40   12.31
   0   0  26   14.55   14.09
   0   0  27   -1.93   14.07
   0  -1   0   26.98    6.34
   0  -1   0   23.55    5.02
   0   1   0   35.04    3.84
   0   1  -1 1780.50   27.03
   0  -1   1 1745.55   26.75
   0  -1  -1 1743.07   26.28
   0   1   1 1723.93   26.35
   0   1   1 1739.55   22.43
   0   1  -212622.97  153.66
   0  -1   212607.28  155.13
   0  -1  -212672.67  154.37
   0   1   212534.58  153.07
   0   1  -3  139.51    6.89
   0  -1   3  136.63    8.72
   0  -1  -3  121.84    7.19
   0   1   3  144.02    7.69
   0   1  -4  213.24    9.22
   0  -1   4  232.59   16.78
   0  -1  -4  255.57   17.71
   0   1   4  246.27   10.02
   0   1  -5 1378.67   25.74
   0  -1   5 1376.96   27.58
   0  -1  -5 1312.28   25.51
   0   1   5 1382.40   26.02
   0   1  -6   63.86   13.00
   0  -1   6   68.82   14.51
   0  -1  -6   44.40    5.75
   0   1   6   27.14    8.00
   0   1  -718565.95  231.70
   0  -1   717075.76  214.17
   0  -1  -717841.63  221.72
   0   1   717799.29  222.93
   0  -1   8  229.02   15.45
   0   1   8  299.31   34.20
   0   1  -8  245.90    6.97
   0  -1   9  157.75   33.72
   0   1   9   92.88   12.45
   0  -1  10 8604.24  189.23
   0   1  10 9035.63  198.53
   0   1  11  554.90   21.41
   0  -1  12 6451.53   97.93
   0   1  12 6376.54   97.24
   0  -1  13 1291.12   67.20
   0   1  13 1402.78   49.68
   0  -1  14 5013.20  139.63
   0   1  14 4769.93  132.83
   0  -1  15 1692.87   75.35
   0   1  15 1524.69   67.97
   0  -1  16 1708.36   58.99
   0   1  16 1659.08   87.83
   0   1  16 1748.90   56.36
   0  -1  17  794.67   45.09
   0   1  17  748.28   48.22
   0  -1 -17  726.11   26.36
   0  -1  18  251.15   22.15
   0   1  18  276.20   60.24
   0  -1  19   31.85   10.27
   0   1  19   56.80   18.57
   0  -1  20  812.88   34.30
   0   1  20  861.03   49.68
   0  -1  21  101.60   17.72
   0   1  21   64.61   20.51
   0  -1  22  663.98  241.13
   0   1  22  647.14  235.16
   0  -1  23   86.61   19.90
   0   1  23   57.58   19.13
   0  -1  24  337.55   44.53
   0   1  24  365.18   77.34
   0  -1  25  131.31   28.85
   0   1  25   87.27   26.55
   0  -1  26    5.11   12.86
   0   1  26   47.97   19.48
   0  -1  27   10.90   13.04
   0   1  27   26.19   13.52
   0  -2   095161.23 1970.76
   0  -2   098189.06 2036.79
   0   2  -1   94.58   18.10
   0  -2   1  104.20   25.62
   0  -2  -1  105.30   17.35
   0   2   1  102.37   14.28
   0  -2  -1   91.95    7.46
   0   2  -2 2833.96   43.01
   0  -2   2 2839.04   44.54
   0  -2  -2 2857.75   43.84
   0   2   2 2924.90   45.01
   0   2   2 2933.86   37.97
   0  -2  -2 3000.12   39.21
   0   2  -3 1198.60   23.50
   0  -2   3 1217.13   39.37
   0  -2  -3 1243.96   26.38
   0   2   3 1260.35   26.36
   0   2  -4 1653.20   29.72
   0  -2   4 1585.49   30.85
   0  -2  -4 1609.61   29.31
   0   2   4 1722.80   36.59
   0   2  -5 6819.97   92.52
   0  -2   5 6627.87   91.35
   0  -2  -5 6864.38   92.26
   0   2   5 6674.48   92.37
   0   2  -6   32.10   10.02
   0  -2   6   26.89   10.52
   0  -2  -6   42.83    9.67
   0   2   6   25.92    6.48
   0  -2   7  726.66   24.90
   0   2   7  753.40   25.78
   0  -2   8    3.46    6.34
   0   2   8   -0.76    8.90
   0  -2   9 9084.96  199.34
   0   2   9 8915.00  196.71
   0  -2  10  124.56   12.69
   0   2  10  158.95   29.49
   0  -2  11 1233.10   35.89
   0   2  11 1386.86   41.79
   0  -2  12  722.37   31.74
   0   2  12  731.06   37.08
   0   2 -12  672.22   19.25
   0  -2  13   73.78   11.46
   0   2  13   41.49    7.08
   0   2 -13   39.23    4.41
   0  -2  14  227.11   38.42
   0   2  14  237.00   40.93
   0  -2  15  185.39   36.01
   0   2  15  180.37   21.67
   0  -2  16  195.44   19.05
   0   2  16  184.65   21.90
   0  -2  17 1132.50   57.01
   0   2  17 1107.96   51.73
   0  -2  18   69.59   11.44
   0   2  18   34.86   15.38
   0  -2  19  165.21   26.06
   0   2  19  163.79   18.92
   0  -2  20   55.52   20.54
   0   2  20   51.43   18.01
   0  -2  21  679.95   33.24
   0   2  21  609.05   30.96
   0  -2  22  644.97  108.50
   0   2  22  612.00  113.05
   0  -2  23   18.45   10.66
   0   2  23   -5.92   13.77
   0  -2  24  788.81  124.02
   0   2  24  824.98  145.03
   0  -2  25   26.01   17.64
   0   2  25   32.52   14.75
   0  -2  26  110.28   30.02
   0   2  26   99.38   25.40
   0  -2  27 1433.86   98.27
   0   2  27 1297.97  253.53
   0  -3   0    4.87    5.23
   0   3   0   -1.01    1.86
   0  -3  -1  237.88   15.40
   0  -3   1  256.92   16.51
   0  -3  -1  201.97    7.16
   0  -3   2   23.38   10.75
   0   3   2   26.95    7.22
   0  -3   3  562.86   21.50
   0   3   3  575.99   21.76
   0   3   3  605.74   17.74
   0  -3  -3  581.53   18.04
   0  -3   4 5261.30  118.84
   0   3   4 5469.83  123.84
   0   3   4 5464.50  117.04
   0  -3  -4 5473.33  117.23
   0  -3   5 4244.95   98.72
   0   3   5 4334.09  100.23
   0  -3   6    2.77    8.96
   0   3   6   11.77    8.35
   0  -3   713582.04  181.90
   0   3   713289.40  176.30
   0  -3   8  118.03   36.73
   0   3   8  105.29   24.81
   0  -3   9 1796.94   41.12
   0   3   9 1826.31   46.78
   0  -3  1010055.23  264.98
   0   3  1010679.26  326.54
   0  -3  11  563.29   28.93
   0   3  11  570.55   27.96
   0  -3  12 1200.00   73.68
   0   3  12 1198.85   93.69
   0  -3  13 2605.51   90.75
   0   3  13 2614.08  111.70
   0  -3  14  343.92   24.61
   0   3  14  328.03   24.39
   0   3 -14  305.19   18.35
   0  -3  15 4035.69  145.96
   0   3  15 4153.45  181.41
   0  -3  15 3464.77  116.50
   0  -3  16  349.14   57.13
   0   3  16  272.12   31.99
   0  -3  16  272.33   15.48
   0  -3  17 5334.83  190.21
   0   3  17 5336.60   77.73
   0  -3  18  139.08   23.21
   0   3  18  120.35   19.74
   0  -3  19   -2.79   11.59
   0   3  19   -5.42   11.37
   0  -3  20   24.68    5.99
   0   3  20    2.25   12.41
   0  -3  21   17.46   11.49
   0   3  21    6.38   13.40
   0  -3  22   31.24   13.98
   0   3  22   11.94   14.51
   0  -3  23   89.38   21.43
   0   3  23  152.85   35.05
   0  -3  24   73.81   20.04
   0   3  24   72.59   20.42
   0  -3  25   41.36   17.51
   0   3  25   71.28   22.63
   0  -3  26   13.68   12.38
   0   3  26   10.68   13.14
   0  -4   0 7054.86  107.39
   0  -4  -1   34.19   14.32
   0  -4   1   19.34    5.58
   0   4  -1   23.40    3.53
   0  -4  -2  341.03   19.34
   0  -4   2  356.31   23.69
   0   4  -2  322.12   23.09
   0  -4   3 7548.04  110.32
   0   4   3 7728.25  113.23
   0  -4   4  318.29   18.54
   0   4   4  302.56   19.96
   0   4   4  283.04   13.10
   0  -4  -4  304.03   10.72
   0  -4   5 5746.40  156.78
   0   4   5 5682.55  154.98
   0   4   5 5817.51  149.94
   0  -4  -5 5550.74  141.67
   0  -4   6  351.86   21.01
   0   4   6  341.74   20.13
   0   4   6  366.64   16.86
   0  -4  -6  329.11   19.77
   0  -4   7 1061.72   38.32
   0   4   7 1042.75   38.14
   0   4   7 1137.15   33.95
   0  -4   8  900.13   51.26
   0   4   8  894.13   34.63
   0  -4   9  843.59   67.60
   0   4   9  723.24   32.98
   0  -4  10  183.34   17.32
   0   4  10  229.97   18.60
   0  -4  11   52.55   11.05
   0   4  11   25.14    7.31
   0  -4  12  463.71   26.05
   0   4  12  462.15   28.02
   0  -4  13  138.02   22.92
   0   4  13  139.85   23.32
   0  -4  14 1113.25  107.64
   0   4  14 1010.19   58.02
   0  -4  15   42.12   13.56
   0   4  15   14.58   12.68
   0  -4  16   30.79   14.09
   0   4  16   28.95    7.08
   0  -4  17   15.13    9.49
   0   4  17   26.56   12.38
   0  -4  18 1793.08   48.77
   0   4  18 1792.53   49.73
   0  -4  19  331.15  121.16
   0   4  19  284.18  104.75
   0  -4  20    7.40   14.25
   0   4  20   -2.67    8.92
   0  -4  21  123.97   24.60
   0   4  21  122.99   22.38
   0  -4  22   95.42   31.33
   0   4  22   95.72   24.59
   0  -4  23  112.97   29.88
   0   4  23  116.79   33.31
   0  -4  24   75.43   15.88
   0   4  24   54.02   18.30
   0  -4  25  156.63   49.78
   0   4  25  191.27   49.79
   0  -5   0   -7.14   12.30
   0  -5   0    3.19    2.34
   0  -5  -1  296.45   37.12
   0  -5   1  323.15   34.32
   0  -5   1  314.72   17.17
   0  -5  -2  740.63   40.58
   0  -5   2  737.36   39.97
   0  -5  -3   40.81   17.97
   0  -5   3   30.21   12.16
   0   5  -3   20.66    4.04
   0  -5  -4  262.41   25.71
   0  -5   4  239.78   19.55
   0  -5   5  632.74   35.04
   0   5   5  590.25   29.80
   0  -5   6  478.22   25.62
   0   5   6  563.26   29.93
   0   5   6  466.01   20.31
   0  -5  -6  456.25   16.39
   0  -5   7  170.10   16.30
   0   5   7  176.45   17.82
   0   5   7  114.11   17.41
   0  -5  -7  133.15   12.36
   0  -5   8   77.83   17.48
   0   5   8   86.13   14.03
   0   5   8   63.47   12.44
   0  -5  -8   75.37   13.84
   0  -5   9 1311.97   60.90
   0   5   9 1340.65   58.46
   0   5   9 1339.39   48.43
   0  -5  10   94.05   12.00
   0   5  10  102.54   18.36
   0  -5  11  286.32   20.98
   0   5  11  332.82   25.83
   0  -5  12  104.05   14.33
   0   5  12  152.60   18.32
   0  -5  13  363.40   26.19
   0   5  13  451.69   29.99
   0  -5  14   41.43   17.48
   0   5  14   29.56   15.96
   0  -5  15  953.57   67.97
   0   5  15  857.98   52.63
   0  -5  16 1048.40   61.31
   0   5  16  985.06   38.48
   0  -5  17 3677.69  241.29
   0   5  17 3406.50 1219.54
   0  -5  18   12.86   12.74
   0   5  18   10.21    6.49
   0  -5  19  170.50   21.45
   0   5  19  144.68   39.81
   0  -5  20   73.26   21.45
   0   5  20   53.45   21.10
   0  -5  21  531.42  110.19
   0   5  21  741.44  109.19
   0  -5  22  181.27   37.86
   0   5  22  174.28   35.51
   0  -5  23    3.74    8.06
   0   5  23   -7.85   12.98
   0   5  24   88.44   23.24
   0  -6   0 5502.44  215.65
   0  -6  -1   75.23   12.50
   0  -6   1   51.33    7.17
   0  -6  -2  333.37   54.95
   0  -6   2  392.29   54.02
   0  -6   2  337.60   21.61
   0  -6  -3 6108.38  218.32
   0  -6   3 6500.39  227.25
   0  -6  -4   30.91   10.40
   0  -6   4   50.25    9.19
   0  -6  -5 1402.84   59.57
   0  -6   5 1464.65   75.69
   0  -6  -6  571.17   40.96
   0  -6   6  575.11   33.10
   0  -6   7  439.40   28.24
   0   6   7  470.44   30.08
   0  -6   8  231.43   24.93
   0   6   8  194.76   20.03
   0  -6   9 1086.17   37.11
   0   6   9 1098.63   37.15
   0  -6  10  245.21   22.42
   0   6  10  312.53   24.14
   0  -6  11  175.89   23.52
   0   6  11  165.04   20.07
   0  -6  12  335.65   23.90
   0   6  12  347.48   60.68
   0  -6  13   24.80   17.88
   0   6  13   25.26   20.02
   0  -6  14   11.76   13.19
   0   6  14   16.41   13.97
   0  -6  15  192.85   28.88
   0   6  15  202.82   28.54
   0  -6  16   21.94   13.16
   0   6  16   14.56   14.16
   0  -6  17   36.85   10.02
   0   6  17   22.48   13.41
   0  -6  18  612.13   90.98
   0   6  18  679.90  101.31
   0  -6  19  203.26   39.54
   0   6  19  209.98   39.29
   0  -6  20   -1.87   12.22
   0   6  20   29.42   14.27
   0  -6  21   16.80   13.06
   0   6  21    7.76   13.07
   0   6  22  255.42   44.40
   0  -7   0   12.63    7.06
   0  -7  -1   32.82   16.01
   0  -7   1   39.72   10.24
   0  -7  -2   13.66    5.62
   0  -7   2   17.69   11.79
   0  -7  -3   14.39   11.30
   0  -7   3   16.38   12.38
   0  -7  -4  610.45   81.11
   0  -7   4  655.69   30.34
   0  -7  -5   43.33   15.19
   0  -7   5   53.44   15.81
   0  -7  -6   57.48   15.23
   0  -7   6   67.74   15.97
   0  -7  -7  325.61   57.93
   0  -7   7  336.41   26.26
   0  -7  -8  701.77  257.76
   0  -7   8  842.87  303.22
   0  -7   9   87.13   35.81
   0  -7  10 2325.52  182.59
   0   7  10 2599.00  108.40
   0  -7  11  529.94   76.39
   0   7  11  555.86   47.33
   0  -7  12  948.62  100.26
   0   7  12  945.93   50.22
   0  -7  13  242.12   65.91
   0   7  13  283.18   43.51
   0  -7  14   81.36   18.87
   0   7  14   92.37   20.87
   0  -7  15   69.63   21.63
   0   7  15   66.23   15.56
   0  -7  16  132.09   29.78
   0   7  16   61.31   23.88
   0  -7  17   73.29   21.74
   0   7  17  107.84   26.97
   0  -7  18  104.08   25.76
   0   7  18   82.71   24.31
   0  -7  19   11.14    6.63
   0   7  19   -1.29   11.13
   0  -8   0  989.32   66.61
   0  -8  -1   26.36    7.95
   0  -8   1   28.40   12.75
   0  -8  -2  336.97   59.95
   0  -8   2  376.71   28.19
   0  -8  -3   44.18   14.25
   0  -8   3   39.00   13.54
   0  -8  -4  165.23   30.57
   0  -8   4  179.80   22.05
   0  -8  -5   16.60   12.08
   0  -8   5   12.29    8.93
   0  -8  -6  364.87   58.59
   0  -8   6  396.87   29.41
   0  -8  -7    7.11    6.82
   0  -8   7    8.22   13.10
   0  -8  -8   33.01    8.80
   0  -8   8   48.70   15.79
   0  -8  -9  463.94   82.93
   0  -8   9  480.39   72.64
   0  -8 -10   -0.53    6.77
   0  -8  10   11.25   13.45
   0  -8 -11   -2.50   11.56
   0  -8  11   12.09    7.04
   0  -8 -12  586.96  138.91
   0  -8  12  614.21  138.12
   0  -8  13   88.57   31.54
   0   8  13  103.41   30.35
   0  -8  14   48.12   16.66
   0   8  14    8.08   11.37
   0  -8  15   40.76   19.34
   0   8  15   23.25   12.68
   0  -9   0    3.48   11.51
   0  -9  -1  230.56   58.95
   0  -9   1  312.85   53.13
   0  -9  -2   30.45   14.20
   0  -9   2   30.27   17.50
   0  -9  -3   23.50   10.46
   0  -9   3   20.05    9.93
   0  -9  -4   42.33   15.43
   0  -9   4   55.84   20.64
   0  -9  -5   78.94   22.23
   0  -9   5  117.60   28.64
   0  -9  -6   39.52   17.26
   0  -9   6   26.66   13.39
   0  -9  -7   -4.19    8.35
   0  -9   7    1.50   10.13
   0  -9  -8  114.05   41.12
   0  -9   8  144.19   32.71
   0  -9  -9   19.92   11.53
   0  -9   9    9.66   12.24
   0  -9 -10  573.99  134.45
   0  -9  10  653.50   92.88
   1   0   0    1.15    1.24
   1   0   0   -0.42    5.68
  -1   0   0    9.88    4.73
   1   0   0   -0.29    3.49
  -1   0   0    8.31    3.31
   1   0   0   -2.26    6.26
  -1   0   0   11.86    5.52
   1   0   0   -0.20    4.40
  -1   0   0    4.89    3.65
  -1   0  -1 5038.80   61.38
   1   0   1 5025.41   61.27
   1   0  -1 4982.00   60.88
   1   0   1 4979.28   64.37
   1   0  -1 5016.53   65.72
  -1   0  -1 5011.38   65.28
  -1   0   1 5046.80   69.16
  -1   0   1 5022.39   65.17
   1   0   1 4943.41   64.21
  -1   0  -1 4961.66   65.40
   1   0   1 5026.97   66.07
  -1   0   1 4977.57   65.11
  -1   0  -1 4993.23   64.88
  -1   0  -1 5066.52   65.64
   1   0  -1 4898.24   63.08
  -1   0   1 5038.06   65.23
  -1   0  -2 3386.13   43.52
   1   0   2 3404.47   43.88
   1   0  -2 3427.50   44.33
   1   0   2 3450.87   46.52
  -1   0  -2 3408.58   49.00
   1   0  -2 3378.38   45.99
  -1   0   2 3391.11   46.47
  -1   0   2 3408.83   47.21
   1   0   2 3418.50   46.48
  -1   0  -2 3408.41   46.44
   1   0  -2 3411.81   46.48
  -1   0  -3 2496.70   34.98
   1   0   3 2475.21   34.69
   1   0  -3 2480.55   36.27
  -1   0   3 2603.58   37.28
   1   0   3 2493.30   35.51
  -1   0  -3 2537.05   36.30
   1   0  -3 2520.94   35.80
  -1   0   3 2567.22   42.25
   1   0   3 2526.39   35.95
  -1   0  -3 2477.49   35.27
  -1   0  -4  396.17   10.02
   1   0   4  399.97   11.61
   1   0  -4  437.54   17.35
  -1   0   4  385.10   11.21
   1   0   4  447.86   12.95
  -1   0  -4  448.65   22.50
   1   0  -4  436.03   11.41
  -1   0   4  409.20   46.35
   1   0   4  401.52   10.13
  -1   0  -4  398.88    9.88
  -1   0  -5 3391.58   48.33
   1   0   5 3298.06   48.09
   1   0  -5 3358.88   48.75
  -1   0   5 3365.91   54.23
   1   0   5 3300.88   44.63
  -1   0  -5 3234.20   45.70
   1   0  -5 3223.11   44.05
   1   0   5 3385.33   45.85
  -1   0  -5 3402.76   46.51
  -1   0  -6 8634.26  111.83
   1   0   6 8596.91  111.99
   1   0  -6 8593.91  111.62
  -1   0   6 8627.77  112.84
   1   0   6 8565.14  106.39
  -1   0  -6 8392.03  105.01
   1   0  -6 8584.63  107.96
   1   0   6 8236.16  102.64
  -1   0  -6 8400.77  104.49
  -1   0  -7 2092.60  137.68
   1   0  -7 2036.10   35.39
   1   0   7 2023.00   36.34
  -1   0   7 1930.08   35.37
   1   0  -7 2032.01   31.02
  -1   0   7 1969.60   30.74
   1   0   7 2036.18   32.58
  -1   0  -7 1951.70   29.12
  -1   0  -8 3293.15   75.94
   1   0  -8 3351.18   78.06
   1   0   8 3346.75   88.26
  -1   0   8 3230.74   75.79
   1   0  -8 3363.82   74.31
   1   0   8 3399.79   74.51
   1   0   9  537.29   21.46
  -1   0   9  497.47   25.21
   1   0  -9  601.50   17.42
   1   0   9  599.89   19.56
   1   0  1012249.31  264.08
  -1   0  1012230.32  264.00
   1   0 -1012111.00  253.78
   1   0  11 5491.44   83.77
  -1   0  11 5386.89  133.10
   1   0 -11 5621.51   72.82
   1   0  12    8.46    5.73
  -1   0  12   -7.72   14.66
  -1   0 -12    5.14    3.10
   1   0  13  715.21   43.24
  -1   0  13  747.03   36.81
   1   0 -13  691.15   23.08
   1   0  14   17.62    8.10
  -1   0  14    9.36   12.68
   1   0 -14   13.00    2.33
  -1   0  14   10.82    4.16
   1   0  15  526.79   30.70
  -1   0  15  533.84   31.60
  -1   0  15  472.74   19.67
   1   0  16  675.24   33.09
  -1   0  16  725.58   33.77
   1   0  17  603.57   37.76
  -1   0  17  615.66   42.58
   1   0  18  101.91   16.94
  -1   0  18  100.06   16.56
   1   0  19  120.05   20.51
  -1   0  19   78.97   20.90
   1   0  20 1132.12   40.01
  -1   0  20 1128.93  129.27
   1   0  21  152.24   19.69
  -1   0  21  177.07   18.84
   1   0  22  333.11  130.93
  -1   0  22  280.74  111.14
   1   0  23   17.88   14.45
  -1   0  23   28.55    7.08
   1   0  24  -11.44   12.62
  -1   0  24   18.72   13.45
   1   0  25  217.65   37.59
  -1   0  25  159.00   49.44
   1   0  26  692.33  122.56
  -1   0  26  690.09  126.67
   1   0  27  138.76   36.77
  -1   0  27  175.99   36.96
   1  -1   0 1472.44   25.35
   1  -1   0 1453.61   23.59
  -1  -1   0 1490.50   21.08
   1   1   0 1477.30   24.45
  -1  -1   0 1458.05   28.42
   1  -1   0 1470.80   21.92
  -1   1   0 1448.44   21.86
   1   1   0 1461.95   25.05
  -1   1   0 1455.74   23.18
   1   1   0 1473.45   25.67
  -1  -1   0 1453.18   24.15
  -1   1  -119682.40  239.82
   1  -1   119413.60  234.43
   1   1  -118623.79  222.33
  -1  -1  -119441.97  231.26
   1  -1  -119089.20  231.11
   1   1   118824.94  224.24
  -1   1   118416.35  223.12
  -1  -1   119057.52  232.11
   1  -1  -119627.04  234.25
  -1  -1   119240.69  233.61
  -1   1   118599.13  222.26
   1   1   118864.49  228.70
  -1  -1  -119191.87  235.43
   1  -1   119447.45  232.68
   1   1  -118675.54  226.11
   1   1   118756.36  227.67
   1   1   118807.58  228.37
  -1  -1  -118459.29  223.24
   1  -1  -118656.04  222.70
   1   1  -119453.44  235.04
  -1  -1   119163.01  232.31
  -1   1  -2 6878.06   87.79
   1  -1   2 6867.16   87.96
   1   1  -2 6800.11   84.55
  -1  -1   2 6866.73   86.63
  -1  -1  -2 6846.50   84.78
   1   1   2 6987.65   86.60
   1  -1  -2 6909.17   88.24
  -1   1   2 6936.89   89.72
  -1  -1   2 6867.91   88.41
   1   1   2 6825.47   87.51
  -1  -1  -2 6823.38   87.64
   1   1  -2 6782.17   87.26
   1   1   2 6899.03   92.65
  -1  -1   2 7018.55   94.56
  -1  -1  -2 6912.11   90.24
   1  -1  -2 6979.40   86.77
   1   1  -2 6914.82   89.29
  -1   1  -3 7602.38   97.82
   1  -1   3 7555.38   97.36
   1   1  -3 7532.08   94.35
  -1  -1   3 7617.80   95.81
  -1  -1  -3 7633.04   95.42
   1   1   3 7561.98   94.72
   1  -1  -3 7691.64   98.72
  -1   1   3 7777.09  100.22
  -1  -1   3 7776.06   99.13
   1   1   3 7623.58   97.35
   1   1  -3 7835.78   99.07
   1   1   3 7463.99   96.78
  -1  -1   3 7837.95  100.71
  -1   1  -4 1037.16   20.66
   1   1  -4 1029.11   19.38
  -1  -1   4 1008.18   19.79
  -1  -1  -4 1006.94   18.78
   1   1   4 1017.54   19.72
   1  -1  -4 1033.14   24.79
  -1   1   4  994.02   21.70
  -1  -1   4  987.31   18.43
   1   1  -4 1030.03   19.46
   1   1   4 1041.29   25.93
  -1  -1   4  956.43   18.59
  -1   1  -5 1100.29   22.77
   1  -1   5 1121.55   23.43
   1   1  -5 1186.51   22.12
  -1  -1   5 1105.02   23.32
  -1  -1  -5 1120.59   21.34
   1  -1  -5 1139.10   22.68
   1   1   5 1133.86   24.16
  -1   1   5 1131.34   24.90
  -1  -1   5 1196.04   24.86
   1   1  -5 1189.46   20.74
   1   1   5 1115.04   47.91
  -1  -1   5 1150.31   21.81
  -1   1  -613826.61  174.18
   1   1  -613668.98  170.88
   1  -1   613534.00  171.97
  -1  -1   613351.88  168.14
  -1  -1  -613178.87  165.53
   1  -1  -613643.06  171.31
   1   1   613569.87  170.14
  -1   1   613504.54  171.81
  -1  -1   613383.98  163.94
   1   1  -613200.18  162.47
   1   1   613611.79  170.08
  -1  -1   613221.61  163.39
  -1   1  -7 1716.75   43.44
   1   1  -7 1729.50   43.60
   1  -1   7 1721.96   44.52
  -1  -1   7 1695.99   44.24
  -1  -1  -7 1754.80   43.83
   1  -1  -7 1835.01   46.14
   1   1   7 1726.71   45.03
  -1   1   7 1774.05   46.98
  -1  -1   7 1684.27   41.28
   1  -1   7 1740.87   40.00
   1   1  -7 1740.44   40.09
   1   1   7 1698.28   62.42
   1  -1   815265.19  194.82
  -1  -1   814653.40  311.73
  -1  -1  -815359.80  194.16
   1   1   814970.60  318.27
  -1   1   815023.13  192.35
  -1  -1   814639.95  307.03
   1  -1   815198.05  185.11
  -1   1  -815106.82  184.28
   1   1  -814749.16  308.67
   1   1   815041.43  185.46
   1  -1   9  860.65   28.82
  -1  -1   9  877.07   28.62
   1   1   9  917.72   30.43
  -1   1   9  875.07   34.32
   1  -1   9  896.88   22.52
  -1  -1   9  915.28   23.46
  -1   1  -9  924.51   22.68
   1   1   9  931.24   25.25
   1  -1  10  575.95   53.74
  -1  -1  10  478.31   18.69
   1   1  10  502.82   19.66
  -1   1  10  530.14   36.45
   1  -1  10  474.10   17.54
  -1   1 -10  510.97   11.47
   1   1  10  502.98   18.67
   1  -1  11   12.22    6.77
  -1  -1  11   14.75    5.85
   1   1  11   10.12    6.63
  -1   1  11   48.74   14.03
  -1  -1 -11    7.55    2.84
   1  -1  11    6.57    2.44
  -1   1 -11   10.75    2.75
   1   1  11   14.60    5.54
   1  -1  12 2879.95   84.66
  -1  -1  12 2880.42   84.22
   1   1  12 2820.88  105.73
  -1   1  12 3057.22   89.12
   1   1  12 3077.38   84.61
   1  -1  13  830.34   50.59
  -1  -1  13  918.95   74.13
   1   1  13  787.06   43.17
  -1   1  13  885.12   58.96
   1   1  13  884.11   38.55
   1  -1  14 4025.62  131.68
  -1  -1  14 3953.71  133.09
   1   1  14 4151.28  154.19
  -1   1  14 3803.52  138.11
   1   1  14 4230.35  128.87
   1  -1  15 1014.09   66.27
  -1  -1  15 1038.78   80.70
   1   1  15  897.77   46.66
  -1   1  15 1094.21  105.63
   1   1  15  995.02   39.67
   1  -1  16 5114.30  149.15
  -1  -1  16 4956.27  141.85
   1   1  16 5030.35  143.16
  -1   1  16 4846.83  139.19
  -1  -1 -16 4523.16  118.47
   1   1  16 4935.84  128.42
   1  -1  17 1048.81   62.71
  -1  -1  17  954.25   58.56
   1   1  17 1028.88   58.30
  -1   1  17  946.36   51.03
  -1  -1 -17  983.01   45.16
   1  -1  18  976.98   51.28
  -1  -1  18 1009.10   46.92
   1   1  18  939.23   53.54
  -1   1  18 1062.22   58.34
   1  -1  19  516.21   37.95
  -1  -1  19  596.52   86.50
   1   1  19  548.13   87.50
  -1   1  19  496.60   28.29
   1  -1  20   89.86   17.19
  -1  -1  20   96.26   18.21
   1   1  20   96.39   15.11
  -1   1  20   60.12   12.20
   1  -1  21  501.44   34.58
  -1  -1  21  567.93   32.13
   1   1  21  406.32   87.93
  -1   1  21  454.72   76.21
   1  -1  22   13.05   14.14
  -1  -1  22   43.94   21.14
   1   1  22   15.80   17.34
  -1   1  22   14.41   10.79
   1  -1  23  478.12   49.14
  -1  -1  23  489.89   44.16
   1   1  23  426.37   81.84
  -1   1  23  453.18   43.51
   1  -1  24   68.84   20.39
  -1  -1  24  113.16   24.17
   1   1  24   96.72   23.38
  -1   1  24  125.88   29.25
   1  -1  25  141.76   31.80
  -1  -1  25  131.76   30.04
   1   1  25  172.05   31.80
  -1   1  25  150.40   29.62
   1  -1  26   40.00   14.23
  -1  -1  26   35.25   13.48
   1   1  26   18.04   10.20
  -1   1  26   70.13   23.36
   1  -1  27   53.48   17.52
  -1  -1  27   13.41   12.16
   1   1  27    5.43   11.02
  -1   1  27   34.31   14.96
   1  -1  28    5.79   12.63
   1  -2   036871.17  448.15
  -1  -2   034964.79  419.03
  -1  -2   036123.80  430.85
   1  -2   035802.60  432.14
  -1  -2   035370.38  423.29
   1  -2   036187.98  427.07
   1   2   036404.54  435.76
  -1  -2   035956.61  429.64
  -1   2  -154584.53 1135.39
   1   2  -152155.59  620.16
   1  -2   153613.22  641.44
  -1  -2   151612.69  615.68
  -1  -2  -153131.71  630.09
   1  -2  -154278.51 1127.09
  -1   2   152388.94  625.60
  -1  -2   151569.11  655.07
   1   2   156740.62 1189.10
  -1  -2  -154193.00 1124.64
   1  -2   214326.95  181.86
  -1  -2   214698.91  181.88
  -1  -2  -215000.41  184.40
   1  -2  -214839.71  186.77
   1   2   215290.09  188.20
  -1   2   214301.23  170.45
   1   2   215422.24  189.21
  -1  -2  -215172.93  186.74
  -1  -2  -214461.78  178.49
   1   2  -214996.87  185.34
   1   2  -3  605.32   21.87
   1  -2   3  620.57   17.97
  -1  -2   3  580.84   16.43
  -1  -2  -3  617.43   15.23
   1  -2  -3  579.07   29.89
   1   2   3  563.57   15.02
  -1   2   3  569.98   17.26
   1   2   3  572.81   15.60
  -1   2  -4 5158.79   77.30
   1   2  -4 5119.80   70.18
   1  -2   4 5069.21   73.27
  -1  -2   4 4999.88   70.89
  -1  -2  -4 5212.57  113.63
   1  -2  -4 5049.88   71.92
   1   2   4 5017.12   71.71
  -1   2   4 5118.45   73.93
   1   2   4 4990.73   68.02
  -1   2  -5  150.50   10.24
   1   2  -5  143.21   11.58
   1  -2   5  111.25   10.61
  -1  -2   5  136.89    9.68
  -1  -2  -5  130.43    8.78
   1  -2  -5  168.60   19.82
   1   2   5  164.50   30.20
  -1   2   5  185.80   38.60
   1   2  -6 2911.19   67.74
   1  -2   6 2744.60   66.39
  -1  -2   6 2926.46   68.37
  -1  -2  -6 2866.90   67.25
   1   2   6 2691.59   64.59
  -1   2   6 2797.25   68.63
   1   2  -6 2993.90   68.57
   1  -2   7 4597.34  105.35
  -1  -2   7 4663.99  109.61
   1   2   7 4631.32  104.66
  -1   2   7 4509.97  105.10
   1   2  -7 4657.02  102.26
   1  -2   8  425.16   20.50
  -1  -2   8  405.50   17.34
   1   2   8  426.49   19.47
  -1   2   8  446.35   27.83
  -1  -2   8  417.11   15.96
   1   2  -8  384.15   14.06
   1  -2   9 1674.06   40.40
  -1  -2   9 1574.93   41.02
   1   2   9 1535.98   34.32
  -1   2   9 1617.32   36.48
  -1  -2   9 1616.63   44.43
   1   2  -9 1664.27   32.53
   1  -2  10  782.64   40.34
  -1  -2  10  721.49   24.54
   1   2  10  761.43   23.23
  -1   2  10  751.50   24.93
  -1  -2  10  766.55   21.33
   1   2 -10  767.18   19.80
   1  -2  11 3135.11   90.14
  -1  -2  11 3288.74   93.33
   1   2  11 3259.75  107.63
  -1   2  11 3262.53   97.32
  -1  -2  11 3303.63   86.53
   1   2 -11 3216.53   85.39
   1  -2  12  114.04   14.47
  -1  -2  12  123.08   14.66
   1   2  12   75.99   12.56
  -1   2  12  122.50   18.19
  -1  -2  12  100.38   16.95
   1  -2  12   76.04   14.36
   1   2 -12   99.49   11.81
   1  -2  13 1419.31   77.87
  -1  -2  13 1322.18   53.08
   1   2  13 1316.38   50.63
  -1   2  13 1363.44   55.20
   1  -2  13 1400.99   45.73
  -1  -2  13 1412.42   50.34
   1   2 -13 1346.68   44.62
  -1   2 -13 1378.54   43.96
   1  -2  14 2435.38   85.27
  -1  -2  14 2348.06   82.93
   1   2  14 2278.93   79.02
  -1   2  14 2198.60   78.63
   1  -2  14 2230.09   68.12
   1  -2  15 1550.21   80.66
  -1  -2  15 1550.75   54.83
   1   2  15 1422.40   50.03
  -1   2  15 1492.23   65.88
   1  -2  16  910.36   95.32
  -1  -2  16  780.65   51.73
   1   2  16  781.26   38.34
  -1   2  16  941.18   73.90
   1  -2  17 1413.35   66.83
  -1  -2  17 1319.36   85.87
   1   2  17 1287.55   56.78
  -1   2  17 1348.36   78.41
  -1  -2 -17 1422.77   65.35
   1  -2  18  255.07   41.85
  -1  -2  18  262.70   61.38
   1   2  18  273.88   27.70
  -1   2  18  166.03   19.49
  -1  -2 -18  215.01   34.41
   1  -2  19  523.63   74.96
  -1  -2  19  548.31   28.45
   1   2  19  541.17   36.22
  -1   2  19  492.36   28.65
   1  -2  20  626.80   32.86
  -1  -2  20  584.98   94.43
   1   2  20  578.83   97.75
  -1   2  20  710.97   80.42
   1  -2  21 1043.17  379.24
  -1  -2  21  974.60  352.74
   1   2  21 1087.48  391.91
  -1   2  21 1072.12  391.74
   1  -2  22   45.89   19.72
  -1  -2  22   17.99    5.35
   1   2  22    7.82   15.66
  -1   2  22    9.90   10.56
   1  -2  23  460.52   96.69
  -1  -2  23  584.66   39.97
   1   2  23  554.08   37.85
  -1   2  23  489.25   80.15
   1  -2  24   98.18   19.50
  -1  -2  24   86.41   25.24
   1   2  24   98.91   21.96
  -1   2  24   91.25   15.69
   1  -2  25   57.90   17.46
  -1  -2  25   43.87   19.50
   1   2  25   16.06    6.74
  -1   2  25   37.35   17.60
   1  -2  26  263.04   46.36
  -1  -2  26  252.52   73.18
   1   2  26  268.58   64.22
  -1   2  26  236.50   59.72
   1  -2  27   85.64   25.15
  -1  -2  27   99.99   26.37
   1   2  27   59.22   17.24
  -1   2  27   62.43   24.08
   1  -3   0 3815.69   89.46
  -1  -3   0 3711.16   91.35
  -1  -3   0 3721.52   84.27
  -1  -3   0 3752.83   83.78
   1  -3   0 3534.58   74.01
   1   3   0 3845.63   87.97
   1  -3  -1 2940.04   71.41
  -1  -3  -1 2921.22   69.15
   1  -3   1 2972.16   71.77
  -1  -3   1 2904.97   68.35
  -1  -3  -1 3011.09   69.64
  -1  -3   1 3042.09   70.57
  -1  -3   1 3083.95   70.42
  -1  -3  -1 2943.57   70.83
   1   3   1 3076.59   73.65
  -1  -3  -1 2994.06   67.71
   1   3  -2  169.27   10.20
   1  -3   2  177.54   16.14
  -1  -3   2  160.41   11.20
  -1  -3  -2  160.62   10.18
  -1   3   2  142.80   13.52
   1   3   2  148.23   12.59
  -1  -3   2  170.13   11.05
   1   3   2  174.79   11.76
  -1  -3  -2  174.43   16.48
  -1  -3  -2  139.28    7.80
   1   3  -2  174.26   11.23
   1  -3   3 1518.63   42.46
  -1  -3   3 1465.49   39.30
  -1  -3  -3 1485.93   49.10
  -1   3   3 1413.77   40.17
   1   3   3 1395.49   37.54
   1   3   3 1481.39   37.13
  -1  -3  -3 1413.73   35.62
   1   3  -3 1446.50   40.89
   1  -3   4 1674.07   46.77
  -1  -3   4 1629.29   42.70
   1   3   4 1676.78   45.37
  -1   3   4 1634.38   55.37
   1   3   4 1673.27   40.86
  -1  -3  -4 1727.66   42.50
   1  -3  -4 1677.09   38.08
   1  -3   5  219.59   14.86
  -1  -3   5  275.46   14.68
   1   3   5  253.81   13.84
  -1   3   5  257.24   17.74
   1   3   5  286.77   12.98
  -1  -3  -5  216.32   20.55
   1  -3   6 1873.18   40.07
  -1  -3   6 1885.58   37.58
   1   3   6 1814.55   36.60
  -1   3   6 1909.72   40.64
   1   3   6 1897.36   33.69
   1  -3   7 1625.15   36.41
  -1  -3   7 1698.30   70.38
   1   3   7 1565.96   34.68
  -1   3   7 1572.14   36.49
   1   3   7 1634.59   31.68
   1  -3   8  381.43   50.82
  -1  -3   8  338.15   17.95
   1   3   8  362.10   25.67
  -1   3   8  346.42   18.78
   1  -3   9  675.75   27.55
  -1  -3   9  675.54   37.65
   1   3   9  633.62   26.99
  -1   3   9  757.57   47.36
   1  -3  10 1285.96   44.37
  -1  -3  10 1377.09   50.02
   1   3  10 1336.10   45.36
  -1   3  10 1412.78   56.37
   1   3 -10 1431.44   48.92
   1  -3  11 2570.41   87.82
  -1  -3  11 2620.90   92.39
   1   3  11 2506.66   84.79
  -1   3  11 2562.92   87.73
   1   3 -11 2419.81   77.58
   1  -3  12    9.38    9.71
  -1  -3  12   12.83   10.29
   1   3  12   12.12   13.24
  -1   3  12    4.14   10.13
  -1  -3  12    6.56    3.90
   1   3 -12   10.19    3.92
   1  -3  13 2286.32   78.96
  -1  -3  13 2200.80  112.57
   1   3  13 2190.18   69.49
  -1   3  13 2187.74   70.59
  -1  -3  13 2219.91   66.69
   1   3 -13 2232.18   66.52
   1  -3  14   35.71   14.03
  -1  -3  14   41.31   11.75
   1   3  14   58.95   12.45
  -1   3  14   28.10   13.14
  -1  -3  14   27.96    8.49
   1   3 -14   32.71    8.23
   1  -3  15 2181.41   86.82
  -1  -3  15 2294.99   89.17
   1   3  15 2219.66   85.99
  -1   3  15 2377.75  126.35
  -1  -3  15 2207.75   80.52
   1  -3  16  670.51   39.87
  -1  -3  16  653.50   39.91
   1   3  16  617.78   38.19
  -1   3  16  738.01  118.93
  -1  -3  16  636.52   28.46
  -1   3 -16  681.07   30.32
   1  -3  17  680.15   39.12
  -1  -3  17  679.56   53.95
   1   3  17  604.00   33.95
  -1   3  17  702.38   34.63
   1  -3  18  316.54   57.02
  -1  -3  18  363.14   50.47
   1   3  18  317.78   51.59
  -1   3  18  306.10   24.93
   1  -3  19  179.29   36.79
  -1  -3  19  165.65   26.92
   1   3  19  195.92   37.81
  -1   3  19  160.17   20.11
   1  -3  20  661.55  239.31
  -1  -3  20  590.40  222.73
   1   3  20  662.74  241.33
  -1   3  20  645.35  250.13
   1  -3  21  247.05   43.15
  -1  -3  21  307.79   58.52
   1   3  21  313.20   64.38
  -1   3  21  270.11   55.98
   1  -3  22   35.93   15.98
  -1  -3  22   43.65   15.13
   1   3  22   21.59    8.31
  -1   3  22   37.35   11.68
   1  -3  23  667.91   96.83
  -1  -3  23  589.92  115.82
   1   3  23  739.06  101.92
  -1   3  23  609.74  119.89
   1  -3  24  103.67   18.98
  -1  -3  24  116.72   25.34
   1   3  24  114.17   23.29
  -1   3  24  109.67   25.94
   1  -3  25  130.83   28.89
  -1  -3  25  108.17   30.44
   1   3  25  157.82   30.73
  -1   3  25  173.38   34.28
   1  -3  26  181.30   55.14
  -1  -3  26  309.57   61.83
   1   3  26  229.31   47.38
  -1   3  26  225.55   47.66
   1  -4   0 4396.97   76.94
  -1  -4   0 4385.05   85.65
  -1  -4   0 4429.80   66.65
   1   4   0 4466.15   72.58
   1  -4  -113956.40  364.36
  -1  -4  -114157.04  362.84
   1  -4   113997.82  360.51
  -1  -4   113923.02  188.81
  -1  -4   113877.84  179.06
  -1  -4  -113931.92  175.46
   1   4   114105.27  369.70
   1   4  -113598.38  173.39
   1  -4  -2 2651.27   52.40
  -1  -4  -2 2598.73   49.92
   1  -4   2 2581.36   50.55
  -1  -4   2 2657.06   49.45
  -1  -4   2 2604.09   45.68
  -1  -4  -2 2622.26   42.45
   1   4  -2 2484.90   40.00
  -1  -4  -2 2623.62   49.92
   1  -4   3 1890.36   41.28
  -1  -4   3 1870.76   51.78
  -1   4   3 2012.13   81.84
   1   4   3 1841.82   65.91
  -1  -4  -3 1831.75   31.31
   1   4  -3 1881.98   35.95
   1  -4   4 2537.87   75.49
  -1  -4   4 2451.88   71.27
  -1   4   4 2528.44   75.52
   1   4   4 2486.16   72.75
   1   4   4 2498.16   70.58
   1  -4   5  798.87   42.07
  -1  -4   5  859.18   32.33
   1   4   5  857.21   32.71
  -1   4   5  883.15   39.77
   1   4   5  851.89   30.58
  -1  -4  -5  858.96   27.37
   1  -4   6   24.86    9.47
  -1  -4   6   48.05   11.21
   1   4   6   50.64    7.77
  -1   4   6   65.46   14.02
   1   4   6   46.01    7.82
  -1  -4  -6   54.06   18.11
   1  -4   7  998.39   37.43
  -1  -4   7 1021.43   39.26
   1   4   7 1040.01   37.62
  -1   4   7 1044.62   41.14
   1   4   7 1051.81   35.87
  -1  -4  -7  979.77   35.88
   1  -4   8 1499.87   56.36
  -1  -4   8 1509.46   57.31
   1   4   8 1474.65   54.23
  -1   4   8 1592.02   69.41
  -1  -4  -8 1476.40   50.39
   1  -4   9 1096.77   45.23
  -1  -4   9 1021.35   42.42
   1   4   9 1028.41   42.69
  -1   4   9 1079.11   44.87
   1  -4  10 1713.85   58.30
  -1  -4  10 1701.74   69.07
   1   4  10 1653.37   55.14
   1  -4  11  383.42   24.72
  -1  -4  11  412.11   77.30
   1   4  11  446.99   62.71
  -1   4  11  416.60   26.95
   1  -4  12  248.27   46.30
  -1  -4  12  235.04   30.07
   1   4  12  243.03   22.61
  -1   4  12  247.59   24.64
   1  -4  13  266.61   59.45
  -1  -4  13  290.28   40.22
   1   4  13  282.81   48.62
  -1   4  13  299.85   49.12
   1  -4  14 1149.20   69.24
  -1  -4  14 1103.74   50.05
   1   4  14 1141.19   88.20
  -1   4  14 1157.82   69.66
  -1  -4  14 1064.08   43.25
   1  -4  15  306.41   55.84
  -1  -4  15  330.03   58.29
   1   4  15  307.08   63.03
  -1   4  15  369.49   63.42
  -1  -4  15  293.47   33.49
   1  -4  16 1357.60   40.72
  -1  -4  16 1424.91   45.74
   1   4  16 1354.37   42.26
  -1   4  16 1341.15  101.67
  -1  -4  16 1278.43   33.38
   1  -4  17  155.55   20.24
  -1  -4  17  157.01   31.87
   1   4  17  157.66   20.33
  -1   4  17  202.42   24.35
   1  -4  18  363.50   36.50
  -1  -4  18  396.62   53.59
   1   4  18  430.26   44.52
  -1   4  18  296.89   51.25
   1  -4  19   24.28   15.21
  -1  -4  19   18.28    9.31
   1   4  19    8.53    6.58
  -1   4  19    9.02    8.44
   1  -4  20  262.65   43.86
  -1  -4  20  243.05   28.92
   1   4  20  259.63   47.69
  -1   4  20  316.89   34.73
   1  -4  21  409.45   34.80
  -1  -4  21  385.96   66.06
   1   4  21  389.58   30.95
  -1   4  21  391.80   31.41
   1  -4  22   53.08   18.79
  -1  -4  22   67.74   15.80
   1   4  22   21.15   13.43
  -1   4  22   56.57   23.23
   1  -4  23  712.13  172.05
  -1  -4  23  824.79  134.37
   1   4  23 1060.33  163.96
  -1   4  23  887.25  138.51
   1  -4  24  157.00   51.77
  -1  -4  24  152.09   38.68
   1   4  24  154.63   31.25
  -1   4  24  235.67   46.05
   1  -4  25  251.00   72.26
  -1  -4  25  264.05   78.60
   1   4  25  200.62   71.28
  -1   4  25  311.78   61.33
   1  -5   0    6.57    8.11
  -1  -5   0   10.78    7.69
  -1  -5   0   10.64    3.70
   1   5   0    2.90    2.67
   1  -5  -1   15.18    8.71
  -1  -5  -1    4.95    6.07
   1  -5   1   24.83   16.17
  -1  -5   1    7.56    8.17
  -1  -5   1   27.18    3.96
  -1  -5  -1   22.36    6.17
   1   5  -1    9.75    5.74
   1  -5  -2  114.91   21.45
  -1  -5  -2  129.92   31.82
   1  -5   2  118.12   19.19
  -1  -5   2  137.63   20.73
  -1  -5   2  116.89   18.87
   1   5  -2   66.78   14.11
   1  -5  -3 1178.70   86.02
  -1  -5  -3 1267.49   49.21
   1  -5   3 1274.90   50.83
  -1  -5   3 1281.22   49.91
  -1  -5   3 1247.94   66.61
   1  -5  -4 1944.30   94.87
  -1  -5  -4 1926.30   88.85
   1  -5   4 2068.00   74.04
  -1  -5   4 1986.31   70.27
  -1  -5   4 2078.27   71.90
  -1  -5  -4 1906.25   62.38
   1  -5   5  681.00   31.52
  -1  -5   5  674.21   30.83
  -1   5   5  630.97   31.10
   1   5   5  672.21   29.67
   1   5   5  620.38   25.66
  -1  -5  -5  622.07   25.59
   1  -5   6 2859.17  101.51
  -1  -5   6 2906.09   87.73
  -1   5   6 3065.33   95.08
   1   5   6 3060.25   92.63
   1  -5   7  694.30   86.88
  -1  -5   7  589.28   27.51
   1   5   7  606.50   27.83
  -1   5   7  620.42   30.83
   1   5   7  596.31   29.52
  -1  -5  -7  582.43   23.72
   1  -5   8  847.03   41.92
  -1  -5   8  844.81   39.77
   1   5   8  892.42   41.07
  -1   5   8  955.04   67.54
  -1   5   8  858.00   30.00
  -1  -5  -8  816.50   33.24
   1  -5   9 2382.47   92.17
  -1  -5   9 2355.30  100.47
   1   5   9 2507.16   94.63
  -1   5   9 2364.17  133.75
  -1  -5  -9 2402.39   86.81
   1  -5  10  537.99   31.97
  -1  -5  10  566.24   33.07
   1   5  10  500.18   29.35
  -1   5  10  565.13   53.34
  -1  -5 -10  455.03   38.80
   1  -5  11 6366.18   85.81
  -1  -5  11 6240.32   89.96
   1   5  11 6252.56   76.66
  -1   5  11 6179.34  219.18
  -1  -5 -11 6078.84  209.01
   1  -5  12  441.85   27.10
  -1  -5  12  401.43   22.56
   1   5  12  423.26   27.40
  -1   5  12  460.09   31.15
   1  -5  13  995.39   35.36
  -1  -5  13 1080.03   38.44
   1   5  13 1098.35   37.81
  -1   5  13 1059.99   36.40
   1  -5  14   89.96   16.44
  -1  -5  14  115.07   13.67
   1   5  14   83.78   16.52
  -1   5  14   97.76   20.98
   1  -5  15  223.37   20.98
  -1  -5  15  167.45   33.67
   1   5  15  202.37   20.49
  -1   5  15  199.84   21.26
   1  -5  16  354.76  129.23
  -1  -5  16  343.35  138.28
   1   5  16  380.24  138.69
  -1   5  16  384.73  142.59
   1  -5  17  191.85   49.88
  -1  -5  17  225.46   44.35
   1   5  17  250.33   31.50
  -1   5  17  244.95   28.67
   1  -5  18  132.02   22.20
  -1  -5  18  191.25   26.53
   1   5  18  121.81   29.88
  -1   5  18  156.10   26.20
   1  -5  19  204.72   37.89
  -1  -5  19  179.83   24.02
   1   5  19  119.13   23.60
  -1   5  19  150.76   25.74
   1  -5  20  152.00   30.33
  -1  -5  20  153.68   32.25
   1   5  20  112.93   36.16
  -1   5  20  158.21   37.30
   1  -5  21   76.38   21.28
  -1  -5  21   52.35   18.39
   1   5  21   33.59   14.17
  -1   5  21   59.56   15.93
   1  -5  22   11.20    9.80
  -1  -5  22   -9.13   11.14
  -1   5  22   26.77   13.15
   1  -5  23   28.67   13.40
  -1  -5  23   27.02   15.70
   1   5  23    4.06   11.88
  -1   5  23    6.28    7.96
  -1  -5  24   95.57   20.55
   1   5  24   87.57   29.05
   1  -6   0   13.20    8.23
  -1  -6   0    0.02    9.68
  -1  -6   0   13.29    6.20
   1  -6  -1  604.20   49.73
  -1  -6  -1  580.15   85.88
   1  -6   1  620.04   36.30
  -1  -6   1  587.45   70.47
  -1  -6   1  576.57   28.50
   1  -6  -2  331.35   61.95
  -1  -6  -2  275.08   49.77
   1  -6   2  307.97   53.56
  -1  -6   2  337.38   25.30
  -1  -6   2  309.93   29.45
   1  -6  -3  524.60   85.69
  -1  -6  -3  553.95   51.03
   1  -6   3  560.12   33.44
  -1  -6   3  546.78   75.13
  -1  -6   3  481.64   36.93
   1  -6  -4  713.86   37.07
  -1  -6  -4  703.28   51.44
   1  -6   4  717.09   38.23
  -1  -6   4  776.33   38.78
  -1  -6   4  740.55   34.00
   1  -6  -5  472.45   34.61
  -1  -6  -5  486.48   28.93
   1  -6   5  411.70   28.68
  -1  -6   5  498.56   63.04
  -1  -6   5  439.65   26.37
   1  -6  -6  313.16   61.09
  -1  -6  -6  287.93   25.17
   1  -6   6  308.11   67.44
  -1  -6   6  311.28   23.45
  -1  -6   6  302.48   45.18
   1  -6   7  568.76   27.22
  -1  -6   7  525.01   24.73
  -1   6   7  525.74   26.52
   1   6   7  472.25   96.51
  -1  -6  -7  515.98   19.35
   1  -6   8  596.70   29.52
  -1  -6   8  696.51   29.71
  -1   6   8  646.56   29.92
   1   6   8  699.56   28.93
  -1  -6  -8  614.88   15.86
   1  -6   9   11.61   10.19
  -1  -6   9   12.59   14.72
   1   6   9   13.75   11.14
  -1   6   9   48.33   15.31
  -1  -6  -9   -4.76    6.18
   1  -6  10  123.62   17.90
  -1  -6  10  105.85   17.70
  -1   6  10  122.71   17.15
   1   6  10  122.10   19.62
  -1  -6 -10   61.08   15.79
   1  -6  11  813.29   33.44
  -1  -6  11  863.20   34.06
   1   6  11  773.59   43.27
  -1   6  11  797.47   34.88
   1  -6  12   59.25   15.08
  -1  -6  12   62.95   17.39
   1   6  12   53.94   11.06
  -1   6  12   12.12   13.28
   1  -6  13  847.63  305.20
  -1  -6  13  858.38  309.09
   1   6  13  954.02  342.78
  -1   6  13  984.62  366.01
   1  -6  14  277.50   58.83
  -1  -6  14  295.61   35.80
   1   6  14  311.75   51.47
  -1   6  14  284.29   30.57
   1  -6  15   43.62   21.45
  -1  -6  15   35.88   16.71
   1   6  15   68.93   17.07
  -1   6  15   29.54   11.31
   1  -6  16  285.75   29.05
  -1  -6  16  230.34   49.93
   1   6  16  293.94   30.14
  -1   6  16  310.21   27.68
   1  -6  17  113.46   33.87
  -1  -6  17   95.37   21.21
   1   6  17  110.39   22.36
  -1   6  17   91.15   21.71
   1  -6  18   90.84   23.27
  -1  -6  18  106.20   26.45
   1   6  18   72.27   19.71
  -1   6  18  149.91   32.06
   1  -6  19  210.80   56.17
  -1  -6  19  297.29   55.19
   1   6  19  207.74   38.08
  -1   6  19  261.72   46.64
   1  -6  20   54.12   23.58
  -1  -6  20   18.67   17.32
   1   6  20   -1.75   10.84
  -1   6  20   31.35   15.24
   1  -6  21   56.75   20.33
  -1  -6  21   31.32   10.39
   1   6  21   33.94   13.78
  -1   6  21    0.47   13.44
  -1  -6  22   61.98   18.98
   1   6  22   77.24   19.14
   1  -7   0  880.00   35.29
  -1  -7   0  910.10   45.50
   1  -7  -1  423.48   56.89
  -1  -7  -1  447.02   45.87
   1  -7   1  380.67   59.49
  -1  -7   1  445.80   25.08
   1  -7  -2   91.73   23.34
  -1  -7  -2   84.72   14.99
   1  -7   2  120.24   19.41
  -1  -7   2  124.67   16.58
   1  -7  -3  303.94   51.74
  -1  -7  -3  370.75   58.37
   1  -7   3  361.79   25.33
  -1  -7   3  352.24   23.72
   1  -7  -4  169.04   34.99
  -1  -7  -4  165.44   26.14
   1  -7   4  172.03   20.99
  -1  -7   4  159.92   18.60
   1  -7  -5  321.52   50.20
  -1  -7  -5  288.16   47.70
   1  -7   5  373.35   61.65
  -1  -7   5  348.23   24.12
   1  -7  -6  178.07   25.88
  -1  -7  -6  211.77   26.40
   1  -7   6  170.68   31.09
  -1  -7   6  184.78   19.64
   1  -7  -7  164.67   62.95
  -1  -7  -7  111.16   43.82
   1  -7   7  151.68   58.36
  -1  -7   7  118.03   45.96
   1  -7  -8   78.50   36.86
  -1  -7  -8   69.41   28.98
   1  -7   8   83.18   34.42
  -1  -7   8   76.77   30.80
  -1  -7  -9  287.01   55.22
   1  -7   9  269.07   28.22
  -1  -7   9  281.62   30.83
   1  -7  10  491.13   43.23
  -1  -7  10  482.34   47.08
  -1   7  10  509.65   46.59
   1   7  10  380.15   70.19
   1  -7  11 1076.57   56.92
  -1  -7  11  847.78  119.93
   1   7  11 1127.38   61.07
  -1   7  11  909.55   50.56
   1  -7  12   59.02   20.90
  -1  -7  12   28.70   12.99
  -1   7  12   13.52   15.85
   1   7  12   14.92   11.55
   1  -7  13  300.60   47.14
  -1  -7  13  226.11   51.79
  -1   7  13  333.26   50.85
   1   7  13  270.21   40.97
   1  -7  14   93.77   21.27
  -1  -7  14  137.96   29.69
   1   7  14   99.28   20.95
  -1   7  14  105.75   23.22
   1  -7  15    5.48    8.72
  -1  -7  15    7.55   11.38
   1   7  15    5.71    6.69
  -1   7  15   36.35   17.42
   1  -7  16  568.90  149.86
  -1  -7  16  669.86  116.65
   1   7  16  571.12   90.11
  -1   7  16  462.46  108.98
   1  -7  17   84.64   23.76
  -1  -7  17   93.48   24.92
   1   7  17  157.19   31.75
  -1   7  17  154.79   36.33
   1  -7  18  540.14  101.11
  -1  -7  18  615.15  113.72
   1   7  18  312.58  117.02
  -1   7  18  374.27  121.32
  -1  -7  19  120.56   25.45
   1   7  19   20.00   13.00
   1  -8   0   39.74   21.83
  -1  -8   0    8.11   11.11
   1  -8  -1   68.90   13.81
  -1  -8  -1   41.38   12.02
   1  -8   1  108.55   23.18
  -1  -8   1   23.61   11.86
   1  -8  -2  756.59   56.23
  -1  -8  -2  654.28  101.82
   1  -8   2  789.34   47.01
  -1  -8   2  746.71  114.07
   1  -8  -3  115.46   25.77
  -1  -8  -3   90.86   15.78
   1  -8   3   96.12   18.61
  -1  -8   3   91.07   22.99
   1  -8  -4 1378.22  208.01
  -1  -8  -4 1409.91  214.16
   1  -8   4 1371.62  183.74
  -1  -8   4 1277.60   93.79
   1  -8  -5   73.30   21.03
  -1  -8  -5   48.07   24.59
   1  -8   5   65.34   18.58
  -1  -8   5   86.98   22.09
   1  -8  -6  499.56   94.43
  -1  -8  -6  549.64   98.31
   1  -8   6  704.35   98.69
  -1  -8   6  685.07   95.35
   1  -8  -7   63.25   16.25
  -1  -8  -7   60.71   16.35
   1  -8   7   39.37   19.72
  -1  -8   7   45.42   18.13
   1  -8  -8   20.46   11.91
  -1  -8  -8   14.90   12.90
   1  -8   8    5.76   11.63
  -1  -8   8   -3.91   11.21
   1  -8  -9  190.05   47.83
  -1  -8  -9  176.19   34.79
   1  -8   9  198.72   37.75
  -1  -8   9  179.12   32.06
   1  -8 -10   16.70   14.44
  -1  -8 -10   23.35   17.28
   1  -8  10    7.72   16.25
  -1  -8  10   29.36    9.68
   1  -8 -11  214.42   61.97
  -1  -8 -11  236.00   56.49
   1  -8  11  347.59   60.44
  -1  -8  11  275.89   58.16
   1  -8 -12   19.64    7.23
  -1  -8 -12   20.57    7.42
   1  -8  12   14.95   13.96
  -1  -8  12   21.94    9.92
   1  -8  13   95.23   22.19
  -1  -8  13   47.20   14.70
  -1   8  13   57.21   20.29
   1  -8  14   43.91   18.60
  -1  -8  14   30.52   16.03
  -1   8  14   68.64   22.69
   1   8  14   54.68   18.17
   1  -8  15   27.43    8.78
  -1  -8  15    8.05   10.29
   1   8  15   15.51    6.77
  -1   8  15    7.99    7.92
  -1  -8  16   89.96   24.26
   1   8  16  150.13   26.78
   1  -9   0   22.12   13.58
  -1  -9   0   15.82   11.06
   1  -9  -1  149.19   37.12
  -1  -9  -1  145.30   28.42
   1  -9   1  194.35   37.53
  -1  -9   1  217.80   45.84
   1  -9  -2   -1.05   11.93
  -1  -9  -2   -2.38   10.13
   1  -9   2   36.24   14.43
  -1  -9   2   -1.86   10.13
   1  -9  -3   79.02   24.21
  -1  -9  -3   85.01   22.75
   1  -9   3  124.97   27.45
  -1  -9   3   83.71   24.68
   1  -9  -4   96.16   23.85
   1  -9   4   86.32   22.39
  -1  -9   4  114.07   25.03
   1  -9  -5   23.35   13.85
  -1  -9  -5    7.12    8.81
   1  -9   5   36.63   18.19
  -1  -9   5   23.42   16.03
   1  -9  -6    3.09    9.74
  -1  -9  -6   37.16   13.04
   1  -9   6   20.64   13.04
  -1  -9   6   13.84    9.19
   1  -9  -7  116.30   25.68
  -1  -9  -7  159.49   40.00
   1  -9   7  158.23   37.48
  -1  -9   7   79.56   35.43
   1  -9  -8    8.44    8.68
  -1  -9  -8   18.94   11.67
   1  -9   8   40.60   19.08
  -1  -9   8   27.38   16.60
  -1  -9  -9  117.01   24.90
  -1  -9   9  143.36   29.02
  -1  -9 -10  164.19   42.24
  -1  -9  10  153.82   30.97
  -1  -9 -11   70.28   21.08
  -1  -9  11   42.06   11.00
   2   0   0 6208.90   75.75
   2   0   0 6135.85   74.84
   2   0   0 6387.79   87.16
  -2   0   0 6317.41   86.92
   2   0   0 6449.07   86.19
  -2   0   0 6417.49   88.33
  -2   0   0 6283.61   87.91
   2   0   0 6403.76   93.42
  -2   0   0 6323.91   93.22
   2   0   1 8796.37  106.16
   2   0  -1 8840.77  106.98
   2   0   1 8874.16  115.77
   2   0  -1 8869.96  115.67
  -2   0  -1 8947.05  120.26
  -2   0   1 8906.42  117.64
   2   0  -1 8934.52  116.17
  -2   0   1 8872.89  117.53
   2   0   1 8999.66  116.33
  -2   0  -1 8946.35  118.18
  -2   0   1 8869.72  117.31
  -2   0  -1 8877.26  117.18
   2   0   1 8856.06  114.59
  -2   0  -1 8806.83  115.75
   2   0  -1 8986.30  116.16
  -2   0   1 8642.39  113.37
  -2   0  -222026.77  262.25
   2   0  -222176.46  265.01
   2   0   222535.08  278.65
   2   0  -222144.30  272.49
  -2   0  -221972.53  277.93
  -2   0   221417.71  263.99
  -2   0   221694.02  267.01
   2   0   221954.23  270.47
  -2   0   221971.50  278.13
  -2   0  -222159.02  274.26
  -2   0  -221921.65  270.26
  -2   0   221382.41  263.27
  -2   0  -311897.44  144.90
   2   0   312005.15  146.31
   2   0  -311786.54  144.08
   2   0   312024.44  152.98
   2   0  -311902.87  152.98
  -2   0  -311804.45  151.92
  -2   0   311915.27  153.66
   2   0   312041.11  153.55
   2   0   312023.23  197.77
  -2   0   312030.23  156.36
  -2   0  -311801.14  150.92
  -2   0  -311729.05  151.36
   2   0  -311984.16  152.17
  -2   0  -4  452.67   11.87
   2   0   4  478.71   11.90
   2   0  -4  460.84   15.86
  -2   0   4  476.71   20.42
   2   0   4  475.46   22.59
   2   0  -4  455.97   19.71
  -2   0  -4  480.05   16.11
   2   0   4  464.70   18.14
   2   0   4  464.34   21.51
  -2   0   4  497.27   16.36
  -2   0  -4  434.06   14.56
   2   0  -4  453.39   14.41
  -2   0  -5   91.92   15.52
   2   0   5  102.41   13.89
   2   0  -5   78.46    6.26
  -2   0   5  109.24   16.21
   2   0   5   79.05   12.70
   2   0  -5   83.63   18.73
  -2   0  -5   80.91   16.73
   2   0   5   66.98   30.01
  -2   0   5   68.32   19.86
  -2   0  -5  100.03   20.10
  -2   0  -6 4389.38   97.83
   2   0   6 4434.32   98.65
   2   0  -6 4580.80  101.36
  -2   0   6 4465.74   99.94
   2   0   6 4452.74  100.08
   2   0  -6 4432.62   98.56
  -2   0  -6 4381.46   98.13
   2   0   6 4418.63  101.45
  -2   0   6 4447.55  100.47
  -2   0  -6 4449.33   99.07
  -2   0  -7 5899.82  128.77
   2   0   7 5559.17  122.73
   2   0  -7 5597.47  124.02
  -2   0   7 5662.35  125.33
   2   0   7 5652.19  124.11
   2   0  -7 5738.14  125.63
  -2   0  -7 5643.02  125.79
   2   0   7 5727.62  125.61
  -2   0   7 5497.32  121.75
  -2   0  -7 5810.24  130.23
  -2   0  -8 6223.72  136.52
   2   0   8 6101.32  134.83
  -2   0   8 6132.15  137.28
   2   0   8 6099.67  133.29
   2   0  -8 6220.88  137.49
  -2   0  -8 6438.05  143.43
  -2   0   8 6133.53  134.99
  -2   0  -8 6235.17  136.24
   2   0   9 2886.80   49.57
  -2   0   9 2892.78   54.71
   2   0   9 3025.70   48.42
   2   0  -9 2819.29   44.46
  -2   0  -9 2971.44   47.94
  -2   0   9 2901.93   47.24
  -2   0  -9 2852.98   44.71
   2   0  10  224.60   15.91
  -2   0  10  207.45   15.90
   2   0 -10  208.06   28.23
  -2   0 -10  234.06   13.27
  -2   0  10  201.57   18.29
  -2   0 -10  206.74   10.23
  -2   0  11   11.52    6.29
   2   0 -11    5.10    3.01
  -2   0 -11    1.84    4.93
  -2   0  11   13.16    5.61
   2   0  12  193.50   15.66
  -2   0  12  220.38   34.13
   2   0 -12  157.29   24.38
  -2   0 -12  206.02   25.63
  -2   0  12  181.56   16.26
   2   0  13 2831.27   94.00
  -2   0  13 2813.66  105.63
   2   0 -13 2851.33   89.18
  -2   0  13 2829.12   89.88
   2   0  14  749.20   34.57
  -2   0  14  637.72   47.06
   2   0 -14  748.61   28.83
  -2   0  14  727.47   28.87
   2   0  1511718.94  310.96
  -2   0  1511754.40  314.65
   2   0 -1512033.59  399.82
   2   0  16  306.70   22.63
  -2   0  16  399.34   61.24
   2   0  17   -7.55   10.07
  -2   0  17   -8.12   12.27
  -2   0  17    5.05    2.92
   2   0  18   34.27   17.16
  -2   0  18   23.21    7.47
   2   0  19  845.33   35.71
  -2   0  19  770.57  107.29
   2   0  20 1325.18   45.77
  -2   0  20 1427.00   52.91
   2   0  21   24.57   15.07
  -2   0  21   57.95   23.64
   2   0  22  733.18   57.11
  -2   0  22  598.80  100.52
   2   0  23   -0.31   10.94
  -2   0  23  -10.04   13.54
   2   0  24  147.06   26.46
  -2   0  24  151.26   32.45
   2   0  25    3.25    7.48
  -2   0  25   13.85    6.63
   2   0  26    2.82    6.00
  -2   0  26   14.05    9.25
   2   0  27   17.34   10.51
  -2   0  27   28.74   18.02
   2  -1   0 3410.19   48.87
   2  -1   0 3436.30   48.23
   2   1   0 3526.09   55.83
  -2  -1   0 3515.16   57.12
   2   1   0 3551.29   53.43
   2  -1   0 3596.99   52.20
  -2  -1   0 3368.17   53.14
  -2   1   0 3409.36   50.19
   2   1   0 3495.60   53.71
  -2  -1   0 3461.11   59.16
   2  -1   0 3484.73   52.12
   2   1   0 3444.39   51.91
  -2   1   0 3337.27   53.81
  -2  -1   0 3477.57   54.51
  -2  -1  -1 3114.36   38.43
   2  -1   1 3192.66   45.79
   2  -1  -1 3176.63   45.25
  -2   1   1 3291.67   47.26
   2  -1   1 3283.56   46.58
   2   1   1 3204.49   50.02
   2   1  -1 3219.22   49.94
  -2  -1  -1 3264.84   52.99
  -2  -1   1 3192.15   62.31
   2   1  -1 3287.76   50.48
   2  -1  -1 3167.73   47.21
  -2  -1   1 3173.37   58.73
   2   1   1 3251.12   50.10
  -2   1   1 3244.82   48.10
   2  -1   1 3236.32   49.45
  -2  -1  -1 3205.51   51.57
  -2   1  -1 3111.25   47.04
   2   1  -1 3200.56   49.52
   2   1   1 3240.62   50.78
  -2  -1   1 3151.40   53.39
  -2  -1  -1 3192.15   50.84
   2   1   1 3222.91   51.42
  -2   1  -1 3173.36   48.23
   2  -1  -1 3165.93   48.11
  -2  -1  -1 3121.60   51.62
   2   1  -1 3224.35   50.17
  -2   1   1 3134.63   46.72
  -2  -1   1 3131.47   50.60
  -2   1  -2 5097.25   71.55
   2  -1   2 4955.99   66.86
   2   1  -2 5013.21   62.61
  -2  -1  -2 5095.80   63.14
   2  -1  -2 5009.87   67.29
   2   1   2 5056.88   62.80
  -2   1   2 5073.77   69.24
   2   1   2 5079.60   72.11
   2   1  -2 5208.47   73.65
  -2  -1  -2 5136.50   75.58
  -2  -1   2 4981.11   72.96
  -2  -1   2 4996.37   73.39
  -2   1   2 5058.52   70.51
   2   1   2 5107.81   72.53
   2  -1   2 5051.00   69.91
  -2  -1  -2 5023.07   77.42
   2   1  -2 5066.43   71.41
   2   1   2 5122.35   73.58
  -2  -1   2 5113.95   75.32
  -2  -1  -2 4971.79   72.05
  -2   1  -2 4955.99   70.52
  -2  -1  -2 5040.58   73.06
   2  -1  -2 4968.97   73.45
   2   1  -2 4908.79   70.21
  -2   1   2 5051.15   69.67
  -2  -1   2 5041.58   73.45
  -2   1  -3 2157.08   51.99
   2  -1   3 2069.69   48.68
   2   1  -3 2121.20   47.94
  -2  -1  -3 2097.74   46.58
   2   1   3 2127.79   47.03
   2  -1  -3 2132.82   49.80
  -2   1   3 2029.82   47.95
   2   1  -3 2052.60   50.53
  -2  -1  -3 2035.96   51.80
  -2  -1   3 2105.81   52.04
   2  -1   3 2108.85   51.09
  -2  -1   3 2063.99   52.22
  -2   1   3 2069.57   49.79
   2   1   3 2143.44   55.45
   2  -1   3 2090.34   50.93
   2   1  -3 2085.68   50.72
   2   1   3 2156.93   53.01
  -2  -1   3 2111.16   53.49
  -2  -1  -3 2008.05   50.29
  -2  -1  -3 2085.78   53.06
   2  -1  -3 2133.35   50.67
   2   1  -3 2102.02   51.22
  -2   1  -4 1379.83   34.92
   2  -1   4 1346.31   35.31
   2   1  -4 1325.28   32.04
  -2  -1  -4 1353.05   32.93
  -2  -1   4 1351.94   32.98
   2   1   4 1337.14   31.99
   2  -1  -4 1400.31   35.42
  -2   1   4 1316.96   34.09
   2   1  -4 1249.90   34.36
  -2  -1  -4 1313.85   37.00
  -2  -1   4 1387.20   37.87
   2  -1   4 1413.00   57.45
   2   1   4 1379.77   37.08
   2   1  -4 1366.55   39.15
   2   1   4 1316.06   39.43
  -2  -1   4 1318.10   35.44
  -2  -1  -4 1319.25   37.58
  -2  -1  -4 1345.28   56.93
   2  -1  -4 1380.74   35.17
  -2   1  -510165.67  216.96
   2  -1   510138.40  216.62
   2   1  -5 9934.31  210.39
  -2  -1  -510385.42  220.15
  -2  -1   5 9903.80  211.40
   2   1   510012.70  211.76
   2  -1  -510044.54  214.89
  -2   1   510137.92  217.24
   2   1  -510326.09  221.56
  -2  -1  -510171.77  220.11
  -2  -1   510109.43  217.04
   2  -1   5 9976.69  214.24
   2   1  -510108.23  216.84
   2   1   510246.42  221.09
  -2  -1   510193.95  219.06
  -2  -1  -5 9990.64  214.92
   2  -1  -510208.76  217.80
  -2   1  -6 1160.98   31.43
   2  -1   6 1148.96   33.57
   2   1  -6 1105.51   30.24
  -2  -1  -6 1121.60   29.14
  -2  -1   6 1164.97   31.35
   2  -1  -6 1096.22   31.02
   2   1   6 1125.72   33.79
  -2   1   6 1071.89   31.72
   2   1  -6 1111.80   30.35
  -2  -1  -6 1062.13   34.08
  -2  -1   6 1160.34   32.02
   2  -1   6 1114.36   30.33
  -2   1  -6 1087.87   30.81
   2   1  -6 1161.12   39.66
   2   1   6 1057.99   30.15
  -2  -1   6 1026.66   29.21
  -2  -1  -6 1132.51   33.39
   2   1  -7 2797.89   65.70
   2  -1   7 2760.75   66.06
  -2  -1  -7 2803.18   65.75
  -2  -1   7 2720.39   64.48
   2   1   7 2799.44   66.22
  -2   1   7 2797.31   67.63
   2   1  -7 2805.30   65.85
  -2  -1  -7 2772.29   71.09
   2  -1   7 2789.94   64.79
  -2  -1   7 2931.43   72.13
   2   1  -7 2722.03   64.77
  -2   1  -7 2772.70   65.19
   2   1   7 2835.11   67.86
  -2  -1   7 2763.60   68.07
   2  -1   8 1532.58   32.58
  -2  -1  -8 1512.90   31.36
  -2  -1   8 1460.23   30.47
   2   1   8 1522.73   41.89
  -2   1   8 1485.07   31.97
   2   1  -8 1507.49   30.06
  -2  -1  -8 1539.28   45.61
   2  -1   8 1561.03   34.55
  -2  -1   8 1513.66   29.39
  -2   1  -8 1513.78   30.99
   2   1   8 1471.02   30.03
  -2  -1   8 1501.26   35.58
   2  -1   9 1975.34   39.63
  -2   1   9 1953.99   48.05
   2   1  -9 1994.74   34.71
  -2  -1  -9 1968.95   37.21
   2  -1   9 2040.82   34.53
  -2   1  -9 1950.29   33.80
   2   1   9 2061.41   40.98
  -2  -1   9 2013.81   44.73
   2  -1  10  696.75   23.43
  -2  -1  10  643.86   29.98
   2   1  10  662.27   26.67
  -2   1  10  779.31   58.81
   2   1 -10  646.42   17.96
  -2  -1 -10  695.95   23.35
   2  -1  10  659.11   17.29
  -2   1 -10  663.58   16.46
   2   1  10  717.54   29.93
  -2  -1  10  699.22   30.32
   2  -1  11  753.01   28.90
  -2  -1  11  800.93   32.02
   2   1  11  770.21   29.78
  -2   1  11  745.00   30.85
   2   1 -11  733.16   27.13
   2  -1  11  817.02   30.21
  -2  -1 -11  839.41   47.85
   2   1  11  813.77   34.10
  -2   1 -11  806.70   28.02
  -2  -1  11  771.55   25.97
   2  -1  12  286.22   17.48
  -2  -1  12  285.83   45.51
   2   1  12  286.95   18.09
  -2   1  12  268.55   28.31
   2  -1  12  249.18   23.55
  -2  -1 -12  280.44   23.38
   2   1  12  227.83   21.50
  -2   1 -12  274.42   30.04
  -2  -1  12  266.08   12.93
   2  -1  13 1203.78   48.10
  -2  -1  13 1228.43   53.44
   2   1  13 1183.33   45.38
  -2   1  13 1114.92   46.32
   2  -1  13 1250.46   41.79
  -2  -1 -13 1136.92   43.85
  -2   1 -13 1265.15   42.70
  -2  -1  13 1226.80   41.62
   2  -1  14 1931.56   62.44
  -2  -1  14 2022.27  110.25
   2   1  14 1918.29   61.32
  -2   1  14 2014.03   65.67
  -2  -1 -14 2000.37   59.27
  -2   1 -14 2026.68   56.10
   2  -1  15  260.77   43.56
  -2  -1  15  274.44   45.09
   2   1  15  265.97   44.82
  -2   1  15  251.00   21.27
  -2  -1 -15  232.27   32.31
   2   1  15  147.52   30.28
   2  -1  16  953.38   45.19
  -2  -1  16 1066.93   50.08
   2   1  16  979.64   45.52
  -2   1  16 1010.52   46.71
  -2  -1 -16  921.20   39.00
  -2   1  16  951.12   54.72
   2  -1  17  133.64   29.72
  -2  -1  17  184.14   17.97
   2   1  17  150.29   18.62
  -2   1  17  102.62   19.64
  -2   1  17   96.99   30.57
   2  -1  18  203.11   20.16
  -2  -1  18  169.02   29.69
   2   1  18  163.24   19.56
  -2   1  18  200.40   23.01
   2  -1  19  370.13   32.35
  -2  -1  19  437.24   28.05
   2   1  19  403.32   72.04
  -2   1  19  399.15   25.36
   2  -1  20  590.52   32.22
  -2  -1  20  548.94   30.50
   2   1  20  512.12   89.05
  -2   1  20  540.88   31.12
   2  -1  21  164.00   66.27
  -2  -1  21  166.80   63.75
   2   1  21  161.48   60.88
  -2   1  21  123.82   48.48
   2  -1  22  717.57   56.47
  -2  -1  22  831.96   63.22
   2   1  22  707.10   63.48
  -2   1  22  741.88   68.42
   2  -1  23   15.20    6.15
  -2  -1  23   15.44    5.60
   2   1  23   -1.15   10.43
  -2   1  23  -18.14   14.49
   2  -1  24  545.44   82.50
  -2  -1  24  493.10   79.72
   2   1  24  546.57  115.17
  -2   1  24  607.64   91.18
   2  -1  25  430.50  127.83
  -2  -1  25  417.18  107.12
   2   1  25  522.28   83.64
  -2   1  25  615.17   98.55
   2  -1  26   97.57   22.51
  -2  -1  26   97.61   30.59
   2   1  26   77.19   25.18
  -2   1  26   90.89   27.67
   2  -1  27  223.06   79.39
  -2  -1  27  270.83   78.31
   2   1  27  244.75   74.35
  -2   1  27  313.79   67.42
   2  -2   0  918.92   27.51
  -2  -2   0  937.61   23.60
   2  -2   0  938.53   29.23
  -2  -2   0  898.69   28.80
   2   2   0  976.32   28.26
   2  -2   0  928.54   25.57
  -2  -2   0  968.90   38.21
   2   2   0  987.05   28.59
  -2   2   0  914.69   27.72
  -2  -2   0  900.17   27.91
   2  -2  -1 1464.96   39.09
   2  -2   1 1479.20   45.72
  -2  -2  -1 1506.94   35.32
   2  -2  -1 1501.21   38.55
   2  -2   1 1549.05   39.67
  -2  -2   1 1505.42   40.25
  -2  -2  -1 1466.66   41.55
  -2  -2   1 1462.53   41.52
   2  -2  -1 1461.42   35.14
   2   2   1 1556.09   40.32
  -2  -2   1 1417.89   38.11
   2  -2   1 1418.43   34.91
  -2  -2  -1 1510.16   48.47
  -2   2   1 1429.93   34.84
   2  -2  -1 1442.77   47.19
   2   2   1 1534.19   40.18
  -2   2  -1 1448.81   41.85
   2   2  -1 1430.73   39.65
  -2   2   1 1404.96   34.31
  -2  -2   1 1446.46   40.09
  -2   2  -2 2594.25   62.33
   2   2  -2 2554.67   57.61
   2  -2   2 2595.76   63.33
  -2  -2   2 2535.90   56.95
  -2  -2  -2 2569.77   57.18
   2  -2  -2 2519.90   59.66
  -2   2   2 2607.22   62.44
   2   2   2 2507.10   56.32
  -2  -2  -2 2547.46   63.95
  -2  -2   2 2500.39   63.25
  -2  -2   2 2536.59   62.72
   2   2   2 2449.73   58.84
  -2   2   2 2549.84   57.91
  -2  -2  -2 2553.73   62.78
   2  -2   2 2534.18   60.00
   2   2   2 2560.12   64.28
  -2   2  -2 2534.82   69.64
   2  -2  -2 2500.99   59.55
  -2  -2  -2 2446.80   64.38
  -2   2   2 2615.87   71.07
  -2   2  -3  393.53   42.28
   2   2  -3  380.67   18.83
   2  -2   3  404.45   22.38
  -2  -2   3  377.24   13.35
  -2  -2  -3  370.93   12.08
   2  -2  -3  378.23   22.41
   2   2   3  397.46   14.14
  -2   2   3  423.40   19.48
  -2  -2  -3  406.25   38.86
  -2  -2   3  421.43   19.22
  -2  -2   3  373.75   30.16
  -2   2   3  363.73   18.89
  -2  -2  -3  410.18   33.94
   2  -2   3  368.92   14.13
  -2  -2  -3  377.58   20.09
   2  -2  -3  390.75   20.56
   2   2  -4  616.10   18.63
   2  -2   4  623.59   39.71
  -2  -2   4  603.56   18.85
  -2  -2  -4  620.05   18.88
   2   2   4  641.45   19.16
  -2   2   4  682.22   34.69
  -2  -2  -4  595.45   38.21
  -2  -2   4  619.01   22.07
  -2   2   4  666.92   23.31
  -2  -2  -4  638.51   23.35
   2  -2  -4  625.84   28.79
   2   2  -5 2254.38   55.85
   2  -2   5 2197.53   55.31
  -2  -2   5 2120.45   50.60
  -2  -2  -5 2315.14   54.54
   2   2   5 2183.00   54.34
  -2   2   5 2265.58   57.00
  -2  -2  -5 2311.65   58.53
  -2  -2   5 2095.65   53.25
  -2  -2  -5 2246.64   64.44
   2  -2  -5 2204.24   52.13
   2   2  -6  361.24   12.90
   2  -2   6  388.48   22.74
  -2  -2   6  342.75   12.69
  -2  -2  -6  348.67   18.11
   2   2   6  327.66   13.89
  -2   2   6  373.51   21.18
  -2  -2  -6  374.35   28.90
  -2  -2   6  376.79   27.77
   2  -2   7 4779.38   73.94
  -2  -2   7 5077.39   74.09
  -2  -2  -7 4754.86   69.86
   2   2   7 4877.50   70.37
  -2   2   7 4928.95   77.67
  -2  -2  -7 4995.38   78.17
  -2  -2   7 5173.73   76.79
   2  -2   8 1670.95   36.67
  -2  -2   8 1685.20   34.61
   2   2   8 1654.76   45.81
  -2   2   8 1595.13   35.98
  -2  -2  -8 1804.29   82.11
  -2  -2   8 1703.68   36.42
   2   2  -8 1718.46   36.55
   2  -2   9 4249.68   69.80
  -2  -2   9 4085.91   65.99
   2   2   9 4100.15   64.46
  -2   2   9 4154.83   79.90
  -2  -2  -9 4072.36   72.19
  -2  -2   9 4017.40   62.59
   2   2  -9 4171.92   62.50
   2  -2  10  363.14   25.91
  -2  -2  10  343.09   31.61
   2   2  10  326.25   17.42
  -2   2  10  424.39   55.30
  -2  -2 -10  338.47   37.90
  -2  -2  10  345.59   18.53
   2  -2  10  338.29   25.73
   2   2 -10  346.84   38.94
   2  -2  11 3485.78   99.67
  -2  -2  11 3521.68  104.20
   2   2  11 3473.71   97.16
  -2   2  11 3425.92   98.95
  -2  -2 -11 3485.83   97.03
  -2  -2  11 3556.29   96.80
   2  -2  11 3553.14   95.66
   2   2 -11 3515.28  100.03
   2  -2  12 3775.38  124.74
  -2  -2  12 3505.76  118.72
   2   2  12 3710.85  119.91
  -2   2  12 3538.78  117.87
  -2  -2 -12 3482.05  112.09
   2  -2  12 3519.06  110.39
  -2  -2  12 3556.80  113.11
   2   2 -12 3446.91  113.82
  -2   2 -12 3598.15  114.28
   2  -2  13  828.24   35.70
  -2  -2  13  905.12   43.43
   2   2  13  891.85   50.48
  -2   2  13  816.61   36.92
  -2  -2 -13  804.18   48.39
   2  -2  13  760.08   34.05
  -2  -2  13  950.58   30.52
  -2   2 -13  894.93   30.84
   2  -2  14  542.97   26.98
  -2  -2  14  430.31   36.92
   2   2  14  496.29   42.34
  -2   2  14  443.34   31.71
  -2  -2 -14  478.47   39.23
  -2  -2  14  491.84   18.77
  -2   2 -14  458.87   16.99
   2  -2  15 3902.41  141.43
  -2  -2  15 3679.99  133.55
   2   2  15 3790.92  136.55
  -2   2  15 3547.87  133.30
  -2  -2 -15 3650.17  127.78
  -2   2 -15 3642.08  125.09
   2  -2  16  735.01   39.32
  -2  -2  16  758.06   38.16
  -2   2  16  724.69   40.72
  -2  -2 -16  727.31   50.47
  -2   2 -16  725.83   27.47
   2  -2  17  335.07   68.46
  -2  -2  17  311.56   44.39
   2   2  17  315.66   20.77
  -2   2  17  325.75   60.71
  -2  -2 -17  299.37   46.17
   2  -2  18   60.58   11.32
  -2  -2  18   68.84   17.13
   2   2  18   85.79   21.16
  -2   2  18   68.92   19.92
  -2  -2 -18   72.32    9.34
   2  -2  19  422.46   64.17
  -2  -2  19  395.05   63.56
   2   2  19  381.97   77.48
  -2   2  19  428.43   70.82
   2  -2  20  386.00  156.11
  -2  -2  20  446.70  162.04
   2   2  20  371.54  135.40
  -2   2  20  466.70  186.22
   2  -2  21  329.45   71.95
  -2  -2  21  295.30   46.22
   2   2  21  322.49   45.41
  -2   2  21  271.58   31.66
   2  -2  22  347.28   28.50
  -2  -2  22  428.98   31.29
   2   2  22  383.06   28.78
  -2   2  22  421.21   72.81
   2  -2  23  281.73   71.66
  -2  -2  23  303.20   68.13
   2   2  23  427.07   61.68
  -2   2  23  325.32   64.12
   2  -2  24  378.96   59.80
  -2  -2  24  403.51   63.49
   2   2  24  405.72   62.01
  -2   2  24  320.50   95.52
   2  -2  25   26.13   12.65
  -2  -2  25   60.61   20.76
   2   2  25   26.43   13.82
  -2   2  25   21.49   10.19
   2  -2  26   50.92   17.49
  -2  -2  26   55.73   18.98
   2   2  26   75.76   26.27
  -2   2  26   54.35   19.66
   2  -2  27   40.61   23.70
  -2  -2  27   53.30   19.60
   2   2  27   62.98   16.18
   2  -3   0 4363.80   74.06
  -2  -3   0 4544.03   67.24
  -2  -3   0 4389.32   63.25
   2  -3   0 4567.52   63.77
  -2  -3   0 4395.83   75.54
  -2  -3   0 4472.11   76.19
   2  -3  -1  608.52   21.10
  -2  -3  -1  655.45   21.82
   2  -3   1  653.92   42.67
  -2  -3   1  600.77   23.84
  -2  -3  -1  661.51   16.70
  -2  -3   1  626.98   16.84
  -2  -3   1  636.44   28.31
   2  -3   1  664.75   15.94
  -2  -3  -1  651.82   39.27
  -2   3  -1  608.88   17.50
  -2  -3  -1  655.89   32.54
   2  -3  -213594.32  186.47
   2   3  -213887.65  175.42
  -2  -3  -213553.29  172.14
   2  -3   213698.39  182.82
  -2  -3   213732.00  177.88
  -2  -3   213739.53  184.83
   2  -3   213578.21  167.78
  -2  -3  -213374.88  172.63
  -2   3  -213401.27  167.16
  -2  -3  -213106.34  170.52
   2   3  -3 2265.92   39.79
   2  -3   3 2180.43   43.40
  -2  -3   3 2242.77   38.39
  -2  -3  -3 2222.31   40.11
  -2   3   3 2323.11   46.18
   2   3   3 2240.21   38.71
  -2  -3   3 2301.11   45.63
  -2   3   3 2241.34   33.45
  -2  -3  -3 2290.88   42.15
   2  -3   3 2177.76   37.29
  -2  -3  -3 2175.31   52.60
   2   3  -4 2139.03   38.97
   2  -3   4 2175.06   44.72
  -2  -3   4 1994.51   35.75
  -2  -3  -4 2081.43   39.90
   2   3   4 2059.64   46.75
  -2   3   4 2099.45   58.88
  -2  -3   4 2004.42   51.19
  -2   3   4 2116.95   33.36
  -2  -3  -4 1982.98   40.87
   2  -3  -4 1984.69   38.05
   2  -3   5 6231.13   93.90
  -2  -3   5 6111.31   93.20
   2   3   5 6184.90   87.33
  -2   3   5 6473.84   97.60
  -2  -3  -5 6315.81  104.22
   2  -3  -5 6429.40   84.67
   2  -3   6  488.10   20.23
  -2  -3   6  490.07   17.30
   2   3   6  469.12   17.50
  -2   3   6  506.45   22.28
  -2  -3   6  450.44   32.54
  -2  -3  -6  496.84   19.02
   2  -3  -6  485.40   15.88
   2  -3   7 3625.39  114.92
  -2  -3   7 3588.30   98.76
   2   3   7 3562.06   97.90
  -2   3   7 3685.07  103.97
  -2  -3   7 3625.47  104.61
  -2  -3  -7 3629.14  105.63
   2  -3  -7 3620.38   95.51
   2  -3   8 1466.72   47.70
  -2  -3   8 1532.35   70.34
   2   3   8 1478.26   53.24
  -2   3   8 1536.54   75.60
  -2  -3   8 1484.51   51.60
  -2  -3  -8 1415.27   46.01
   2  -3   9 2497.60  106.18
  -2  -3   9 2430.79   71.38
   2   3   9 2536.68   73.78
  -2   3   9 2426.48   75.93
  -2  -3   9 2474.15  102.26
   2  -3  10  934.66   47.66
  -2  -3  10  945.89   52.06
   2   3  10  955.99   37.46
  -2   3  10  898.99   57.39
  -2  -3  10  988.25   43.86
   2  -3  11  727.04   48.85
  -2  -3  11  816.56   65.02
   2   3  11  770.42   34.44
  -2   3  11  762.54   51.13
  -2  -3  11  801.04   34.27
   2  -3  12 1181.97   47.85
  -2  -3  12 1089.80   39.79
   2   3  12 1142.09   72.05
  -2   3  12 1264.68  100.86
  -2  -3  12 1118.10   40.33
   2  -3  13 1689.74   74.95
  -2  -3  13 1664.25   99.92
   2   3  13 1630.41   64.43
  -2   3  13 1719.94  122.10
  -2  -3  13 1575.51   63.89
   2  -3  14   98.15   15.27
  -2  -3  14   71.25   12.86
   2   3  14   72.91   12.90
  -2   3  14   94.95   15.29
  -2  -3  14   79.96   13.95
   2  -3  15  557.27   71.62
  -2  -3  15  566.13   32.39
   2   3  15  648.31   35.21
  -2   3  15  573.95   39.91
  -2  -3 -15  527.23   34.59
  -2  -3  15  590.30   30.41
  -2   3 -15  574.47   45.11
   2  -3  16  395.84   69.65
  -2  -3  16  392.72   46.43
   2   3  16  374.33   24.41
  -2   3  16  404.43   66.01
  -2  -3 -16  318.28   38.61
  -2  -3  16  303.41   32.46
  -2   3 -16  320.55   21.49
   2  -3  17  817.07   32.90
  -2  -3  17  736.32  100.80
   2   3  17  789.02   31.73
  -2   3  17  851.95   36.54
  -2  -3 -17  752.25   50.10
   2  -3  18  338.85   24.38
  -2  -3  18  246.96   21.37
   2   3  18  260.74   29.45
  -2   3  18  274.20   23.81
  -2  -3 -18  232.70   34.15
   2  -3  19  150.35   57.92
  -2  -3  19  104.61   42.66
   2   3  19  100.54   41.39
  -2   3  19  125.96   49.66
   2  -3  20 1188.56  112.47
  -2  -3  20 1082.28   77.61
   2   3  20 1106.01   86.17
  -2   3  20 1123.47  160.25
   2  -3  21   15.37    3.95
  -2  -3  21   24.86    8.46
   2   3  21    9.06   11.93
  -2   3  21  -19.74   15.65
   2  -3  22  402.14   92.83
  -2  -3  22  450.01   91.44
   2   3  22  393.31   88.74
  -2   3  22  473.99  100.66
   2  -3  23   32.41    9.41
  -2  -3  23   15.56    8.50
   2   3  23   14.48   13.41
  -2   3  23    5.10   10.39
   2  -3  24  133.54   30.85
  -2  -3  24  227.90   40.81
   2   3  24  192.54   36.17
  -2   3  24  217.95   50.64
   2  -3  25  256.61   46.11
  -2  -3  25  196.62   45.93
   2   3  25  283.78   48.23
  -2   3  25  236.13   51.85
   2  -3  26   44.23   16.54
  -2  -3  26   46.10   20.09
   2   3  26   41.99   14.62
   2  -4   0  444.29   22.46
  -2  -4   0  436.73   19.69
  -2  -4   0  431.86   37.39
  -2   4   0  442.14   17.61
   2  -4  -1 4593.31  129.99
  -2  -4  -1 4383.13  119.98
   2  -4   1 4538.74  125.14
  -2  -4   1 4548.67  123.36
   2  -4   1 4539.95  115.97
  -2  -4   1 4561.76  123.00
  -2  -4  -1 4564.89  124.86
  -2  -4  -1 4402.56  118.15
   2  -4  -2 1748.33   67.03
  -2  -4  -2 1713.93   86.25
   2  -4   2 1633.17   56.44
  -2  -4   2 1632.35   50.47
  -2  -4   2 1762.73   60.27
   2  -4   2 1637.61   44.79
  -2  -4  -2 1645.65   53.32
  -2  -4  -2 1670.77   59.87
   2  -4  -3 3131.93   90.93
  -2  -4  -3 3104.93   86.61
   2  -4   3 3058.36   89.33
  -2  -4   3 3131.00   87.20
  -2  -4   3 3278.48   95.54
   2  -4   3 3119.93   82.30
  -2  -4  -3 3020.30   84.96
  -2  -4  -3 2921.43   81.92
   2  -4   4  872.71   34.97
  -2  -4   4 1000.49   37.22
  -2   4   4  881.22   37.62
   2   4   4  910.05   41.07
  -2  -4   4  928.27   39.56
   2  -4   5  349.42   24.93
  -2  -4   5  395.45   21.31
  -2   4   5  390.30   48.11
   2   4   5  364.25   20.44
  -2  -4   5  364.51   29.82
  -2   4   5  335.44   13.96
  -2  -4  -5  328.00   27.63
   2  -4   6  486.97   26.45
  -2  -4   6  480.24   25.21
   2   4   6  452.66   24.06
  -2   4   6  490.39   32.09
  -2   4   6  448.47   16.96
  -2  -4  -6  463.47   23.60
   2  -4  -6  407.83   19.97
   2  -4   7 1715.06   63.54
  -2  -4   7 1677.75   59.87
   2   4   7 1702.12   62.85
  -2   4   7 1769.11   71.08
  -2   4   7 1566.43   49.90
  -2  -4  -7 1688.81   77.96
   2  -4   8  929.15   81.58
  -2  -4   8  905.60   38.95
   2   4   8  918.69   34.40
  -2   4   8  969.71   47.76
  -2  -4  -8  954.70   50.90
   2  -4  -8  957.72   29.33
   2  -4   9  228.83   16.52
  -2  -4   9  214.78   17.45
   2   4   9  260.25   19.30
  -2   4   9  264.28   24.50
  -2  -4   9  243.15   17.52
  -2  -4  -9  247.72   20.02
   2  -4  10 2475.59   78.16
  -2  -4  10 2613.29  125.98
   2   4  10 2543.27   77.65
  -2   4  10 2484.41   78.73
  -2  -4  10 2434.70   77.79
  -2  -4 -10 2523.98   84.11
   2  -4  11  898.88   43.54
  -2  -4  11  933.30   46.98
   2   4  11  894.96   42.13
  -2   4  11  867.72   42.10
  -2  -4  11  869.32   38.40
  -2  -4 -11  814.49   36.88
   2  -4  12 5315.35  189.33
  -2  -4  12 5187.04  187.46
   2   4  12 5315.46  190.68
  -2   4  12 5272.98  229.02
  -2  -4  12 5284.77  192.84
   2  -4  13  625.53   34.62
  -2  -4  13  629.11   34.92
   2   4  13  599.86   36.04
  -2   4  13  538.17   31.75
  -2  -4  13  567.94   26.64
   2  -4  14 1223.10   38.74
  -2  -4  14 1160.71   35.71
   2   4  14 1084.16   54.80
  -2   4  14 1171.62   61.75
  -2  -4  14 1232.66   34.44
   2  -4  15  159.69   34.39
  -2  -4  15  199.77   16.93
   2   4  15  218.55   26.04
  -2   4  15  184.13   30.66
  -2  -4  15  169.52   23.76
   2  -4  16  245.78   21.72
  -2  -4  16  278.97   36.92
   2   4  16  219.30   61.03
  -2   4  16  319.19   26.80
  -2  -4  16  251.77   23.97
   2  -4  17  238.19   36.61
  -2  -4  17  250.85   39.17
   2   4  17  289.75   21.13
  -2   4  17  272.56   31.08
   2  -4  18  162.64   64.61
  -2  -4  18  136.40   52.08
   2   4  18  177.95   66.05
  -2   4  18  123.24   51.14
  -2  -4 -18  155.95   61.22
   2  -4  19   19.03   13.79
  -2  -4  19   11.69    7.68
   2   4  19   17.69   12.40
  -2   4  19   21.52    8.80
  -2  -4 -19    9.69    6.64
   2  -4  20  513.63   36.32
  -2  -4  20  432.05   56.83
   2   4  20  361.43  101.84
  -2   4  20  430.85  102.07
   2  -4  21   55.66   12.85
  -2  -4  21   80.32   21.66
   2   4  21   75.63   16.68
  -2   4  21  108.89   20.60
   2  -4  22   14.81   13.23
  -2  -4  22   39.44   14.39
   2   4  22   18.12   13.76
  -2   4  22   71.16   24.65
   2  -4  23   35.25   13.44
  -2  -4  23   13.74    8.86
   2   4  23   18.10    7.05
  -2   4  23   19.72   11.03
   2  -4  24   33.68   11.07
  -2  -4  24   28.34   10.53
   2   4  24   51.61   17.99
  -2   4  24   51.03   21.04
  -2  -4  25   16.35   10.09
   2   4  25   16.83    8.85
   2  -5   0 1165.74   45.63
  -2  -5   0 1013.24   36.25
  -2  -5   0 1080.67   50.50
   2  -5  -1 1661.57   60.07
  -2  -5  -1 1528.69   51.92
   2  -5   1 1571.19   54.97
  -2  -5   1 1672.65   54.04
  -2  -5   1 1632.54   70.19
  -2  -5  -1 1592.35   49.86
   2  -5  -2 5099.25  153.19
  -2  -5  -2 5018.61  144.52
   2  -5   2 5082.59  162.23
  -2  -5   2 5227.82  143.60
  -2  -5   2 5068.30  147.34
   2  -5   2 5169.23  132.63
  -2  -5  -2 5172.29  143.11
  -2   5  -2 4804.73  124.53
   2  -5  -3  106.91   16.30
  -2  -5  -3  133.92   30.09
   2  -5   3  123.82   16.12
  -2  -5   3  105.94   11.34
  -2  -5   3  124.54   19.79
   2  -5   3   94.20   11.90
  -2  -5  -3  134.22   12.01
   2  -5  -4  321.15   70.21
  -2  -5  -4  329.09   48.36
   2  -5   4  326.34   22.39
  -2  -5   4  366.01   19.84
  -2  -5   4  360.56   25.27
   2  -5   4  232.57   33.50
  -2  -5  -4  288.24   15.82
  -2  -5  -5   21.29   12.13
   2  -5   5   24.75   12.59
  -2  -5   5   30.16   12.50
  -2  -5   5   29.05    8.46
  -2  -5  -5   26.48    6.91
   2  -5   6  157.09   28.48
  -2  -5   6  103.67   12.13
  -2   5   6  139.13   18.54
   2   5   6   94.38   14.26
  -2  -5   6  141.31   23.59
  -2  -5  -6  122.65   12.91
   2  -5   7  707.18   36.45
  -2  -5   7  762.83   35.57
   2   5   7  732.44   38.41
  -2   5   7  787.89   43.49
  -2  -5  -7  682.30   32.71
   2  -5   8   15.54   12.43
  -2  -5   8   38.73   11.05
   2   5   8   41.71   10.41
  -2   5   8   20.02   10.59
  -2   5   8   25.18    3.57
  -2  -5  -8   41.13   12.30
   2  -5   9  827.33   49.61
  -2  -5   9  768.32   39.18
   2   5   9  785.03   50.09
  -2   5   9  776.89   39.81
  -2  -5  -9  725.32   36.34
   2  -5  10  263.99   21.55
  -2  -5  10  329.82   58.56
   2   5  10  276.81   22.40
  -2   5  10  304.97   76.77
  -2   5  10  214.74   30.99
  -2  -5 -10  308.45   39.54
   2  -5  11  323.24   21.84
  -2  -5  11  310.58   48.22
   2   5  11  308.53   22.19
  -2   5  11  327.39   26.20
  -2  -5  11  235.74   48.67
  -2  -5 -11  311.32   36.33
   2  -5  12  108.54   16.24
  -2  -5  12  143.34   23.26
   2   5  12  153.02   18.88
  -2   5  12  111.55   18.27
  -2  -5  12   99.70   27.78
  -2  -5 -12  117.64   26.91
   2  -5  13   34.67   17.80
  -2  -5  13   39.65   10.83
   2   5  13   36.23   16.11
  -2   5  13   67.21   20.59
  -2  -5  13   16.01    9.75
  -2  -5 -13   25.04   10.47
   2  -5  14  565.76   31.94
  -2  -5  14  606.85   72.25
   2   5  14  624.09   28.61
  -2   5  14  575.96   28.48
  -2  -5  14  528.09   54.40
  -2  -5 -14  543.10   46.96
   2  -5  15   51.41   31.58
  -2  -5  15   74.82   29.57
   2   5  15   79.19   31.72
  -2   5  15   68.83   31.74
  -2  -5  15   66.96   27.66
  -2  -5 -15   50.50   21.33
   2  -5  16  390.61   83.57
  -2  -5  16  456.16   40.45
   2   5  16  445.03   37.16
  -2   5  16  453.58   42.41
   2  -5  17  457.18   91.00
  -2  -5  17  569.79   46.15
   2   5  17  591.53   47.32
  -2   5  17  638.22   54.32
   2  -5  18   27.58   13.03
  -2  -5  18   12.23    5.79
   2   5  18   32.77   16.15
  -2   5  18    6.30   15.30
   2  -5  19  512.54   73.90
  -2  -5  19  540.80   77.12
   2   5  19  471.84   83.10
  -2   5  19  487.40  103.96
   2  -5  20   38.13   16.45
  -2  -5  20   55.02   18.72
   2   5  20   16.69    9.34
  -2   5  20   43.38   17.47
   2  -5  21   60.33   18.78
  -2  -5  21   65.86   19.07
   2   5  21   73.47   23.63
  -2   5  21   75.02   22.00
   2  -5  22  251.22   46.24
  -2  -5  22  159.43   45.94
   2   5  22  235.32   42.28
  -2   5  22  218.31   40.41
   2  -5  23   13.52   11.54
  -2  -5  23   12.06   10.25
   2   5  23    5.21   10.69
   2   5  24  310.68   48.21
   2  -6   0  361.84   57.64
  -2  -6   0  279.33   54.60
  -2  -6   0  315.26   18.67
   2  -6  -1 1233.07   66.43
  -2  -6  -1 1355.75   92.67
   2  -6   1 1208.81   70.03
  -2  -6   1 1180.93   50.53
  -2  -6   1 1232.49   51.79
  -2  -6  -1 1366.30   73.87
   2  -6  -2  531.85   87.32
  -2  -6  -2  495.35   51.22
   2  -6   2  557.55   78.31
  -2  -6   2  566.15   34.44
  -2  -6   2  479.62   38.68
   2  -6  -3 2307.67   56.02
  -2  -6  -3 2143.74   45.75
   2  -6   3 2214.31   51.90
  -2  -6   3 2187.74   45.74
  -2  -6   3 2165.92   97.44
   2  -6  -4  550.84   60.77
  -2  -6  -4  477.13   60.49
   2  -6   4  499.05   26.31
  -2  -6   4  565.04   25.45
  -2  -6   4  508.79   32.90
   2  -6  -5 1701.11   45.13
  -2  -6  -5 1753.58   59.80
   2  -6   5 1782.84   45.31
  -2  -6   5 1864.31   42.24
  -2  -6   5 1687.09   72.54
  -2  -6  -5 1710.29   42.00
   2  -6  -6   60.42   12.53
  -2  -6  -6   67.78   12.93
   2  -6   6   75.23   26.89
  -2  -6   6   88.36   12.83
  -2  -6   6   55.00   12.15
  -2  -6  -6   71.59    9.52
  -2  -6  -7  112.06   22.66
   2  -6   7  145.35   18.07
  -2  -6   7  130.36   31.77
  -2  -6   7  131.27   22.41
  -2  -6  -7  107.27   18.59
   2  -6   8  262.22   21.10
  -2  -6   8  281.23   38.28
  -2   6   8  256.47   25.53
   2   6   8  272.02   23.04
  -2  -6   8  255.98   41.25
  -2  -6  -8  275.58   14.74
   2  -6   9  101.13   17.41
  -2  -6   9  100.60   15.13
  -2   6   9  104.56   19.15
   2   6   9  129.62   18.25
   2  -6  10 1072.31  140.50
  -2  -6  10 1205.65   48.43
  -2   6  10 1323.77   51.30
   2   6  10 1129.84   53.46
  -2  -6 -10 1108.92   39.14
   2  -6  11   67.73   29.39
  -2  -6  11   37.80   18.73
   2   6  11   76.52   14.99
  -2   6  11  109.48   20.21
  -2  -6 -11   52.57   24.44
   2  -6  12 1604.10  575.37
  -2  -6  12 1469.63  529.25
   2   6  12 1551.81  556.24
  -2   6  12 1691.06  608.39
  -2  -6 -12 1521.97  545.12
   2  -6  13  115.36   21.23
  -2  -6  13   89.66   14.64
   2   6  13   96.99   16.66
  -2   6  13  114.16   22.80
  -2  -6  13   69.78   16.81
  -2  -6 -13   58.08   19.13
   2  -6  14  114.60   23.57
  -2  -6  14   59.76   17.54
   2   6  14   91.38   19.48
  -2   6  14   83.23   16.16
  -2  -6  14   59.20   14.20
  -2  -6 -14   57.91   10.63
   2  -6  15  548.13   37.74
  -2  -6  15  485.17   34.03
   2   6  15  421.26   97.23
  -2   6  15  514.34   38.25
   2  -6  16   62.53   11.85
  -2  -6  16   82.51   21.48
   2   6  16   60.69   17.14
  -2   6  16   52.36   20.89
   2  -6  17  391.51  106.39
  -2  -6  17  408.93   95.62
   2   6  17  542.15   88.78
  -2   6  17  621.40   92.97
   2  -6  18  110.42   32.10
  -2  -6  18  146.43   29.87
   2   6  18  150.13   30.02
  -2   6  18  115.92   28.22
   2  -6  19  126.98   28.15
  -2  -6  19  172.96   33.32
   2   6  19  151.29   30.80
  -2   6  19  196.59   38.80
   2  -6  20   21.97   13.38
  -2  -6  20   48.45   16.35
   2   6  20   30.08   12.41
  -2   6  20   54.01   17.88
  -2  -6  21  107.98   38.54
   2   6  21  252.23   39.67
  -2  -6  22   74.22   19.91
   2   6  22   34.74   12.30
   2  -7   0  456.92   64.35
  -2  -7   0  490.52   26.25
   2  -7  -1  220.97   34.55
  -2  -7  -1  204.61   28.67
   2  -7   1  197.88   34.73
  -2  -7   1  229.13   17.22
   2  -7  -2  403.79   64.26
  -2  -7  -2  369.70   58.42
   2  -7   2  353.98   24.35
  -2  -7   2  470.54   25.18
   2  -7  -3  912.06  337.51
  -2  -7  -3  877.59  316.63
   2  -7   3  941.35  339.08
  -2  -7   3  763.98  290.61
   2  -7  -4  288.28  117.14
  -2  -7  -4  266.50   99.59
   2  -7   4  290.85  108.00
  -2  -7   4  273.66  100.38
   2  -7  -5  659.58  255.73
  -2  -7  -5  719.96  260.15
   2  -7   5  805.17  304.79
  -2  -7   5  713.18  256.83
   2  -7  -6   67.82   33.50
  -2  -7  -6  103.19   38.99
   2  -7   6   85.62   33.01
  -2  -7   6   99.12   38.71
  -2  -7   6   94.60   37.74
   2  -7  -7  246.19   62.08
  -2  -7  -7  239.65   37.11
   2  -7   7  226.57   26.37
  -2  -7   7  337.12   31.37
  -2  -7   7  199.87   36.89
   2  -7  -8  208.29   39.66
  -2  -7  -8  212.82   35.00
   2  -7   8  313.62   37.81
  -2  -7   8  254.83   27.97
  -2  -7   8  147.15   26.17
   2  -7  -9  121.84   23.02
  -2  -7  -9   98.73   21.73
   2  -7   9  144.28   23.04
  -2  -7   9  121.17   18.55
  -2  -7   9   90.89   18.61
  -2  -7 -10  558.15   71.04
   2  -7  10  610.07   39.10
  -2  -7  10  605.88   35.29
  -2   7  10  600.66   47.33
  -2  -7  10  438.60   66.70
   2  -7  11   39.96   15.26
  -2  -7  11    8.11   10.17
  -2   7  11   20.65   19.69
   2   7  11   21.85   13.89
  -2  -7  11   16.94    8.49
   2  -7  12  228.92   37.38
  -2  -7  12  187.23   32.18
  -2   7  12  167.03   37.25
   2   7  12  192.56   47.74
   2  -7  13  131.78   29.69
  -2  -7  13   93.06   20.74
  -2   7  13  140.80   28.18
   2   7  13  120.60   23.83
   2  -7  14   70.01   24.93
  -2  -7  14   53.13   12.58
  -2   7  14   75.19   19.60
   2   7  14  100.71   21.22
   2  -7  15    8.27    7.24
  -2  -7  15   -1.29   10.74
  -2   7  15    7.15   13.02
   2   7  15    6.34    9.70
   2  -7  16   14.31   12.42
  -2  -7  16   -1.22   10.45
   2   7  16   33.49   12.29
  -2   7  16   36.06   14.63
   2  -7  17  148.10   33.92
  -2  -7  17  161.91   36.88
   2   7  17   87.63   28.50
  -2   7  17   91.03   24.86
  -2  -7  18  103.01   23.55
   2   7  18   76.59   18.06
  -2  -7  19   50.88   17.35
   2   7  19   23.24   13.49
   2   7  20   50.56   15.21
   2  -8   0   35.01   22.34
  -2  -8   0   85.92   19.16
   2  -8  -1   25.09   13.06
   2  -8   1   17.94   13.20
  -2  -8  -1   14.20   10.87
  -2  -8   1    4.78   10.47
   2  -8  -2   15.66    8.68
  -2  -8  -2   -1.20    7.83
   2  -8   2   25.94   16.05
  -2  -8   2   23.12   12.78
   2  -8  -3  126.64   26.58
  -2  -8  -3  118.16   23.28
   2  -8   3  128.79   34.00
  -2  -8   3  142.71   25.90
   2  -8  -4  363.37   97.35
  -2  -8  -4  356.43   61.14
   2  -8   4  354.98   77.09
  -2  -8   4  403.92   59.01
   2  -8  -5   45.40   14.64
  -2  -8  -5   69.71   20.56
   2  -8   5   73.67   22.27
  -2  -8   5   65.10   15.44
   2  -8  -6  323.81   63.22
  -2  -8  -6  316.08   69.48
   2  -8   6  336.03   53.24
  -2  -8   6  279.08   64.61
   2  -8  -7  225.55   48.78
  -2  -8  -7  219.24   46.98
   2  -8   7  217.67   38.46
  -2  -8   7  217.29   42.10
   2  -8  -8    7.30   11.51
  -2  -8  -8   10.60    4.81
   2  -8   8   18.99    8.34
  -2  -8   8   21.26   15.12
   2  -8  -9   21.49    8.84
  -2  -8  -9   23.76    7.00
   2  -8   9   30.08   13.83
  -2  -8   9   47.30   16.90
   2  -8 -10   39.41   11.47
  -2  -8 -10   39.90   16.18
   2  -8  10   67.09   22.14
  -2  -8  10   62.62   19.04
   2  -8 -11    9.32    9.01
  -2  -8 -11    7.63    5.10
   2  -8  11   27.61   13.12
  -2  -8  11   12.44    9.38
   2  -8 -12   34.95   16.28
  -2  -8 -12   55.19   23.77
   2  -8  12  182.18   36.92
  -2  -8  12   88.74   27.03
   2  -8 -13   14.20    6.69
  -2  -8 -13   17.95    6.35
   2  -8  13   17.20    8.59
  -2  -8  13   19.53    8.26
  -2  -8 -14   74.29   25.12
  -2  -8  14   63.89   22.09
  -2  -8  15  276.21   44.58
   2   8  15  250.05   39.55
  -2  -8  16   -0.08    5.49
   2   8  16   22.26    9.63
   2  -9   0   32.87   14.07
  -2  -9   0    8.87    9.98
   2  -9  -1   81.90   27.27
   2  -9   1  103.81   26.17
  -2  -9  -1  119.67   27.10
  -2  -9   1  150.51   32.34
   2  -9  -2   43.22   16.16
  -2  -9  -2   78.28   21.60
   2  -9   2   40.10   16.15
  -2  -9   2   29.62   16.45
   2  -9  -3  139.46   34.01
  -2  -9  -3  119.39   29.08
   2  -9   3   96.52   26.21
  -2  -9   3  152.98   32.35
   2  -9  -4  256.63   59.17
  -2  -9  -4  200.71   52.92
   2  -9   4  168.39   37.01
  -2  -9   4  208.77   41.92
   2  -9  -5  185.25   49.93
  -2  -9  -5  107.31   39.30
   2  -9   5  151.88   36.01
  -2  -9   5  143.19   31.14
  -2  -9  -6   27.73   13.85
   2  -9   6   50.52   20.21
  -2  -9   6   40.53   16.12
  -2  -9  -7   42.46    8.10
  -2  -9   7   42.44    9.33
  -2  -9  -8    9.43   10.01
  -2  -9   8   11.04    8.44
  -2  -9  -9    7.57    6.72
  -2  -9   9   31.90   14.70
  -2  -9 -10  104.44   21.57
  -2  -9  10  112.34   27.77
  -2  -9 -11   16.43    5.49
  -2  -9  11   -6.69    9.10
   3   0   0   -0.24    1.40
  -3   0   0    7.83    6.36
  -3   0   0   19.04    9.74
  -3   0   0   10.25    5.13
  -3   0   0  -11.58   10.42
   3   0  -1  271.07   13.27
   3   0   1  302.60   11.09
   3   0  -1  303.55   12.67
   3   0   1  312.90   12.67
  -3   0  -1  284.14   16.64
  -3   0   1  292.74   16.86
  -3   0   1  260.82   25.32
  -3   0  -1  270.26   15.20
  -3   0   1  322.84   18.40
  -3   0  -1  294.52   15.90
  -3   0  -1  307.84   16.67
  -3   0   1  317.69   27.89
   3   0   2  360.54   12.20
   3   0  -2  352.46   14.84
   3   0   2  341.61   13.13
  -3   0  -2  384.99   31.66
  -3   0   2  329.34   30.14
  -3   0  -2  370.79   27.38
  -3   0   2  347.28   17.78
  -3   0  -2  362.60   21.95
  -3   0  -2  355.12   28.88
  -3   0   2  368.46   18.87
   3   0   3  143.81    7.63
   3   0  -3  150.34    7.90
  -3   0  -3  172.48   27.38
  -3   0   3  169.15   35.50
  -3   0   3  157.39   45.81
  -3   0  -3  110.58   12.26
  -3   0  -3  146.29   23.63
  -3   0   3  148.96   34.42
  -3   0  -4 4323.77   58.03
   3   0   4 4302.67   58.26
   3   0  -4 4078.47   55.85
  -3   0  -4 3947.94   82.60
  -3   0   4 4258.26   71.18
  -3   0   4 4188.98   68.18
  -3   0  -4 4281.06   73.41
  -3   0  -4 4285.34   73.29
  -3   0  -5 3310.83   47.59
   3   0   5 3199.49   46.74
   3   0  -5 3257.32   47.65
  -3   0   5 3316.06   48.59
  -3   0  -5 3172.54   71.26
  -3   0   5 3278.37   57.29
  -3   0   5 3292.13   59.30
  -3   0  -5 3262.54   55.71
  -3   0  -5 3383.41   82.76
  -3   0  -6   -4.91    4.33
   3   0   6    4.69    3.55
   3   0  -6   -6.20    5.99
  -3   0   6    9.80    5.02
  -3   0  -6  -12.76    8.67
  -3   0   6   -3.63    8.53
  -3   0   6   -1.15    9.45
  -3   0  -6   -2.28    8.71
  -3   0  -7  308.19   31.41
   3   0   7  345.17   12.91
   3   0  -7  354.18   29.66
  -3   0   7  355.38   34.07
  -3   0  -7  337.88   26.00
  -3   0   7  306.90   15.54
  -3   0  -7  304.01   15.33
   3   0   8 3850.87  106.43
  -3   0   8 3922.15  105.42
  -3   0  -8 3785.43  104.14
  -3   0   8 3889.27  106.66
  -3   0  -8 4049.02  115.50
   3   0   9 1176.45   50.84
  -3   0   9 1198.07   45.85
  -3   0  -9 1156.12   53.73
  -3   0   9 1176.37   40.16
  -3   0  -9 1180.87   39.56
   3   0  10 1243.32   43.92
  -3   0  10 1230.00   41.18
  -3   0 -10 1277.33   56.62
  -3   0  10 1219.58   55.87
  -3   0 -10 1287.04   45.27
   3   0  11 1390.49   51.16
  -3   0  11 1384.64   50.91
  -3   0 -11 1471.83   52.72
  -3   0  11 1440.71   52.60
  -3   0 -11 1399.91   49.85
   3   0  12 1012.98   51.74
  -3   0  12 1011.22   83.08
  -3   0  12 1124.64   63.02
  -3   0 -12 1085.63   36.47
   3   0  13 8761.57  234.10
  -3   0  13 9105.67  249.34
  -3   0  13 9045.59  237.73
  -3   0 -13 9736.11  254.46
   3   0  14 1093.83   46.85
  -3   0  14 1111.47   74.76
  -3   0  14 1170.29   46.95
   3   0  15  314.91   23.33
  -3   0  15  315.14   46.89
  -3   0  15  270.10   25.95
   3   0  16   62.13   12.68
  -3   0  16   80.41   17.24
  -3   0  16   80.61   21.10
   3   0  17   63.53   10.49
  -3   0  17   87.89   13.05
  -3   0  17   45.01    7.07
   3   0  18  488.13   29.02
  -3   0  18  472.41   66.33
   3   0  19   43.31   12.48
  -3   0  19   38.99    8.93
   3   0  20   13.38   13.82
  -3   0  20   -1.49   11.01
   3   0  21  652.01   51.24
  -3   0  21  524.65   47.43
   3   0  22  738.10   48.42
  -3   0  22  869.56   50.12
   3   0  23  800.61  116.75
  -3   0  23  731.14  107.73
   3   0  24   31.59   12.78
  -3   0  24   52.23   20.80
   3   0  25  282.52   49.27
  -3   0  25  162.59   50.03
   3   0  26   17.34   10.57
  -3   0  26   44.52   19.43
   3   0  27   15.26    7.37
   3  -1   0  321.82   20.16
   3  -1   0  349.35   12.77
  -3  -1   0  334.66   21.17
  -3  -1   0  368.13   31.85
  -3   1   0  402.62   37.00
  -3  -1   0  359.30   24.96
  -3  -1   0  367.62   19.13
   3  -1  -111094.33  235.23
   3  -1   110620.77  225.03
   3  -1  -111215.59  237.57
   3  -1   110945.52  231.55
  -3  -1  -110883.04  238.09
  -3  -1   110891.64  240.06
  -3  -1   110768.70  236.04
  -3   1   111015.49  238.50
  -3  -1  -111053.43  241.31
  -3   1  -110907.30  236.28
  -3  -1   111330.21  248.35
  -3  -1  -111099.66  243.28
  -3   1  -110604.22  230.89
  -3  -1  -111751.31  255.87
  -3   1   110639.72  230.41
  -3  -1   110749.12  233.89
   3   1  -2   54.71    4.16
   3  -1   2   55.77    9.04
   3  -1  -2   63.14    6.61
  -3  -1   2   50.51    5.71
  -3   1   2   52.13    5.38
   3  -1   2   57.53    6.12
  -3  -1  -2   60.98   14.42
  -3  -1   2   52.26   11.09
  -3  -1   2   73.43   16.31
  -3   1   2   70.20   17.56
  -3  -1  -2   71.30   12.85
  -3   1  -2   30.93   12.92
  -3  -1   2   44.94   24.19
  -3  -1  -2   54.28   14.38
  -3   1  -2   65.41   13.83
  -3  -1  -2   76.59   13.90
  -3   1   2   67.67   12.18
  -3  -1   2   59.50   10.73
  -3   1  -310099.00  129.54
  -3  -1  -310039.45  120.46
   3  -1   310118.89  129.11
   3   1  -3 9890.08  121.59
   3  -1  -310138.93  130.66
   3   1   310022.26  120.57
  -3   1   3 9990.93  132.87
  -3  -1  -310110.85  142.14
  -3  -1   310026.69  139.05
  -3  -1   310087.73  140.22
  -3   1   310248.50  138.83
  -3  -1  -310097.11  142.39
  -3   1  -310006.34  141.37
  -3  -1   310270.13  143.73
  -3  -1  -310115.31  146.53
  -3   1  -3 9933.39  136.66
  -3  -1  -310040.68  138.85
  -3   1  -4  462.31   31.23
   3  -1   4  467.10   23.56
  -3  -1  -4  444.35   11.75
   3   1  -4  457.63   18.87
   3  -1  -4  457.41   14.43
   3   1   4  464.38   14.07
  -3   1   4  458.19   14.35
  -3  -1  -4  437.97   19.75
  -3  -1   4  464.71   45.88
  -3  -1   4  554.94   56.72
  -3   1   4  417.56   40.60
  -3   1  -4  462.35   18.60
  -3  -1   4  468.88   37.26
  -3  -1  -4  452.53   35.07
  -3   1  -4  464.65   43.07
  -3  -1  -4  485.63   45.38
  -3   1  -5  723.13   20.61
   3  -1   5  699.37   27.53
   3   1  -5  711.53   15.73
  -3  -1  -5  714.90   16.49
  -3  -1   5  733.87   17.44
   3  -1  -5  727.49   30.16
   3   1   5  767.62   16.43
  -3   1   5  711.07   18.95
  -3  -1  -5  746.20   26.41
  -3  -1   5  773.30   41.27
  -3  -1   5  748.33   42.95
  -3   1   5  720.90   40.40
  -3   1  -5  704.83   23.18
  -3  -1   5  732.38   25.19
  -3  -1  -5  709.14   22.70
  -3   1  -5  775.14   27.27
  -3  -1  -5  760.75   35.77
  -3   1  -6 3945.04   59.10
   3  -1   6 3866.98   62.93
   3   1  -6 3752.12   54.70
  -3  -1  -6 3937.46   55.83
  -3  -1   6 3897.98   56.75
   3   1   6 3811.72   55.92
  -3   1   6 3878.28   60.10
  -3  -1  -6 3692.41   65.00
  -3  -1   6 3877.75   65.42
  -3  -1   6 3677.63   66.34
  -3   1   6 3725.61   68.59
  -3   1  -6 3918.76   66.73
  -3  -1   6 3715.88   63.20
  -3  -1  -6 3741.59   63.06
  -3  -1  -6 3759.87   77.27
   3   1  -7 3661.70   54.93
  -3  -1  -7 3782.42   57.10
   3  -1   7 3647.76   63.60
  -3  -1   7 3652.43   58.97
   3   1   7 3746.16   55.45
  -3   1   7 3564.91   59.65
  -3  -1  -7 3639.32   62.09
  -3  -1   7 3656.40   64.35
  -3   1  -7 3697.60   62.00
  -3  -1   7 3608.99   62.27
  -3  -1  -7 3652.32   62.83
  -3  -1  -7 3567.46   85.31
   3   1  -8  621.19   29.59
  -3  -1  -8  631.73   22.29
   3  -1   8  618.71   25.74
  -3  -1   8  570.05   21.67
   3   1   8  660.33   25.22
  -3   1   8  602.81   24.93
  -3  -1  -8  599.71   25.66
  -3  -1   8  641.07   48.54
  -3   1  -8  592.71   23.99
  -3  -1   8  619.71   26.10
  -3  -1  -8  575.01   23.96
   3  -1   9 1315.49   54.84
  -3  -1   9 1161.97   37.18
   3   1   9 1247.25   38.69
  -3   1   9 1290.49   43.60
  -3  -1  -9 1200.09   42.46
  -3  -1   9 1285.99   42.50
  -3   1  -9 1221.24   43.55
  -3  -1   9 1323.65   75.01
  -3  -1  -9 1320.94   43.90
   3  -1  10 1932.03   66.06
  -3  -1  10 1904.92   64.65
   3   1  10 2012.44   67.92
  -3   1  10 1975.24   68.41
  -3  -1 -10 1918.66   67.16
  -3   1 -10 1984.45   68.29
  -3  -1  10 1914.39   78.82
   3  -1  11   85.76   13.20
  -3  -1  11   74.13   15.83
   3   1  11   69.37   22.64
  -3   1  11   73.69   18.67
  -3  -1 -11   74.31   12.58
  -3   1 -11   85.91   11.97
  -3  -1  11   97.61   21.89
   3  -1  12 1284.37   45.58
  -3  -1  12 1266.63   43.98
   3   1  12 1230.44   43.84
  -3   1  12 1241.50   66.47
  -3  -1 -12 1246.58   62.33
  -3   1  12 1259.82   52.34
  -3   1 -12 1194.50   39.79
  -3  -1  12 1312.91   43.51
   3  -1  13  306.81   20.63
  -3  -1  13  265.55   40.08
   3   1  13  300.34   53.57
  -3   1  13  277.70   45.60
  -3  -1 -13  334.98   40.80
  -3   1  13  276.68   20.66
  -3   1 -13  257.81   44.43
  -3  -1  13  251.92   23.39
   3  -1  14  181.90   31.39
  -3  -1  14  161.98   15.44
   3   1  14  188.53   40.68
  -3   1  14  199.50   29.09
  -3  -1 -14  174.46   26.99
  -3   1  14  134.78   28.81
  -3   1 -14  163.44   24.06
  -3  -1  14  159.86   12.49
   3  -1  15 1277.61   56.66
  -3  -1  15 1302.12   55.58
   3   1  15 1278.96   62.15
  -3   1  15 1400.52   94.80
  -3  -1 -15 1289.08   84.79
  -3   1  15 1262.21   52.41
  -3   1 -15 1356.69   51.49
  -3  -1  15 1231.22   48.07
   3  -1  16   65.62   15.44
  -3  -1  16   67.65   15.96
   3   1  16   50.66   14.71
  -3   1  16   59.16   15.17
  -3  -1 -16   48.30    8.43
  -3   1  16   56.49   13.03
  -3  -1  16   52.58    9.41
  -3   1 -16   39.80    7.71
   3  -1  17  176.49   33.73
  -3  -1  17  178.97   27.57
   3   1  17  172.32   36.44
  -3   1  17  221.65   34.50
  -3  -1 -17  141.03   18.14
  -3   1  17  118.75   28.78
  -3  -1  17  123.55   24.43
   3  -1  18   22.95    7.59
  -3  -1  18   47.47   13.66
   3   1  18   49.61   13.57
  -3   1  18   24.69    5.07
  -3   1  18   17.31    7.75
   3  -1  19  275.49   55.91
  -3  -1  19  271.65   59.31
   3   1  19  246.71   54.82
  -3   1  19  260.33   37.16
   3  -1  20   67.33   26.37
  -3  -1  20   39.60   16.52
   3   1  20   60.18   24.50
  -3   1  20   20.57   12.34
   3  -1  21 1497.06  126.34
  -3  -1  21 1407.44  132.32
   3   1  21 1564.07  108.75
  -3   1  21 1556.66  182.19
   3  -1  22   21.93   11.47
  -3  -1  22   38.53   15.71
   3   1  22   22.64    8.66
  -3   1  22    5.21   11.48
   3  -1  23  982.28  155.74
  -3  -1  23  941.08  164.72
   3   1  23 1052.57  164.11
  -3   1  23  819.68  159.89
   3  -1  24    8.29    9.46
  -3  -1  24    1.58    9.98
   3   1  24    6.21    4.19
  -3   1  24   -7.68   12.68
   3  -1  25   80.73   33.83
  -3  -1  25  143.63   29.52
   3   1  25  115.35   37.53
  -3   1  25  135.67   33.04
   3  -1  26  123.05   23.54
  -3  -1  26  147.79   31.01
   3   1  26   83.49   32.09
  -3   1  26  102.47   22.71
   3  -1  27   10.75    6.93
   3   1  27   11.81    4.45
   3  -2   0  653.19   43.05
  -3  -2   0  680.57   14.36
  -3  -2   0  681.53   13.67
  -3  -2   0  699.94   24.14
  -3  -2   0  655.36   47.21
  -3   2   0  655.39   33.75
  -3  -2   0  696.89   25.04
  -3  -2   0  683.49   27.15
   3  -2  -1  422.29   18.13
   3  -2   1  495.16   40.02
  -3  -2  -1  460.32    9.27
  -3  -2   1  437.60   12.53
  -3  -2  -1  463.26   12.14
  -3  -2  -1  484.36   21.75
  -3  -2   1  464.76   20.62
  -3  -2   1  398.99   40.39
  -3  -2  -1  478.28   37.53
  -3   2   1  442.00   38.50
  -3  -2   1  452.57   21.37
  -3  -2  -1  430.28   20.02
   3  -2  -1  436.93   14.95
  -3   2  -1  469.54   18.27
  -3  -2  -1  455.32   18.30
  -3   2   1  434.25   15.47
  -3  -2   1  382.76   18.45
   3  -2  -2  826.44   37.09
   3  -2   2  811.41   22.10
  -3  -2  -2  779.96   13.76
  -3  -2  -2  784.72   30.30
  -3  -2   2  854.81   59.72
  -3  -2   2  783.51   24.66
  -3   2   2  802.79   20.97
  -3  -2  -2  771.40   25.08
  -3  -2   2  817.20   27.36
   3  -2  -2  800.98   21.15
  -3   2  -2  839.07   25.33
  -3  -2  -2  808.97   25.35
  -3   2   2  831.98   25.71
  -3  -2   2  803.09   25.19
   3   2  -3 2167.33   32.49
   3  -2   3 2127.60   40.74
  -3   2   3 2151.14   40.69
   3   2   3 2061.00   30.70
  -3  -2  -3 2095.94   64.45
  -3  -2   3 2146.43   44.31
  -3  -2   3 2150.89   57.88
  -3   2   3 2085.38   38.12
  -3  -2  -3 2090.93   43.75
  -3  -2   3 2157.15   56.03
  -3   2  -3 2111.28   72.33
  -3  -2  -3 2086.81   45.58
   3   2  -4 2194.66   34.18
   3  -2   4 2256.62   41.91
  -3  -2  -4 2262.92   35.00
   3   2   4 2270.86   34.20
  -3   2   4 2334.42   65.58
  -3  -2  -4 2224.71   46.52
  -3  -2   4 2208.15   44.66
  -3  -2   4 2401.02   49.56
  -3   2   4 2321.75   41.72
  -3  -2   4 2189.74   44.97
  -3   2  -4 2301.33   59.68
  -3  -2  -4 2241.07   53.31
   3   2  -5 3059.81   80.95
   3  -2   5 3086.72   86.03
  -3  -2   5 3030.90   48.38
  -3  -2  -5 3139.07   83.55
   3   2   5 3051.85   80.59
  -3   2   5 3029.03   84.45
  -3  -2  -5 3021.86   88.71
  -3  -2   5 3014.90   54.46
  -3  -2   5 3073.98   73.50
  -3   2   5 3141.98   54.23
  -3  -2   5 3033.46   58.84
  -3  -2  -5 3060.57   93.01
   3   2  -6 2735.83   73.61
   3  -2   6 2763.90   78.21
  -3  -2   6 2736.24   75.14
  -3  -2  -6 2636.12   70.55
   3   2   6 2678.34   72.40
  -3   2   6 2656.72   75.86
  -3  -2  -6 2695.41   79.01
  -3  -2   6 2690.51   78.43
  -3  -2   6 2575.95   85.02
  -3   2   6 2774.82   77.89
  -3  -2   6 2687.90   77.73
  -3  -2  -6 2816.47   83.73
   3   2  -7 1092.71   33.72
   3  -2   7 1027.92   51.33
  -3  -2  -7 1072.35   34.83
  -3  -2   7 1118.41   38.88
   3   2   7 1076.78   33.32
  -3   2   7 1183.33   61.16
  -3  -2  -7 1051.00   40.35
  -3  -2   7 1126.73   39.27
  -3   2   7 1114.28   44.50
  -3  -2   7 1122.95   41.57
  -3  -2  -7 1028.32   37.29
   3  -2   8 3826.22  105.94
  -3  -2   8 3785.57  103.73
   3   2   8 3833.98  102.07
  -3   2   8 3840.63  110.61
  -3  -2  -8 3963.35  112.27
  -3  -2   8 3914.97  114.75
  -3  -2   8 3871.30  107.83
  -3  -2  -8 3827.05  109.01
   3  -2   9 1519.59   63.09
  -3  -2   9 1548.95   54.15
   3   2   9 1536.42   52.27
  -3   2   9 1578.79   57.86
  -3  -2  -9 1646.01   61.02
  -3  -2   9 1554.09   58.00
  -3   2  -9 1592.61   57.15
  -3  -2   9 1625.87   59.35
   3  -2  10  335.51   24.51
  -3  -2  10  351.41   27.44
   3   2  10  350.94   18.46
  -3   2  10  373.42   38.26
  -3  -2 -10  357.30   23.69
  -3  -2  10  402.85   34.21
  -3   2 -10  375.21   21.17
   3  -2  11 2221.60  109.11
  -3  -2  11 2185.75  117.88
   3   2  11 2266.52   67.70
  -3   2  11 2157.33   67.30
  -3  -2 -11 2183.06   68.86
  -3  -2  11 2286.60   71.10
  -3   2 -11 2152.61   75.95
   3  -2  12  840.68   48.02
  -3  -2  12  750.28   73.45
   3   2  12  692.83   28.48
  -3   2  12  763.23   44.95
  -3  -2 -12  761.12   37.31
  -3  -2  12  725.86   28.81
  -3   2 -12  743.19   32.38
   3  -2  13 3786.53  135.49
  -3  -2  13 3629.89  130.37
   3   2  13 3482.19  128.06
  -3   2  13 3433.80  124.66
  -3  -2 -13 3700.60  131.94
  -3  -2  13 3779.89  137.79
  -3   2 -13 3636.85  130.07
   3  -2  14 4793.58  169.85
  -3  -2  14 4670.61  165.43
   3   2  14 4670.61  164.56
  -3   2  14 4860.88  173.11
  -3  -2 -14 4556.55  168.27
  -3   2 -14 4535.34  162.58
   3  -2  15   96.92   14.78
  -3  -2  15   80.34   13.75
   3   2  15   49.88   14.25
  -3   2  15   58.41   13.70
  -3  -2 -15   54.08    8.95
  -3   2 -15   76.98   14.24
   3  -2  16  839.29   33.18
  -3  -2  16  823.79  111.75
   3   2  16  831.05   29.91
  -3   2  16  773.65   52.70
  -3  -2 -16  725.89   35.60
  -3   2 -16  849.28   21.33
   3  -2  17  165.13   25.47
  -3  -2  17  151.37   13.52
   3   2  17  123.16   14.32
  -3   2  17  122.22   16.89
  -3  -2 -17  138.36   25.99
   3  -2  18  451.76   68.66
  -3  -2  18  453.23   29.36
   3   2  18  465.00   27.75
  -3   2  18  470.68   33.60
  -3  -2 -18  360.64   45.72
   3  -2  19  339.02  131.97
  -3  -2  19  307.15  116.73
   3   2  19  310.92  113.12
  -3   2  19  318.60  125.67
   3  -2  20   54.80   12.34
  -3  -2  20   44.83   12.96
   3   2  20   48.63   13.18
  -3   2  20   27.86   14.49
   3  -2  21  233.97   64.45
  -3  -2  21  378.60   28.66
   3   2  21  385.67   28.17
  -3   2  21  326.46   29.67
   3  -2  22    2.96    9.89
  -3  -2  22   58.03   18.96
   3   2  22   -3.42    9.58
  -3   2  22   -1.40   13.48
   3  -2  23   63.74   24.12
  -3  -2  23   75.96   22.46
   3   2  23   84.64   20.51
  -3   2  23   74.93   18.79
   3  -2  24   11.27    7.82
  -3  -2  24   20.44    7.72
   3   2  24   16.10    5.68
  -3   2  24   15.71    9.41
   3  -2  25   98.12   24.54
  -3  -2  25  103.22   26.24
   3   2  25  132.97   40.00
  -3   2  25  146.77   30.65
   3  -2  26   90.76   22.01
  -3  -2  26   41.41   12.93
   3   2  26   90.20   20.97
  -3   2  26   59.19   20.64
   3   2  27   26.41    8.16
   3  -3   0  434.03   25.09
  -3  -3   0  402.79   20.86
  -3  -3   0  389.08   76.00
   3  -3   0  375.66   33.47
  -3  -3   0  419.18   43.42
  -3   3   0  415.19   26.16
  -3  -3   0  391.35   20.23
   3  -3  -1 1189.68   40.96
   3  -3   1 1172.00   45.71
  -3  -3  -1 1155.38   35.54
  -3  -3   1 1160.99   34.78
  -3  -3  -1 1104.58   48.38
  -3  -3   1 1206.85   44.89
   3  -3   1 1170.22   38.59
  -3  -3   1 1126.78   55.86
  -3  -3  -1 1117.28   39.59
  -3   3  -1 1145.91   40.55
  -3  -3  -1 1022.09   35.96
  -3   3   1 1111.60   42.03
  -3  -3   1 1187.07   40.69
   3  -3  -2 2735.33   79.97
   3  -3   2 2629.42   77.61
  -3  -3   2 2610.96   71.07
  -3  -3  -2 2602.09   69.38
  -3  -3   2 2729.17   72.82
  -3  -3  -2 2611.63   78.36
  -3  -3   2 2594.16   80.84
  -3  -3   2 2642.07   77.91
  -3  -3  -2 2645.31   78.29
  -3   3   2 2586.99   74.42
  -3   3  -2 2588.34   79.81
  -3  -3  -2 2596.63   75.26
   3  -3  -3  382.85   32.43
   3   3  -3  418.43   27.28
  -3  -3  -3  400.96   20.54
   3  -3   3  450.80   21.58
  -3  -3   3  414.03   16.21
  -3  -3  -3  447.76   16.29
  -3  -3   3  447.58   24.46
  -3  -3   3  422.40   36.11
  -3   3   3  395.35   32.77
  -3  -3  -3  449.07   37.17
   3  -3  -3  367.38   19.04
  -3   3  -3  424.49   28.53
   3   3  -4 2256.11   75.97
   3  -3   4 2231.66   68.06
  -3  -3   4 2188.11   60.87
  -3  -3  -4 2227.99   61.17
  -3   3   4 2257.52   68.51
   3   3   4 2134.29   59.06
  -3  -3  -4 2218.25   69.73
  -3  -3   4 2208.46   67.83
  -3  -3   4 2210.52   75.56
  -3   3   4 2277.86   63.18
  -3   3  -4 2141.69   65.37
   3  -3  -4 2122.07   67.87
  -3  -3  -4 2193.69   72.76
   3   3  -5   52.49    9.96
   3  -3   5   50.65   11.17
  -3  -3   5   85.59    8.90
  -3  -3  -5   68.88    7.68
   3   3   5   52.87   11.51
  -3   3   5   51.33   13.94
  -3  -3  -5   39.75   21.53
  -3  -3   5   58.76   11.87
  -3  -3   5   74.88   14.04
  -3   3   5   40.90    7.68
   3  -3  -5   57.81    9.93
  -3  -3  -5   55.47   13.01
   3  -3   6 1910.55   85.14
  -3  -3   6 1880.02   62.35
  -3  -3  -6 1893.06   61.51
   3   3   6 1857.12   65.06
  -3   3   6 1897.15   79.38
  -3  -3  -6 1794.41   67.55
  -3  -3   6 2020.40   96.77
  -3  -3   6 1794.55   82.91
  -3   3   6 1792.38   59.37
  -3  -3  -6 1812.46   67.99
   3  -3   7   31.42    9.44
  -3  -3   7   46.22    9.93
   3   3   7   24.50    6.19
  -3   3   7   79.18   12.25
  -3  -3  -7   53.38   17.10
  -3  -3   7   45.89   10.41
  -3  -3   7   49.87   15.87
  -3   3   7   41.08    7.65
  -3  -3  -7   57.57   12.03
   3  -3   8 1113.46   62.52
  -3  -3   8 1131.60   41.30
   3   3   8 1155.81   41.33
  -3   3   8 1131.03   60.54
  -3  -3  -8 1173.19   62.50
  -3  -3   8 1168.72   45.32
  -3   3   8 1178.63   42.73
  -3  -3  -8 1127.12   46.24
   3  -3   9  353.69   38.92
  -3  -3   9  305.31   46.36
   3   3   9  317.60   16.93
  -3   3   9  291.69   19.62
  -3  -3  -9  347.62   63.45
  -3  -3   9  266.46   20.71
  -3  -3  -9  317.07   63.58
   3  -3  10  761.51   33.88
  -3  -3  10  716.36   29.64
   3   3  10  741.95   28.68
  -3   3  10  710.46   40.94
  -3  -3 -10  793.08   76.77
  -3  -3  10  743.09   36.31
  -3  -3 -10  727.32   32.92
   3  -3  11  314.45   22.63
  -3  -3  11  344.60   33.65
   3   3  11  307.69   19.39
  -3   3  11  311.68   22.42
  -3  -3 -11  296.18   52.66
  -3  -3  11  313.21   57.81
  -3  -3 -11  287.97   56.28
   3  -3  12 1497.32   61.51
  -3  -3  12 1450.97   58.51
   3   3  12 1411.79   57.20
  -3   3  12 1489.29   96.96
  -3  -3 -12 1358.70   77.05
  -3  -3  12 1407.66   58.81
   3  -3  13  334.33   61.87
  -3  -3  13  363.95   47.76
   3   3  13  353.74   23.24
  -3   3  13  325.38   67.23
  -3  -3 -13  307.92   53.29
  -3  -3  13  371.94   23.52
  -3   3 -13  297.79   53.70
   3  -3  14  178.58   16.97
  -3  -3  14  215.03   36.07
   3   3  14  232.21   45.54
  -3   3  14  191.58   24.91
  -3  -3 -14  217.58   33.27
  -3  -3  14  178.12   41.98
  -3   3 -14  189.83   38.75
   3  -3  15 1210.25   62.12
  -3  -3  15 1156.03   79.27
   3   3  15 1146.75   33.90
  -3   3  15 1137.23   81.54
  -3  -3 -15 1133.45   48.89
  -3  -3  15 1194.87   40.05
  -3   3 -15 1153.81   29.48
   3  -3  16   44.48   14.14
  -3  -3  16   16.33   10.30
   3   3  16   27.99   12.78
  -3   3  16   61.53   18.93
  -3  -3 -16   49.80   11.98
  -3  -3  16   29.04    9.82
  -3   3 -16   28.19    8.03
   3  -3  17  128.00   15.69
  -3  -3  17  140.71   20.30
   3   3  17  117.73   16.81
  -3   3  17  108.15   15.52
  -3  -3 -17  138.12   15.11
   3  -3  18  406.49  161.20
  -3  -3  18  476.74  174.07
   3   3  18  531.59  191.71
  -3   3  18  409.74  170.61
  -3  -3 -18  406.92  159.00
   3  -3  19   40.79   15.19
  -3  -3  19   26.29   11.92
   3   3  19   25.58   11.69
  -3   3  19   56.10   15.81
   3  -3  20  147.71   34.58
  -3  -3  20  127.19   20.85
   3   3  20  212.21   20.73
  -3   3  20  162.22   24.43
   3  -3  21   29.71    8.78
  -3  -3  21   51.58   14.26
   3   3  21   69.16   17.32
  -3   3  21   50.90   16.73
   3  -3  22    9.97    6.42
  -3  -3  22   27.56   13.85
   3   3  22   36.44   13.34
  -3   3  22   36.42   15.70
   3  -3  23  493.47  102.03
  -3  -3  23  540.61   87.38
   3   3  23  564.66   89.34
  -3   3  23  459.88   77.16
   3  -3  24   14.14    8.05
  -3  -3  24   27.33   16.55
   3   3  24   48.14   15.34
  -3   3  24   25.62   14.36
   3  -3  25  211.22   34.92
  -3  -3  25  224.84   39.48
   3   3  25  185.18   31.85
  -3   3  25  192.92   35.80
   3   3  26  145.85   26.65
   3  -4   0   96.13   22.28
  -3  -4   0  100.86    9.79
  -3  -4   0  106.19   20.51
   3  -4   0   77.68   12.66
  -3  -4   0  125.29   18.28
  -3   4   0   83.05   14.74
  -3  -4   0   97.17   24.19
   3  -4  -1   28.16    9.21
   3  -4   1   33.66   11.73
  -3  -4  -1   11.59    6.71
  -3  -4   1   10.43    3.44
  -3  -4  -1   35.17   17.78
  -3  -4   1   -4.63   11.23
   3  -4   1   22.14    3.45
  -3  -4   1    9.86    9.19
  -3  -4  -1   25.88    9.04
  -3   4  -1  769.41  225.44
  -3  -4  -1   15.74    7.40
   3  -4  -2  410.27   32.71
  -3  -4  -2  374.79   30.34
   3  -4   2  378.52   44.17
  -3  -4   2  385.34   19.98
  -3  -4  -2  390.30   33.05
  -3  -4   2  360.92   34.35
   3  -4   2  292.65   40.53
  -3  -4   2  392.41   26.51
  -3  -4  -2  429.30   55.02
  -3   4  -2  374.83   18.81
  -3  -4  -2  342.63   44.55
   3  -4  -3  685.36   35.88
  -3  -4  -3  660.57   27.26
   3  -4   3  609.57   28.16
  -3  -4   3  702.23   26.34
  -3  -4  -3  624.11   34.81
  -3  -4   3  625.07   32.23
  -3  -4   3  698.96   48.90
  -3  -4  -3  689.22   64.20
  -3   4  -3  671.25   31.15
  -3  -4  -3  642.47   28.34
   3  -4  -4 1462.38   50.87
  -3  -4  -4 1438.57   54.55
   3  -4   4 1539.79   72.28
  -3  -4   4 1405.14   44.80
  -3  -4   4 1436.60   51.32
  -3  -4   4 1575.91  107.54
  -3   4   4 1447.18   43.20
  -3   4  -4 1356.51   59.95
  -3  -4  -4 1448.14   49.04
   3  -4   5 1091.17   63.00
  -3  -4   5 1030.86   35.81
  -3   4   5 1065.36   40.75
  -3  -4   5 1059.41   69.14
  -3  -4   5 1162.01   65.70
  -3   4   5 1074.06   32.92
  -3   4  -5 1086.97   51.07
  -3  -4  -5 1178.74   47.46
   3  -4   6 1346.42   48.69
  -3  -4   6 1333.85   55.05
   3   4   6 1303.55   42.13
  -3   4   6 1317.04   52.98
  -3  -4  -6 1215.31   68.41
  -3  -4   6 1290.65   46.64
  -3  -4   6 1249.00   66.06
  -3   4   6 1259.78   37.77
   3  -4  -6 1120.92   48.60
  -3  -4  -6 1188.15   46.23
   3  -4   7  412.82   51.94
  -3  -4   7  345.33   19.80
   3   4   7  319.19   21.75
  -3   4   7  359.90   22.76
  -3  -4  -7  345.56   62.86
  -3  -4   7  296.41   24.51
  -3  -4   7  379.81   55.17
  -3   4   7  310.43   35.47
   3  -4  -7  279.20   29.40
  -3  -4  -7  318.52   29.25
   3  -4   8 2319.56   94.03
  -3  -4   8 2315.69   91.86
   3   4   8 2296.69   83.73
  -3   4   8 2326.32   89.22
  -3  -4  -8 2416.39   92.41
  -3  -4   8 2391.19   95.32
  -3  -4   8 2243.70   94.19
  -3   4   8 2286.42   81.27
  -3  -4  -8 2222.27   87.20
   3  -4  -8 2135.02   75.17
   3  -4   9   71.69   13.47
  -3  -4   9   93.56   11.68
   3   4   9   95.45   10.30
  -3   4   9  108.67   18.33
  -3  -4  -9   90.29   25.96
  -3  -4   9   87.70   18.08
  -3   4   9   90.99   14.77
  -3  -4  -9   82.36   18.57
   3  -4  10  892.57   42.54
  -3  -4  10  922.36   41.91
   3   4  10  927.44   39.90
  -3   4  10  865.16   41.68
  -3  -4 -10  999.20   66.08
  -3  -4  10  937.87   43.46
  -3   4  10  868.80   41.00
  -3  -4 -10  923.40   45.80
   3  -4  11  955.07   86.24
  -3  -4  11  859.38   40.58
   3   4  11  952.97   41.34
  -3   4  11  974.67   67.47
  -3  -4 -11  828.09  125.24
  -3  -4  11  878.12   61.53
  -3   4  11  795.60   35.53
  -3  -4 -11  872.08   43.11
   3  -4  12  133.98   28.47
  -3  -4  12  109.33   10.94
   3   4  12  121.64   13.26
  -3   4  12  139.00   18.92
  -3  -4 -12  114.85   17.07
  -3  -4  12  110.05   21.53
  -3  -4 -12  131.94   22.99
   3  -4  13   42.72   17.06
  -3  -4  13   21.38    9.74
   3   4  13   28.57    8.90
  -3   4  13   20.56   11.86
  -3  -4 -13   38.02   12.15
  -3  -4  13   15.11    4.57
  -3  -4 -13   31.21   15.56
   3  -4  14 1609.45   92.08
  -3  -4  14 1796.14   43.85
   3   4  14 1789.06   39.56
  -3   4  14 1754.83   48.71
  -3  -4 -14 1811.18   46.13
  -3  -4  14 1657.21   66.05
  -3  -4 -14 1744.64   57.93
   3  -4  15  192.32   19.46
  -3  -4  15  159.89   26.07
   3   4  15  151.33   31.00
  -3   4  15  239.76   30.05
  -3  -4 -15  182.48   28.95
  -3  -4  15  136.96   31.87
  -3  -4 -15  115.70   25.19
   3  -4  16 1090.10  391.60
  -3  -4  16 1028.10  373.43
   3   4  16 1098.26  394.09
  -3   4  16 1017.73  365.76
  -3  -4 -16 1034.74  375.78
  -3  -4  16  979.95  352.66
   3  -4  17  417.34   49.96
  -3  -4  17  390.19   61.57
   3   4  17  376.41   76.15
  -3   4  17  495.01   45.94
  -3  -4 -17  354.25   53.12
   3  -4  18  924.22  102.15
  -3  -4  18  947.92   63.05
   3   4  18  896.14   76.38
  -3   4  18  942.23   89.09
  -3  -4 -18  860.48   60.41
   3  -4  19   58.25   18.24
  -3  -4  19   27.11   13.58
   3   4  19   11.50   10.96
  -3   4  19   22.29   10.43
   3  -4  20  301.74   47.96
  -3  -4  20  471.88   71.72
   3   4  20  403.74   61.83
  -3   4  20  307.41   76.68
   3  -4  21  111.03   23.48
  -3  -4  21   64.94   18.10
   3   4  21   93.78   21.41
  -3   4  21   89.40   25.46
   3  -4  22  221.12   59.33
  -3  -4  22  246.81   55.11
   3   4  22  292.03   48.70
  -3   4  22  294.19   52.00
   3  -4  23   94.18   30.81
  -3  -4  23  108.12   30.26
   3   4  23  127.88   29.57
  -3   4  23  107.70   28.22
  -3  -4  24   18.44   14.04
   3   4  24   17.33    7.11
  -3  -4  25   -1.54    9.61
   3   4  25   22.19   12.97
   3  -5   0  378.91   36.55
  -3  -5   0  374.42   19.96
  -3  -5   0  437.03   61.66
   3  -5  -1  318.02   70.35
   3  -5   1  286.05   63.31
  -3  -5  -1  288.55   50.10
  -3  -5   1  305.24   46.63
  -3  -5   1  331.13   26.18
  -3   5  -1  276.22   19.35
   3  -5  -2 2901.16  113.44
  -3  -5  -2 2669.99  100.44
   3  -5   2 2764.81  158.19
  -3  -5   2 2702.60   97.20
  -3  -5   2 2786.44  108.44
  -3  -5  -2 2730.36  102.60
  -3  -5  -2 2699.02  100.29
   3  -5  -3 2246.27  108.47
  -3  -5  -3 2199.13  104.87
   3  -5   3 2276.38   89.71
  -3  -5   3 2307.19  107.74
  -3  -5   3 2214.34  100.70
  -3  -5  -3 2207.67   87.08
  -3  -5  -3 2160.31   81.19
   3  -5  -4 4062.73  148.59
  -3  -5  -4 3749.28  144.07
   3  -5   4 4118.71  150.68
  -3  -5   4 4044.44  143.88
  -3  -5   4 3689.37  166.69
  -3  -5   4 4012.22  148.22
  -3   5  -4 4006.38  140.97
  -3  -5  -4 3817.66  143.10
   3  -5  -5    8.98    5.97
  -3  -5  -5    9.88    6.62
   3  -5   5   24.41   15.45
  -3  -5   5   12.44    6.33
  -3  -5   5   14.70    9.74
  -3  -5   5   14.51    8.76
  -3   5  -5   18.01    8.87
  -3  -5  -5   26.53   10.58
  -3  -5  -6  559.36   29.21
   3  -5   6  541.81   31.96
  -3  -5   6  597.03   29.35
  -3  -5   6  506.27   55.97
  -3  -5   6  644.92   47.55
  -3  -5  -6  555.59   29.68
   3  -5   7  143.16   18.56
  -3  -5   7  136.51   13.61
  -3   5   7  120.73   16.10
   3   5   7  149.38   30.50
  -3  -5   7  118.75   19.60
  -3  -5   7  151.76   22.38
  -3  -5  -7  179.44   27.90
   3  -5   8  229.81   20.10
  -3  -5   8  265.17   17.41
  -3   5   8  253.61   21.58
   3   5   8  270.82   15.91
  -3  -5   8  260.66   62.18
  -3  -5   8  250.25   43.03
  -3  -5  -8  254.48   48.67
   3  -5   9  233.22   22.17
  -3  -5   9  198.16   28.86
   3   5   9  178.17   13.78
  -3   5   9  211.10   21.67
  -3  -5   9  188.99   43.53
  -3  -5   9  212.15   33.58
  -3  -5  -9  195.13   40.96
   3  -5  10   68.07   18.95
  -3  -5  10   72.10    9.96
   3   5  10   56.23   13.29
  -3   5  10   93.87   16.12
  -3  -5  10   82.52   22.00
  -3  -5  10   82.87   10.34
  -3  -5 -10   57.85   10.10
   3  -5  11  114.61   17.60
  -3  -5  11   81.75   12.19
   3   5  11   80.36   17.10
  -3   5  11  110.56   17.10
  -3  -5  11  112.10   19.50
  -3  -5 -11   96.52   19.64
   3  -5  12  292.22   23.11
  -3  -5  12  245.07   18.74
   3   5  12  235.33   42.27
  -3   5  12  254.83   48.57
  -3  -5  12  264.51   50.35
  -3  -5 -12  199.23   41.87
   3  -5  13   30.85   15.14
  -3  -5  13   30.23   15.91
   3   5  13   17.87   10.74
  -3   5  13   22.31   14.62
  -3  -5 -13   28.21   14.92
  -3  -5  13   20.25   11.86
  -3  -5 -13    5.41    4.85
   3  -5  14  133.03   51.22
  -3  -5  14  148.50   55.52
   3   5  14  171.31   63.67
  -3   5  14  121.20   48.34
  -3  -5 -14  131.52   26.85
  -3  -5  14  125.90   33.59
  -3  -5 -14  142.83   34.97
   3  -5  15   72.62   16.02
  -3  -5  15   70.21   15.96
   3   5  15   64.23   14.57
  -3   5  15   48.67   15.26
  -3  -5 -15   53.46   12.73
  -3  -5  15   57.10   13.32
  -3  -5 -15   97.52   19.90
   3  -5  16  139.28   41.03
  -3  -5  16  218.02   23.03
   3   5  16  165.17   18.42
  -3   5  16  164.70   21.69
  -3  -5 -16  150.23   23.26
  -3  -5 -16  116.08   34.42
   3  -5  17   57.91   15.08
  -3  -5  17   19.44    6.81
   3   5  17   17.72   10.74
  -3   5  17   42.36   22.87
  -3  -5 -17   13.39    4.73
  -3  -5 -17   40.31   11.55
   3  -5  18  496.92   74.87
  -3  -5  18  438.10   91.07
   3   5  18  513.75   76.72
  -3   5  18  534.10   80.81
  -3  -5 -18  368.02   82.44
  -3  -5 -18  335.24   97.82
   3  -5  19  174.23   35.15
  -3  -5  19   96.69   26.19
   3   5  19  181.87   33.82
  -3   5  19  166.93   34.47
  -3  -5 -19   69.78   31.07
   3  -5  20   27.43   11.81
  -3  -5  20   27.04   14.29
   3   5  20   30.07   14.86
  -3   5  20    7.91   13.58
   3  -5  21  267.34   52.98
  -3  -5  21  202.42   59.16
   3   5  21  234.13   57.35
  -3   5  21  322.11   63.64
  -3  -5 -21  110.28   51.06
   3  -5  22   23.66   12.22
  -3  -5  22   27.98   16.10
   3   5  22   16.55    9.69
  -3  -5 -22    4.78    6.22
  -3  -5  23    2.17    8.27
   3   5  23    2.70    8.65
  -3  -5 -23    6.97    7.15
   3   5  24   30.44   13.94
   3  -6   0  231.53   44.47
  -3  -6   0  223.65   39.13
  -3  -6   0  240.38   16.81
   3  -6  -1  470.83   74.01
   3  -6   1  447.03   71.63
  -3  -6  -1  517.85   22.62
  -3  -6   1  437.80   26.96
  -3  -6   1  473.56   38.06
  -3  -6  -1  441.39   41.64
   3  -6  -2  729.81  102.92
  -3  -6  -2  691.81   75.97
   3  -6   2  735.63   65.28
  -3  -6   2  708.58   25.23
  -3  -6   2  713.45   44.93
  -3  -6  -2  762.84   29.24
   3  -6  -3   41.72   13.47
  -3  -6  -3   59.74    9.47
   3  -6   3   64.90   18.83
  -3  -6   3   33.31   11.89
  -3  -6   3   62.87   12.11
   3  -6  -4  623.61  104.62
  -3  -6  -4  680.15   82.36
   3  -6   4  600.14   65.67
  -3  -6   4  715.37   25.26
  -3  -6   4  601.77   79.94
  -3  -6  -4  656.88   24.86
   3  -6  -5  382.17   69.90
  -3  -6  -5  487.50   30.11
   3  -6   5  416.16   38.64
  -3  -6   5  421.49   58.25
  -3  -6   5  418.39   57.03
  -3  -6  -5  496.72   25.99
   3  -6  -6  397.38   71.30
  -3  -6  -6  389.82   59.37
   3  -6   6  479.11   52.02
  -3  -6   6  426.93   58.37
  -3  -6   6  379.81   68.68
  -3  -6   6  383.93   41.79
  -3  -6  -6  422.18   19.65
   3  -6  -7  184.28   29.68
  -3  -6  -7  123.68   17.11
   3  -6   7  179.44   22.32
  -3  -6   7  144.76   12.01
  -3  -6   7  115.52   23.95
  -3  -6   7  145.57   23.23
  -3  -6  -7  117.81   29.91
   3  -6  -8  313.35  125.26
  -3  -6  -8  287.59  110.09
   3  -6   8  378.40  138.60
  -3  -6   8  344.04  124.92
  -3  -6   8  289.89  119.56
  -3  -6   8  328.09  126.51
  -3  -6  -8  304.16  124.57
   3  -6   9  426.44  164.22
  -3  -6   9  337.66  126.25
  -3   6   9  399.53  145.38
  -3  -6   9  279.14  121.17
  -3  -6   9  315.90  120.78
  -3  -6  -9  309.54  127.12
   3  -6  10  233.09   92.98
  -3  -6  10  260.06   98.74
  -3   6  10  237.88   88.07
   3   6  10  269.16   97.97
  -3  -6  10  209.20   91.83
  -3  -6  10  245.43   94.94
  -3  -6 -10  295.06  124.88
   3  -6  11  912.05   79.24
  -3  -6  11  725.22  115.80
  -3   6  11 1043.70   77.91
   3   6  11  916.14   65.34
  -3  -6  11  827.16   89.56
  -3  -6  11  741.52  100.07
  -3  -6 -11  764.37   65.20
   3  -6  12   12.02    9.50
  -3  -6  12   18.86    4.16
   3   6  12    5.99    8.27
  -3   6  12   24.23   14.97
  -3  -6  12    2.53    3.20
  -3  -6  12   14.18    7.17
  -3  -6 -12    7.04    4.03
   3  -6  13  603.35  105.20
  -3  -6  13  699.68   88.59
   3   6  13  800.88   57.49
  -3   6  13  868.33   48.05
  -3  -6  13  759.28   43.43
  -3  -6 -13  726.48   38.12
   3  -6  14   32.18   12.65
  -3  -6  14   49.70   13.28
   3   6  14   28.40   11.57
  -3   6  14   30.12   13.92
  -3  -6  14   33.48   11.45
  -3  -6 -14   70.05   18.60
   3  -6  15  215.46   36.75
  -3  -6  15  248.37   40.55
   3   6  15  150.37   53.74
  -3   6  15  276.59   47.04
  -3  -6 -15  212.22   44.25
  -3  -6 -15  185.64   47.00
   3  -6  16  349.51   60.27
  -3  -6  16  361.09   70.32
   3   6  16  444.27   71.75
  -3   6  16  299.41   81.74
  -3  -6 -16  304.88   78.00
  -3  -6 -16  132.57   51.90
   3  -6  17   16.92   10.39
  -3  -6  17   -2.23    8.91
   3   6  17    4.45    6.38
  -3   6  17   10.23   13.27
  -3  -6 -17    5.38    4.87
   3  -6  18  184.74   61.49
  -3  -6  18  261.41   46.41
   3   6  18  287.30   48.45
  -3   6  18  364.88   63.99
  -3  -6 -18  146.23   40.62
   3  -6  19   49.03   15.70
  -3  -6  19   34.38   13.44
   3   6  19   23.21    9.64
  -3   6  19   45.41   16.69
  -3  -6  20  121.27   27.41
   3   6  20  142.56   25.31
  -3  -6  21   29.55   11.76
   3   6  21   48.44   14.55
   3   6  22   29.41   11.87
   3  -7   0  184.16   41.36
  -3  -7   0  138.41   17.32
  -3  -7   0  146.87   19.18
   3  -7  -1  274.90   41.08
   3  -7   1  279.11   49.05
  -3  -7  -1  292.76   27.26
  -3  -7   1  276.52   26.89
  -3  -7   1  260.24   46.32
   3  -7  -2  488.31   92.85
  -3  -7  -2  529.17   53.11
   3  -7   2  690.82   56.32
  -3  -7   2  655.56   49.34
  -3  -7   2  578.70   43.78
   3  -7  -3 1631.12  143.49
  -3  -7  -3 1761.14  120.07
   3  -7   3 1812.01  124.79
  -3  -7   3 1907.96  127.44
  -3  -7   3 1605.34  132.15
   3  -7  -4  376.07   86.74
  -3  -7  -4  393.12   63.86
   3  -7   4  465.90   41.13
  -3  -7   4  492.89   39.33
  -3  -7   4  381.92   60.73
   3  -7  -5   82.16   19.22
  -3  -7  -5   92.27   22.15
   3  -7   5  109.12   22.86
  -3  -7   5  129.44   18.54
  -3  -7   5   67.39   11.44
   3  -7  -6   51.93   13.04
  -3  -7  -6   25.71   15.42
   3  -7   6   31.79   13.65
  -3  -7   6   77.28   15.28
  -3  -7   6   49.84    9.92
   3  -7  -7   45.40   14.34
  -3  -7  -7   15.74    5.98
   3  -7   7   16.13   12.64
  -3  -7   7   37.10   14.10
  -3  -7   7    9.09    4.02
   3  -7  -8   36.97   16.76
  -3  -7  -8   11.95    7.08
   3  -7   8   18.11    6.60
  -3  -7   8   26.03    7.61
  -3  -7   8   17.03    8.60
  -3  -7   8   20.39    8.20
   3  -7  -9  104.24   20.24
  -3  -7  -9  102.68   22.28
   3  -7   9  115.32   24.92
  -3  -7   9   65.28   15.12
  -3  -7   9   61.07   15.82
  -3  -7   9   93.54   18.41
   3  -7 -10    9.45    6.63
  -3  -7 -10   20.86    9.17
   3  -7  10   18.38    8.91
  -3  -7  10   29.11   10.84
  -3  -7  10    2.09    5.18
  -3  -7  10   10.46    6.33
   3  -7 -11  116.13   26.09
  -3  -7 -11   77.53   24.44
   3  -7  11  145.09   28.87
  -3  -7  11   95.38   20.75
  -3  -7  11   51.41   23.60
  -3  -7  11   92.96   24.41
   3  -7  12  129.44   26.18
  -3  -7  12   89.99   25.13
  -3   7  12   74.40   21.02
  -3  -7  12   60.95   25.44
  -3  -7  12  100.47   22.46
   3  -7  13   51.69   17.15
  -3  -7  13   93.91   19.28
  -3   7  13  122.93   28.22
   3   7  13  100.61   20.99
  -3  -7  13   55.03   15.90
  -3  -7  13   96.94   19.94
   3  -7  14   -7.85    9.93
  -3  -7  14   11.20    9.62
  -3   7  14   31.07   14.74
   3   7  14   11.94    9.85
  -3  -7  14    8.91    6.50
   3  -7  15  122.94   41.14
  -3  -7  15  168.15   40.80
   3   7  15  206.68   41.01
  -3   7  15  209.74   45.83
  -3  -7  15  136.26   37.97
   3  -7  16   23.23   12.04
  -3  -7  16   25.98   13.44
  -3   7  16   27.70   14.04
   3   7  16    8.93   10.96
  -3  -7  16    9.42    6.21
  -3  -7  17   25.88   10.06
   3   7  17   23.60   11.35
  -3  -7 -17   11.65    9.34
  -3  -7  18   80.05   18.94
   3   7  18   83.76   22.89
  -3  -7 -18   55.38   15.98
  -3  -7  19    3.86    8.51
   3  -8   0    9.59   10.10
  -3  -8   0   20.23   12.39
   3  -8  -1  155.96   33.61
   3  -8   1  144.89   27.69
  -3  -8  -1  135.73   24.61
  -3  -8   1  115.50   31.92
   3  -8  -2  170.83   43.64
  -3  -8  -2  187.29   31.53
   3  -8   2  223.93   38.13
  -3  -8   2  191.13   32.61
   3  -8  -3   94.70   21.40
  -3  -8  -3   76.18   17.56
   3  -8   3   79.54   21.15
  -3  -8   3   75.04   23.23
   3  -8  -4  181.64   48.99
  -3  -8  -4  173.77   41.00
   3  -8   4  223.48   41.44
  -3  -8   4  215.39   36.91
   3  -8  -5    5.75   10.38
  -3  -8  -5   27.32   11.82
   3  -8   5   25.18   12.95
  -3  -8   5   14.98    9.52
   3  -8  -6  166.12   46.72
  -3  -8  -6  193.21   41.92
   3  -8   6  324.86   55.31
  -3  -8   6  261.36   44.97
   3  -8  -7  108.76   25.93
   3  -8   7  159.58   32.79
  -3  -8   7  108.75   22.32
   3  -8  -8  115.12   36.13
   3  -8   8  160.48   32.51
  -3  -8   8  112.79   24.27
  -3  -8   8  102.33   28.01
   3  -8  -9  210.97   46.99
   3  -8   9  186.47   54.03
  -3  -8   9  235.34   42.44
  -3  -8   9  111.12   47.75
   3  -8 -10    7.44    7.53
   3  -8  10    9.55    6.92
  -3  -8  10  -12.03    7.92
  -3  -8  10   21.65   10.45
   3  -8 -11  398.02  117.11
   3  -8  11  630.13  117.20
  -3  -8  11  317.30   98.97
  -3  -8  12    1.51    6.41
  -3  -9   8    9.70    7.70
  -3  -9   9   43.18   21.31
  -3  -9  10    6.22    3.88
   4   0   0  667.85   18.37
   4   0   0  726.13   19.92
  -4   0   0  747.98   30.96
  -4   0   0  703.64   32.35
  -4   0   0  693.69   34.36
   4   0   1    2.06    1.70
   4   0   1    6.65    1.80
  -4   0   1   11.42    5.01
  -4   0  -1    1.99    9.50
  -4   0   1  -13.51    9.81
  -4   0  -1    0.31    6.13
  -4   0  -1    3.58   20.03
  -4   0   1    9.76   10.54
   4   0   2   11.51    2.55
   4   0  -2    8.60    3.00
   4   0   2    9.41    2.70
  -4   0   2   15.01    7.07
  -4   0  -2    7.02    7.02
  -4   0   2    6.17    6.70
  -4   0  -2   13.26    6.69
  -4   0  -2    9.34    8.73
  -4   0   2   15.10   10.69
   4   0  -3    1.91    2.78
   4   0   3    7.37    2.37
  -4   0   3    1.45    1.43
  -4   0  -3   20.80   18.54
  -4   0   3   -3.99    8.72
  -4   0   3   -5.29   12.30
  -4   0  -3   10.49    6.52
  -4   0  -3   17.99    5.52
  -4   0   3    9.35    7.06
  -4   0  -4  395.03   22.61
   4   0   4  465.83   15.30
   4   0  -4  460.41   21.90
  -4   0  -4  389.71   47.85
  -4   0   4  468.75   40.75
  -4   0   4  422.09   91.49
  -4   0  -4  442.94   23.24
  -4   0  -4  478.59   38.29
  -4   0  -5 5682.70  173.87
   4   0  -5 5728.40  174.73
   4   0   5 5632.36  170.95
  -4   0  -5 5714.81  181.03
  -4   0   5 5662.18  180.12
  -4   0   5 5872.46  162.59
  -4   0  -5 5959.02  163.88
  -4   0  -5 5857.70  163.73
  -4   0  -6  324.78   36.58
   4   0  -6  416.68   25.21
   4   0   6  405.03   17.45
  -4   0   6  401.52   26.85
  -4   0  -6  367.94   31.81
  -4   0   6  438.79   34.04
  -4   0   6  400.03   52.94
  -4   0  -6  342.27   37.08
  -4   0  -6  377.13   33.63
  -4   0  -7 5413.22  164.90
   4   0  -7 5215.31  160.50
   4   0   7 5320.23  163.80
  -4   0   7 5490.78  168.13
  -4   0  -7 5362.38  171.04
  -4   0   7 5420.61  174.58
  -4   0   7 5486.88  177.93
  -4   0  -7 5343.63  172.19
  -4   0  -7 5411.31  193.72
  -4   0  -8   68.01    9.45
   4   0   8   89.73   17.38
  -4   0   8   84.72    9.80
  -4   0   8   86.40   17.38
  -4   0   8   68.95   28.59
  -4   0  -8  105.43   24.45
  -4   0  -8   98.32   14.14
   4   0   9 2883.74   83.51
  -4   0   9 3038.67   85.59
  -4   0   9 3022.88   91.61
  -4   0   9 3030.34   91.02
  -4   0  -9 3180.54   98.02
  -4   0  -9 3092.45   98.76
   4   0  10   -1.73    6.28
  -4   0  10   13.53    9.40
  -4   0  10    8.66    4.40
  -4   0 -10    8.30    7.05
   4   0  11   55.78    8.78
  -4   0  11   73.25    9.47
  -4   0  11   54.86   17.47
  -4   0 -11   66.62   12.92
   4   0  12  224.44   42.01
  -4   0  12  240.92   37.25
  -4   0  12  264.53   44.77
  -4   0 -12  255.40   18.90
   4   0  13 3982.09  141.59
  -4   0  13 4123.56  149.57
  -4   0  13 3887.09  154.21
  -4   0 -13 4211.35  148.87
   4   0  14   10.33    6.34
  -4   0  14    3.07    4.10
  -4   0  14   11.63    5.69
  -4   0 -14    3.80    3.95
   4   0  15 1289.12   34.36
  -4   0  15 1263.63   35.38
  -4   0  15 1239.56   34.54
  -4   0 -15 1284.78   32.10
   4   0  16  162.87   15.13
  -4   0  16  117.81   16.70
  -4   0  16  142.55   27.24
   4   0  17  917.80   29.73
  -4   0  17  836.01   54.36
  -4   0  17  849.98   69.56
   4   0  18  158.18   64.28
  -4   0  18  156.15   59.29
   4   0  19   77.97   14.82
  -4   0  19   51.78   13.69
   4   0  20   19.19    9.71
  -4   0  20    8.02   10.33
   4   0  21   12.38    7.83
  -4   0  21   10.78   10.72
   4   0  22   31.60   12.75
  -4   0  22   27.11   12.42
   4   0  23   50.10   14.63
  -4   0  23   40.38   13.12
   4   0  24  279.40   97.20
  -4   0  24  348.22   81.35
   4   0  25   24.86    7.73
  -4   0  25    0.05    9.97
   4   0  26    8.93   10.68
  -4   0  26    4.84    9.35
   4  -1   0 1520.57   43.20
   4  -1   0 1514.81   49.62
  -4  -1   0 1504.12   51.36
  -4  -1   0 1560.21   53.75
  -4   1   0 1524.72   49.58
  -4   1   0 1516.40   52.17
  -4  -1   0 1553.17   52.33
  -4   1   0 1487.17   49.91
  -4  -1   0 1564.53   51.75
   4  -1  -1  601.01   24.46
   4  -1   1  605.25   24.26
   4  -1  -1  644.82   29.93
   4  -1   1  615.19   25.83
  -4  -1  -1  585.84   49.59
  -4  -1   1  574.14   49.85
  -4  -1   1  709.30   63.87
  -4   1   1  632.44   27.42
  -4  -1  -1  626.62   47.96
  -4   1  -1  606.81   39.27
  -4   1   1  577.78   32.97
  -4   1  -1  598.47   33.47
  -4  -1   1  589.12   68.84
  -4  -1  -1  552.49   50.58
  -4  -1  -1  550.28   26.30
  -4   1   1  617.06   47.45
  -4  -1   1  594.21   40.54
   4  -1  -2 3253.80   87.16
   4  -1   2 3282.22   87.49
   4  -1  -2 3272.52   86.71
   4  -1   2 3162.18   89.18
  -4  -1  -2 3076.23   90.13
  -4  -1   2 3205.39   93.61
  -4  -1   2 3229.50   96.42
  -4   1   2 3202.94   91.93
  -4  -1  -2 3313.13   96.30
  -4   1   2 3303.44   97.83
  -4   1  -2 3277.37  100.05
  -4  -1   2 3038.66   89.12
  -4  -1  -2 3262.66  117.16
  -4   1  -2 3132.82   96.17
  -4  -1  -2 3394.69   99.13
  -4   1   2 3306.20   94.54
  -4  -1   2 3259.45   95.40
   4  -1  -3 1065.07   32.86
   4  -1   3 1142.37   34.39
   4  -1  -3 1126.40   34.07
   4  -1   3 1100.01   32.99
  -4  -1  -3 1126.50   49.97
  -4  -1   3 1194.89   73.53
  -4  -1   3 1096.08   40.42
  -4   1   3 1118.20   46.24
  -4  -1  -3 1235.85   61.50
  -4   1   3 1185.91   45.54
  -4   1  -3 1106.60   40.49
  -4  -1   3 1157.02   60.56
  -4  -1  -3 1113.47   43.15
  -4   1  -3 1079.43   44.89
  -4  -1  -3 1064.30   40.93
  -4   1   3 1090.63   39.70
  -4   1  -4   18.43    3.55
   4   1  -4   17.51    4.66
   4  -1   4   20.45    4.18
   4  -1  -4   35.30    6.22
  -4   1   4   28.09    8.71
  -4  -1  -4   21.94    9.55
  -4  -1   4   16.01    6.37
  -4  -1   4   25.14    8.76
  -4   1   4    7.87    4.94
  -4   1   4   26.16    9.80
  -4   1  -4   21.52   10.69
  -4  -1   4   -2.53   17.36
  -4  -1  -4   14.57    8.39
  -4   1  -4   23.16    9.88
  -4  -1  -4   18.62    7.55
  -4   1  -5 2355.36   79.29
  -4  -1  -5 2201.27   67.28
   4   1  -5 2258.49   69.99
   4  -1   5 2321.98   74.27
   4  -1  -5 2333.52   75.19
   4   1   5 2243.19   68.48
  -4   1   5 2335.74   76.20
  -4  -1  -5 2294.27   80.15
  -4  -1   5 2449.20   84.66
  -4  -1   5 2185.32   77.41
  -4   1   5 2313.49   80.39
  -4   1   5 2284.27   81.48
  -4   1  -5 2297.60   80.85
  -4  -1   5 2266.07   79.85
  -4  -1  -5 2322.78   85.58
  -4   1  -5 2419.81  116.82
  -4  -1  -5 2302.14   86.74
  -4  -1  -6 1321.90   42.57
   4   1  -6 1233.12   40.87
   4  -1   6 1264.89   46.05
   4   1   6 1241.55   40.11
  -4   1   6 1165.46   41.61
  -4  -1  -6 1192.42   47.69
  -4  -1   6 1267.74   63.66
  -4  -1   6 1242.64   63.17
  -4   1   6 1206.33   75.58
  -4   1   6 1183.79   55.63
  -4   1  -6 1276.47   49.48
  -4  -1   6 1280.57   85.26
  -4  -1  -6 1224.72   47.95
  -4   1  -6 1293.59   56.44
  -4  -1  -6 1198.89   51.47
  -4  -1  -7 1087.42   36.60
   4   1  -7 1072.44   40.27
   4  -1   7 1083.63   39.14
   4   1   7 1085.78   36.87
  -4  -1   7 1151.59   49.30
  -4   1   7 1118.41   47.90
  -4  -1  -7 1054.69   74.61
  -4  -1   7 1124.29   44.78
  -4  -1   7 1075.18   70.42
  -4   1   7 1052.98   46.81
  -4   1   7 1144.22   47.74
  -4   1  -7 1037.96   47.87
  -4  -1   7 1150.22   53.47
  -4  -1  -7 1070.34   43.17
  -4   1  -7 1086.68   77.25
  -4  -1  -7 1114.38   48.92
  -4  -1  -8  625.20   22.15
   4   1  -8  652.08   23.62
   4  -1   8  674.49   44.97
   4   1   8  656.27   23.18
  -4  -1   8  627.17   30.84
  -4   1   8  610.11   36.22
  -4  -1  -8  676.50   68.80
  -4  -1   8  596.09   48.96
  -4   1   8  649.64   53.03
  -4   1   8  640.43   35.77
  -4   1  -8  604.93   49.70
  -4  -1   8  715.87   37.85
  -4  -1  -8  648.40   30.10
  -4   1  -8  612.06   38.06
  -4  -1  -8  607.46   55.25
   4  -1   9 1481.70   46.83
   4   1   9 1459.38   44.10
  -4  -1   9 1489.98   46.28
  -4   1   9 1529.13   78.49
  -4  -1  -9 1526.28   52.29
  -4  -1   9 1437.00   65.21
  -4   1   9 1475.50   62.00
  -4   1   9 1525.46   64.31
  -4   1  -9 1444.20   49.05
  -4  -1   9 1489.19   62.85
  -4  -1  -9 1387.52   47.76
  -4  -1  -9 1602.25   59.17
   4  -1  10 1292.02   50.40
   4   1  10 1358.55   53.18
  -4  -1  10 1316.23   51.72
  -4   1  10 1259.32   61.07
  -4  -1 -10 1360.43   86.31
  -4   1  10 1309.08   89.24
  -4   1  10 1391.59   59.57
  -4   1 -10 1351.52   56.42
  -4  -1  10 1319.71   54.24
  -4  -1 -10 1367.51   56.86
  -4  -1 -10 1332.62   77.24
   4  -1  11  781.67   35.15
   4   1  11  794.46   34.15
  -4  -1  11  774.73   49.56
  -4   1  11  856.40   74.19
  -4  -1 -11  775.69   36.79
  -4   1  11  802.22   42.20
  -4   1 -11  799.35   40.59
  -4  -1  11  814.01   53.99
  -4  -1 -11  891.59   41.74
  -4  -1 -11  729.16   49.45
   4  -1  12 1004.68   49.21
   4   1  12  944.49   39.28
  -4  -1  12  962.71   56.66
  -4   1  12 1040.36   45.23
  -4  -1 -12 1025.97   45.83
  -4   1  12 1134.99   60.93
  -4   1 -12  954.82   50.04
  -4  -1  12  985.27   44.18
   4  -1  13  691.00   33.04
   4   1  13  600.26   29.15
  -4  -1  13  617.87   54.23
  -4   1  13  698.37   48.01
  -4  -1 -13  741.61   73.22
  -4   1  13  768.83   47.62
  -4   1 -13  700.17   66.38
  -4  -1  13  673.58   54.29
   4  -1  14  477.18   51.85
   4   1  14  592.34   50.47
  -4  -1  14  565.98   34.36
  -4   1  14  546.99   69.88
  -4  -1 -14  582.43   30.13
  -4   1  14  521.04   52.53
  -4   1 -14  581.41   59.65
  -4  -1  14  484.55   49.29
   4  -1  15  863.30   32.67
   4   1  15  816.84   28.24
  -4  -1  15  891.76   59.20
  -4   1  15  809.42   49.75
  -4  -1 -15  845.35   41.23
  -4   1  15  802.18   55.95
  -4   1 -15  774.08   23.87
  -4  -1  15  864.17   26.67
   4  -1  16 1066.07   60.30
   4   1  16 1094.75   51.60
  -4  -1  16 1037.82   56.42
  -4   1  16 1153.98   35.60
  -4  -1 -16 1024.06   33.37
  -4   1  16 1074.79   96.33
  -4  -1  16 1054.11   50.50
  -4   1 -16 1058.98   30.83
   4  -1  17  197.24   72.81
   4   1  17  194.89   81.88
  -4  -1  17  192.88   73.85
  -4   1  17  186.73   69.60
  -4  -1 -17  203.87   74.01
  -4   1  17  177.05   72.46
  -4  -1  17  225.10   82.33
  -4   1 -17  167.00   68.89
   4  -1  18   78.32   32.17
   4   1  18   89.74   41.46
  -4  -1  18   93.19   34.87
  -4   1  18  114.21   44.21
   4  -1  19  513.46   43.53
   4   1  19  411.82   37.92
  -4  -1  19  419.84   65.88
  -4   1  19  470.99   41.43
   4  -1  20  176.22   43.48
   4   1  20  176.71   53.80
  -4  -1  20  203.07   38.81
  -4   1  20  196.66   21.22
   4  -1  21  174.15   31.17
   4   1  21  167.78   37.32
  -4  -1  21  138.88   31.63
  -4   1  21  122.66   25.26
   4  -1  22  191.85   50.24
   4   1  22  182.90   64.92
  -4  -1  22  227.23   41.69
  -4   1  22  239.91   42.05
   4  -1  23   24.32   12.33
   4   1  23   25.54   12.24
  -4   1  23   14.30   11.89
   4  -1  24    2.85    5.09
   4   1  24   16.47    8.43
  -4  -1  24   15.77   10.93
  -4   1  24   55.94   20.00
   4  -1  25   23.15    8.72
   4   1  25    6.76    6.97
  -4  -1  25   25.59   12.76
  -4   1  25   40.61   17.17
   4  -1  26    7.37    6.74
   4   1  26   -1.46    6.14
  -4  -1  26   15.24    8.58
   4  -2   0  600.84   46.78
  -4  -2   0  613.16   42.86
  -4  -2   0  606.96   54.96
  -4   2   0  619.88   59.35
  -4  -2   0  607.90   43.24
  -4   2   0  620.44   39.97
  -4  -2   0  576.69   29.93
   4  -2  -1  523.27   37.11
   4  -2   1  517.62   22.40
  -4  -2  -1  549.65   28.96
  -4  -2   1  532.36   32.88
  -4  -2   1  579.88   40.35
  -4  -2  -1  500.99   26.75
  -4   2   1  485.71   23.56
  -4  -2   1  596.88   51.69
  -4  -2  -1  543.17   33.62
  -4  -2  -1  534.77   28.43
  -4   2   1  518.55   26.58
  -4  -2   1  549.98   28.46
   4  -2  -2  193.07   31.70
   4  -2   2  239.33   14.55
  -4  -2  -2  251.14   48.82
  -4  -2   2  244.51   56.55
  -4  -2   2  229.00   50.96
  -4   2   2  192.01   18.99
  -4  -2  -2  243.28   24.85
  -4  -2   2  208.82   41.98
  -4  -2  -2  264.77   34.43
  -4   2  -2  198.40   39.04
  -4  -2  -2  239.32   18.31
  -4   2   2  236.66   19.64
  -4  -2   2  256.71   42.47
   4  -2  -3 2191.70   73.15
   4  -2   3 2221.30   72.93
  -4  -2   3 2133.31   63.98
  -4  -2   3 2065.51   63.44
  -4  -2  -3 2115.85   77.22
  -4  -2   3 2158.90   76.86
  -4  -2   3 2170.06   93.23
  -4   2   3 2193.47   86.77
  -4  -2  -3 2118.40   75.92
  -4  -2   3 2040.53   72.98
  -4  -2  -3 2371.86   84.23
  -4   2  -3 2096.04   79.24
  -4  -2  -3 2459.33  100.64
   4   2  -4 2965.51   90.17
  -4  -2  -4 2822.34   84.24
   4  -2   4 3055.93  100.88
  -4  -2  -4 2973.56   88.68
  -4  -2   4 3034.36   92.82
  -4   2   4 2998.80   97.30
  -4  -2  -4 2764.76   96.25
  -4  -2   4 3071.32  104.48
  -4  -2   4 3214.71  112.59
  -4   2   4 3112.26  102.53
  -4  -2   4 2899.18   98.21
  -4  -2  -4 3155.41  106.99
  -4   2  -4 3065.07  135.17
  -4  -2  -4 2917.52  105.07
   4   2  -5  764.76   32.26
   4  -2   5  843.22   36.03
  -4  -2  -5  811.54   27.61
   4   2   5  772.77   26.63
  -4   2   5  819.48   32.94
  -4  -2  -5  774.68   46.27
  -4  -2   5  833.27   62.61
  -4  -2   5  852.03   70.96
  -4   2   5  806.96   39.56
  -4   2  -5  857.56   38.28
  -4  -2   5  768.42   36.58
  -4   2  -5  822.24   71.23
  -4  -2  -5  833.97   39.16
   4   2  -6  162.72   14.34
   4  -2   6  187.05   13.13
  -4  -2  -6  159.21   17.95
   4   2   6  179.69    8.64
  -4   2   6  185.14   14.26
  -4  -2  -6  208.54   37.46
  -4  -2   6  226.43   49.19
  -4  -2   6  193.64   39.11
  -4   2   6  204.43   31.79
  -4   2  -6  229.41   45.67
  -4  -2   6  182.64   16.95
  -4   2  -6  180.13   29.41
  -4  -2  -6  197.35   32.14
   4   2  -7 1502.32   43.34
   4  -2   7 1615.92   60.97
  -4  -2  -7 1614.52   53.79
  -4  -2   7 1538.88   45.78
   4   2   7 1538.39   44.84
  -4   2   7 1577.52   67.17
  -4  -2  -7 1497.31   55.80
  -4  -2   7 1484.44   51.08
  -4  -2   7 1499.34   69.66
  -4   2   7 1525.67   52.97
  -4   2  -7 1633.63   57.19
  -4  -2   7 1440.84   70.15
  -4   2  -7 1544.55   87.40
  -4  -2  -7 1609.20   58.05
   4   2  -8  107.69    8.11
   4  -2   8   92.55   11.53
  -4  -2  -8   85.13   12.23
  -4  -2   8   99.90    9.47
   4   2   8  106.99    8.49
  -4   2   8  105.57   11.55
  -4  -2  -8  140.50   22.78
  -4  -2   8   98.41   21.93
  -4  -2   8  100.20   29.97
  -4   2   8  122.62   24.01
  -4   2  -8  113.59   20.85
  -4  -2   8  103.00   21.20
  -4   2  -8  131.89   19.65
  -4  -2  -8  127.23   22.86
   4  -2   9 1179.80   48.46
  -4  -2   9 1194.31   46.52
   4   2   9 1235.82   46.86
  -4   2   9 1124.33   46.95
  -4  -2  -9 1123.10   48.66
  -4  -2   9 1122.08   68.16
  -4  -2   9 1233.54   55.37
  -4   2   9 1165.37   49.31
  -4   2  -9 1154.12   50.36
  -4  -2   9 1223.05   50.77
  -4  -2  -9 1144.28   52.60
   4  -2  10   15.19    6.44
  -4  -2  10   24.15    9.52
   4   2  10   27.69    6.60
  -4   2  10   29.92   12.87
  -4  -2 -10   -2.19    8.68
  -4  -2  10   20.59    9.07
  -4  -2  10   35.98    9.28
  -4   2  10    8.65    7.01
  -4   2 -10   35.76   12.30
  -4  -2  10   11.22    5.97
  -4  -2 -10   18.41    6.42
   4  -2  11  356.40   29.87
  -4  -2  11  333.27   19.65
   4   2  11  294.36   31.15
  -4   2  11  359.10   34.67
  -4  -2 -11  380.56   31.22
  -4  -2  11  330.93   24.53
  -4   2  11  375.63   42.31
  -4   2 -11  339.32   62.09
  -4  -2  11  292.38   59.63
  -4  -2 -11  329.64   51.83
   4  -2  12  734.67   44.58
  -4  -2  12  701.80   32.39
   4   2  12  687.34   37.73
  -4   2  12  724.84   39.15
  -4  -2 -12  720.37   49.82
  -4  -2  12  684.93   38.56
  -4   2 -12  732.33   76.39
  -4  -2  12  774.24   57.54
  -4  -2 -12  678.79   60.12
   4  -2  13  539.08   25.27
  -4  -2  13  575.91   45.45
   4   2  13  498.36   44.79
  -4   2  13  540.89   34.45
  -4  -2 -13  519.04   32.46
  -4   2 -13  531.18   25.14
  -4  -2  13  515.39   43.75
  -4  -2 -13  533.82   37.87
   4  -2  14 1481.24   38.20
  -4  -2  14 1605.37   73.34
   4   2  14 1541.30   37.89
  -4   2  14 1463.28   60.40
  -4  -2 -14 1437.41   61.20
  -4   2 -14 1561.57   38.23
   4  -2  15  701.28   45.68
  -4  -2  15  729.66   38.86
   4   2  15  747.79   50.26
  -4   2  15  739.75   67.44
  -4  -2 -15  760.43   35.09
  -4   2  15  750.75   34.92
  -4   2 -15  743.01   23.96
   4  -2  16   10.42    8.08
  -4  -2  16   16.80   10.80
   4   2  16   23.31   12.01
  -4   2  16    4.64   10.99
  -4  -2 -16   15.09    5.91
  -4   2  16   -2.45    7.94
  -4   2 -16    7.75    5.81
   4  -2  17  489.43  199.18
  -4  -2  17  448.31  171.00
   4   2  17  503.21  181.28
  -4   2  17  546.95  198.23
  -4  -2 -17  525.49  190.52
  -4   2  17  531.07  193.13
   4  -2  18  138.59   29.60
  -4  -2  18  157.96   29.79
   4   2  18  156.12   23.01
  -4   2  18  174.14   22.69
  -4   2  18  105.96   20.07
   4  -2  19  395.33   85.91
  -4  -2  19  488.50   36.45
   4   2  19  437.76   27.32
  -4   2  19  363.37   52.00
   4  -2  20   36.68   16.29
  -4  -2  20   66.40   14.63
   4   2  20   23.95   10.59
  -4   2  20   32.92   14.26
   4  -2  21   96.09   19.97
  -4  -2  21   41.39   11.84
   4   2  21   82.01   20.42
  -4   2  21  105.13   18.74
   4  -2  22  955.08  146.88
  -4  -2  22  887.41  157.31
   4   2  22  952.19  146.15
  -4   2  22  748.66  164.43
   4  -2  23   44.47   14.45
  -4  -2  23    2.58   14.98
   4   2  23   34.68   13.30
  -4   2  23   69.11   21.83
   4  -2  24  195.77   43.66
  -4  -2  24  218.07   46.39
   4   2  24  157.33   54.98
  -4   2  24  218.01   46.67
   4  -2  25   25.42    8.47
  -4  -2  25   29.06   13.83
   4   2  25   26.46   13.56
  -4   2  25   12.38    7.46
  -4  -2  26   54.62   16.61
   4   2  26   18.57    7.92
   4  -3   0 3579.57  114.34
  -4  -3   0 3543.90   92.51
  -4  -3   0 3561.97   92.01
  -4  -3   0 3600.75  107.98
  -4  -3   0 3533.16  126.97
  -4   3   0 3558.72   99.57
  -4  -3   0 3675.69  107.62
   4  -3  -1 1030.60   38.79
   4  -3   1 1041.54   38.13
  -4  -3  -1  990.26   30.97
  -4  -3  -1 1112.17   33.53
  -4  -3  -1 1024.96   44.32
  -4  -3   1  972.46   43.38
  -4  -3   1 1002.16   52.46
  -4  -3  -1 1015.80   40.34
  -4  -3  -1 1028.55   39.82
  -4   3   1 1057.85   36.91
  -4  -3   1 1072.15   46.21
   4  -3  -2 3585.28  102.88
   4  -3   2 3514.85  107.41
  -4  -3  -2 3449.31   90.08
  -4  -3   2 3435.66   90.92
  -4  -3  -2 3338.64   87.26
  -4  -3   2 3403.18   89.16
  -4  -3  -2 3356.93  103.15
  -4  -3   2 3356.90  101.88
  -4  -3   2 3487.78  104.69
  -4  -3  -2 3429.51  117.72
  -4   3   2 3396.03   98.12
  -4   3  -2 3272.19  113.84
  -4  -3  -2 3506.17  102.89
  -4   3   2 3582.78  102.45
   4  -3  -3 3100.78   91.28
  -4  -3  -3 3047.67   81.31
   4  -3   3 3061.31   89.43
  -4  -3   3 3004.43   79.64
  -4  -3  -3 3011.34  113.52
  -4  -3   3 3173.59   97.67
  -4  -3   3 3039.99   91.96
  -4   3   3 3194.86   93.20
  -4  -3  -3 3114.88  123.15
  -4   3  -3 2900.43  100.56
  -4  -3  -3 3036.04   90.36
   4  -3  -4  367.86   56.45
   4  -3   4  322.84   20.49
  -4  -3  -4  328.66   24.27
  -4  -3   4  318.80   13.31
  -4  -3  -4  357.95   66.91
  -4  -3   4  366.70   25.50
  -4  -3   4  357.46   62.70
  -4   3   4  315.95   19.62
  -4   3  -4  296.88   43.57
   4   3  -5  333.64   30.55
   4  -3   5  405.16   22.44
  -4   3   5  400.64   21.00
  -4  -3  -5  460.76   46.56
  -4  -3   5  369.50   62.24
  -4  -3   5  439.59   42.69
  -4   3   5  391.91   36.81
  -4   3  -5  363.75   61.34
  -4  -3  -5  384.43   25.16
   4   3  -6 1513.97   57.17
   4  -3   6 1612.64   68.20
  -4   3   6 1633.56   76.12
   4   3   6 1582.11   56.61
  -4  -3  -6 1491.62   62.43
  -4  -3   6 1563.96   72.56
  -4  -3   6 1594.09   66.02
  -4   3   6 1508.62   69.86
  -4   3  -6 1473.77   65.98
  -4  -3  -6 1535.28   92.21
   4  -3   7  195.81   17.71
  -4  -3   7  211.06   26.45
   4   3   7  199.13   20.20
  -4   3   7  190.28   17.13
  -4  -3  -7  205.36   36.16
  -4  -3   7  238.77   48.46
  -4  -3   7  254.37   41.45
  -4   3   7  194.01   25.72
  -4   3  -7  214.17   36.67
  -4  -3  -7  198.47   38.26
   4  -3   8  686.74   48.51
  -4  -3   8  669.28   49.17
   4   3   8  696.43   28.80
  -4   3   8  777.20   50.01
  -4  -3  -8  775.53   60.01
  -4  -3   8  712.28   35.59
  -4  -3   8  695.58   53.30
  -4   3   8  671.52   65.81
  -4   3  -8  734.66   59.57
  -4  -3  -8  667.27   46.31
   4  -3   9   56.94   16.91
  -4  -3   9   65.28   10.64
   4   3   9   44.42    7.36
  -4   3   9   37.89   13.92
  -4  -3  -9   55.47   12.29
  -4  -3   9   47.23   14.90
  -4  -3   9   43.93    9.83
  -4   3   9   38.29    8.51
  -4  -3  -9   65.12   12.29
   4  -3  10  633.99   36.24
  -4  -3  10  587.16   27.65
   4   3  10  618.64   28.52
  -4   3  10  642.87   33.43
  -4  -3 -10  624.83   59.58
  -4  -3  10  574.93   44.79
  -4  -3  10  595.07   88.36
  -4   3  10  556.76   56.27
  -4   3 -10  593.93   53.05
  -4  -3 -10  642.34   38.67
   4  -3  11   42.60   15.57
  -4  -3  11   30.79    5.24
   4   3  11   27.85   10.45
  -4   3  11   11.94    8.81
  -4  -3 -11   36.08   11.49
  -4  -3  11   32.01    9.48
  -4  -3  11   22.84    9.46
  -4   3  11   30.46    6.54
  -4   3 -11   15.31    9.62
  -4  -3 -11   46.33   18.23
   4  -3  12  102.23   19.27
  -4  -3  12  107.61   11.50
   4   3  12   95.55   22.45
  -4   3  12  110.29   14.51
  -4  -3 -12   94.90   19.68
  -4  -3  12   69.29   20.45
  -4   3  12   91.17   17.39
  -4   3 -12   86.40   16.46
  -4  -3 -12   98.03   24.87
   4  -3  13   12.48    8.16
  -4  -3  13    5.79    6.96
   4   3  13    8.37    7.39
  -4   3  13   10.02   10.08
  -4  -3 -13   12.88    4.23
  -4  -3  13   13.73    5.42
  -4   3  13    7.90    6.38
  -4   3 -13    1.21    5.68
  -4  -3 -13  -12.44   10.99
   4  -3  14  296.75   57.84
  -4  -3  14  304.83   25.38
   4   3  14  272.02   27.87
  -4   3  14  293.23   20.81
  -4  -3 -14  233.24   38.88
  -4  -3  14  242.06   19.87
  -4   3 -14  263.50   32.40
  -4  -3 -14  246.85   46.85
   4  -3  15  196.48   84.93
  -4  -3  15  277.43  101.12
   4   3  15  234.66   85.55
  -4   3  15  237.79   87.69
  -4  -3 -15  190.46   80.16
  -4  -3  15  165.78   80.11
  -4   3 -15  189.23   75.44
  -4  -3 -15  232.08   91.67
   4  -3  16   15.39   10.13
  -4  -3  16    5.23    9.44
   4   3  16  -15.68    7.66
  -4   3  16    2.16    7.02
  -4  -3 -16    4.14    7.62
  -4   3 -16    5.54    3.04
  -4  -3 -16    7.36    6.76
   4  -3  17  414.87   35.86
  -4  -3  17  475.19   41.24
   4   3  17  328.77   74.41
  -4   3  17  399.03   68.05
  -4  -3 -17  343.41   64.36
  -4  -3 -17  280.29   68.80
   4  -3  18   32.75   12.52
  -4  -3  18   44.54   14.48
   4   3  18   24.16   10.62
  -4   3  18   30.12    9.71
  -4  -3 -18   45.61    9.82
   4  -3  19  258.70   65.71
  -4  -3  19  278.62   45.77
   4   3  19  237.30   56.69
  -4   3  19  271.64   44.52
   4  -3  20  261.78   81.18
  -4  -3  20  458.80   69.29
   4   3  20  403.79   62.07
  -4   3  20  288.32   71.37
   4  -3  21   17.03    8.32
  -4  -3  21   30.72   16.14
   4   3  21   -2.18    7.38
  -4   3  21    3.04    9.92
   4  -3  22  374.63  118.26
  -4  -3  22  580.18  108.65
   4   3  22  541.97   99.44
  -4   3  22  393.98  117.17
   4  -3  23   19.76    6.27
  -4  -3  23   26.99   11.18
   4   3  23    6.35    7.60
  -4   3  23   18.15   16.20
   4  -3  24   88.83   25.03
  -4  -3  24   64.75   19.94
  -4   3  24   36.30   14.22
  -4  -3  25    7.18    7.49
   4  -4   0  380.10   59.17
  -4  -4   0  437.49   53.12
  -4  -4   0  383.22   34.42
  -4   4   0  362.28   20.64
  -4  -4   0  381.71   25.60
   4  -4  -1  512.09   38.28
   4  -4   1  481.79   48.66
  -4  -4  -1  550.60  103.17
  -4  -4   1  541.70   43.92
  -4  -4   1  553.10   76.95
  -4  -4  -1  468.10   27.49
  -4   4  -1  511.42   26.37
  -4  -4  -1  459.11   26.28
  -4   4   1  498.03   24.34
   4  -4  -2 1015.50   67.30
   4  -4   2 1055.43   47.19
  -4  -4  -2 1054.52   68.19
  -4  -4   2  988.78   72.78
  -4  -4   2 1040.99   55.95
  -4  -4  -2 1001.89   65.74
  -4  -4  -2  964.94   43.53
   4  -4  -3 1223.43   68.23
   4  -4   3 1351.46   82.78
  -4  -4  -3 1221.57   54.80
  -4  -4   3 1263.44   60.57
  -4  -4   3 1304.81   90.58
  -4  -4  -3 1303.16   64.26
  -4   4  -3 1151.83   56.13
  -4  -4  -3 1103.84   48.31
   4  -4  -4  424.95   75.96
   4  -4   4  395.63   24.87
  -4  -4   4  376.71   39.08
  -4  -4  -4  412.24   79.86
  -4  -4   4  510.96   82.48
  -4  -4   4  450.35   75.42
  -4   4   4  392.49   38.34
  -4   4  -4  372.28   43.48
  -4  -4  -4  427.63   40.69
   4  -4  -5  693.02   49.86
  -4  -4  -5  672.54   36.63
   4  -4   5  637.54   33.25
  -4  -4   5  670.01   46.07
  -4  -4  -5  711.18   40.38
  -4  -4   5  699.76   55.86
  -4  -4   5  659.17   52.83
  -4   4   5  680.41   36.86
  -4   4  -5  675.61   59.20
  -4  -4  -5  698.35   35.11
  -4  -4  -6 1115.93   58.00
   4  -4   6 1152.40   50.76
  -4  -4   6 1172.37   52.38
  -4   4   6 1072.39   48.55
  -4  -4  -6 1117.98   62.28
  -4  -4   6 1271.85   86.41
  -4  -4   6 1179.71   73.67
  -4   4   6 1178.82   46.26
  -4   4  -6 1159.71   88.28
   4  -4   7   41.18   11.82
  -4  -4   7   28.64    7.93
  -4   4   7   25.11    9.91
   4   4   7   38.11    9.14
  -4  -4  -7   22.05   15.07
  -4  -4   7   30.52    5.24
  -4  -4   7   26.33    8.19
  -4   4   7   39.23    8.20
  -4   4  -7   20.66    9.20
  -4  -4  -7   37.31   11.33
   4  -4   8  541.88   26.76
  -4  -4   8  519.37   27.03
  -4   4   8  480.72   29.57
   4   4   8  490.35   19.87
  -4  -4  -8  492.17   30.57
  -4  -4   8  455.97   78.43
  -4  -4   8  500.84   42.67
  -4   4   8  441.24   44.76
  -4   4  -8  389.83   59.26
  -4  -4  -8  489.32   31.55
   4  -4   9   45.30   15.35
  -4  -4   9   47.54   10.02
   4   4   9   42.05    9.98
  -4   4   9   37.27   14.46
  -4  -4  -9   42.80   11.74
  -4  -4   9   56.02    9.95
  -4  -4   9   39.39   13.80
  -4   4   9   48.32    8.59
  -4  -4  -9   36.98   12.05
   4  -4  10  884.40   35.69
  -4  -4  10  810.84   40.01
   4   4  10  871.94   24.99
  -4   4  10  884.66   32.13
  -4  -4 -10  820.32  120.18
  -4  -4  10  822.09   73.83
  -4  -4  10  888.00  120.29
  -4   4  10  770.70   42.29
  -4  -4 -10  819.18   34.28
   4  -4  11  210.00   18.95
  -4  -4  11  207.75   32.64
   4   4  11  198.00   18.34
  -4   4  11  165.11   29.15
  -4  -4 -11  218.83   33.08
  -4  -4  11  186.08   34.95
  -4  -4  11  232.86   36.31
  -4   4  11  153.18   23.36
  -4  -4 -11  191.83   34.20
   4  -4  12 1872.59   62.99
  -4  -4  12 1932.77  697.94
   4   4  12 1966.68  704.05
  -4   4  12 1874.13   75.28
  -4  -4 -12 1921.43  695.56
  -4  -4  12 1975.39  708.45
  -4  -4  12 2032.71  743.05
  -4   4  12 1817.98   40.95
  -4  -4 -12 1867.61   52.03
   4  -4  13  328.42  119.65
  -4  -4  13  273.10  103.52
   4   4  13  334.47  121.02
  -4   4  13  290.68  106.78
  -4  -4 -13  310.40  118.35
  -4  -4  13  237.64  106.57
  -4   4  13  272.11  108.61
  -4  -4 -13  258.18  110.13
   4  -4  14 1213.30   90.16
  -4  -4  14 1067.94  102.46
   4   4  14 1193.11   80.89
  -4   4  14 1127.11   80.00
  -4  -4 -14 1047.27  100.76
  -4  -4  14 1056.20   94.82
  -4   4  14 1009.38   80.79
  -4   4 -14 1147.95   81.28
  -4  -4 -14 1117.76   80.80
   4  -4  15   28.93   12.13
  -4  -4  15   29.35   10.22
   4   4  15   32.66    8.89
  -4   4  15   46.57   17.89
  -4  -4 -15   51.06    9.59
  -4  -4  15   37.67   14.17
  -4   4  15   23.58    8.70
  -4   4 -15   49.64   15.20
  -4  -4 -15   32.40   10.88
   4  -4  16  317.94   59.25
  -4  -4  16  297.55   38.27
   4   4  16  327.88   36.56
  -4   4  16  392.16   30.57
  -4  -4 -16  317.67   48.81
  -4   4  16  274.40   51.28
  -4  -4 -16  233.78   78.97
   4  -4  17   45.49   13.16
  -4  -4  17   58.38   14.71
   4   4  17   72.03   15.55
  -4   4  17   83.04   20.23
  -4  -4 -17   47.85   14.44
  -4  -4 -17   63.44   24.68
   4  -4  18    1.32    8.39
  -4  -4  18   32.41   10.27
   4   4  18    3.38    8.14
  -4   4  18   33.88   19.35
  -4  -4 -18   11.32    8.44
  -4  -4 -18   31.95   11.82
   4  -4  19  100.07   20.69
  -4  -4  19  100.87   22.64
   4   4  19   73.09   20.60
  -4   4  19  105.60   23.83
   4  -4  20  100.40   26.47
  -4  -4  20   91.91   19.91
  -4   4  20  129.77   28.42
  -4  -4 -20   57.47   21.31
   4  -4  21   23.38   13.12
  -4  -4  21   28.85   11.81
  -4   4  21   40.11   20.83
  -4  -4 -21   10.20    7.25
   4  -4  22  260.53   42.67
  -4   4  22  249.92   41.67
  -4  -4 -22   93.78   39.28
   4  -4  23   11.23    7.35
  -4  -4 -23    7.39    6.69
   4  -5   0  301.09   40.53
  -4  -5   0  365.06   15.23
  -4  -5   0  295.89   59.03
  -4  -5   0  337.94   56.69
   4  -5  -1   32.53   13.10
   4  -5   1   30.71    9.23
  -4  -5  -1   17.92    6.44
  -4  -5   1   37.27    5.82
  -4  -5  -1   23.16   10.31
  -4  -5   1   33.83   11.90
  -4  -5   1   29.44    9.88
  -4  -5  -1   12.69    6.32
   4  -5  -2  841.40  123.17
   4  -5   2  803.00   31.59
  -4  -5  -2  710.01   39.16
  -4  -5   2  746.74   34.43
  -4  -5  -2  769.90   32.87
  -4  -5   2  732.02   87.79
  -4  -5   2  835.24   48.45
  -4  -5  -2  742.98   33.40
  -4  -5  -2  712.95   43.77
   4  -5  -3  402.35   68.88
  -4  -5  -3  392.83   36.97
   4  -5   3  403.05   58.83
  -4  -5   3  373.55   19.93
  -4  -5  -3  376.09   75.64
  -4  -5   3  314.77   76.28
  -4  -5   3  354.68   56.22
  -4  -5  -3  414.20   63.46
  -4  -5  -3  413.22   26.23
   4  -5  -4  214.92   34.09
  -4  -5  -4  186.88   23.59
   4  -5   4  217.57   49.05
  -4  -5   4  196.92   28.02
  -4  -5  -4  243.68   43.82
  -4  -5   4  270.83   40.92
  -4  -5   4  221.17   34.53
  -4   5  -4  195.31   26.29
  -4  -5  -4  218.28   43.07
   4  -5  -5  370.76   80.73
  -4  -5  -5  404.67   47.87
   4  -5   5  427.97   68.96
  -4  -5   5  448.13   41.29
  -4  -5  -5  414.58   80.79
  -4  -5   5  431.06   78.94
  -4  -5   5  422.06   72.67
  -4   5  -5  318.12   46.55
  -4  -5  -5  392.68   28.53
   4  -5  -6    3.26    5.36
  -4  -5  -6   11.22    7.41
   4  -5   6    1.43    5.35
  -4  -5   6   12.28    4.86
  -4  -5   6   20.59   10.41
  -4  -5   6   12.22    6.93
  -4   5  -6    8.41    5.15
  -4  -5  -6   28.89   13.09
   4  -5  -7  357.82   54.52
   4  -5   7  392.99   44.48
  -4  -5   7  368.53   21.01
  -4  -5  -7  342.86   70.85
  -4  -5   7  400.68   72.53
  -4  -5   7  389.13   53.95
  -4   5  -7  276.44   42.73
  -4  -5  -7  385.94   30.89
   4  -5   8  361.09   25.31
  -4  -5   8  346.23   39.44
  -4   5   8  288.77   43.07
  -4  -5  -8  330.27   58.43
  -4  -5   8  395.11   63.27
  -4  -5   8  333.90   48.27
  -4   5  -8  242.08   46.33
  -4  -5  -814287.88 5191.71
   4  -5   9  176.25   65.42
  -4  -5   9  165.32   65.44
  -4   5   9  206.13   76.23
   4   5   9  137.67   58.96
  -4  -5  -9  190.86   74.47
  -4  -5   9  153.78   61.98
  -4  -5   9  200.28   77.31
  -4   5  -9  150.38   60.16
  -4  -5  -9  191.47   76.58
   4  -5  10  208.92   76.72
  -4  -5  10  197.61   72.30
  -4   5  10  245.33   90.74
   4   5  10  219.38   79.93
  -4  -5 -10  214.27   87.27
  -4  -5  10  217.18   90.30
  -4  -5  10  254.62   98.80
  -4  -5 -10  174.12   72.99
   4  -5  11  207.89   35.65
  -4  -5  11  202.62   19.67
   4   5  11  252.51   22.91
  -4   5  11  245.47   26.48
  -4  -5 -11  212.18   35.00
  -4  -5  11  188.79   38.38
  -4  -5  11  220.04   42.04
  -4  -5 -11  186.05   37.94
   4  -5  12  507.61   95.84
  -4  -5  12  506.51   48.05
   4   5  12  415.88   66.96
  -4   5  12  514.67   48.75
  -4  -5 -12  498.72   94.55
  -4  -5  12  438.38   98.18
  -4  -5  12  458.46   74.03
  -4  -5 -12  493.11   54.00
   4  -5  13  454.57   72.16
  -4  -5  13  473.82   60.23
  -4   5  13  410.03   86.65
  -4  -5 -13  468.57   61.44
  -4  -5  13  386.75   83.31
  -4  -5  13  444.98   60.62
  -4  -5 -13  477.40   46.31
   4  -5  14  202.62   40.85
  -4  -5  14  164.00   37.51
   4   5  14  155.30   42.31
  -4   5  14  166.67   30.92
  -4  -5 -14  205.86   50.03
  -4  -5  14  146.59   42.74
  -4  -5  14  164.02   37.44
  -4  -5 -14  179.08   50.21
   4  -5  15  146.77   39.55
  -4   5  15  162.87   30.38
  -4  -5 -15  159.00   38.03
  -4  -5  15  111.44   38.46
  -4  -5 -15  162.52   38.22
   4  -5  16   51.13   18.44
  -4   5  16   33.29   13.68
  -4  -5 -16   75.21   17.43
  -4  -5 -16   41.27   19.30
   4  -5  17   23.61   10.95
  -4   5  17   43.85   21.65
  -4  -5 -17   31.08    9.86
  -4  -5 -17   18.99   12.64
   4  -5  18   61.31   18.11
  -4   5  18   48.48   16.02
  -4  -5 -18   54.08   15.27
  -4  -5 -18   46.53   18.81
   4  -5  19   26.48    8.18
  -4   5  19   25.74   13.93
  -4  -5 -19   17.66    9.52
   4  -5  20   19.69   12.22
  -4   5  20   11.39   12.48
  -4  -5 -20   25.45    8.32
  -4  -5 -21   21.53    9.26
  -4  -5 -22   59.87   30.39
   4  -6   0   14.75    7.89
  -4  -6   0   -0.52   12.05
  -4  -6   0    4.57    6.38
   4  -6  -1   59.17   23.02
   4  -6   1   59.58   29.87
  -4  -6  -1   67.65   26.47
  -4  -6   1   67.11   30.56
  -4  -6   1   57.23   23.53
  -4  -6  -1   52.80   22.33
   4  -6  -2  342.74  133.19
   4  -6   2  420.90  152.39
  -4  -6  -2  360.03  145.49
  -4  -6   2  340.57  142.33
  -4  -6   2  350.89  138.95
  -4  -6  -2  353.99  134.61
   4  -6  -3   61.64   25.42
   4  -6   3   75.39   31.11
  -4  -6  -3   65.38   26.17
  -4  -6   3   63.96   27.82
  -4  -6   3   82.11   32.42
   4  -6  -4  269.79  105.48
   4  -6   4  246.71   94.92
  -4  -6  -4  191.26   73.52
  -4  -6   4  257.75  107.36
  -4  -6   4  240.03   91.58
  -4  -6  -4  238.91   87.13
   4  -6  -5  306.51   60.35
   4  -6   5  322.35   53.10
  -4  -6  -5  292.52   66.27
  -4  -6   5  252.33   69.22
  -4  -6   5  245.17   43.88
  -4  -6  -5  353.45   33.24
   4  -6  -6  213.07   46.01
   4  -6   6  276.21   27.69
  -4  -6  -6  234.42   46.29
  -4  -6   6  220.80   43.52
  -4  -6   6  232.03   42.13
  -4  -6  -6  262.67   25.34
   4  -6  -7  102.37   17.09
   4  -6   7   96.80   18.95
  -4  -6  -7  120.57   24.89
  -4  -6   7   80.71   22.49
  -4  -6   7   34.86   15.52
  -4  -6  -7   82.83   14.78
   4  -6  -8  258.23   45.64
   4  -6   8  306.15   60.78
  -4  -6  -8  284.58   62.17
  -4  -6   8  299.35   66.88
  -4  -6   8  281.23   32.61
  -4  -6  -8  223.28   65.32
   4  -6  -9  154.44   27.04
   4  -6   9  203.14   21.89
  -4  -6  -9  212.00   46.55
  -4  -6   9  192.76   50.08
  -4  -6   9  219.08   36.19
  -4  -6  -9  179.81   41.88
   4  -6  10  725.16   99.71
  -4  -6 -10  640.50  139.21
  -4  -6  10  626.23  111.50
  -4  -6  10  616.93  114.79
  -4  -6 -10  707.67   96.55
   4  -6  11   70.63   18.94
  -4   6  11   75.69   26.17
  -4  -6 -11   31.98   18.23
  -4  -6  11   25.70    8.17
  -4  -6  11   13.42    6.13
  -4  -6 -11 1122.00  435.68
   4  -6  12  397.79   61.17
  -4   6  12  365.99   73.95
  -4  -6 -12  312.16   67.39
  -4  -6  12  319.52   94.21
  -4  -6  12  337.20   63.96
  -4  -6 -12  318.35   81.19
   4  -6  13  139.03   26.40
  -4   6  13  179.12   35.29
  -4  -6 -13  137.17   35.39
  -4  -6  13   90.19   25.43
  -4  -6  13  141.48   32.84
  -4  -6 -13   84.87   32.29
   4  -6  14  135.69   30.67
  -4   6  14  156.15   34.67
  -4  -6 -14   37.11   47.30
  -4  -6  14  128.38   34.38
  -4  -6  14  156.18   37.15
  -4  -6 -14  117.62   35.26
   4  -6  15  139.52   44.34
  -4   6  15  219.01   38.93
  -4  -6 -15  172.74   37.15
  -4  -6  15  199.99   49.76
  -4  -6 -15  166.80   51.72
   4  -6  16  253.93   53.11
  -4   6  16  136.47   32.14
  -4  -6 -16  119.91   36.61
  -4  -6  16  125.62   35.94
  -4  -6 -16   95.43   42.97
   4  -6  17  137.23   30.93
  -4   6  17   87.63   30.50
  -4  -6 -17  104.06   32.90
  -4  -6  17   62.76   21.03
  -4  -6 -17   80.37   27.92
   4  -6  18   75.51   18.59
  -4  -6 -18   88.67   24.86
  -4  -6  18   92.06   30.16
   4  -7   0   14.36    8.86
  -4  -7   0   -2.25   12.60
  -4  -7   0    8.23    6.65
   4  -7  -1  161.77   33.17
   4  -7   1  178.99   29.80
  -4  -7  -1  156.12   37.92
  -4  -7   1  177.41   44.87
  -4  -7   1  208.10   32.69
  -4  -7  -1  124.20   32.09
   4  -7  -2    9.46    5.65
   4  -7   2   14.46   10.30
  -4  -7  -2   -2.24   12.72
  -4  -7   2    8.23   12.24
  -4  -7   2    0.92    5.37
   4  -7  -3  557.30  121.92
   4  -7   3  680.89   94.43
  -4  -7  -3  597.61  140.78
  -4  -7   3  526.49  138.50
  -4  -7   3  764.37  104.42
   4  -7  -4   62.29   16.13
   4  -7   4  124.73   24.95
  -4  -7  -4   96.20   24.08
  -4  -7   4   79.37   27.62
  -4  -7   4   88.41   17.55
   4  -7  -5  485.03   98.58
   4  -7   5  531.63   98.96
  -4  -7  -5  486.13  106.72
  -4  -7   5  571.88   88.19
  -4  -7   5  525.90   99.15
   4  -7  -6    3.56    6.39
   4  -7   6    0.44   13.34
  -4  -7  -6    4.26    8.13
  -4  -7   6   12.52    5.76
  -4  -7   6   14.13    7.68
   4  -7  -7  264.76   64.18
   4  -7   7  414.93   64.29
  -4  -7  -7  231.03   56.53
  -4  -7   7  222.10   51.92
  -4  -7   7  266.87   63.69
   4  -7  -8   40.95   13.39
   4  -7   8   38.14   11.94
  -4  -7  -8   59.67   17.09
  -4  -7   8   35.51   18.28
  -4  -7   8   22.99   10.10
   4  -7  -9    7.83    7.78
   4  -7   9    0.23    8.83
  -4  -7  -9   18.67    9.82
  -4  -7   9   22.15    9.77
  -4  -7   9    6.85    7.75
   4  -7 -10   -1.70    9.54
   4  -7  10   -7.40    9.28
  -4  -7 -10  -14.21   11.73
  -4  -7  10    9.37    2.96
  -4  -7  10    4.51    6.37
   4  -7 -11  -12.27    9.72
   4  -7  11   15.18   11.02
  -4  -7 -11  -11.27   11.57
  -4  -7  11    4.89    9.00
  -4  -7  11    8.03    5.70
   4  -7 -12   83.32   37.50
   4  -7  12   85.30   24.34
  -4  -7 -12   78.58   28.63
  -4  -7  12   80.00   26.41
  -4  -7  12   83.23   17.74
   4  -7 -13  139.09   42.03
   4  -7  13  161.92   51.83
  -4  -7 -13  153.13   49.15
  -4  -7  13   96.84   33.94
  -4  -7  13  151.90   38.94
   4  -7  14  151.42   27.12
  -4   7  14   89.95   30.66
  -4  -7 -14   98.45   30.57
  -4  -7  14  138.71   32.01
  -4  -7 -15   15.54   10.03
  -4  -7  15   24.17    9.29
  -4  -7 -16    4.36    5.97
  -4  -7  16   10.81    8.16
   4  -8   0   97.96   22.25
  -4  -8   0   60.14   15.92
   4  -8  -1   92.06   34.00
   4  -8   1  180.47   35.13
  -4  -8  -1  104.07   36.21
  -4  -8   1   90.46   33.17
   4  -8  -2  152.75   45.06
   4  -8   2  156.91   32.31
  -4  -8  -2  109.84   39.99
  -4  -8   2  110.97   31.78
   4  -8  -3   21.40    9.61
   4  -8   3   19.24    9.48
  -4  -8  -3   24.24   11.96
  -4  -8   3   37.98   12.29
   4  -8  -4   87.65   26.51
   4  -8   4  100.60   30.32
  -4  -8  -4   70.23   21.37
  -4  -8   4  106.47   33.12
   4  -8  -5   47.35   17.34
   4  -8   5   18.76   14.79
  -4  -8  -5   11.58    9.16
  -4  -8   5   27.25   11.66
   4  -8  -6   20.64   11.76
   4  -8   6   86.50   23.15
  -4  -8  -6   38.10   14.95
  -4  -8   6   30.94   12.37
   4  -8  -7   42.05   16.66
   4  -8   7   37.43   12.88
   4  -8  -8   32.05   11.28
   4  -8   8   34.89   15.33
  -4  -8   8   23.00    9.16
  -4  -8   9   42.08   18.98
  -4  -8  10    4.17    6.23
  -4  -8  11   13.75    8.43
  -4  -8  12   19.96    8.15
  -5   0   0   21.59    7.68
  -5   0   0   10.55   12.44
  -5   0   0   11.00    6.55
  -5   0   1  218.48   17.78
  -5   0  -1  257.05   36.94
  -5   0   1  185.26   42.18
  -5   0  -1  192.88   32.25
  -5   0  -1  195.88   28.82
  -5   0   1  193.45   17.36
   5   0  -2 4189.23  106.15
   5   0  -2 4203.97  106.47
  -5   0   2 4507.96  137.62
  -5   0  -2 4306.29  131.64
  -5   0   2 4338.20  130.89
  -5   0  -2 4346.02  127.74
  -5   0  -2 4634.23  134.43
  -5   0   2 4506.33  129.88
   5   0  -3 1796.17   60.74
   5   0  -3 1699.09   58.08
  -5   0   3 1916.50  113.83
  -5   0   3 1822.38   74.59
  -5   0  -3 1818.30   74.93
  -5   0  -3 1915.47   89.69
   5   0  -4  869.70   35.29
   5   0  -4  900.81   32.35
   5   0   4  904.95   31.42
   5   0   4  871.02   30.25
  -5   0   4  986.35   86.56
  -5   0   4  881.18   48.46
  -5   0  -4  910.52   43.75
  -5   0  -4  886.12   43.10
   5   0   5  268.79   14.55
  -5   0   5  263.21   25.97
  -5   0   5  292.32   68.69
  -5   0   5  312.78   63.73
  -5   0  -5  281.69   63.43
  -5   0  -5  329.29   50.53
   5   0   6  693.80   29.24
  -5   0   6  714.48   57.86
  -5   0   6  717.02   38.92
  -5   0  -6  632.82   33.17
  -5   0  -6  677.28   49.97
   5   0   7   13.92    4.53
  -5   0   7   22.79    6.42
  -5   0   7   -8.72   11.52
  -5   0  -7    8.77    5.85
  -5   0  -7   -4.89   10.28
   5   0   8   50.05   10.50
  -5   0   8   44.20    7.39
  -5   0   8   31.59   11.14
  -5   0   8   68.75   15.42
  -5   0  -8   78.29   13.87
  -5   0  -8   62.31   11.93
   5   0   9  123.39   24.75
  -5   0   9  124.44   13.92
  -5   0   9  137.43   26.82
  -5   0   9  131.22   29.59
  -5   0  -9  122.70   19.22
  -5   0  -9  107.30   19.44
   5   0  10   -0.47    4.32
  -5   0  10    1.77    3.61
  -5   0  10   10.15    6.39
  -5   0  10   16.60    5.89
  -5   0 -10   15.42    9.09
  -5   0 -10   10.07   14.44
   5   0  11  145.69   13.72
  -5   0  11   96.71   14.70
  -5   0  11  122.49   21.49
  -5   0  11  124.34   18.08
  -5   0 -11  105.68   24.72
  -5   0 -11  121.59   17.34
   5   0  12    4.82    5.53
  -5   0  12    6.88    4.16
  -5   0  12    6.61   13.96
  -5   0  12    6.17    8.60
  -5   0 -12   11.65    9.44
  -5   0 -12   12.25   10.76
   5   0  13  447.44   38.44
  -5   0  13  469.37   30.68
  -5   0  13  527.74   73.77
  -5   0  13  408.39   66.20
  -5   0 -13  472.71   26.69
  -5   0 -13  391.52   55.46
   5   0  14   14.11    6.94
  -5   0  14   29.91   12.55
  -5   0  14   14.28   11.58
  -5   0  14   19.17   14.61
  -5   0 -14   38.84   17.45
  -5   0 -14   15.97    9.11
   5   0  15  473.09  170.71
  -5   0  15  408.64  153.34
  -5   0  15  391.93  155.28
  -5   0  15  354.74  138.46
  -5   0 -15  372.00  151.69
  -5   0 -15  294.50  117.90
   5   0  16  568.74   43.68
  -5   0  16  490.44   46.34
  -5   0  16  462.72   66.13
   5   0  17   87.94   24.95
  -5   0  17   86.56   18.15
  -5   0  17   94.03   17.63
   5   0  18  317.61   46.29
  -5   0  18  318.29   47.77
   5   0  19   59.50   15.25
  -5   0  19   68.14   19.52
   5   0  20   13.53    5.23
  -5   0  20   -7.93    9.68
  -5   0  21  629.44  115.47
   5  -1   0 1039.53   40.73
   5  -1   0  987.68   45.40
  -5  -1   0 1010.32   51.03
  -5  -1   0 1089.35   67.92
  -5   1   0 1128.18   73.33
  -5   1   0 1117.78   68.56
  -5  -1   0 1005.28   94.52
  -5   1   0 1081.44   53.18
  -5  -1   0 1127.27   50.76
   5  -1  -1 2860.73   98.22
   5  -1   1 2865.08   99.42
   5  -1  -1 2969.36  108.30
   5  -1   1 2659.29   94.02
  -5  -1  -1 2794.02  105.87
  -5  -1   1 2905.98  110.69
  -5  -1   1 2974.23  122.32
  -5   1   1 2957.76  114.84
  -5  -1  -1 3005.34  117.55
  -5   1  -1 2919.34  111.34
  -5   1   1 2880.99  109.28
  -5   1  -1 2891.50  110.21
  -5  -1   1 2858.46  108.03
  -5  -1  -1 2888.17  125.81
  -5   1  -1 2822.74  104.73
  -5  -1  -1 2801.79  105.32
  -5   1   1 2821.99  105.15
  -5  -1   1 2938.99  110.51
   5  -1  -2 1020.17   42.09
   5  -1   2 1060.17   41.10
   5  -1  -2  996.70   53.30
   5  -1   2 1040.21   47.15
  -5  -1  -2 1051.40   48.40
  -5  -1   2  981.87   48.08
  -5  -1   2 1195.85  100.83
  -5   1   2 1182.63   51.89
  -5  -1  -2 1121.97   57.72
  -5   1   2 1034.41   53.73
  -5   1  -2 1037.26   78.61
  -5  -1   2 1016.48   53.72
  -5  -1  -2 1089.55   51.22
  -5  -1  -2 1083.79   49.59
  -5   1   2 1066.02   47.86
  -5  -1   2 1073.52   49.69
   5  -1   3  391.66   24.39
   5  -1  -3  348.72   17.91
   5  -1   3  341.81   17.04
  -5  -1  -3  339.18   79.82
  -5  -1   3  324.67   74.03
  -5  -1   3  402.85   49.29
  -5   1   3  402.25   37.30
  -5  -1  -3  410.77   62.37
  -5   1   3  322.90   60.35
  -5   1  -3  360.37   49.90
  -5  -1   3  328.05   63.17
  -5  -1  -3  413.18   80.27
  -5   1  -3  376.65   24.82
   5  -1  -4   43.76    8.91
   5  -1   4   48.28    8.93
  -5  -1  -4   32.51   10.93
  -5  -1   4   42.42   10.22
  -5  -1   4   18.88    9.80
  -5   1   4   42.20    7.98
  -5   1   4   32.13   13.71
  -5   1  -4   30.86    7.87
  -5  -1   4   31.60   18.44
  -5  -1  -4   55.77   17.63
  -5   1  -4   39.85   14.67
  -5  -1  -4   55.41   12.70
   5  -1   5  890.38   36.18
  -5  -1  -5  867.00   95.10
  -5  -1   5  872.91   41.68
  -5  -1   5  931.87   72.46
  -5   1   5  906.39   71.20
  -5   1   5  808.24   45.05
  -5   1  -5  820.86   52.93
  -5  -1   5  874.13   44.39
  -5  -1  -5  832.28   41.01
  -5   1  -5  906.26   45.07
  -5  -1  -5  895.58   45.22
   5  -1   6  601.65   28.43
  -5   1   6  581.21   38.33
  -5  -1  -6  588.34   57.38
  -5  -1   6  650.16   60.92
  -5   1   6  601.65   52.64
  -5   1   6  637.19   37.35
  -5   1  -6  573.19   32.74
  -5  -1   6  482.16   86.05
  -5  -1  -6  541.84   30.50
  -5   1  -6  574.75   35.51
  -5  -1  -6  596.33   43.71
   5  -1   7  184.07   12.24
  -5  -1   7  191.33   17.78
  -5   1   7  169.79   12.41
  -5  -1  -7  181.69   41.00
  -5  -1   7  264.24   44.82
  -5   1   7  184.78   29.06
  -5   1   7  199.84   31.48
  -5   1  -7  200.38   43.51
  -5  -1   7  246.91   39.63
  -5  -1  -7  213.85   19.84
  -5   1  -7  238.05   32.09
  -5  -1  -7  226.46   30.40
   5  -1   8  752.84   39.45
   5   1   8  757.38   28.78
  -5   1   8  834.64   36.49
  -5  -1  -8  852.38   84.54
  -5  -1   8  769.94   61.28
  -5   1   8  809.76   71.29
  -5   1   8  798.50   44.94
  -5   1  -8  792.90   39.98
  -5  -1   8  810.36   57.20
  -5  -1  -8  800.36   43.08
  -5   1  -8  865.02   58.28
  -5  -1  -8  827.24   43.08
   5  -1   9 1280.78   27.09
   5   1   9 1195.47   20.83
  -5  -1   9 1227.95   30.97
  -5   1   9 1192.80   27.63
  -5  -1  -9 1235.41   36.99
  -5  -1   9 1167.31   76.79
  -5   1   9 1252.71  105.38
  -5   1   9 1310.12   48.70
  -5   1  -9 1185.18   38.35
  -5  -1   9 1232.62   59.11
  -5  -1  -9 1231.66   36.95
  -5   1  -9 1223.85   69.10
  -5  -1  -9 1157.04   67.64
   5  -1  10  533.38   21.70
   5   1  10  568.10   20.72
  -5  -1  10  502.35   32.13
  -5   1  10  589.03   25.62
  -5  -1 -10  589.41   61.62
  -5  -1  10  584.87   83.69
  -5   1  10  608.03   93.71
  -5   1  10  610.03   31.80
  -5   1 -10  528.92   74.95
  -5  -1  10  540.14   66.30
  -5  -1 -10  532.75   69.96
  -5   1 -10  496.62   97.61
  -5  -1 -10  560.92   43.00
   5  -1  11  224.43   47.36
   5   1  11  234.40   11.93
  -5  -1  11  212.17   15.45
  -5   1  11  203.89   14.62
  -5  -1 -11  221.98   42.76
  -5  -1  11  317.99   38.28
  -5   1  11  230.59   40.38
  -5   1  11  228.95   45.13
  -5   1 -11  256.04   45.35
  -5  -1  11  226.94   38.72
  -5  -1 -11  252.53   48.91
  -5   1 -11  275.64   41.00
  -5  -1 -11  242.25   39.47
   5  -1  12  222.98   59.18
   5   1  12  254.12   14.26
  -5  -1  12  237.01   35.69
  -5   1  12  242.01   41.38
  -5  -1 -12  266.17   46.57
  -5  -1  12  263.21   35.28
  -5   1  12  299.40   36.27
  -5   1  12  240.01   41.67
  -5   1 -12  248.45   45.94
  -5  -1  12  253.99   41.24
  -5  -1 -12  253.67   44.36
  -5   1 -12  271.44   46.91
  -5  -1 -12  249.38   35.80
   5  -1  13   48.27   12.21
   5   1  13   34.04    8.59
  -5  -1  13   56.75    9.48
  -5   1  13   46.19    9.07
  -5  -1 -13   50.77    7.22
  -5  -1  13   40.83    8.93
  -5   1  13   89.30   12.19
  -5   1  13   40.17   10.56
  -5   1 -13   49.62   13.14
  -5  -1  13   59.71   11.37
  -5   1 -13   20.04   19.69
  -5  -1 -13   62.19   14.97
   5  -1  14  100.18   42.32
   5   1  14  109.73   46.65
  -5  -1  14   76.50   29.40
  -5   1  14  122.91   47.38
  -5  -1 -14  108.28   41.44
  -5  -1  14  122.57   48.86
  -5   1  14  144.76   55.64
  -5   1  14  102.04   40.93
  -5   1 -14  101.02   45.04
  -5  -1  14   91.72   39.35
  -5  -1 -14   84.92   34.95
   5  -1  15  140.25   16.68
   5   1  15  131.30   28.80
  -5  -1  15  134.25   24.39
  -5   1  15  137.85   17.57
  -5  -1 -15  172.10   19.67
  -5  -1  15  178.62   29.10
  -5   1  15  156.10   21.57
  -5   1  15  130.87   23.49
  -5   1 -15  114.95   27.32
  -5  -1  15  187.31   20.94
  -5  -1 -15  166.24   34.55
   5  -1  16  735.61   52.75
  -5  -1  16  687.51   65.68
  -5   1  16  626.32   68.12
  -5   1  16  737.19  124.10
  -5   1  16  507.61   91.39
  -5  -1  16  723.06   53.37
  -5   1 -16  773.45   55.16
  -5  -1 -16  742.36   80.39
   5  -1  17  137.25   35.06
  -5  -1  17  174.42   18.72
  -5   1  17  162.39   19.49
  -5   1  17  162.53   27.73
  -5  -1 -17  154.05   27.95
   5  -1  18  240.11   58.38
  -5   1  18  250.43   42.15
   5  -1  19  219.69   36.00
  -5   1  19  179.04   44.27
   5  -1  20   51.52   16.77
  -5   1  20   27.88   13.63
   5  -1  21  200.05   36.05
  -5   1  21   77.66   21.28
  -5   1  22   56.23   14.92
  -5   1  23   90.56   17.80
  -5   1  24    6.25    8.02
   5  -2   0  303.59   18.65
  -5  -2   0  326.11   50.95
  -5  -2   0  303.24   22.73
  -5   2   0  271.71   53.66
  -5   2   0  321.58   66.15
  -5  -2   0  278.35   22.74
  -5   2   0  290.42   39.96
  -5  -2   0  319.15   26.36
   5  -2  -1  577.05   38.12
   5  -2   1  571.76   33.97
  -5  -2  -1  597.93   67.41
  -5  -2   1  545.41   34.29
  -5  -2   1  644.53   52.88
  -5  -2  -1  581.31   50.12
  -5   2   1  559.13   46.90
  -5   2   1  607.54   39.97
  -5   2  -1  590.67  110.83
  -5  -2   1  635.40   34.82
  -5  -2  -1  536.40   50.59
  -5   2  -1  544.93   71.45
  -5  -2  -1  514.67   32.67
  -5   2   1  637.93   33.63
  -5  -2   1  600.54   36.11
   5  -2  -2 1308.12   55.30
   5  -2   2 1368.87   64.03
  -5  -2  -2 1300.97   91.79
  -5  -2   2 1358.84   60.30
  -5  -2   2 1300.94   85.81
  -5   2   2 1374.79   57.29
  -5  -2  -2 1333.81   71.20
  -5   2   2 1337.76   60.16
  -5   2  -2 1334.32   60.31
  -5  -2   2 1319.67   58.49
  -5  -2  -2 1393.67   65.37
  -5  -2  -2 1320.77   59.55
  -5   2   2 1355.38   58.96
  -5  -2   2 1351.11   63.53
   5  -2  -3  705.12   36.57
   5  -2   3  704.31   38.74
  -5  -2  -3  644.38   42.09
  -5  -2   3  721.30   38.68
  -5  -2   3  813.30   94.93
  -5   2   3  716.59   79.91
  -5  -2  -3  705.96   49.97
  -5   2   3  665.58   62.64
  -5   2  -3  690.86   85.71
  -5  -2   3  653.42   35.15
  -5  -2  -3  794.40   90.14
  -5   2  -3  619.26   36.39
  -5  -2  -3  676.19   37.80
   5  -2  -4  939.73   54.67
   5  -2   4  965.96   39.01
  -5  -2  -4  965.96   61.94
  -5  -2   4  901.57   63.64
  -5  -2   4 1001.85   77.83
  -5   2   4  939.83   80.79
  -5   2   4  923.33  115.42
  -5   2  -4  996.65   48.27
  -5  -2   4  927.93   44.83
  -5  -2  -4 1010.91  115.00
  -5   2  -4  848.27   62.83
   5  -2  -5   83.44   14.27
   5  -2   5  101.49   18.23
  -5  -2   5   87.44   20.95
  -5  -2   5  105.84   17.69
  -5   2   5   94.31   18.04
  -5   2   5   90.48   30.29
  -5   2  -5  112.82   23.87
  -5  -2   5  145.81   26.28
  -5  -2  -5  111.56   17.17
  -5   2  -5  125.94   16.81
  -5  -2  -5   70.66   25.56
   5  -2   6 1862.65   80.94
  -5   2   6 1879.62   70.95
  -5  -2  -6 1902.92   77.69
  -5  -2   6 1888.61   89.43
  -5  -2   6 1900.01   77.68
  -5   2   6 1820.83   75.54
  -5   2   6 1960.61   84.68
  -5   2  -6 2047.88   86.68
  -5  -2   6 1876.76   76.53
  -5  -2  -6 2167.48   88.43
  -5   2  -6 1891.88   92.41
  -5  -2  -6 1780.63  110.08
   5  -2   7  155.19   30.53
  -5   2   7  121.83   11.93
  -5  -2  -7  130.48   27.87
  -5  -2   7  121.19   30.72
  -5  -2   7  195.79   29.65
  -5   2   7  159.40   26.63
  -5   2   7  139.87   32.43
  -5   2  -7  146.10   25.03
  -5  -2   7  172.92   22.18
  -5   2  -7  128.73   14.47
  -5  -2  -7  132.13   22.73
   5  -2   8  652.74   46.88
  -5   2   8  649.98   33.65
  -5  -2  -8  704.92   79.27
  -5  -2   8  705.71   75.67
  -5  -2   8  623.34   51.61
  -5   2   8  638.01   63.25
  -5   2   8  581.06   92.55
  -5   2  -8  685.17   53.92
  -5  -2   8  737.46   33.24
  -5   2  -8  616.73  100.09
  -5  -2  -8  646.16   91.48
   5  -2   9  261.46   44.93
  -5   2   9  259.30   35.29
  -5  -2  -9  347.92   47.82
  -5  -2   9  228.32   53.28
  -5  -2   9  311.63   51.34
  -5   2   9  299.90   44.57
  -5   2   9  293.88   34.24
  -5   2  -9  284.57   62.71
  -5  -2   9  249.47   57.38
  -5   2  -9  272.33   49.52
  -5  -2  -9  308.51   34.96
   5  -2  10  232.05   42.03
  -5   2  10  227.36   17.03
  -5  -2 -10  210.69   37.86
  -5  -2  10  243.22   20.06
  -5  -2  10  218.09   40.81
  -5   2  10  220.09   32.16
  -5   2  10  236.07   50.17
  -5   2 -10  224.20   30.50
  -5  -2  10  228.93   45.83
  -5   2 -10  233.12   34.91
  -5  -2 -10  228.95   37.19
   5  -2  11  328.92   63.10
  -5   2  11  392.81   20.63
  -5  -2 -11  363.73   63.65
  -5  -2  11  401.91   51.59
  -5   2  11  439.20   63.37
  -5   2  11  324.44   52.79
  -5   2 -11  345.96   53.46
  -5  -2  11  352.22   21.62
  -5   2 -11  360.79   62.63
  -5  -2 -11  363.09   61.55
   5  -2  12  514.85   22.60
  -5   2  12  496.90   24.07
  -5  -2 -12  411.13   65.90
  -5   2  12  501.93   76.78
  -5   2  12  470.53   91.37
  -5   2 -12  407.13   75.62
  -5  -2  12  436.64   71.59
  -5   2 -12  411.75   63.58
  -5  -2 -12  465.38  100.15
   5  -2  13  292.75  108.01
  -5   2  13  313.55  113.97
  -5  -2 -13  294.72  120.49
  -5  -2  13  295.86  117.43
  -5   2  13  277.76  107.72
  -5   2  13  248.14   99.96
  -5   2 -13  306.54  116.53
  -5  -2  13  261.11  104.83
  -5   2 -13  264.86  105.10
  -5  -2 -13  281.77  110.34
   5  -2  14  618.14   54.57
  -5   2  14  586.74   45.22
  -5  -2 -14  569.70   51.88
  -5  -2  14  581.91   83.96
  -5   2  14  553.79   83.55
  -5   2  14  342.84   69.18
  -5   2 -14  531.86   66.02
  -5  -2  14  660.20   50.98
  -5  -2 -14  502.42   99.70
   5  -2  15  185.34   36.11
  -5   2  15  207.60   22.85
  -5  -2 -15  166.94   32.56
  -5  -2  15  185.04   35.74
  -5   2  15  181.79   34.88
  -5   2  15  158.70   50.46
  -5   2 -15  148.46   33.18
  -5  -2 -15  187.06   36.37
   5  -2  16  385.23   40.56
  -5   2  16  328.18   62.13
  -5  -2 -16  380.85   38.87
  -5  -2  16  440.87   67.23
  -5   2  16  420.83   65.68
  -5   2  16  287.99   64.47
  -5   2 -16  349.91   53.50
  -5  -2 -16  350.40   73.49
   5  -2  17    6.44    5.54
  -5   2  17   -5.77   10.05
  -5  -2 -17    4.62    5.61
  -5   2  17   13.59    9.98
  -5   2  17   22.20    9.27
  -5  -2 -17   -0.00   10.92
   5  -2  18  116.71   22.80
  -5   2  18   96.04   21.21
  -5   2  18  112.18   24.57
  -5  -2 -18   85.27   21.95
   5  -2  19   20.16    7.60
  -5   2  19   -2.79   10.23
  -5  -2 -19    3.05    5.40
   5  -2  20   38.74   12.21
  -5   2  20   73.82   20.56
  -5  -2 -20   30.54   13.52
   5  -2  21   80.19   29.95
  -5   2  21   93.99   36.65
   5  -2  22   14.29   11.18
  -5   2  22   39.93   13.69
  -5   2  23   59.60   28.26
  -5   2  24   35.84   16.99
   5  -3   0   -1.09    6.11
  -5  -3   0    0.72    6.87
  -5  -3   0   -0.13   11.58
  -5   3   0    1.27    3.36
  -5  -3   0   17.86   11.28
   5  -3  -1  287.85   29.44
   5  -3   1  288.43   43.98
  -5  -3  -1  278.03   56.82
  -5  -3   1  314.18   83.22
  -5  -3   1  284.16   49.09
  -5  -3  -1  301.22   56.15
  -5   3  -1  306.75   18.62
  -5  -3  -1  307.16   22.25
  -5   3   1  276.89   17.56
  -5  -3   1  263.41   23.20
   5  -3  -2  474.35   65.31
   5  -3   2  485.38   26.71
  -5  -3  -2  457.54   34.06
  -5  -3   2  474.56   91.14
  -5  -3   2  517.91   41.17
  -5  -3  -2  507.79   84.69
  -5   3   2  454.50   35.68
  -5   3  -2  472.46   62.46
  -5  -3  -2  501.74   26.44
   5  -3  -3   -3.29    6.71
   5  -3   3   20.76    9.60
  -5  -3  -3   25.17   11.42
  -5  -3   3   10.79    9.58
  -5  -3   3   23.37   13.34
  -5   3   3    0.69    4.81
  -5  -3  -3   16.85    7.86
  -5   3  -3   22.18    6.96
  -5  -3  -3   -3.19   10.13
   5  -3  -4  662.55   70.23
   5  -3   4  670.85   28.96
  -5  -3  -4  706.91   42.24
  -5  -3   4  690.70   47.84
  -5  -3   4  712.33   59.58
  -5   3   4  634.73   44.83
  -5   3  -4  618.15   58.33
  -5  -3  -4  650.23   30.08
   5  -3  -5  355.64   55.91
   5  -3   5  395.19   18.84
  -5  -3  -5  394.59   81.72
  -5  -3   5  449.58   33.03
  -5  -3   5  406.24   68.22
  -5   3   5  387.79   19.22
  -5   3  -5  386.05   38.53
  -5  -3  -5  476.10   31.34
   5  -3  -6  301.07   53.66
   5  -3   6  384.91   25.57
  -5  -3  -6  379.54   69.26
  -5  -3   6  335.98   31.27
  -5  -3   6  385.63   72.90
  -5   3   6  334.29   51.57
  -5   3  -6  344.73   74.31
  -5   3  -6  305.24   44.96
  -5  -3  -6  395.62   71.79
   5  -3   7  236.87   50.48
  -5   3   7  219.54   28.88
  -5  -3  -7  234.15   42.73
  -5  -3   7  275.49   25.74
  -5  -3   7  281.50   45.08
  -5   3   7  244.07   38.75
  -5   3  -7  207.69   58.94
  -5   3  -7  197.23   29.61
  -5  -3  -7  242.78   42.18
   5  -3   8 1200.59   39.69
  -5   3   8 1183.54   32.97
  -5  -3  -8 1188.69   89.71
  -5  -3   8 1102.63   78.11
  -5  -3   8 1102.22   70.67
  -5   3   8 1104.83   52.92
  -5   3  -8 1062.49   66.08
  -5   3  -8 1027.04  122.22
  -5  -3  -8 1160.64   44.77
   5  -3   9  928.85   35.35
  -5   3   9  914.66   29.88
  -5  -3  -9 1035.34  110.83
  -5  -3   9  951.78   48.40
  -5  -3   9  950.63   70.64
  -5   3   9  989.07   62.35
  -5   3  -9 1003.06   45.16
  -5   3  -9  869.80   95.82
  -5  -3  -9  886.89   75.78
   5  -3  10  272.20   17.20
  -5   3  10  250.41   37.72
  -5  -3 -10  244.28   39.81
  -5  -3  10  224.51   53.95
  -5  -3  10  321.49   49.25
  -5   3  10  258.88   41.09
  -5   3 -10  286.14   48.11
  -5   3 -10  224.65   34.72
  -5  -3 -10  242.60   36.99
   5  -3  11  789.53  284.81
  -5   3  11  715.46  273.70
  -5  -3 -11  903.36  330.08
  -5  -3  11  815.56  295.13
  -5  -3  11  910.32  338.04
  -5   3  11  808.72  297.10
  -5   3 -11  871.99  313.62
  -5   3 -11  720.12  261.20
  -5  -3 -11  797.99  297.03
   5  -3  12  311.49  113.35
  -5   3  12  327.50  119.44
  -5  -3 -12  298.77  122.62
  -5  -3  12  265.22  118.56
  -5  -3  12  348.26  135.07
  -5   3  12  291.69  118.80
  -5   3 -12  266.19  110.71
  -5   3 -12  240.76   93.36
  -5  -3 -12  332.36  130.06
   5  -3  13  909.10   68.75
  -5   3  13 1027.31   74.23
  -5  -3 -13  915.08   88.01
  -5  -3  13  859.86   92.13
  -5  -3  13  945.68  124.51
  -5   3  13  987.55   86.48
  -5   3 -13  886.36  109.04
  -5   3 -13  741.15   97.97
  -5  -3 -13  882.30   83.71
   5  -3  14  271.18   49.73
  -5   3  14  296.54   24.62
  -5  -3 -14  220.95   38.15
  -5  -3  14  287.25   21.77
  -5  -3  14  241.06   41.70
  -5   3  14  208.45   39.19
  -5   3 -14  198.47   34.48
  -5  -3 -14  248.26   42.58
   5  -3  15  139.71   18.75
  -5   3  15  110.01   17.36
  -5  -3 -15  147.89   29.57
  -5  -3  15  150.30   22.33
  -5   3  15  108.98   17.16
  -5   3 -15  108.35   20.54
  -5  -3 -15  100.39   20.70
   5  -3  16  619.33   85.26
  -5   3  16  677.60   93.59
  -5  -3 -16  486.71  110.73
  -5  -3  16  610.35  114.33
  -5   3  16  540.02  116.17
  -5   3  16  557.15   90.04
  -5  -3 -16  464.28  123.31
   5  -3  17  381.59   60.74
  -5   3  17  379.88   58.73
  -5  -3 -17  331.55   58.27
  -5  -3  17  350.89   75.04
  -5   3  17  265.98   64.04
  -5   3  17  171.69   54.31
  -5  -3 -17  268.48   63.46
   5  -3  18   88.41   25.42
  -5   3  18   66.11   20.56
  -5   3  18   57.27   17.89
  -5   3  18   55.11   14.58
  -5  -3 -18   59.63   23.27
   5  -3  19   95.64   29.38
  -5   3  19  115.43   24.44
  -5   3  19   83.56   27.71
  -5  -3 -19   67.41   24.89
   5  -3  20   20.90    9.33
  -5   3  20   17.90   12.11
  -5   3  20    4.75    9.55
  -5  -3 -20   46.82   13.00
   5  -3  21    7.96    5.73
  -5   3  21   -0.83   10.67
  -5  -3 -21   22.47   11.93
   5  -3  22   20.48    6.71
  -5   3  22   58.44   18.80
   5  -3  23   13.21    7.41
   5  -4   0   12.28    7.10
  -5  -4   0   11.94    9.00
  -5  -4   0    9.05   11.60
  -5   4   0    7.42    7.99
   5  -4  -1  390.20   65.37
   5  -4   1  461.74   44.39
  -5  -4  -1  514.93   70.67
  -5  -4   1  529.36   84.03
  -5  -4   1  569.89   40.21
  -5  -4  -1  453.92   39.10
  -5   4  -1  522.73   21.81
  -5  -4  -1  569.81   29.17
   5  -4  -2  208.67   42.77
   5  -4   2  247.00   17.18
  -5  -4  -2  236.04   38.01
  -5  -4   2  217.64   38.52
  -5  -4   2  244.72   43.57
  -5  -4  -2  291.45   30.64
  -5   4  -2  232.49   22.82
  -5  -4  -2  190.74   18.82
   5  -4  -3  522.94   81.34
   5  -4   3  580.96   23.38
  -5  -4  -3  489.64   96.73
  -5  -4   3  499.74   87.99
  -5  -4   3  584.78   92.59
  -5  -4  -3  606.14   34.41
  -5   4  -3  649.22   27.66
  -5  -4  -3  536.69   34.77
   5  -4  -4  213.45   34.41
   5  -4   4  253.64   16.84
  -5  -4  -4  245.26   37.26
  -5  -4   4  226.70   44.38
  -5  -4   4  253.76   34.42
  -5   4  -4  218.93   28.58
  -5  -4  -4  225.57   37.01
   5  -4  -5  780.62   98.05
   5  -4   5  854.87   28.48
  -5  -4  -5  813.69   49.65
  -5  -4   5  848.92   63.34
  -5  -4   5  801.49  100.84
  -5   4   5  818.67   44.30
  -5   4  -5  764.61   47.78
  -5  -4  -5  872.72   33.59
   5  -4  -6  219.47   40.12
   5  -4   6  259.28   36.06
  -5  -4  -6  222.11   38.89
  -5  -4   6  247.91   46.91
  -5  -4   6  253.27   30.86
  -5   4   6  239.92   39.46
  -5   4  -6  205.59   27.66
  -5  -4  -6  229.97   19.60
   5  -4  -7   19.69    7.80
   5  -4   7   12.42    7.50
  -5  -4  -7   30.71   12.57
  -5  -4   7   13.24    7.73
  -5  -4   7   10.52    7.23
  -5   4   7   25.57    7.81
  -5   4  -7    3.45    4.94
  -5  -4  -7   25.13   18.69
   5  -4   8  167.07   61.43
  -5  -4  -8  172.44   73.36
  -5  -4   8  169.73   74.95
  -5  -4   8  197.54   75.66
  -5   4   8  148.39   60.06
  -5   4  -8  171.67   67.05
  -5  -4  -8  209.92   80.54
   5  -4   9  660.22  237.59
  -5   4   9  737.16  265.90
  -5  -4  -9  599.74  244.28
  -5  -4   9  688.53  247.95
  -5  -4   9  583.46  222.28
  -5   4   9  605.73  221.91
  -5   4  -9  503.48  193.34
  -5  -4  -9  705.76  254.00
   5  -4  10  168.23   21.62
  -5   4  10  210.47   24.33
  -5  -4 -10  168.41   29.59
  -5  -4  10  168.53   43.13
  -5  -4  10  234.89   43.26
  -5   4  10  135.27   30.85
  -5   4 -10  164.93   32.71
  -5   4 -10  154.72   29.13
  -5  -4 -10  139.53   26.92
   5  -4  11   94.90   17.67
  -5   4  11   83.97   17.43
  -5  -4 -11   48.11   22.54
  -5  -4  11  103.89   28.94
  -5  -4  11  120.26   24.57
  -5   4  11   54.69   18.76
  -5   4 -11   91.92   20.26
  -5   4 -11   64.87   14.11
  -5  -4 -11   74.82   21.49
   5  -4  12   39.95   14.72
  -5   4  12   58.24   13.77
  -5  -4 -12   26.28   14.84
  -5  -4  12   23.14    9.63
  -5  -4  12   46.20   12.45
  -5   4 -12   20.43   14.43
  -5   4 -12   44.05    7.72
  -5  -4 -12   37.16   13.41
   5  -4  13    5.31    9.80
  -5   4  13    9.34   10.42
  -5  -4 -13    5.95    4.59
  -5  -4  13   21.02    7.46
  -5  -4  13   11.50    4.74
  -5   4 -13    1.43    6.13
  -5   4 -13   22.94   10.15
  -5  -4 -13    1.58    9.67
   5  -4  14  311.33   84.47
  -5   4  14  325.23   56.78
  -5  -4 -14  293.59   75.25
  -5  -4  14  175.68   85.84
  -5  -4  14  346.19   72.35
  -5   4 -14  311.20   64.24
  -5  -4 -14  327.49   80.81
   5  -4  15  198.29   53.15
  -5   4  15  208.94   37.13
  -5  -4 -15  147.97   35.19
  -5  -4  15  131.20   58.11
  -5  -4  15  237.25   51.44
  -5   4 -15  145.94   32.87
  -5  -4 -15  176.00   47.02
   5  -4  16  190.58   55.30
  -5   4  16  274.17   50.70
  -5  -4 -16  158.83   47.39
  -5  -4  16  221.87   44.91
  -5  -4 -16  191.64   59.71
   5  -4  17   14.17    8.56
  -5   4  17   26.69   15.76
  -5  -4 -17   12.97   10.85
  -5  -4  17   12.03    6.34
  -5  -4 -17   25.75    9.28
   5  -4  18  152.65   29.18
  -5   4  18  155.44   31.41
  -5  -4  18  148.52   39.69
  -5  -4 -18  119.05   36.68
   5  -4  19   72.14   23.23
  -5   4  19   50.76   16.04
  -5  -4  19  104.85   30.91
  -5  -4 -19   83.12   27.80
   5  -4  20   58.98   15.00
  -5   4  20  110.50   27.75
  -5  -4 -20   18.79    9.86
   5  -4  21  189.31   33.50
  -5   4  21  164.82   30.08
   5  -5   0  136.40   61.35
  -5  -5   0  156.02   60.92
  -5  -5   0  162.48   63.76
   5  -5  -1  341.95  133.90
   5  -5   1  296.91  119.47
  -5  -5  -1  396.71  152.16
  -5  -5   1  289.83  115.87
  -5  -5   1  370.54  144.40
  -5  -5  -1  362.14  141.42
   5  -5  -2  414.19  153.49
   5  -5   2  402.03  155.13
  -5  -5  -2  398.52  169.80
  -5  -5   2  428.27  178.53
  -5  -5   2  394.31  155.43
  -5  -5  -2  439.64  167.66
  -5  -5  -2  499.64  180.50
   5  -5  -3   32.46   19.08
   5  -5   3   17.69   12.26
  -5  -5  -3   14.58   13.97
  -5  -5   3   31.62   17.02
  -5  -5   3   39.08   22.57
  -5  -5  -3   39.30   19.47
   5  -5  -4 1157.74  102.72
   5  -5   4 1161.27   87.06
  -5  -5  -4 1258.79  130.44
  -5  -5   4 1145.05   82.53
  -5  -5   4 1078.19  147.70
  -5  -5  -4 1150.98   81.33
   5  -5  -5   17.02   15.66
   5  -5   5   23.46   11.33
  -5  -5  -5   13.47    6.49
  -5  -5   5    3.38    7.40
  -5  -5   5   12.47   11.20
  -5  -5  -5   11.03    6.58
   5  -5  -6  423.83   82.63
   5  -5   6  506.02   41.73
  -5  -5  -6  457.96   90.55
  -5  -5   6  507.54   82.13
  -5  -5  -6  454.53   37.94
   5  -5  -7  133.44   34.87
   5  -5   7  204.29   22.80
  -5  -5  -7  165.76   39.06
  -5  -5   7  180.03   46.72
  -5  -5   7  199.14   35.02
  -5  -5  -7  172.04   21.81
   5  -5  -8   92.46   22.82
   5  -5   8  115.09   19.42
  -5  -5  -8  100.41   17.12
  -5  -5   8  105.20   33.82
  -5  -5   8  101.32   22.78
  -5  -5  -8  131.40   18.11
   5  -5  -9  111.16   21.69
   5  -5   9  112.14   16.46
  -5  -5  -9  109.24   19.19
  -5  -5   9  113.00   19.18
  -5  -5   9  129.01   21.39
  -5  -5  -9   97.53   16.17
   5  -5  10    8.68    8.48
  -5  -5 -10   -1.50   13.28
  -5  -5  10    7.46    7.46
  -5  -5  10    9.34   10.70
  -5  -5 -10   78.14   30.81
   5  -5  11  151.73   31.85
  -5   5  11  144.98   27.70
  -5  -5 -11  178.24   39.69
  -5  -5  11  143.11   43.99
  -5  -5  11   89.08   25.55
  -5   5 -11  105.71   26.01
  -5  -5 -11  124.91   44.14
   5  -5  12   15.83   12.38
  -5   5  12   27.38   17.10
  -5  -5 -12   11.27   12.44
  -5  -5  12    9.61    9.33
  -5  -5  12   16.07    9.45
  -5   5 -12    9.80    7.89
  -5  -5 -12    9.58    9.81
   5  -5  13  271.94   75.09
  -5   5  13  455.36   73.39
  -5  -5 -13  316.50   77.10
  -5  -5  13  290.28   69.15
  -5  -5  13  413.16   81.98
  -5   5 -13  312.96   84.36
  -5  -5 -13  283.25   63.63
   5  -5  14  152.84   45.10
  -5   5  14  227.47   40.74
  -5  -5 -14  177.03   46.60
  -5  -5  14  131.01   52.27
  -5  -5  14  275.96   65.29
  -5   5 -14  154.03   48.95
  -5  -5 -14  177.85   66.74
   5  -5  15   36.39   14.42
  -5   5  15   27.79   15.97
  -5  -5 -15   16.80   12.33
  -5  -5  15   29.81   15.03
  -5  -5 -15   21.13   11.34
   5  -5  16   37.61   13.86
  -5   5  16    4.03    8.70
  -5  -5 -16    6.96    6.53
  -5  -5  16   14.24    8.63
  -5  -5 -16   20.65    8.82
   5  -5  17   26.28   11.55
  -5   5  17   22.76   16.20
  -5  -5 -17   18.39   11.78
  -5  -5  17   48.90   20.71
  -5  -5 -17   11.75   10.34
   5  -5  18  171.96   46.25
  -5   5  18  231.42   38.70
  -5  -5 -18  108.66   59.11
   5  -5  19   43.66   14.07
  -5  -5 -19   71.94   28.99
   5  -6   0  419.37   60.58
  -5  -6   0  438.84   78.63
  -5  -6   0  347.76   61.35
   5  -6  -1  301.10   84.09
   5  -6   1  446.11   63.20
  -5  -6  -1  335.89   65.71
  -5  -6   1  400.78   88.46
  -5  -6   1  424.96   86.23
  -5  -6  -1  380.90   79.99
   5  -6  -2  333.83   67.13
   5  -6   2  429.23   61.82
  -5  -6  -2  386.37   89.47
  -5  -6   2  399.82   83.12
  -5  -6   2  339.31   65.01
   5  -6  -3   28.42   10.06
   5  -6   3   45.67   12.99
  -5  -6  -3   51.76   17.46
  -5  -6   3   26.81   15.13
  -5  -6   3   32.04    9.53
   5  -6  -4   74.09   22.92
   5  -6   4   75.79   18.01
  -5  -6  -4   68.30   18.51
  -5  -6   4   86.12   20.54
  -5  -6   4   95.73   23.27
  -5  -6  -4   56.80   16.33
   5  -6  -5  157.53   40.52
   5  -6   5  161.90   27.77
  -5  -6  -5  161.44   40.63
  -5  -6   5  144.28   31.71
  -5  -6   5  156.86   33.15
  -5  -6  -5  159.20   28.91
   5  -6  -6  165.47   41.12
   5  -6   6  130.85   29.57
  -5  -6  -6  161.49   36.13
  -5  -6   6  168.14   44.92
  -5  -6   6  187.77   46.99
  -5  -6  -6  186.95   45.36
   5  -6  -7  158.70   39.11
   5  -6   7  106.13   40.43
  -5  -6  -7  144.33   54.74
  -5  -6   7  168.89   44.83
  -5  -6   7  144.65   32.57
  -5  -6  -7  173.63   30.44
   5  -6  -8   97.35   28.06
   5  -6   8  156.39   29.34
  -5  -6  -8  107.82   30.12
  -5  -6   8   35.35   17.52
  -5  -6   8   80.73   17.46
  -5  -6  -8  144.43   26.99
   5  -6  -9  182.81   42.57
   5  -6   9  209.97   36.95
  -5  -6  -9  172.52   51.35
  -5  -6   9  131.77   45.27
  -5  -6   9  213.58   49.77
  -5  -6  -9  178.43   56.13
   5  -6 -10   41.84   14.90
   5  -6  10   29.17   10.96
  -5  -6 -10   61.45   21.35
  -5  -6  10   22.03    8.36
  -5  -6  10    2.30    6.81
  -5  -6 -10   35.50   12.63
   5  -6 -11   15.57    9.78
   5  -6  11   19.49    9.53
  -5  -6 -11   29.41   19.77
  -5  -6  11   25.43    8.35
  -5  -6  11   43.72   14.72
  -5  -6 -11   37.93   13.13
   5  -6 -12  124.95   41.54
   5  -6  12  191.22   35.38
  -5  -6 -12  192.37   45.58
  -5  -6  12  143.73   46.73
  -5  -6  12  202.13   43.74
  -5  -6 -12  250.91   43.21
   5  -6  13  111.55   30.01
  -5  -6 -13  102.00   29.99
  -5  -6  13   59.25   31.24
  -5  -6  13  112.08   35.79
  -5  -6 -13  271.41   57.81
   5  -6  14   20.01    9.13
  -5   6  14   -3.93   10.18
  -5  -6 -14    0.82   10.15
  -5  -6  14   23.50   11.07
  -5  -6 -14   10.43   11.58
   5  -6  15    3.36    4.18
  -5   6  15   12.33   10.97
  -5  -6 -15   -1.97    6.04
  -5  -6  15   17.26    9.01
  -5  -6 -15    7.27    7.93
   5  -6  16  114.28   24.36
  -5  -6 -16   72.11   27.63
  -5  -6 -16   59.73   23.32
  -5  -6 -17   -7.10    7.67
  -5  -6 -17    5.92    6.85
   5  -7   0   58.46   19.64
  -5  -7   0   45.78   16.31
  -5  -7   0   22.83   12.65
   5  -7  -1   73.27   19.84
   5  -7   1   44.69   16.84
  -5  -7  -1   25.29    8.76
  -5  -7   1   61.34   15.50
  -5  -7   1   17.72   10.21
   5  -7  -2  128.17   32.25
   5  -7   2  181.30   33.50
  -5  -7  -2  128.10   45.87
  -5  -7   2  160.16   40.00
  -5  -7   2  115.25   23.03
   5  -7  -3   30.02   11.87
   5  -7   3   14.22   12.59
  -5  -7  -3   33.14   17.40
  -5  -7   3   31.46   11.74
  -5  -7   3   29.96   13.88
   5  -7  -4  114.74   29.08
   5  -7   4  179.07   34.00
  -5  -7  -4  123.17   31.31
  -5  -7   4  117.90   34.41
  -5  -7   4  175.63   32.58
   5  -7  -5   78.48   22.98
   5  -7   5   68.05   18.55
  -5  -7  -5   85.15   18.19
  -5  -7   5   72.45   28.65
  -5  -7   5  106.11   28.19
   5  -7  -6  100.89   29.91
   5  -7   6   98.40   34.05
  -5  -7  -6  111.92   25.82
  -5  -7   6  130.06   40.94
  -5  -7   6  114.31   22.37
   5  -7  -7   23.68   12.43
   5  -7   7   26.28   11.01
  -5  -7  -7   20.92   15.22
  -5  -7   7   23.56   14.02
  -5  -7   7   36.42   11.53
  -5  -7  -7   44.82   15.39
   5  -7  -8   70.08   25.26
   5  -7   8   86.23   22.80
  -5  -7  -8   68.44   21.08
  -5  -7   8   70.97   22.40
  -5  -7   8   90.93   23.91
   5  -7  -9   28.01   10.47
   5  -7   9   41.16   14.47
  -5  -7  -9   24.78   14.80
  -5  -7   9   58.30   19.97
  -5  -7   9   18.77   10.44
   5  -7 -10   17.21    8.96
   5  -7  10   22.40    9.59
  -5  -7  10    7.32    4.52
  -5  -7  10   -2.79    8.36
   5  -7 -11  112.23   37.16
   5  -7  11   95.92   34.20
  -5  -7  11   84.50   30.78
  -5  -7  11   74.88   22.69
   5  -7  12   31.95   16.53
  -5  -7  12   52.52   14.93
  -5  -7  12   17.08   12.02
  -5  -7  13   69.40   18.66
   5  -8   0   45.49   14.33
   5  -8   1   23.53   10.22
   5  -8   2   16.05    9.02
  -6   0   0  483.32   34.98
  -6   0   0  524.09   80.96
  -6   0   0  470.00   26.29
  -6   0   1  859.96   60.99
  -6   0  -1  947.84   77.50
  -6   0   1  842.23   51.70
  -6   0  -1  904.94   50.86
  -6   0  -1  888.19   34.83
  -6   0   1  891.86   35.43
  -6   0   2 1422.95   76.28
  -6   0   2 1386.28   69.30
  -6   0  -2 1305.49   40.91
  -6   0  -2 1450.42   44.53
  -6   0   2 1444.20   45.62
  -6   0   3  147.04   21.62
  -6   0   3  143.22   34.70
  -6   0  -3  106.65   22.47
  -6   0  -3  141.26   18.78
  -6   0   4   15.03    5.62
  -6   0   4   16.42   16.03
  -6   0  -4   16.22    9.76
  -6   0  -4   42.33   30.03
  -6   0   5  180.21   27.87
  -6   0   5  191.71   28.41
  -6   0  -5  168.96   32.73
  -6   0  -5  147.11   22.24
  -6   0   6    7.61    7.59
  -6   0   6    8.44    7.29
  -6   0  -6   14.23    7.05
  -6   0  -6   12.85    9.36
  -6   0   7  837.53   66.14
  -6   0   7  773.69   42.96
  -6   0  -7  826.43  107.99
  -6   0  -7  654.74   45.98
  -6   0   8    7.34    6.24
  -6   0   8   16.14    8.50
  -6   0  -8   21.11    9.70
  -6   0  -8   37.84   13.54
  -6   0   9   36.97   16.75
  -6   0   9   26.41   14.84
  -6   0  -9   31.69   18.51
  -6   0  -9    9.44   11.11
  -6   0  10  537.91  205.61
  -6   0  10  440.72  168.77
  -6   0 -10  436.02  171.48
  -6   0 -10  500.96  189.49
  -6   0  11   42.87   15.43
  -6   0  11   22.94   12.29
  -6   0 -11   21.04   13.37
  -6   0 -11   11.16    7.91
  -6   0  12   21.73    9.63
  -6   0  12   46.33    9.72
  -6   0 -12   60.52   16.00
  -6   0 -12   27.34   10.92
  -6   0  13  298.64   44.13
  -6   0  13  254.88   46.54
  -6   0 -13  297.95   25.81
  -6   0 -13  273.13   44.50
  -6   0  14  100.15   20.62
  -6   0  14  107.73   25.26
  -6   0 -14  101.60   24.58
  -6   0 -14  108.71   25.49
  -6   0  15  366.95   83.16
  -6   0  15  295.95   60.78
  -6   0 -15  280.25   74.85
  -6   0 -15  293.44   71.07
  -6   0  16   -1.22    9.81
  -6   0  16   20.95   10.81
  -6   0 -16   10.14    7.62
  -6   0  17   10.75    7.87
  -6   0 -17   -3.74   10.65
  -6   0  18   24.95    8.44
  -6   0 -18    6.15    7.01
  -6   0  19   34.93   14.19
  -6   0 -19   29.93   14.62
  -6   0  20   65.41   21.56
  -6  -1   0  305.08   22.93
  -6   1   0  355.90   59.52
  -6   1   0  316.35   39.68
  -6  -1   0  257.46   45.20
  -6   1   0  327.89   22.44
  -6  -1   0  383.24   28.79
  -6  -1  -1 1634.26   47.79
  -6  -1   1 1745.69   46.47
  -6   1   1 1637.14   82.65
  -6  -1  -1 1564.72   64.40
  -6   1   1 1477.57   60.04
  -6   1  -1 1586.67   70.38
  -6  -1   1 1700.77   49.88
  -6  -1  -1 1693.80  140.36
  -6   1  -1 1593.52   57.02
  -6  -1  -1 1540.05   71.27
  -6   1   1 1748.93   46.87
  -6  -1   1 1624.45   48.57
  -6  -1  -2  472.70   29.83
  -6  -1   2  486.48   27.25
  -6   1   2  434.95   41.49
  -6  -1  -2  419.46   61.87
  -6   1   2  456.69   73.37
  -6   1  -2  404.43   60.02
  -6  -1   2  424.28   76.66
  -6  -1  -2  393.53   78.83
  -6   1  -2  447.51   26.54
  -6  -1  -2  424.73   68.07
  -6   1   2  453.71   60.63
  -6  -1   2  442.82   30.72
  -6  -1  -3   -0.77   13.13
  -6  -1   3    7.76    8.03
  -6   1   3   23.75   11.65
  -6   1   3   25.54   10.12
  -6   1  -3   28.54   12.30
  -6  -1   3   -6.90   14.70
  -6  -1  -3   22.24    7.18
  -6   1  -3   28.63   14.38
  -6  -1  -3   13.88   10.75
  -6  -1  -4  300.42   21.33
  -6  -1   4  354.09   58.12
  -6   1   4  300.97   24.18
  -6   1   4  396.98   64.64
  -6   1  -4  327.33   59.23
  -6  -1   4  341.70   43.16
  -6  -1  -4  331.27   56.53
  -6  -1  -4  357.40   27.20
  -6  -1  -5  114.98   15.77
  -6  -1   5  135.93   24.21
  -6   1   5  121.05   16.24
  -6   1   5  124.73   28.55
  -6   1  -5  126.18   38.31
  -6  -1   5  126.69   18.92
  -6  -1  -5  118.28   16.86
  -6   1  -5  118.62   19.82
  -6  -1  -5 4896.90 1935.41
  -6  -1  -6  162.54   19.54
  -6  -1   6  225.89   34.11
  -6   1   6  153.05   28.46
  -6   1   6  211.75   40.37
  -6   1  -6  188.11   27.46
  -6  -1   6  200.38   37.77
  -6  -1  -6  174.13   19.56
  -6   1  -6  189.88   28.98
  -6  -1  -6  195.68   23.32
  -6  -1  -7  190.61   20.38
  -6  -1   7  196.16   38.55
  -6   1   7  187.86   25.39
  -6   1   7  189.39   35.23
  -6   1  -7  175.46   31.30
  -6  -1   7  238.00   40.94
  -6  -1  -7  227.57   39.52
  -6   1  -7  187.59   25.65
  -6  -1  -7  190.95   28.05
  -6  -1  -8  695.76  250.90
  -6  -1   8  637.37  239.49
  -6   1   8  600.97  222.96
  -6   1   8  651.34  244.84
  -6   1  -8  581.94  223.14
  -6  -1   8  572.23  216.79
  -6  -1  -8  684.23  246.51
  -6   1  -8  575.42  223.71
  -6  -1  -8  589.13  226.71
  -6  -1  -9  406.13  147.89
  -6  -1   9  413.88  156.55
  -6   1   9  341.82  133.79
  -6   1   9  390.81  157.38
  -6   1  -9  334.39  129.17
  -6  -1   9  339.34  137.32
  -6  -1  -9  362.19  140.31
  -6   1  -9  350.41  136.04
  -6  -1  -9  379.44  146.14
  -6  -1  10 1047.17  113.65
  -6   1  10  982.32   97.27
  -6   1  10  936.06  149.27
  -6   1 -10  916.71  137.31
  -6  -1  10 1108.09   86.84
  -6  -1 -10 1055.64   76.15
  -6   1 -10 1041.53   86.15
  -6  -1 -10 1046.46   90.58
  -6  -1  11   38.50   13.11
  -6   1  11   71.98   11.78
  -6   1  11   63.49   10.80
  -6   1 -11   52.92   23.00
  -6  -1  11   78.58   13.04
  -6  -1 -11   82.48   14.79
  -6   1 -11   90.27   19.37
  -6  -1 -11   88.89   18.67
  -6  -1  12  508.73   89.66
  -6   1  12  491.43   73.67
  -6   1  12  442.17   47.45
  -6   1 -12  431.67   86.72
  -6  -1  12  372.20   93.46
  -6  -1 -12  434.84  105.64
  -6   1 -12  442.79   74.16
  -6  -1 -12  463.13   76.15
  -6  -1  13   53.55   17.44
  -6   1  13   27.75    8.02
  -6   1  13   40.22   12.88
  -6   1 -13   69.13   17.25
  -6  -1  13   66.49   19.39
  -6   1 -13   73.55   13.18
  -6  -1 -13   27.35   15.79
  -6  -1  14  112.15   24.55
  -6   1  14   88.68   25.81
  -6   1  14  118.62   30.34
  -6   1 -14   84.87   29.38
  -6  -1  14  115.62   22.51
  -6   1 -14  112.69   27.34
  -6  -1 -14  105.68   23.51
  -6  -1  15  171.78   42.00
  -6   1  15  179.99   47.44
  -6   1  15  135.29   28.76
  -6   1 -15  205.23   33.87
  -6  -1  15  167.98   29.30
  -6   1 -15  150.33   37.27
  -6  -1 -15  153.73   42.13
  -6  -1  16   45.69   17.53
  -6   1  16   83.32   18.90
  -6   1  16   38.03   13.48
  -6  -1  16   78.85   19.67
  -6   1 -16   97.29   22.25
  -6   1 -16   53.42   17.35
  -6  -1 -16   64.63   21.38
  -6  -1  17  393.75   85.09
  -6   1  17  307.64   76.89
  -6   1  17  293.34   77.23
  -6   1 -17  258.39   59.91
  -6  -1 -17  298.63   67.04
  -6  -1  18  306.78   88.36
  -6   1  18  311.67   72.22
  -6   1 -18  240.48   71.20
  -6  -1 -18  207.35   71.97
  -6  -1  19   33.91   10.72
  -6   1  19    8.59    5.48
  -6   1 -19   16.35   10.73
  -6  -1 -19   20.06    9.18
  -6   1  20  111.26   27.21
  -6   1  21   15.29    9.34
  -6  -2   0  328.87   78.74
  -6  -2   0  377.21   49.38
  -6   2   0  353.96   68.19
  -6  -2   0  407.21   59.21
  -6   2   0  464.07   26.62
  -6  -2   0  363.37   24.27
  -6  -2  -1  428.20  105.02
  -6  -2   1  432.47   98.42
  -6  -2   1  495.42   40.24
  -6  -2  -1  582.07   43.87
  -6   2   1  450.13   52.41
  -6   2   1  471.42   93.84
  -6   2  -1  404.62   79.51
  -6  -2   1  437.82   29.02
  -6  -2  -1  511.53   63.29
  -6   2  -1  523.16   26.07
  -6  -2  -1  527.63   30.81
  -6   2   1  460.73   25.03
  -6  -2   1  506.63   47.12
  -6  -2  -2  839.27   79.99
  -6  -2   2  819.38   35.34
  -6  -2   2  947.05   43.41
  -6   2   2  879.51   57.53
  -6  -2  -2  954.53   67.30
  -6   2   2  743.49   97.46
  -6   2  -2  802.13  125.65
  -6  -2   2  877.51   40.09
  -6  -2  -2  824.18   35.05
  -6   2  -2  859.84   33.06
  -6  -2  -2  952.46   38.38
  -6  -2  -3  527.49  107.75
  -6  -2   3  663.03   33.55
  -6  -2   3  616.31   87.21
  -6   2   3  702.38   30.56
  -6   2   3  562.63   62.62
  -6   2  -3  661.39   65.41
  -6  -2   3  673.60   32.87
  -6  -2  -3  605.34  101.51
  -6   2  -3  665.47   29.10
  -6  -2  -3  690.09   39.80
  -6  -2  -4  285.83   71.61
  -6  -2   4  336.03   87.36
  -6  -2   4  349.33   55.54
  -6   2   4  342.80   21.77
  -6   2   4  280.61   48.30
  -6   2  -4  337.02   48.67
  -6  -2   4  380.81   26.73
  -6  -2  -4  324.07   48.67
  -6   2  -417520.70 6366.52
  -6  -2  -4  316.15   40.67
  -6  -2  -5  242.97   43.58
  -6  -2   5  195.13   49.91
  -6  -2   5  216.77   35.19
  -6   2   5  260.87   20.81
  -6   2   5  213.49   30.16
  -6   2  -5  195.20   37.87
  -6  -2   5  201.18   21.93
  -6  -2  -5  258.41   35.81
  -6   2  -5  239.39   38.48
  -6  -2  -5  213.13   23.74
  -6  -2  -6  109.61   43.64
  -6  -2   6   90.26   39.83
  -6  -2   6  114.62   44.02
  -6   2   6  121.78   47.31
  -6   2   6  117.65   52.86
  -6   2  -6  100.27   41.42
  -6  -2   6  148.43   56.53
  -6  -2  -6  124.55   50.65
  -6   2  -6  114.79   48.48
  -6  -2  -7  248.03   98.75
  -6  -2   7  282.91  103.54
  -6  -2   7  293.92  113.25
  -6   2   7  280.10  108.39
  -6   2   7  236.20   96.48
  -6   2  -7  261.64  103.59
  -6  -2   7  345.06  126.49
  -6   2  -7  274.02  103.70
  -6  -2  -7  267.99  113.28
  -6  -2  -8  252.42   97.33
  -6  -2   8  257.74  104.88
  -6   2   8  253.80   97.98
  -6   2   8  189.57   91.41
  -6   2  -8  225.32   91.12
  -6  -2   8  241.87   89.37
  -6   2  -8  205.14   76.83
  -6  -2  -8  249.72   95.95
  -6  -2  -9   80.91   10.65
  -6  -2   9  103.01   21.51
  -6   2   9   80.27   15.06
  -6   2   9   95.79   23.38
  -6   2  -9   93.71   12.68
  -6  -2   9  105.44   22.96
  -6   2  -9  117.93   17.92
  -6  -2  -9  120.09   23.37
  -6  -2 -10  272.49   57.94
  -6  -2  10  303.33   59.72
  -6   2  10  232.37   53.22
  -6   2  10  229.07   61.67
  -6   2 -10  274.75   39.85
  -6  -2  10  336.73   35.10
  -6   2 -10  285.47   48.14
  -6  -2 -10  221.51   56.59
  -6  -2 -11   29.95   15.47
  -6  -2  11   29.60    9.66
  -6   2  11   34.72   12.94
  -6   2  11   51.42   18.24
  -6   2 -11   42.92   16.57
  -6  -2  11   32.10   10.76
  -6   2 -11   23.57    7.07
  -6  -2 -11   41.95   21.54
  -6  -2 -12   52.36   17.85
  -6  -2  12  109.45   23.43
  -6   2  12   69.95   17.78
  -6   2  12   60.24   17.64
  -6   2 -12   63.43   14.29
  -6  -2  12   55.14   17.34
  -6   2 -12   77.79   19.96
  -6  -2 -12   47.29   14.91
  -6  -2 -13   33.93   16.00
  -6  -2  13   49.07   19.80
  -6   2  13   17.25    7.23
  -6   2  13    7.97    7.14
  -6   2 -13   23.57   12.59
  -6  -2  13    7.41   13.01
  -6   2 -13   21.99   11.49
  -6  -2 -13   14.22    9.34
  -6  -2 -14   45.42   13.77
  -6  -2  14   89.79   30.69
  -6   2  14   87.16   21.94
  -6   2  14   61.06   16.42
  -6   2 -14   87.77   22.31
  -6  -2  14  112.62   23.67
  -6   2 -14  106.43   23.02
  -6  -2 -14   85.43   20.34
  -6  -2 -15   63.07   26.22
  -6  -2  15  136.43   29.14
  -6   2  15   83.46   28.47
  -6   2  15   84.64   33.38
  -6   2 -15   69.80   23.97
  -6  -2  15   66.61   27.80
  -6   2 -15   94.50   28.48
  -6  -2 -15   92.65   22.89
  -6  -2 -16  124.77   43.05
  -6  -2  16  141.29   35.08
  -6   2  16  125.78   34.30
  -6   2  16  116.87   27.53
  -6   2 -16  131.33   29.37
  -6  -2 -16  137.01   34.61
  -6  -2  17  131.95   34.70
  -6   2  17   94.61   23.35
  -6   2  17   99.40   23.65
  -6   2 -17   99.44   36.41
  -6  -2 -17  174.58   39.04
  -6  -2  18  156.14   42.10
  -6   2  18  122.97   32.56
  -6   2 -18  108.78   29.59
  -6  -2 -18  136.65   37.36
  -6   2  19   26.28   10.16
  -6   2 -19   -0.53    9.46
  -6   2  20   47.32   13.80
  -6   2  21   39.07   12.86
   6  -3   0  449.37  173.50
  -6  -3   0  430.08  180.57
  -6  -3   0  592.50  217.66
  -6   3   0  433.03  175.84
  -6   3   0  528.59  194.87
  -6  -3   0  531.93  208.18
   6  -3  -1  242.59   88.01
   6  -3   1  223.98   81.42
  -6  -3  -1  255.09   94.86
  -6  -3   1  163.97   88.53
  -6  -3   1  237.12   88.55
  -6  -3  -1  226.74   93.37
  -6   3   1  203.80   81.60
  -6   3  -1  190.97   74.64
  -6   3  -1  212.80   85.26
  -6  -3  -1  232.19   86.18
  -6   3   1  238.89   87.70
   6  -3  -2  244.42   93.83
   6  -3   2  364.87  131.64
  -6  -3  -2  288.49  109.35
  -6  -3   2  270.83  120.95
  -6  -3   2  362.95  132.37
  -6  -3  -2  335.99  132.13
  -6   3   2  261.44  109.33
  -6   3  -2  278.89  112.51
  -6   3  -2  264.24  101.57
  -6  -3  -2  346.04  126.41
   6  -3  -3  308.78  121.86
   6  -3   3  350.92  126.62
  -6  -3  -3  339.40  148.38
  -6  -3   3  380.57  170.48
  -6  -3   3  416.14  159.55
  -6   3   3  327.30  132.92
  -6   3   3  358.73  141.14
  -6   3  -3  399.65  156.88
  -6   3  -3  336.43  131.78
  -6  -3  -3  374.67  149.51
   6  -3  -4   13.47   10.94
   6  -3   4   38.95   16.96
  -6  -3  -4   31.48   16.19
  -6  -3   4   30.97   16.85
  -6  -3   4   71.60   29.12
  -6   3   4   73.24   30.52
  -6   3   4   51.25   24.91
  -6   3  -4   42.92   22.74
  -6   3  -4   49.06   24.29
  -6  -3  -4   26.80   16.07
   6  -3  -5  258.00   53.35
   6  -3   5  268.30   52.91
  -6  -3  -5  277.75   58.30
  -6  -3   5  246.53   67.60
  -6  -3   5  310.42   41.46
  -6   3   5  268.49   24.75
  -6   3   5  318.90   52.28
  -6   3  -5  259.66   60.18
  -6   3  -5  278.02   46.48
  -6  -3  -5  338.49   65.71
   6  -3  -6   54.81   17.20
   6  -3   6   74.86   16.89
  -6  -3  -6   96.04   26.63
  -6  -3   6   70.40   19.13
  -6  -3   6  115.07   17.79
  -6   3   6  111.70   16.50
  -6   3   6   90.92   20.32
  -6   3  -6   85.77   20.27
  -6   3  -6   95.61   17.81
  -6  -3  -6  120.70   22.61
   6  -3  -7  135.31   38.79
   6  -3   7  175.37   37.89
  -6  -3  -7  188.68   42.89
  -6  -3   7  156.72   54.66
  -6  -3   7  219.88   29.05
  -6   3   7  183.29   19.97
  -6   3   7  190.75   36.80
  -6   3  -7  176.88   32.69
  -6   3  -7  203.12   27.77
  -6  -3  -7  236.19   33.51
   6  -3  -8  150.22   36.40
  -6  -3  -8  226.23   33.16
  -6  -3   8  140.77   57.26
  -6  -3   8  206.88   27.19
  -6   3   8  199.15   38.76
  -6   3   8  162.62   35.11
  -6   3  -8  173.23   38.10
  -6   3  -8  200.03   25.09
  -6  -3  -8  265.46   53.77
   6  -3  -9  145.05   35.57
  -6  -3  -9  246.20   28.14
  -6  -3   9  194.02   23.25
  -6  -3   9  241.82   34.82
  -6   3   9  206.68   34.34
  -6   3   9  191.78   45.91
  -6   3  -9  208.76   54.19
  -6   3  -9  209.96   31.02
  -6  -3  -9  200.13   29.17
  -6  -3 -10   -1.69   11.10
  -6  -3  10   16.09    9.68
  -6  -3  10   26.99   17.47
  -6   3  10    8.33    6.72
  -6   3  10   13.26   10.48
  -6   3 -10   22.64    7.99
  -6   3 -10    3.15    9.59
  -6  -3 -10   16.18    9.33
  -6  -3 -11   83.03   30.60
  -6  -3  11   81.70   17.82
  -6  -3  11   97.77   21.95
  -6   3  11   71.33   16.53
  -6   3  11   58.34   26.81
  -6   3 -11   91.78   22.44
  -6   3 -11   91.79   16.47
  -6  -3 -11   81.45   20.84
  -6  -3 -12  180.75   47.86
  -6  -3  12  211.09   48.27
  -6   3  12  164.05   42.16
  -6   3  12  187.87   43.30
  -6   3 -12  174.52   42.86
  -6   3 -12  161.90   37.59
  -6  -3 -12  190.04   38.81
  -6  -3 -13    0.44    6.80
  -6  -3  13   24.58   12.70
  -6   3  13   22.75   11.47
  -6   3  13   27.38   12.92
  -6   3 -13   10.39    9.22
  -6   3 -13   11.68    6.36
  -6  -3 -13    2.42    6.27
  -6  -3 -14   33.22    9.44
  -6  -3  14   25.38   12.43
  -6   3  14   13.10    6.43
  -6   3  14   13.02    9.38
  -6   3 -14   12.99    4.24
  -6   3 -14   18.91    9.81
  -6  -3 -14   17.86    9.56
  -6  -3 -15  273.38   81.36
  -6  -3  15  393.48   94.63
  -6   3  15  300.16   77.44
  -6   3  15  251.93   64.61
  -6   3 -15  311.83   87.73
  -6   3 -15  298.45   67.16
  -6  -3 -15  337.80   81.81
  -6  -3 -16   41.05   13.82
  -6  -3  16   33.53   14.60
  -6   3  16   27.98    9.37
  -6   3  16    6.37   15.39
  -6   3 -16   20.53    8.68
  -6  -3 -16   48.41   18.51
  -6  -3  17  141.43   32.23
  -6   3  17   76.77   36.56
  -6   3 -17  127.83   35.03
  -6  -3 -17   77.55   31.24
  -6   3 -18   49.36   21.30
   6  -4   0   -3.60    6.01
  -6  -4   0    0.67    9.25
  -6  -4   0   18.80   13.69
  -6   4   0   13.57    8.36
   6  -4  -1  967.46   72.50
   6  -4   1  933.64   68.26
  -6  -4  -1  853.79   74.72
  -6  -4   1  886.43  103.65
  -6  -4   1  905.36   69.02
  -6  -4  -1  948.88   77.34
  -6   4  -1  852.77   61.15
  -6  -4  -1  920.78   76.40
   6  -4  -2   11.26    3.78
   6  -4   2    1.38    5.80
  -6  -4  -2   19.98   13.07
  -6  -4   2  -11.98   15.91
  -6  -4   2   12.13   12.24
  -6  -4  -2    4.30   10.66
  -6   4  -2   14.48    9.36
  -6  -4  -2    9.54   11.93
   6  -4  -3  206.92   40.55
   6  -4   3  266.17   19.28
  -6  -4  -3  209.98   52.80
  -6  -4   3  221.13   47.44
  -6  -4   3  247.09   45.16
  -6   4  -3  202.49   34.05
  -6  -4  -3  339.29   30.15
   6  -4  -4   53.78   12.71
   6  -4   4   85.52   12.65
  -6  -4  -4   60.35   24.24
  -6  -4   4   90.09   21.81
  -6  -4   4  116.19   17.10
  -6   4  -4   95.91   19.63
  -6   4  -4   74.11   16.40
  -6  -4  -4   88.59   19.24
   6  -4  -5  519.68   96.62
   6  -4   5  617.17   54.81
  -6  -4  -5  567.38  141.79
  -6  -4   5  695.76   74.07
  -6  -4   5  748.95   67.02
  -6   4  -5  597.89  107.58
  -6   4  -5  842.99   45.29
  -6  -4  -5  721.03   41.26
   6  -4  -6   26.93    6.30
   6  -4   6   35.42   11.56
  -6  -4  -6    8.05   17.13
  -6  -4   6   47.74   12.89
  -6  -4   6   24.96    8.35
  -6   4  -6   59.90   15.15
  -6   4  -6   32.89   11.53
  -6  -4  -6   50.12   12.99
   6  -4  -7  406.51   74.10
   6  -4   7  442.83   89.40
  -6  -4  -7  373.26  109.22
  -6  -4   7  345.22  101.76
  -6  -4   7  482.15   87.04
  -6   4  -7  402.87   79.80
  -6   4  -7  377.29   75.14
  -6  -4  -7  419.84  101.67
   6  -4  -8   71.52   25.94
   6  -4   8   92.75   21.99
  -6  -4  -8  110.11   21.31
  -6  -4   8   84.35   32.16
  -6  -4   8  124.74   25.96
  -6   4  -8   70.66   20.54
  -6   4  -8   95.22   22.47
  -6  -4  -8  134.98   25.45
   6  -4  -9   97.73   32.47
   6  -4   9  134.81   33.29
  -6  -4  -9  137.46   38.18
  -6  -4   9  131.50   43.16
  -6  -4   9  144.66   29.58
  -6   4  -9  118.85   27.19
  -6   4  -9  101.86   28.16
  -6  -4  -9  238.26   42.35
   6  -4 -10   21.07   10.70
   6  -4  10   32.00   10.16
  -6  -4 -10   26.98   12.02
  -6  -4  10   24.21   10.41
  -6  -4  10   61.68   16.11
  -6   4 -10   30.07   10.69
  -6   4 -10   23.43   13.11
  -6  -4 -10   69.52   25.66
   6  -4  11  116.35   47.57
  -6  -4 -11  196.96   49.50
  -6  -4  11   96.38   47.35
  -6  -4  11  200.58   42.50
  -6   4 -11  112.33   41.25
  -6   4 -11  159.76   33.58
  -6  -4 -11  165.86   38.36
   6  -4  12    6.05    4.54
  -6   4  12   11.85    8.93
  -6  -4 -12   -0.55   10.98
  -6  -4  12   18.06   15.75
  -6  -4  12    0.79    6.11
  -6   4 -12   18.27    8.39
  -6   4 -12   16.24   11.22
  -6  -4 -12    4.43    6.31
  -6  -4 -13   57.37   16.83
  -6  -4  13   14.19    7.45
  -6  -4  13   10.27    7.91
  -6   4 -13   14.91    6.65
  -6   4 -13   39.11   12.26
  -6  -4 -13   39.39   13.30
  -6  -4 -14   18.19    7.76
  -6  -4  14   -0.68    6.23
  -6  -4  14   21.33   12.72
  -6   4  14    8.31   10.18
  -6   4 -14   14.22    6.03
  -6   4 -14    5.21   10.20
  -6  -4 -14   20.65    7.92
  -6  -4 -15   82.82   21.16
  -6  -4  15  143.67   35.08
  -6   4  15  104.62   34.50
  -6   4 -15  134.56   34.51
  -6  -4 -15  102.58   42.23
  -6  -4 -16   13.46   11.22
  -6   4  16   -2.12    8.93
  -6   4 -16   20.02    9.34
  -6  -4 -16    9.25    7.64
  -6  -4 -17   40.94   18.59
  -6   4 -17   38.75   19.90
   6  -5   0   27.69   12.40
  -6  -5   0   20.96   12.55
  -6  -5   0   21.15   16.07
   6  -5  -1  217.45   48.78
   6  -5   1  202.42   54.65
  -6  -5  -1  229.98   50.27
  -6  -5   1  246.04   58.33
  -6  -5   1  284.35   51.24
  -6  -5  -1  216.08   52.25
   6  -5  -2   17.51   11.29
   6  -5   2   24.35    7.12
  -6  -5  -2  -10.08   12.94
  -6  -5   2   18.24   10.11
  -6  -5   2   16.49   11.87
  -6  -5  -2   25.27   12.86
   6  -5  -3  118.53   24.06
   6  -5   3  122.15   23.61
  -6  -5  -3  110.21   37.02
  -6  -5   3  109.27   38.95
  -6  -5   3  151.50   29.51
  -6  -5  -3  118.91   26.44
   6  -5  -4   96.87   27.04
   6  -5   4  112.21   30.49
  -6  -5  -4  126.37   35.70
  -6  -5   4  135.62   37.05
  -6  -5   4  134.10   29.79
  -6  -5  -4  179.93   32.93
   6  -5  -5   74.52   21.03
   6  -5   5   64.71   21.07
  -6  -5  -5   76.12   23.12
  -6  -5   5   87.79   26.47
  -6  -5   5   80.32   14.56
  -6  -5  -5   85.12   18.52
   6  -5  -6   80.82   18.15
   6  -5   6   74.15   29.11
  -6  -5  -6   60.16   21.05
  -6  -5   6  104.83   23.32
  -6  -5   6   90.30   18.03
  -6  -5  -6   82.10   17.87
   6  -5  -7  190.44   48.65
   6  -5   7  205.57   67.12
  -6  -5  -7  235.10   58.68
  -6  -5   7  188.00   64.98
  -6  -5   7  269.67   61.69
  -6  -5  -7  300.56   50.42
   6  -5  -8  237.06   66.00
   6  -5   8  246.50   74.01
  -6  -5  -8  240.35   59.50
  -6  -5   8  180.35   74.51
  -6  -5   8  338.83   70.31
  -6   5  -8  235.00   63.73
  -6  -5  -8  265.34   72.74
   6  -5  -9  124.10   35.19
   6  -5   9  141.16   39.15
  -6  -5  -9  193.95   46.90
  -6  -5   9  130.60   45.68
  -6  -5   9  196.82   43.94
  -6   5  -9  135.76   46.77
  -6  -5  -9  236.73   41.69
   6  -5 -10  125.46   50.51
   6  -5  10  139.64   44.85
  -6  -5 -10  193.10   52.72
  -6  -5  10  148.61   61.88
  -6  -5  10  257.73   49.92
  -6   5 -10  176.13   48.08
  -6  -5 -10  310.56   52.82
   6  -5 -11    6.12    4.89
   6  -5  11   34.99   11.67
  -6  -5 -11   14.99    9.65
  -6  -5  11   11.01    5.83
  -6  -5  11   20.39    9.49
  -6   5 -11   24.63   10.14
  -6  -5 -11   24.60   10.90
   6  -5 -12   27.17   19.02
   6  -5  12   67.47   17.66
  -6  -5 -12   65.82   18.14
  -6  -5  12   28.23   14.72
  -6  -5  12   37.97   11.07
  -6   5 -12   23.55   13.86
  -6  -5 -12  193.14   49.50
   6  -5 -13   16.71    5.76
  -6  -5 -13   15.50    9.60
  -6  -5  13    1.45    8.89
  -6  -5  13    9.08   11.86
  -6   5 -13   16.70    7.65
  -6  -5 -13   26.38   12.69
  -6  -5 -14   86.39   34.79
  -6  -5 -14  119.42   36.80
  -6  -5 -15  202.76   50.55
  -6  -5 -15  182.83   68.82
  -6  -5 -16   18.44    7.94
   6  -6   0  168.48   45.36
  -6  -6   0  172.04   45.08
  -6  -6   0  160.11   38.42
   6  -6  -1   43.40   13.10
   6  -6   1   32.52   10.63
  -6  -6  -1   52.40   21.04
  -6  -6   1   32.75    8.27
  -6  -6   1   47.11   21.13
  -6  -6  -1   49.43   20.52
   6  -6  -2   89.98   20.46
   6  -6   2   95.44   23.49
  -6  -6  -2   85.03   26.51
  -6  -6   2   76.41   26.27
  -6  -6   2  113.99   27.96
   6  -6  -3   18.70   10.07
   6  -6   3   96.40   20.96
  -6  -6  -3   47.23   15.24
  -6  -6   3   49.79   22.31
  -6  -6   3  108.00   26.56
   6  -6  -4   77.32   19.63
   6  -6   4  104.81   21.18
  -6  -6  -4   96.27   28.27
  -6  -6   4   86.76   23.60
  -6  -6   4  103.92   26.70
   6  -6  -5  149.14   44.91
   6  -6   5  229.73   44.92
  -6  -6  -5  144.82   52.78
  -6  -6   5  154.38   46.81
  -6  -6   5  138.75   33.25
  -6  -6  -5  166.20   46.53
   6  -6  -6   26.83   14.71
   6  -6   6   63.36   16.50
  -6  -6  -6   16.67   10.50
  -6  -6   6   47.65   22.06
  -6  -6   6   69.75   18.55
  -6  -6  -6   25.71   10.09
   6  -6  -7   19.33    9.68
   6  -6   7   32.24   10.40
  -6  -6  -7   43.37   18.22
  -6  -6   7   12.56    8.41
  -6  -6  -7   43.62   14.63
   6  -6  -8  131.49   35.74
   6  -6   8  215.79   51.33
  -6  -6  -8  188.22   50.76
  -6  -6   8  137.91   48.25
  -6  -6   8  230.97   51.76
  -6  -6  -8  236.76   38.17
   6  -6  -9   10.83    5.70
   6  -6   9   12.85    3.66
  -6  -6  -9   11.08    7.90
  -6  -6   9   12.99    7.19
  -6  -6   9    3.44    7.49
  -6  -6  -9   15.09   10.17
   6  -6 -10  153.92   43.14
   6  -6  10  141.35   72.90
  -6  -6  10  133.76   62.21
  -6  -6  10  187.40   42.63
  -6  -6 -10  269.58   43.12
   6  -6 -11   35.21   15.83
   6  -6  11   48.34   13.89
  -6  -6  11   71.14   23.32
  -6   6 -11   29.57   17.43
  -6  -6 -11   32.15   17.50
   6  -6 -12   16.52    5.76
   6  -6  12   -3.07    6.23
  -6  -6  12    2.71    5.90
  -6   6 -12   13.22    9.20
  -6  -6 -12    3.44    7.27
   6  -6 -13   11.13    7.31
   6  -6  13   18.91    9.49
  -6  -6  13    5.42    4.82
  -6  -6 -13    9.36    6.45
   6  -7   0   22.57    9.52
   6  -7  -1    5.47    6.34
   6  -7   1   15.94    9.77
  -6  -7   1   15.79   10.87
   6  -7  -2   13.12    6.86
   6  -7   2    5.73    7.48
  -6  -7   2    0.06    8.57
   6  -7   3   27.92   11.61
  -6  -7   3   40.60   16.90
   6  -7  -4   34.67   12.71
   6  -7   4   38.68   12.64
  -6  -7   4   21.29   11.72
   6  -7  -5   92.42   35.79
   6  -7   5  100.62   21.36
  -6  -7   5  116.02   28.93
   6  -7  -6    7.09    6.51
   6  -7   6   11.85    7.37
  -6  -7   6   15.03    9.61
   6  -7  -7    6.13    8.68
   6  -7   7   22.92    8.26
  -7   0   0   -1.13    7.03
  -7   0   0   10.03    8.92
  -7   0   0   10.98   11.57
  -7   0   1  100.12   19.58
  -7   0   1  109.92   22.63
  -7   0  -1   66.90   24.09
  -7   0  -1  137.76   24.41
  -7   0   1  141.93   23.51
  -7   0   2  242.21   39.91
  -7   0   2  226.97   42.02
  -7   0  -2  280.10   39.29
  -7   0  -2  212.56   33.88
  -7   0   3  334.32   59.96
  -7   0   3  362.35   48.24
  -7   0  -3  321.40   46.95
  -7   0  -3  348.68   47.13
  -7   0   4  418.84   52.08
  -7   0   4  426.38   70.46
  -7   0  -4  425.81   75.82
  -7   0  -4  544.30   37.43
  -7   0   5  189.97   23.37
  -7   0   5  165.19   24.92
  -7   0  -5  170.52   34.33
  -7   0  -5  178.71   25.11
  -7   0   6   59.49   12.99
  -7   0   6   44.42   19.64
  -7   0  -6   47.94   12.65
  -7   0   7   23.20   11.64
  -7   0   7   25.68    7.82
  -7   0  -7   14.92    6.35
  -7   0  -7   28.52   28.41
  -7   0   8  393.65   82.97
  -7   0   8  418.56   95.61
  -7   0  -8  303.78   79.14
  -7   0  -8  331.02   62.63
  -7   0   9  364.63   87.28
  -7   0   9  342.10   68.00
  -7   0  -9  363.11   62.09
  -7   0  -9  404.34   85.04
  -7   0  10    6.27    9.28
  -7   0  10   11.29   10.29
  -7   0 -10   10.94    9.89
  -7   0 -10    2.99    9.63
  -7   0  11  327.33   63.06
  -7   0 -11  302.66   76.23
  -7   0 -11  350.56   76.51
  -7   0  12   26.55   12.02
  -7   0 -12   29.28   13.24
  -7   0 -12   41.86   16.50
  -7   0  13   25.99    9.29
  -7   0  13   12.08    7.63
  -7   0 -13   13.67    7.27
  -7   0 -13   -7.22   10.71
  -7   0  14   11.46    5.11
  -7   0  14   14.68   11.48
  -7   0 -14    7.75    5.96
  -7   0 -14   14.14   10.46
  -7   0  15   71.12   20.68
  -7   0  15   64.78   22.08
  -7   0 -15   91.08   19.17
  -7   0  16   18.36   13.15
  -7   0  16   38.10   15.13
  -7  -1   0   10.93    6.39
  -7   1   0  -12.29   13.81
  -7  -1   0   -0.41   13.89
  -7   1   0   -0.78   10.79
  -7  -1   0    6.75   13.12
  -7  -1   1  343.37   43.39
  -7   1   1  263.91   62.65
  -7  -1  -1  282.31   61.27
  -7   1   1  251.51   55.11
  -7   1  -1  260.50   54.51
  -7  -1   1  303.14   54.92
  -7  -1  -1  244.43   34.50
  -7   1  -1  327.31   28.91
  -7  -1  -1  337.69   31.01
  -7   1   1  219.46   28.05
  -7  -1   1  268.75   38.22
  -7  -1   2  238.89   33.63
  -7   1   2  182.97   44.41
  -7   1   2  223.80   36.19
  -7   1  -2  201.65   43.85
  -7  -1   2  209.89   33.20
  -7  -1  -2  284.22   28.70
  -7   1  -2  216.99   31.03
  -7  -1  -2  227.46   25.97
  -7  -1   3  174.34   25.99
  -7   1   3  129.87   22.70
  -7   1   3  115.43   22.43
  -7   1  -3   88.35   11.22
  -7  -1   3  120.61   23.17
  -7  -1  -3  109.25   21.30
  -7   1  -3  128.49   23.16
  -7  -1  -3  143.95   25.43
  -7  -1   4  261.58   25.46
  -7   1   4  246.84   52.53
  -7   1   4  208.77   35.68
  -7   1  -4  244.14   44.73
  -7  -1   4  210.27   41.29
  -7  -1  -4  285.66   31.63
  -7   1  -4  303.61   29.46
  -7  -1  -4  203.70   33.96
  -7  -1   5   15.29   13.63
  -7   1   5   22.08    9.40
  -7   1   5   10.97    4.83
  -7   1  -5   -2.89   10.63
  -7  -1   5   26.13   14.21
  -7  -1  -5    9.61   12.00
  -7   1  -5   53.78   18.05
  -7  -1  -5   27.11    9.88
  -7  -1   6  143.41   30.97
  -7   1   6  125.74   23.07
  -7   1   6  126.89   25.74
  -7   1  -6   88.00   25.93
  -7  -1   6   96.36   19.10
  -7  -1  -6  113.33   23.84
  -7   1  -6  119.67   30.96
  -7  -1  -6  106.44   24.63
  -7  -1   7   15.75    8.08
  -7   1   7   29.84   11.45
  -7   1   7   38.02   12.40
  -7   1  -7   28.19    9.25
  -7  -1   7   25.55   18.32
  -7  -1  -7   68.07   19.49
  -7   1  -7   35.32   23.76
  -7  -1  -7   51.11   21.40
  -7  -1   8  303.75   58.40
  -7   1   8  255.12   57.87
  -7   1   8  304.03   60.65
  -7   1  -8  232.33   58.11
  -7  -1   8  225.28   59.27
  -7  -1  -8  283.12   65.02
  -7   1  -8  271.49   57.22
  -7  -1  -8  489.04   79.49
  -7  -1   9  112.43   25.40
  -7   1   9   69.26   23.09
  -7   1   9  113.81   25.88
  -7   1  -9   90.55   19.95
  -7  -1   9   93.09   25.41
  -7  -1  -9   76.56   21.99
  -7   1  -9   92.49   18.44
  -7  -1  -9   90.84   20.41
  -7  -1  10  125.47   42.54
  -7   1  10   93.55   22.94
  -7   1  10   77.38   23.82
  -7   1 -10   80.21   28.63
  -7  -1  10  157.81   37.45
  -7  -1 -10  103.34   24.51
  -7   1 -10   96.43   20.79
  -7  -1 -10  101.42   26.09
  -7  -1  11   99.74   35.34
  -7   1  11  133.99   30.75
  -7   1  11  119.93   32.46
  -7   1 -11  131.20   35.37
  -7  -1  11  194.51   38.48
  -7  -1 -11  159.52   33.32
  -7   1 -11  154.45   36.04
  -7  -1 -11  164.20   39.28
  -7  -1  12    9.27    8.49
  -7   1  12    8.39    5.26
  -7   1  12   -0.30   10.72
  -7   1 -12    7.20    7.92
  -7  -1  12    4.00   10.44
  -7   1 -12   11.43   10.70
  -7  -1 -12    4.11   11.06
  -7  -1  13   85.25   30.78
  -7   1  13   21.96    7.30
  -7   1  13   59.32   16.16
  -7   1 -13   23.92   10.13
  -7  -1  13   27.30   12.28
  -7   1 -13   86.65   22.74
  -7  -1 -13   81.02   21.90
  -7  -1  14  101.35   31.22
  -7   1  14  132.04   36.42
  -7   1  14  103.10   36.43
  -7   1 -14   99.72   22.50
  -7  -1  14  162.56   35.22
  -7   1 -14  132.05   36.28
  -7  -1 -14  134.34   35.94
  -7  -1  15   35.57   11.13
  -7   1  15   21.14    6.15
  -7   1  15   31.17   13.27
  -7   1 -15   15.86    9.36
  -7  -1  15   24.95   13.98
  -7   1 -15   19.14   11.19
  -7   1  16  237.07   61.50
  -7   1  16  185.23   54.85
  -7   1  17    4.62    7.54
  -7  -2   0  961.06  139.77
  -7  -2   0 1058.04  164.38
  -7   2   0  796.06  161.58
  -7  -2   0  856.12  181.18
  -7   2   0  798.25  148.22
  -7  -2   0 1118.62  161.67
  -7  -2  -1  293.06   55.40
  -7  -2   1  441.15   65.34
  -7  -2   1  450.98   66.87
  -7  -2  -1  389.11   75.46
  -7   2   1  295.75   61.30
  -7   2  -1  313.48   58.79
  -7  -2   1  335.18   52.64
  -7  -2  -1  328.32   78.92
  -7   2  -1  360.88   54.11
  -7  -2  -1  422.14   62.28
  -7  -2  -2  103.15   22.59
  -7  -2   2  111.73   27.07
  -7  -2   2  141.35   30.85
  -7   2   2  163.12   40.74
  -7   2  -2  127.36   23.50
  -7  -2   2  132.13   26.15
  -7  -2  -2  133.02   29.23
  -7   2  -2  162.40   35.23
  -7  -2  -2  186.20   32.67
  -7  -2  -3   14.96   10.43
  -7  -2   3   14.89    6.72
  -7   2   3   -0.48    8.32
  -7   2   3   21.95    8.85
  -7   2  -3   45.60   15.80
  -7  -2   3   34.70   16.20
  -7  -2  -3   20.42   14.23
  -7   2  -3    8.68    8.21
  -7  -2  -3   34.51   19.36
  -7  -2  -4  158.96   35.99
  -7  -2   4  226.51   38.97
  -7   2   4  154.11   37.95
  -7   2   4  141.42   35.57
  -7   2  -4  160.51   44.06
  -7  -2   4  208.71   47.03
  -7  -2  -4  182.96   41.77
  -7   2  -4  175.89   32.27
  -7  -2  -4  183.35   33.21
  -7  -2  -5    5.16   10.44
  -7  -2   5   36.27   13.59
  -7   2   5    5.35    8.53
  -7   2   5    2.14    8.29
  -7   2  -5   10.46    7.22
  -7  -2   5   13.48    6.70
  -7  -2  -5   -4.56   12.34
  -7   2  -5   35.35   12.02
  -7  -2  -5   12.43    9.52
  -7  -2  -6  195.51   55.37
  -7  -2   6  174.66   39.94
  -7   2   6  150.77   41.77
  -7   2   6  144.67   35.19
  -7   2  -6  201.52   47.44
  -7  -2   6  200.58   40.67
  -7  -2  -6  168.93   46.53
  -7   2  -6  292.24   48.22
  -7  -2  -6  148.11   32.74
  -7  -2  -7   14.74    8.55
  -7  -2   7   31.59   13.06
  -7   2   7   22.33    7.29
  -7   2   7   35.28   10.97
  -7   2  -7   19.92    9.49
  -7  -2   7   15.88    8.04
  -7   2  -7   23.01   23.02
  -7  -2  -7   31.38   16.16
  -7  -2  -8  217.88   48.36
  -7  -2   8  211.64   42.48
  -7   2   8  228.96   40.03
  -7   2   8  174.82   42.77
  -7   2  -8  205.59   43.71
  -7  -2   8  320.59   51.93
  -7   2  -8  192.97   47.01
  -7  -2  -8  367.14   58.31
  -7  -2  -9   30.50   13.32
  -7  -2   9   25.31   13.08
  -7   2   9   28.82    9.18
  -7   2   9   51.94   16.33
  -7   2  -9   26.09   10.23
  -7  -2   9   24.13    8.50
  -7   2  -9   35.94   14.61
  -7  -2  -9   79.00   29.95
  -7  -2 -10   59.03   16.22
  -7  -2  10   84.23   21.78
  -7   2  10   58.67   17.03
  -7   2  10   99.34   30.84
  -7   2 -10   68.33   17.69
  -7  -2  10   93.41   23.10
  -7   2 -10   39.52   14.96
  -7  -2 -10   92.94   22.77
  -7  -2 -11   26.22   16.32
  -7  -2  11   52.08   19.18
  -7   2  11   41.04   14.69
  -7   2  11   24.15   11.89
  -7   2 -11   34.35   13.09
  -7  -2  11   22.79   17.39
  -7   2 -11   12.74    8.43
  -7  -2 -11   33.80   15.38
  -7  -2  12   31.22   15.95
  -7   2  12   16.98   11.54
  -7   2  12   54.85   14.20
  -7   2 -12   27.46   12.11
  -7  -2  12   15.35   11.64
  -7   2 -12   68.07   20.02
  -7  -2 -12   39.60   18.21
  -7  -2  13   31.55   12.58
  -7   2  13  -14.41    6.41
  -7   2  13    5.78   10.71
  -7   2 -13   16.48    6.32
  -7  -2  13    4.83   10.50
  -7   2 -13   -0.87    5.41
  -7  -2 -13   16.54   10.45
  -7   2  14   76.48   16.82
  -7   2  14   36.80   13.81
  -7   2 -14  100.11   29.16
  -7  -2  14  146.89   30.02
  -7   2 -14   81.97   23.56
  -7   2  15   10.35    6.50
  -7   2  15   -4.79    9.24
  -7   2 -15   -2.78    9.14
  -7   2  16   15.77    8.50
  -7   2  16   17.45    7.96
  -7   2  17   12.91   11.16
  -7  -3   0   12.48    9.81
  -7  -3   0   29.84   17.03
  -7   3   0   18.30   10.99
  -7   3   0   58.13   16.48
  -7  -3  -1  412.98  122.44
  -7  -3   1  450.45  137.20
  -7  -3   1  540.22   98.79
  -7  -3  -1  536.11   99.28
  -7   3   1  412.79   90.80
  -7   3  -1  438.74   76.83
  -7   3  -1  587.96   87.11
  -7  -3  -1  619.66   93.31
  -7  -3  -2  224.24   76.65
  -7  -3   2  214.89   67.86
  -7  -3   2  289.65   62.13
  -7   3   2  237.73   63.32
  -7   3  -2  208.33   44.68
  -7   3  -2  316.30   50.17
  -7  -3  -2  330.09   53.91
  -7  -3  -3   84.42   22.90
  -7  -3   3   63.16   15.40
  -7  -3   3   28.22   13.43
  -7   3   3   36.50   17.76
  -7   3  -3   28.13   11.75
  -7   3  -3   90.06   22.00
  -7  -3  -3   42.46   13.79
  -7  -3  -4  154.86   35.20
  -7  -3   4   99.92   35.96
  -7  -3   4  198.14   36.63
  -7   3   4  151.19   36.38
  -7   3  -4  112.84   31.45
  -7   3  -4  123.74   27.02
  -7  -3  -4  166.08   32.83
  -7  -3  -5  168.43   32.35
  -7  -3   5   91.06   33.23
  -7  -3   5  115.01   25.34
  -7   3   5   83.26   26.73
  -7   3   5  120.54   29.53
  -7   3  -5  129.23   34.25
  -7   3  -5  119.34   28.62
  -7  -3  -5  135.61   28.37
  -7  -3  -6  191.13   41.31
  -7  -3   6  139.54   70.22
  -7  -3   6  256.14   48.52
  -7   3   6  220.50   40.11
  -7   3   6  173.66   35.69
  -7   3  -6  152.46   43.63
  -7   3  -6  197.25   37.85
  -7  -3  -6  133.90   37.30
  -7  -3  -7  221.40   47.39
  -7  -3   7  239.08   41.08
  -7  -3   7  267.43   53.37
  -7   3   7  163.59   55.65
  -7   3   7  211.70   53.61
  -7   3  -7  181.55   49.90
  -7  -3  -7  263.10   47.39
  -7  -3  -8   77.65   23.37
  -7  -3   8  146.36   29.30
  -7  -3   8  136.20   33.76
  -7   3   8   79.18   24.30
  -7   3   8   59.62   22.77
  -7   3  -8   86.16   28.29
  -7   3  -8  115.94   30.64
  -7  -3  -8  137.95   30.39
  -7  -3  -9  172.22   55.81
  -7  -3   9  285.91   62.37
  -7   3   9  227.99   58.97
  -7   3   9  173.97   49.07
  -7   3  -9  229.08   57.98
  -7   3  -9  218.01   49.23
  -7  -3  -9  303.61   57.41
  -7  -3 -10   40.94   17.64
  -7  -3  10  118.27   25.07
  -7   3  10  107.38   21.15
  -7   3 -10   90.95   24.59
  -7   3 -10  106.80   22.29
  -7  -3 -10  184.59   37.41
  -7  -3 -11  132.26   71.23
  -7  -3  11  224.42   59.47
  -7   3  11  208.96   55.60
  -7   3 -11  221.53   53.71
  -7   3 -11  249.35   60.90
  -7  -3 -11  566.95  137.29
  -7  -3 -12   13.56   10.07
  -7  -3  12   -4.10   11.34
  -7   3  12   -4.43   10.66
  -7   3 -12   14.52   10.36
  -7   3 -12   10.35    9.33
  -7  -3 -12   18.14   14.32
  -7  -3 -13   44.02   14.47
  -7   3  13   28.73   19.69
  -7   3 -13   50.30   17.54
  -7   3 -13   78.06   16.93
  -7  -3 -14   15.69   11.57
  -7   3  14   12.99    5.48
  -7   3 -14   20.52   10.40
  -7   3 -14   11.45    7.51
  -7  -3 -15   37.26   10.29
  -7   3  15   34.81   18.92
  -7  -3 -16   45.65   20.61
  -7  -4   0   95.68   24.51
  -7  -4   0   73.53   18.45
  -7   4   0  107.34   25.61
  -7  -4  -1  380.74  126.25
  -7  -4   1  417.75  108.62
  -7  -4   1  419.00   95.88
  -7  -4  -1  406.13   94.57
  -7   4   1  394.68   92.95
  -7   4  -1  350.03  110.80
  -7  -4  -2   31.77   16.41
  -7  -4   2    4.33    6.49
  -7  -4   2    3.67    7.29
  -7   4   2   26.20   14.17
  -7   4  -2   10.01    9.56
  -7  -4  -2   25.94   12.96
  -7  -4  -3  101.36   31.03
  -7  -4   3   93.42   29.77
  -7  -4   3  151.16   33.95
  -7   4   3  114.31   34.57
  -7   4  -3  107.64   22.47
  -7  -4  -3  103.34   28.99
  -7  -4  -4   25.69   11.57
  -7  -4   4   39.19   21.41
  -7  -4   4   44.61   14.97
  -7   4   4   23.77   10.60
  -7   4  -4   16.72   10.53
  -7  -4  -4   71.26   19.49
  -7  -4  -5   -8.55   12.47
  -7  -4   5   29.40   12.54
  -7  -4   5   29.55   14.61
  -7   4   5    3.01   10.53
  -7   4  -5   19.71    9.36
  -7  -4  -5   45.94   16.21
  -7  -4  -6   58.16   20.46
  -7  -4   6   63.74   21.34
  -7  -4   6   22.94   10.88
  -7   4   6   18.87   10.51
  -7   4  -6   30.58   10.41
  -7  -4  -6   57.64   16.95
  -7  -4  -7   14.91    8.87
  -7  -4   7   22.20    9.03
  -7  -4   7    5.56    6.12
  -7   4   7   29.30   18.17
  -7   4  -7   29.83   15.19
  -7  -4  -7   30.97   17.09
  -7  -4  -8   46.98   16.91
  -7  -4   8   14.74   14.21
  -7  -4   8   52.13   18.28
  -7   4   8   36.70   22.68
  -7   4  -8   30.56   20.35
  -7  -4  -8   18.27   13.95
  -7  -4  -9   80.09   34.90
  -7  -4   9  106.41   34.55
  -7  -4   9  145.09   34.82
  -7   4   9  122.92   30.96
  -7   4  -9   78.11   22.14
  -7  -4  -9  128.72   29.09
  -7  -4 -10   56.07   28.66
  -7  -4  10   63.00   24.95
  -7   4  10   40.91   16.52
  -7   4 -10   63.97   26.14
  -7  -4 -10   65.67   26.02
  -7  -4 -11  134.25   42.19
  -7  -4  11  208.57   34.03
  -7   4 -11  138.34   34.32
  -7  -4 -12   40.85   11.69
  -7   4 -12   34.33   16.55
  -7   4 -13   -0.98    7.52
  -7  -5   0   41.54   22.41
  -7  -5   0   12.80   14.04
  -7   5   0   34.23   13.70
  -7  -5  -1   19.83    9.19
  -7  -5   1   20.76   12.70
  -7  -5   1   26.49   14.47
  -7   5   1   18.22   10.10
  -7   5  -1   12.83   13.98
  -7  -5  -2   -4.89   11.01
  -7  -5   2    0.69   13.64
  -7  -5   2    6.96    8.85
  -7   5   2   -0.22   10.68
  -7   5  -2   16.04   11.15
  -7  -5   3   32.93   18.61
  -7  -5   3   -1.58    9.48
  -7   5   3  -12.82   10.63
  -7   5  -3   10.84    6.14
  -7  -5   4   26.68   15.55
  -7  -5   4   71.86   19.28
  -7   5  -4   64.04   20.38
  -7  -5  -4   63.78   22.07
  -7  -5   5   44.21   20.28
  -7  -5   5  102.48   24.40
  -7   5  -5   51.20   15.67
  -7  -5  -5   91.17   35.85
  -7  -5   6   12.40   12.03
  -7  -5   6   16.93    8.90
  -7   5  -6   16.67   11.63
  -7  -5  -6   38.63   13.58
  -7  -5   7   35.63   13.25
  -7   5  -7   50.86   15.18
  -7  -5  -7   86.06   21.59
  -7  -5   8   31.78   13.54
  -7   5  -8   33.30    8.47
  -7   5  -9   70.04   26.23
  -7   5 -10   52.16   17.80
  -8   0   0  547.95  112.94
  -8   0   1  234.68   59.68
  -8   0  -1  240.83   46.92
  -8   0  -1  261.57   54.76
  -8   0   2   96.88   29.50
  -8   0   2  110.59   24.71
  -8   0  -2  118.94   28.11
  -8   0  -2  113.65   27.90
  -8   0   3   28.43   18.76
  -8   0   3   -3.29   11.41
  -8   0  -3   41.50   20.58
  -8   0  -3    4.08   11.18
  -8   0   4   23.64    9.72
  -8   0   4    0.03   11.64
  -8   0  -4   -3.01   10.58
  -8   0  -4    8.06    6.24
  -8   0   5   16.68    9.66
  -8   0   5   45.43   12.58
  -8   0  -5   12.75    8.11
  -8   0  -5   26.49   16.09
  -8   0   6   32.01   13.25
  -8   0   6   18.78    9.31
  -8   0  -6   17.11   12.10
  -8   0  -6   -0.33   10.75
  -8   0   7   80.70   20.83
  -8   0   7   51.01   19.42
  -8   0  -7  100.45   24.39
  -8   0  -7  136.16   32.72
  -8   0   8   65.21   17.50
  -8   0   8   27.09   13.51
  -8   0  -8   34.92   12.04
  -8   0  -8   27.05   18.55
  -8   0   9   21.32   14.43
  -8   0   9   30.24   11.91
  -8   0  -9   24.70   10.31
  -8   0  10   15.04   10.02
  -8   0 -10   10.53    8.69
  -8   0 -11   74.94   17.03
  -8   1   0   26.35   15.14
  -8  -1   0   14.52   12.44
  -8  -1   1   -1.64   10.41
  -8   1   1   -2.87   11.70
  -8   1  -1   15.58   13.60
  -8  -1   1   34.74   18.54
  -8  -1  -1   -0.04   10.53
  -8   1  -1   20.87   12.05
  -8  -1  -1    8.17   11.42
  -8  -1   2   11.71    9.41
  -8   1   2   31.75   12.40
  -8   1  -2   47.33   27.53
  -8  -1   2   13.24   13.11
  -8  -1  -2   44.76   19.46
  -8   1  -2   30.21   13.05
  -8  -1  -2   59.52   20.09
  -8  -1   3  407.91  101.50
  -8   1   3  493.88   94.86
  -8   1   3  371.76   96.01
  -8   1  -3  418.39  106.16
  -8  -1   3  507.31   96.27
  -8  -1  -3  529.66   99.79
  -8   1  -3  585.29  108.45
  -8  -1  -3  526.60   98.41
  -8  -1   4   41.25   14.80
  -8   1   4    3.89    6.68
  -8   1   4  -14.28   13.61
  -8   1  -4   11.24    9.44
  -8  -1   4   23.92   13.52
  -8  -1  -4    7.01   12.62
  -8   1  -4   -0.01   10.29
  -8  -1  -4   13.06   11.88
  -8  -1   5  167.00   41.12
  -8   1   5  157.14   45.16
  -8   1   5  152.34   39.36
  -8   1  -5  103.95   30.64
  -8  -1   5  193.98   43.93
  -8  -1  -5  222.22   47.29
  -8   1  -5  152.34   34.42
  -8  -1  -5  148.50   38.45
  -8  -1   6  111.30   32.78
  -8   1   6  151.50   33.05
  -8   1   6   98.17   29.23
  -8   1  -6  108.58   30.65
  -8  -1   6  107.57   27.80
  -8  -1  -6  128.81   44.58
  -8   1  -6   97.21   29.27
  -8  -1  -6  128.85   37.43
  -8  -1   7   47.95   16.19
  -8   1   7   14.45    5.06
  -8   1   7   34.93   16.62
  -8   1  -7   39.94   17.73
  -8  -1   7   37.66   14.12
  -8  -1  -7   25.86   11.22
  -8   1  -7   34.59   13.84
  -8   1   8   28.22   12.71
  -8   1   8   14.26   12.61
  -8   1  -8    9.58    6.31
  -8  -1   8   15.36   12.15
  -8  -1  -8   10.34    7.14
  -8   1  -8   16.40   10.70
  -8   1   9  146.09   27.08
  -8   1  -9  115.89   28.36
  -8  -1   9  174.18   31.71
  -8  -1  -9  101.89   26.75
  -8   1  10   22.69   12.72
  -8   1 -10   10.71    5.88
  -8   1  11    6.00    6.39
  -8   1 -11   21.40   12.66
  -8   2   0  132.07   37.30
  -8  -2   0   86.90   30.66
  -8  -2   1   20.66   12.62
  -8   2   1  -13.35   12.22
  -8   2  -1    8.63    9.39
  -8  -2   1   10.56    5.87
  -8  -2  -1   -2.73   12.21
  -8   2  -1    7.55    3.38
  -8  -2   2   69.05   20.71
  -8   2   2   92.71   23.42
  -8   2  -2   92.58   32.91
  -8  -2   2   98.32   32.11
  -8  -2  -2  162.09   39.90
  -8   2  -2  123.47   30.84
  -8  -2  -2  115.33   35.51
  -8  -2   3   20.51   11.01
  -8   2   3  -10.59   11.14
  -8   2  -3   20.10    8.96
  -8  -2   3   11.31   15.82
  -8  -2  -3   20.75   15.11
  -8   2  -3   22.57   14.39
  -8  -2  -3   68.52   21.85
  -8   2  -4  142.75   40.36
  -8  -2   4  144.45   29.82
  -8  -2  -4  148.08   48.51
  -8   2  -4  159.41   38.26
  -8  -2   5   23.93   15.75
  -8   2   5    4.18    6.98
  -8   2   5    0.44   10.16
  -8   2  -5   17.97   11.63
  -8   2  -5   20.07   10.13
  -8   2   6   42.40    9.69
  -8   2   6    7.99   10.45
  -8   2  -6   16.32    8.85
  -8  -2   6   29.87   13.79
  -8   2  -6   19.87    7.73
  -8   2   7    7.52    8.17
  -8   2  -7   18.47    9.24
  -8  -2   7   12.74    6.62
  -8   2  -7   22.67   14.22
  -8   2   8   33.12   10.12
  -8   2  -8    9.98    7.88
  -8   2  -8    9.36    9.30
  -8   2   9  132.87   24.30
  -8   2  10  300.42   67.83
  -8   2  11   24.96    9.33
  -8   3  -2    0.69    7.55
  -8   3  -3   29.38   14.20
  -8   3  -4    5.87    8.36
  -8   3  -5   19.56   10.77
  -8   3  -6   29.90   12.29
  -8   3  -7   53.93   16.47
  -8   3  -8    9.95    9.38
  -8   3  -9   34.77   14.00
   0   0   0    0.00    0.00
;
_shelx_hkl_checksum              12263
_shelx_res_file
;
REM
REM  Shelx file produced by Sir2014 on Wed Jun 14  2017 at 15:50:17
REM  Structure name: dcnpyddt
REM
TITL    dcnpyddt
    dcnpyddt.res
    created by SHELXL-2016/6 at 11:01:01 on 15-Jun-2017
CELL   0.71073     6.1657   7.0875  20.8831  90.0000  90.0000  90.0000
ZERR         4     0.0015   0.0019   0.0055   0.0000   0.0000   0.0000
LATT -1
SYMM 1/2-X,-Y,1/2+Z
SYMM 1/2+X,1/2-Y,-Z
SYMM -X,1/2+Y,1/2-Z
SFAC C N S
UNIT 28 16 12
OMIT 2   0   5
L.S. 20
TEMP -100
SIZE 0.3000 0.3000 0.0500
EQIV $1 -1/2-x,1-y,-1/2+z
EQIV $2 1/2-x,1-y,-1/2+z
CONF
MPLA 10 S1 > N2 C1 > C5 N3 N4 C6 C7
ACTA 50
WGHT    0.048600    0.136400
FVAR       1.76208
S1    3   -0.171526    0.555866   -0.062524    11.00000    0.05960    0.04271 =
         0.04137    0.00155   -0.01221   -0.00478
S2    3   -0.213514    0.624417    0.076516    11.00000    0.03658    0.05173 =
         0.04199    0.00785   -0.00109    0.00528
S3    3    0.174990    0.433261    0.026061    11.00000    0.05055    0.03911 =
         0.03336   -0.00084    0.00237    0.00799
N1    2   -0.052156    0.587459    0.194528    11.00000    0.03011    0.03433 =
         0.03734    0.00408    0.00397    0.00203
N2    2    0.322813    0.405470    0.145868    11.00000    0.03838    0.02825 =
         0.03356   -0.00039    0.00319    0.00204
N3    2    0.089401    0.601760    0.353803    11.00000    0.05077    0.04727 =
         0.03735   -0.00059    0.00704    0.00672
N4    2    0.602518    0.349590    0.286482    11.00000    0.04597    0.04209 =
         0.04556   -0.00610   -0.00259    0.00975
C1    1   -0.075610    0.538592    0.009560    11.00000    0.04764    0.02927 =
         0.04134    0.00328   -0.00248   -0.00615
C2    1   -0.023030    0.555356    0.132762    11.00000    0.03519    0.03023 =
         0.03610    0.00621    0.00292   -0.00203
C3    1    0.108028    0.525466    0.232550    11.00000    0.03230    0.02735 =
         0.03300    0.00419    0.00460    0.00007
C4    1    0.292465    0.436203    0.208543    11.00000    0.03337    0.02628 =
         0.03561    0.00394    0.00522    0.00038
C5    1    0.164156    0.463360    0.108366    11.00000    0.03405    0.02631 =
         0.03372    0.00166    0.00366    0.00053
C6    1    0.091503    0.566434    0.300480    11.00000    0.03491    0.03333 =
         0.03954    0.00416    0.00608    0.00413
C7    1    0.465556    0.384351    0.251741    11.00000    0.03445    0.03111 =
         0.03764   -0.00217    0.00406    0.00359
HKLF 4
REM     dcnpyddt
REM R1 =  0.0406 for    2314 Fo > 4sig(Fo)  and  0.0463 for all    2561 data
REM    127 parameters refined using      0 restraints
END
WGHT      0.0461      0.1641
REM Highest difference peak  0.285,  deepest hole -0.346,  1-sigma level  0.063
Q1    1   0.2213  0.3777 -0.0182  11.00000  0.05    0.26
Q2    1   0.2622  0.6208  0.3819  11.00000  0.05    0.23
Q3    1   0.7271  0.5265  0.2975  11.00000  0.05    0.23
Q4    1  -0.2487  0.5509 -0.0612  11.00000  0.05    0.22
Q5    1  -0.0367  0.6000  0.1077  11.00000  0.05    0.22
Q6    1  -0.1654  0.4573 -0.0209  11.00000  0.05    0.21
Q7    1  -0.0667  0.5262  0.0962  11.00000  0.05    0.21
Q8    1   0.0332  0.5505  0.3069  11.00000  0.05    0.21
Q9    1   0.4063  0.5319  0.3406  11.00000  0.05    0.20
Q10   1   0.4888  0.5768  0.3393  11.00000  0.05    0.20
Q11   1  -0.1988  0.4888  0.0720  11.00000  0.05    0.20
Q12   1   0.0668  0.4783  0.1076  11.00000  0.05    0.20
Q13   1   0.1952  0.4257  0.2166  11.00000  0.05    0.20
Q14   1   0.4998  0.4369  0.3280  11.00000  0.05    0.20
Q15   1  -0.1311  0.5559  0.1162  11.00000  0.05    0.20
Q16   1  -0.1059  0.7340  0.1117  11.00000  0.05    0.20
Q17   1   0.0627  0.6345  0.3840  11.00000  0.05    0.20
Q18   1   0.0741  0.2624 -0.0725  11.00000  0.05    0.20
Q19   1   0.1595  0.4252  0.1170  11.00000  0.05    0.20
Q20   1   0.8018  0.4435  0.2609  11.00000  0.05    0.20
;
_shelx_res_checksum              33761
loop_
_space_group_symop_operation_xyz
'x, y, z'
'-x+1/2, -y, z+1/2'
'x+1/2, -y+1/2, -z'
'-x, y+1/2, -z+1/2'
loop_
_atom_site_type_symbol
_atom_site_label
_atom_site_fract_x
_atom_site_fract_y
_atom_site_fract_z
_atom_site_U_iso_or_equiv
_atom_site_adp_type
_atom_site_calc_flag
_atom_site_occupancy
S S1 -0.17153(16) 0.55587(14) -0.06252(4) 0.0479(3) Uani d 1
S S2 -0.21351(14) 0.62442(14) 0.07652(4) 0.0434(2) Uani d 1
S S3 0.17499(14) 0.43326(12) 0.02606(4) 0.0410(2) Uani d 1
N N1 -0.0522(4) 0.5875(4) 0.19453(13) 0.0339(6) Uani d 1
N N2 0.3228(4) 0.4055(4) 0.14587(13) 0.0334(6) Uani d 1
N N3 0.0894(5) 0.6018(5) 0.35380(15) 0.0451(7) Uani d 1
N N4 0.6025(5) 0.3496(4) 0.28648(16) 0.0445(7) Uani d 1
C C1 -0.0756(6) 0.5386(5) 0.00956(17) 0.0394(7) Uani d 1
C C2 -0.0230(5) 0.5554(5) 0.13276(16) 0.0338(6) Uani d 1
C C3 0.1080(5) 0.5255(4) 0.23255(15) 0.0309(6) Uani d 1
C C4 0.2925(5) 0.4362(4) 0.20854(15) 0.0318(6) Uani d 1
C C5 0.1642(5) 0.4634(4) 0.10837(15) 0.0314(6) Uani d 1
C C6 0.0915(5) 0.5664(5) 0.30048(17) 0.0359(7) Uani d 1
C C7 0.4656(5) 0.3844(5) 0.25174(16) 0.0344(7) Uani d 1
loop_
_atom_site_aniso_label
_atom_site_aniso_U_11
_atom_site_aniso_U_22
_atom_site_aniso_U_33
_atom_site_aniso_U_12
_atom_site_aniso_U_13
_atom_site_aniso_U_23
S1 0.0596(6) 0.0427(5) 0.0414(5) -0.0048(5) -0.0122(4) 0.0016(4)
S2 0.0366(4) 0.0517(5) 0.0420(5) 0.0053(4) -0.0011(3) 0.0079(4)
S3 0.0506(5) 0.0391(4) 0.0334(4) 0.0080(4) 0.0024(3) -0.0008(4)
N1 0.0301(12) 0.0343(14) 0.0373(15) 0.0020(11) 0.0040(10) 0.0041(12)
N2 0.0384(12) 0.0283(13) 0.0336(14) 0.0020(11) 0.0032(11) -0.0004(11)
N3 0.0508(15) 0.0473(18) 0.0374(17) 0.0067(14) 0.0070(13) -0.0006(14)
N4 0.0460(15) 0.0421(18) 0.0456(18) 0.0097(13) -0.0026(13) -0.0061(14)
C1 0.0476(17) 0.0293(17) 0.0413(19) -0.0061(14) -0.0025(14) 0.0033(14)
C2 0.0352(14) 0.0302(15) 0.0361(17) -0.0020(12) 0.0029(12) 0.0062(13)
C3 0.0323(13) 0.0273(16) 0.0330(16) 0.0001(11) 0.0046(11) 0.0042(12)
C4 0.0334(13) 0.0263(14) 0.0356(16) 0.0004(12) 0.0052(12) 0.0039(12)
C5 0.0341(14) 0.0263(14) 0.0337(16) 0.0005(12) 0.0037(12) 0.0017(12)
C6 0.0349(14) 0.0333(16) 0.0395(19) 0.0041(13) 0.0061(12) 0.0042(14)
C7 0.0345(15) 0.0311(16) 0.0376(17) 0.0036(13) 0.0041(13) -0.0022(14)
loop_
_atom_type_symbol
_atom_type_description
_atom_type_scat_dispersion_real
_atom_type_scat_dispersion_imag
_atom_type_scat_source
C C 0.0033 0.0016 'International Tables Vol C Tables 4.2.6.8 and 6.1.1.4'
N N 0.0061 0.0033 'International Tables Vol C Tables 4.2.6.8 and 6.1.1.4'
S S 0.1246 0.1234 'International Tables Vol C Tables 4.2.6.8 and 6.1.1.4'
loop_
_geom_angle_atom_site_label_1
_geom_angle_atom_site_label_2
_geom_angle_atom_site_label_3
_geom_angle
C2 S2 C1 96.57(17)
C5 S3 C1 96.24(16)
C2 N1 C3 114.9(3)
C5 N2 C4 115.2(3)
S1 C1 S2 122.6(2)
S1 C1 S3 122.5(2)
S2 C1 S3 114.9(2)
N1 C2 C5 122.6(3)
N1 C2 S2 121.4(2)
C5 C2 S2 116.0(2)
N1 C3 C4 122.4(3)
N1 C3 C6 117.5(3)
C4 C3 C6 120.0(3)
N2 C4 C3 122.6(3)
N2 C4 C7 117.7(3)
C3 C4 C7 119.6(3)
N2 C5 C2 122.2(3)
N2 C5 S3 121.5(2)
C2 C5 S3 116.3(2)
N3 C6 C3 176.4(4)
N4 C7 C4 177.7(4)
loop_
_geom_bond_atom_site_label_1
_geom_bond_atom_site_label_2
_geom_bond_distance
S1 C1 1.622(4)
S2 C2 1.732(3)
S2 C1 1.746(4)
S3 C5 1.733(3)
S3 C1 1.750(4)
N1 C2 1.322(4)
N1 C3 1.341(4)
N2 C5 1.319(4)
N2 C4 1.340(4)
N3 C6 1.141(4)
N4 C7 1.140(4)
C2 C5 1.420(4)
C3 C4 1.395(4)
C3 C6 1.452(5)
C4 C7 1.445(4)
loop_
_geom_contact_atom_site_label_1
_geom_contact_atom_site_label_2
_geom_contact_distance
_geom_contact_site_symmetry_2
_geom_contact_publ_flag
S1 N4 3.251(4) 2_564 yes
S1 N3 3.308(3) 2_464 yes
loop_
_geom_torsion_atom_site_label_1
_geom_torsion_atom_site_label_2
_geom_torsion_atom_site_label_3
_geom_torsion_atom_site_label_4
_geom_torsion
C2 S2 C1 S1 179.2(2)
C2 S2 C1 S3 -1.0(2)
C5 S3 C1 S1 -179.3(2)
C5 S3 C1 S2 1.0(2)
C3 N1 C2 C5 -0.4(5)
C3 N1 C2 S2 179.7(2)
C1 S2 C2 N1 -179.4(3)
C1 S2 C2 C5 0.7(3)
C2 N1 C3 C4 0.8(4)
C2 N1 C3 C6 176.4(3)
C5 N2 C4 C3 -0.9(4)
C5 N2 C4 C7 -177.0(3)
N1 C3 C4 N2 -0.2(5)
C6 C3 C4 N2 -175.7(3)
N1 C3 C4 C7 175.8(3)
C6 C3 C4 C7 0.3(4)
C4 N2 C5 C2 1.3(4)
C4 N2 C5 S3 -179.4(2)
N1 C2 C5 N2 -0.7(5)
S2 C2 C5 N2 179.2(2)
N1 C2 C5 S3 -180.0(3)
S2 C2 C5 S3 -0.1(3)
C1 S3 C5 N2 -179.8(3)
C1 S3 C5 C2 -0.6(3)
