#------------------------------------------------------------------------------
#$Date: 2017-07-25 13:18:36 +0300 (Tue, 25 Jul 2017) $
#$Revision: 199229 $
#$URL: file:///home/coder/svn-repositories/cod/cif/1/54/66/1546635.cif $
#------------------------------------------------------------------------------
#
# This file is available in the Crystallography Open Database (COD),
# http://www.crystallography.net/. The original data for this entry
# were provided by IUCr Journals, http://journals.iucr.org/.
#
# The file may be used within the scientific community so long as
# proper attribution is given to the journal article from which the
# data were obtained.
#
data_1546635
loop_
_publ_author_name
'Mohamed Abdelahi, Mohamed Mokhtar'
'El Bakri, Youness'
'Benchidmi, Mohammed'
'Essassi, El Mokhtar'
'Mague, Joel T.'
_publ_section_title
;
 1-Chloro-3-(6-nitro-1<i>H</i>-indazol-1-yl)propan-2-ol
;
_journal_coeditor_code           SJ4104
_journal_issue                   5
_journal_name_full               IUCrData
_journal_page_first              x170637
_journal_paper_doi               10.1107/S241431461700637X
_journal_volume                  2
_journal_year                    2017
_chemical_formula_iupac          'C10 H10 Cl N3 O3'
_chemical_formula_moiety         'C10 H10 Cl N3 O3'
_chemical_formula_sum            'C10 H10 Cl N3 O3'
_chemical_formula_weight         255.66
_chemical_name_systematic
;
1-Chloro-3-(6-nitro-1<i>H</i>-indazol-1-yl)propan-2-ol
;
_space_group_crystal_system      triclinic
_space_group_IT_number           2
_space_group_name_Hall           '-P 1'
_space_group_name_H-M_alt        'P -1'
_symmetry_space_group_name_Hall  '-P 1'
_symmetry_space_group_name_H-M   'P -1'
_atom_sites_solution_hydrogens   geom
_atom_sites_solution_primary     direct
_atom_sites_solution_secondary   difmap
_audit_creation_method           SHELXL-2014/7
_cell_angle_alpha                98.4810(10)
_cell_angle_beta                 90.7550(10)
_cell_angle_gamma                97.3770(10)
_cell_formula_units_Z            2
_cell_length_a                   4.3949(4)
_cell_length_b                   9.9144(8)
_cell_length_c                   13.1376(11)
_cell_measurement_reflns_used    3584
_cell_measurement_temperature    298(2)
_cell_measurement_theta_max      27.0162
_cell_measurement_theta_min      2.4209
_cell_volume                     561.19(8)
_computing_cell_refinement
;
<i>SAINT</i> (Bruker, 2016)
;
_computing_data_collection
;
<i>APEX3</i> (Bruker, 2016)
;
_computing_data_reduction
;
<i>SAINT</i> (Bruker, 2016)
;
_computing_molecular_graphics
;
<i>DIAMOND</i> (Brandenburg & Putz, 2012)
;
_computing_publication_material
;
<i>SHELXTL</i> (Sheldrick, 2008)
;
_computing_structure_refinement
;
<i>SHELXL2014</i> (Sheldrick, 2015<i>b</i>)
;
_computing_structure_solution
;
<i>SHELXT</i> (Sheldrick, 2015<i>a</i>)
;
_diffrn_ambient_temperature      298(2)
_diffrn_detector_area_resol_mean 8.3333
_diffrn_measured_fraction_theta_full 0.994
_diffrn_measured_fraction_theta_max 0.993
_diffrn_measurement_device_type  'Bruker SMART APEX CCD'
_diffrn_measurement_method       '\f and \w scans'
_diffrn_radiation_monochromator  graphite
_diffrn_radiation_type           MoK\a
_diffrn_radiation_wavelength     0.71073
_diffrn_reflns_av_R_equivalents  0.0233
_diffrn_reflns_limit_h_max       5
_diffrn_reflns_limit_h_min       -5
_diffrn_reflns_limit_k_max       13
_diffrn_reflns_limit_k_min       -13
_diffrn_reflns_limit_l_max       17
_diffrn_reflns_limit_l_min       -17
_diffrn_reflns_number            10444
_diffrn_reflns_theta_full        28.350
_diffrn_reflns_theta_max         28.366
_diffrn_reflns_theta_min         1.568
_exptl_absorpt_coefficient_mu    0.341
_exptl_absorpt_correction_T_max  0.96
_exptl_absorpt_correction_T_min  0.87
_exptl_absorpt_correction_type   multi-scan
_exptl_absorpt_process_details
;
(<i>SADABS</i>; Bruker, 2016)
;
_exptl_crystal_colour            'pale yellow'
_exptl_crystal_density_diffrn    1.513
_exptl_crystal_density_method    'not measured'
_exptl_crystal_description       plate
_exptl_crystal_F_000             264
_exptl_crystal_size_max          0.454
_exptl_crystal_size_mid          0.204
_exptl_crystal_size_min          0.105
_refine_diff_density_max         0.430
_refine_diff_density_min         -0.193
_refine_ls_extinction_method     none
_refine_ls_goodness_of_fit_ref   1.061
_refine_ls_hydrogen_treatment    constr
_refine_ls_matrix_type           full
_refine_ls_number_parameters     156
_refine_ls_number_reflns         2790
_refine_ls_number_restraints     0
_refine_ls_restrained_S_all      1.061
_refine_ls_R_factor_all          0.0652
_refine_ls_R_factor_gt           0.0467
_refine_ls_shift/su_max          0.000
_refine_ls_shift/su_mean         0.000
_refine_ls_structure_factor_coef Fsqd
_refine_ls_weighting_details
'w=1/[\s^2^(Fo^2^)+(0.0916P)^2^] where P=(Fo^2^+2Fc^2^)/3'
_refine_ls_weighting_scheme      calc
_refine_ls_wR_factor_gt          0.1440
_refine_ls_wR_factor_ref         0.1512
_reflns_number_gt                1874
_reflns_number_total             2790
_reflns_threshold_expression     'I > 2\s(I)'
_cod_data_source_file            sj4104sup1.cif
_cod_data_source_block           I
_cod_database_code               1546635
_shelx_space_group_comment
;
The symmetry employed for this shelxl refinement is uniquely defined
by the following loop, which should always be used as a source of
symmetry information in preference to the above space-group names.
They are only intended as comments.
;
_shelx_estimated_absorpt_t_min   0.861
_shelx_estimated_absorpt_t_max   0.965
_shelx_hkl_file
;
  -1   0   0    8.04    0.27
  -1   0   0    8.09    0.28
  -1   0   0    8.24    0.27
   1   0   0    8.14    0.27
   1   0   0    8.08    0.27
  -2   0   0    0.21    0.05
  -2   0   0    0.13    0.05
  -2   0   0    0.12    0.05
  -2   0   0    0.08    0.05
  -2   0   0    0.17    0.03
   2   0   0    0.21    0.05
   2   0   0    0.13    0.04
  -3   0   0    1.28    0.13
  -3   0   0    1.08    0.11
  -3   0   0    0.99    0.11
   3   0   0    1.24    0.10
   3   0   0    1.37    0.11
   3   0   0    1.24    0.11
  -4   0   0    0.95    0.14
  -4   0   0    1.06    0.13
  -4   0   0    0.71    0.16
   4   0   0    1.01    0.12
   4   0   0    1.11    0.14
  -5   0   0    0.19    0.19
  -5   0   0    0.19    0.14
  -5   1   0    0.64    0.15
  -5   1   0    0.64    0.20
   4  -1   0    0.08    0.09
   4  -1   0    0.06    0.10
  -4   1   0    0.08    0.10
  -4   1   0    0.10    0.12
  -4   1   0    0.09    0.11
   3  -1   0    2.70    0.14
   3  -1   0    2.56    0.15
  -3   1   0    2.12    0.15
  -3   1   0    2.44    0.14
  -3   1   0    2.31    0.14
   2  -1   0    9.22    0.32
   2  -1   0    8.87    0.31
   2  -1   0    9.32    0.30
  -2   1   0    9.05    0.32
  -2   1   0    9.37    0.34
  -2   1   0    9.48    0.32
  -2   1   0    9.18    0.32
   1  -1   0  114.38    3.66
   1  -1   0  121.27    3.67
   1  -1   0  118.52    3.66
  -1   1   0  119.34    3.66
  -1   1   0  110.76    3.67
  -1   1   0  117.99    3.66
  -1   1   0  116.80    3.66
   0  -1   0   36.37    1.11
   0  -1   0   33.64    1.11
   0  -1   0   35.67    1.11
   0   1   0   35.73    1.11
   0   1   0   35.38    1.11
  -1  -1   0   29.44    0.92
  -1  -1   0   28.76    0.93
  -1  -1   0   29.38    0.92
  -1  -1   0   29.49    0.94
   1   1   0   28.86    0.93
   1   1   0   28.86    0.92
  -2  -1   0   43.07    1.40
  -2  -1   0   44.32    1.41
  -2  -1   0   42.31    1.39
  -2  -1   0   43.65    1.37
   2   1   0   43.88    1.39
   2   1   0   44.15    1.40
  -3  -1   0   22.68    0.78
  -3  -1   0   22.36    0.80
  -3  -1   0   22.88    0.76
   3   1   0   23.75    0.78
   3   1   0   23.44    0.76
  -4  -1   0    0.01    0.12
  -4  -1   0    0.06    0.09
  -4  -1   0    0.00    0.12
   4   1   0    0.10    0.12
   4   1   0   -0.02    0.09
  -5  -1   0    1.31    0.17
  -5  -1   0    1.06    0.22
   5   1   0    1.22    0.20
  -5   2   0    0.32    0.15
  -5   2   0    0.06    0.17
   4  -2   0    0.09    0.11
   4  -2   0    0.06    0.10
  -4   2   0    0.18    0.11
  -4   2   0    0.14    0.14
   3  -2   0    0.08    0.07
   3  -2   0    0.02    0.06
   3  -2   0    0.07    0.07
  -3   2   0    0.04    0.07
  -3   2   0    0.08    0.07
  -3   2   0    0.08    0.09
  -3   2   0    0.05    0.07
   2  -2   0    6.83    0.24
   2  -2   0    6.84    0.24
   2  -2   0    6.77    0.25
  -2   2   0    6.99    0.24
  -2   2   0    6.95    0.27
  -2   2   0    6.83    0.25
  -2   2   0    6.90    0.25
   1  -2   0  252.35    7.83
   1  -2   0  248.40    7.82
   1  -2   0  249.83    7.83
  -1   2   0  249.36    7.84
  -1   2   0  256.65    7.83
  -1   2   0  241.82    7.82
  -1   2   0  254.07    7.82
   0  -2   0  203.04    6.27
   0  -2   0  197.04    6.28
   0  -2   0  199.36    6.27
   0   2   0  198.13    6.28
   0   2   0  205.67    6.27
  -1  -2   0   11.14    0.35
  -1  -2   0   10.58    0.37
  -1  -2   0   10.64    0.35
   1   2   0   10.74    0.35
   1   2   0   10.67    0.36
  -2  -2   0   23.61    0.77
  -2  -2   0   23.61    0.74
  -2  -2   0   22.99    0.78
  -2  -2   0   22.80    0.75
   2   2   0   22.58    0.76
   2   2   0   24.04    0.77
   2   2   0   22.62    0.75
  -3  -2   0    4.69    0.21
  -3  -2   0    5.28    0.26
  -3  -2   0    4.94    0.24
   3   2   0    5.61    0.24
   3   2   0    5.40    0.22
  -4  -2   0    1.24    0.19
  -4  -2   0    1.41    0.15
   4   2   0    1.31    0.16
   4   2   0    1.37    0.14
  -5  -2   0    0.23    0.21
  -5  -2   0    0.27    0.14
   5   2   0    0.31    0.18
   5   2   0    0.28    0.15
  -5   3   0    0.13    0.15
  -5   3   0    0.04    0.15
  -4   3   0    0.26    0.11
  -4   3   0    0.43    0.14
   3  -3   0   10.10    0.37
   3  -3   0   10.25    0.38
   3  -3   0   10.25    0.36
  -3   3   0   10.21    0.37
  -3   3   0    9.99    0.39
  -3   3   0   10.22    0.37
  -3   3   0   10.20    0.38
   2  -3   0    7.63    0.27
   2  -3   0    7.32    0.27
   2  -3   0    7.33    0.26
  -2   3   0    7.35    0.26
  -2   3   0    7.35    0.27
  -2   3   0    7.53    0.27
  -2   3   0    7.31    0.28
   1  -3   0   61.87    1.93
   1  -3   0   60.81    1.93
   1  -3   0   61.17    1.93
  -1   3   0   62.71    1.93
  -1   3   0   59.95    1.94
  -1   3   0   60.03    1.93
  -1   3   0   61.91    1.93
   0  -3   0    8.93    0.30
   0  -3   0    8.72    0.32
   0  -3   0    9.04    0.31
   0   3   0    8.84    0.30
   0   3   0    9.18    0.30
  -1  -3   0    0.13    0.03
  -1  -3   0    0.15    0.03
  -1  -3   0    0.17    0.06
  -1  -3   0    0.10    0.04
   1   3   0    0.15    0.03
   1   3   0    0.15    0.04
  -2  -3   0    0.43    0.06
  -2  -3   0    0.55    0.06
  -2  -3   0    0.56    0.07
  -2  -3   0    0.31    0.09
   2   3   0    0.40    0.07
   2   3   0    0.34    0.06
  -3  -3   0    0.08    0.11
  -3  -3   0    0.13    0.07
   3   3   0    0.27    0.08
   3   3   0    0.16    0.09
  -4  -3   0   13.15    0.54
  -4  -3   0   13.04    0.48
   4   3   0   12.93    0.52
   4   3   0   13.36    0.49
  -5  -3   0    0.02    0.22
  -5  -3   0    0.12    0.13
   5   3   0    0.05    0.16
   5   3   0    0.06    0.18
  -5   4   0    0.64    0.18
  -5   4   0    0.68    0.22
   4  -4   0    1.74    0.17
  -4   4   0    1.64    0.21
  -4   4   0    1.17    0.15
   3  -4   0    9.39    0.36
   3  -4   0    9.13    0.35
  -3   4   0    9.85    0.36
  -3   4   0    9.39    0.34
  -3   4   0    9.77    0.39
  -3   4   0    9.53    0.36
   2  -4   0   34.88    1.11
   2  -4   0   34.33    1.11
   2  -4   0   33.78    1.11
  -2   4   0   34.45    1.11
  -2   4   0   33.27    1.13
  -2   4   0   35.56    1.10
   1  -4   0  107.23    3.42
   1  -4   0  109.10    3.41
  -1   4   0  107.30    3.41
  -1   4   0  109.61    3.41
  -1   4   0  112.54    3.41
  -1   4   0  104.93    3.43
   0  -4   0   63.97    2.09
   0  -4   0   66.45    2.08
   0  -4   0   67.67    2.11
   0   4   0   64.59    2.08
   0   4   0   66.90    2.09
  -1  -4   0    7.55    0.26
  -1  -4   0    7.58    0.25
  -1  -4   0    6.72    0.29
  -1  -4   0    7.20    0.25
   1   4   0    7.25    0.28
   1   4   0    7.27    0.26
  -2  -4   0    1.92    0.10
  -2  -4   0    1.77    0.11
  -2  -4   0    1.28    0.13
   2   4   0    1.72    0.10
   2   4   0    1.58    0.13
  -3  -4   0   14.05    0.49
  -3  -4   0   14.73    0.56
   3   4   0   14.15    0.53
   3   4   0   14.08    0.50
  -4  -4   0   -0.03    0.09
  -4  -4   0   -0.01    0.16
   4   4   0   -0.07    0.13
   4   4   0    0.00    0.11
  -5  -4   0    0.04    0.13
  -5  -4   0   -0.13    0.24
   5   4   0    0.06    0.21
   5   4   0    0.01    0.17
  -5   5   0    0.21    0.20
   4  -5   0    0.09    0.12
  -4   5   0    0.01    0.15
  -4   5   0   -0.09    0.14
   3  -5   0   -0.01    0.08
   3  -5   0   -0.02    0.08
  -3   5   0   -0.01    0.11
  -3   5   0   -0.03    0.10
  -3   5   0   -0.04    0.08
   2  -5   0    3.10    0.16
   2  -5   0    2.89    0.16
   2  -5   0    2.68    0.15
  -2   5   0    2.90    0.17
  -2   5   0    2.91    0.15
  -2   5   0    2.87    0.14
  -2   5   0    2.76    0.16
   1  -5   0   12.78    0.47
   1  -5   0   13.79    0.46
  -1   5   0   14.34    0.46
  -1   5   0   13.51    0.46
  -1   5   0   14.08    0.46
  -1   5   0   13.17    0.48
   0  -5   0   18.36    0.61
   0  -5   0   19.34    0.62
   0  -5   0   18.84    0.65
   0   5   0   19.06    0.62
   0   5   0   18.68    0.63
  -1  -5   0   11.98    0.40
  -1  -5   0   12.25    0.42
  -1  -5   0   11.39    0.45
  -1  -5   0   12.19    0.40
   1   5   0   11.56    0.40
   1   5   0   11.75    0.43
  -2  -5   0    4.91    0.20
  -2  -5   0    4.51    0.26
  -2  -5   0    5.05    0.21
   2   5   0    4.87    0.24
   2   5   0    5.06    0.21
  -3  -5   0    0.02    0.13
  -3  -5   0    0.00    0.07
   3   5   0    0.09    0.08
   3   5   0    0.00    0.11
  -4  -5   0    0.52    0.11
  -4  -5   0    0.48    0.18
   4   5   0    0.45    0.13
   4   5   0    0.87    0.18
  -5  -5   0    0.04    0.13
  -5  -5   0   -0.06    0.27
   5   5   0    0.06    0.24
   5   5   0    0.04    0.19
  -5   6   0   -0.02    0.23
   4  -6   0    0.89    0.16
  -4   6   0    1.00    0.20
   3  -6   0    1.60    0.16
   3  -6   0    1.78    0.16
  -3   6   0    2.12    0.19
  -3   6   0    1.90    0.16
   2  -6   0    0.61    0.09
   2  -6   0    0.66    0.10
  -2   6   0    0.95    0.13
  -2   6   0    0.72    0.09
  -2   6   0    0.72    0.09
   1  -6   0    2.94    0.14
   1  -6   0    3.31    0.17
  -1   6   0    3.11    0.15
  -1   6   0    3.15    0.18
  -1   6   0    3.07    0.16
   0  -6   0    4.97    0.19
   0  -6   0    5.12    0.22
   0  -6   0    5.20    0.20
   0  -6   0    4.82    0.24
   0   6   0    5.03    0.20
   0   6   0    5.13    0.24
   0   6   0    4.98    0.22
  -1  -6   0    6.04    0.22
  -1  -6   0    5.64    0.28
  -1  -6   0    6.17    0.25
   1   6   0    6.11    0.23
   1   6   0    5.79    0.26
  -2  -6   0   20.82    0.69
  -2  -6   0   21.19    0.76
  -2  -6   0   20.79    0.71
   2   6   0   21.20    0.74
   2   6   0   20.86    0.70
  -3  -6   0    0.12    0.07
  -3  -6   0    0.19    0.15
   3   6   0    0.15    0.13
   3   6   0    0.03    0.09
  -4  -6   0    0.26    0.10
  -4  -6   0    0.30    0.22
   4   6   0    0.21    0.18
   4   6   0    0.10    0.12
  -5   7   0   -0.10    0.24
   4  -7   0    0.32    0.14
  -4   7   0    0.38    0.18
   3  -7   0    0.14    0.11
   3  -7   0    0.13    0.10
  -3   7   0    0.26    0.10
  -3   7   0    0.34    0.14
   2  -7   0    0.77    0.10
   2  -7   0    0.72    0.12
  -2   7   0    0.94    0.11
  -2   7   0    0.80    0.14
  -2   7   0    0.78    0.10
   1  -7   0   11.77    0.42
   1  -7   0   12.30    0.45
  -1   7   0   12.81    0.44
  -1   7   0   12.62    0.43
  -1   7   0   11.18    0.46
   0  -7   0    4.46    0.22
   0  -7   0    4.19    0.24
   0  -7   0    4.23    0.18
   0   7   0    4.00    0.22
   0   7   0    4.94    0.25
   0   7   0    4.87    0.20
  -1  -7   0    1.87    0.19
  -1  -7   0    1.66    0.10
  -1  -7   0    1.63    0.14
   1   7   0    1.82    0.16
   1   7   0    1.62    0.13
  -2  -7   0    4.28    0.18
  -2  -7   0    4.23    0.22
  -2  -7   0    4.40    0.29
   2   7   0    4.52    0.22
   2   7   0    4.10    0.24
  -3  -7   0    1.16    0.12
  -3  -7   0    1.29    0.21
   3   7   0    1.28    0.14
   3   7   0    1.60    0.21
  -4  -7   0    0.16    0.10
  -4  -7   0    0.16    0.21
   4   7   0    0.41    0.21
   4   7   0    0.18    0.16
   5  -8   0    0.46    0.19
  -5   8   0    0.39    0.28
   4  -8   0    0.47    0.15
  -4   8   0    0.53    0.20
   3  -8   0    0.26    0.13
   3  -8   0    0.27    0.11
  -3   8   0    0.62    0.17
  -3   8   0    0.31    0.11
   2  -8   0    0.77    0.13
   2  -8   0    0.93    0.11
  -2   8   0    1.30    0.17
  -2   8   0    1.11    0.12
   1  -8   0    7.45    0.28
   1  -8   0    7.42    0.32
  -1   8   0    7.19    0.34
  -1   8   0    6.79    0.30
  -1   8   0    6.99    0.29
   0  -8   0    6.73    0.32
   0  -8   0    6.49    0.29
   0  -8   0    6.27    0.24
   0   8   0    6.25    0.29
   0   8   0    6.15    0.26
   0   8   0    6.24    0.31
  -1  -8   0    2.76    0.23
  -1  -8   0    2.62    0.14
  -1  -8   0    2.46    0.19
   1   8   0    2.64    0.17
   1   8   0    3.02    0.21
  -2  -8   0    0.36    0.07
  -2  -8   0    0.32    0.13
  -2  -8   0    0.35    0.18
   2   8   0    0.21    0.10
   2   8   0    0.18    0.14
  -3  -8   0    0.12    0.19
  -3  -8   0    0.03    0.07
   3   8   0   -0.05    0.16
   3   8   0    0.02    0.13
  -4  -8   0    0.43    0.30
   4   8   0    0.36    0.18
   4   8   0    0.30    0.24
   4  -9   0    0.13    0.16
  -4   9   0    0.26    0.21
   3  -9   0    2.57    0.24
   3  -9   0    2.56    0.20
  -3   9   0    3.37    0.27
  -3   9   0    2.72    0.22
   2  -9   0    0.13    0.09
   2  -9   0   -0.05    0.13
  -2   9   0    0.12    0.14
  -2   9   0    0.25    0.12
   1  -9   0    3.54    0.18
   1  -9   0    3.86    0.24
  -1   9   0    4.06    0.22
  -1   9   0    3.62    0.20
  -1   9   0    3.88    0.26
   0  -9   0    0.03    0.11
   0  -9   0   -0.05    0.07
   0  -9   0   -0.06    0.13
   0   9   0    0.02    0.14
   0   9   0    0.02    0.09
   0   9   0    0.01    0.12
  -1  -9   0    0.50    0.17
  -1  -9   0    0.34    0.07
  -1  -9   0    0.28    0.13
   1   9   0    0.34    0.14
   1   9   0    0.29    0.10
  -2  -9   0    0.60    0.20
  -2  -9   0    0.69    0.20
  -2  -9   0    0.58    0.07
   2   9   0    0.61    0.17
   2   9   0    0.70    0.13
  -3  -9   0    0.07    0.23
   3   9   0    0.16    0.20
   3   9   0    0.34    0.16
   4 -10   0    0.04    0.16
  -4  10   0    0.03    0.24
   3 -10   0    0.77    0.18
   3 -10   0    0.70    0.14
  -3  10   0    0.78    0.20
   2 -10   0    0.63    0.17
   2 -10   0    0.49    0.11
  -2  10   0    0.40    0.17
  -2  10   0    0.33    0.13
   1 -10   0    1.42    0.17
   1 -10   0    1.66    0.14
  -1  10   0    1.26    0.14
  -1  10   0    1.41    0.20
   0 -10   0    7.93    0.37
   0 -10   0    7.52    0.29
   0 -10   0    7.63    0.41
   0  10   0    7.76    0.34
   0  10   0    8.74    0.38
   0  10   0    8.00    0.42
  -1 -10   0    1.11    0.18
  -1 -10   0    1.32    0.23
  -1 -10   0    1.04    0.10
   1  10   0    1.10    0.15
   1  10   0    1.11    0.20
  -2 -10   0    2.51    0.30
   2  10   0    2.47    0.23
   2  10   0    2.65    0.28
  -3 -10   0    0.05    0.28
   3  10   0    0.00    0.16
   3  10   0    0.09    0.23
   3 -11   0   -0.02    0.18
   3 -11   0    0.01    0.13
  -3  11   0   -0.04    0.19
   2 -11   0    1.63    0.18
   2 -11   0    1.32    0.21
  -2  11   0    1.37    0.24
  -2  11   0    1.68    0.19
   1 -11   0    0.74    0.11
   1 -11   0    0.80    0.18
  -1  11   0    0.87    0.14
  -1  11   0    0.72    0.20
   0 -11   0    2.59    0.29
   0 -11   0    2.33    0.14
   0 -11   0    2.43    0.25
   0  11   0    2.10    0.26
   0  11   0    2.39    0.21
   0  11   0    3.00    0.29
  -1 -11   0    0.35    0.22
  -1 -11   0    0.36    0.19
   1  11   0    0.44    0.14
   1  11   0    0.43    0.23
   1  11   0    0.38    0.19
  -2 -11   0    1.27    0.30
   2  11   0    1.57    0.27
   2  11   0    1.16    0.18
   3 -12   0    0.33    0.23
   3 -12   0    0.40    0.17
  -3  12   0    0.44    0.28
   2 -12   0    0.06    0.12
   2 -12   0    0.17    0.20
  -2  12   0    0.13    0.23
  -2  12   0    0.14    0.18
   1 -12   0    0.30    0.19
   1 -12   0    0.29    0.11
  -1  12   0    0.38    0.21
  -1  12   0    0.33    0.15
   0 -12   0    0.02    0.08
   0 -12   0    0.03    0.21
   0 -12   0    0.07    0.19
   0  12   0    0.03    0.19
   0  12   0    0.03    0.20
   0  12   0    0.03    0.14
  -1 -12   0    0.39    0.25
  -1 -12   0    0.34    0.22
   1  12   0    0.37    0.25
   1  12   0    0.49    0.24
   1  12   0    0.26    0.17
   1 -13   0    0.11    0.11
   1 -13   0    0.11    0.22
  -1  13   0   -0.03    0.24
  -1  13   0   -0.05    0.17
   0  13  -1    0.55    0.18
   0  13  -1    0.75    0.29
   0 -13   1    0.79    0.25
  -1  13  -1    0.07    0.15
  -1  13  -1    0.04    0.25
   1 -13   1    0.12    0.23
   1  12  -1    0.33    0.25
   1  12  -1    0.35    0.22
   1  12  -1    0.31    0.16
  -1 -12   1    0.36    0.26
  -1 -12   1    0.22    0.21
   0  12  -1    0.01    0.13
   0  12  -1   -0.01    0.21
   0 -12   1   -0.07    0.17
   0 -12   1    0.05    0.21
  -1  12  -1    1.50    0.27
  -1  12  -1    1.50    0.18
   1 -12   1    1.55    0.24
   1 -12   1    1.52    0.14
  -2  12  -1   -0.01    0.23
  -2  12  -1    0.09    0.16
   2 -12   1    0.13    0.11
   2 -12   1    0.16    0.18
  -3  12  -1   -0.02    0.26
   3 -12   1    0.04    0.13
   3 -12   1    0.02    0.22
   2  11  -1    0.64    0.16
   2  11  -1    0.39    0.22
  -2 -11   1    0.53    0.26
   1  11  -1    2.64    0.22
   1  11  -1    2.75    0.32
   1  11  -1    3.11    0.31
  -1 -11   1    2.95    0.33
  -1 -11   1    2.48    0.26
   0  11  -1    0.60    0.12
   0  11  -1    0.64    0.18
   0  11  -1    0.59    0.19
   0 -11   1    0.36    0.16
   0 -11   1    0.49    0.19
  -1  11  -1    1.28    0.22
  -1  11  -1    1.13    0.14
   1 -11   1    1.17    0.19
   1 -11   1    1.28    0.12
  -2  11  -1    1.16    0.23
  -2  11  -1    1.33    0.17
   2 -11   1    1.21    0.13
   2 -11   1    1.02    0.19
  -3  11  -1   -0.07    0.20
  -3  11  -1    0.00    0.16
   3 -11   1   -0.02    0.17
   3 -11   1    0.15    0.12
   3  10  -1    0.21    0.24
   3  10  -1    0.16    0.16
  -3 -10   1    0.29    0.28
   2  10  -1   -0.02    0.12
   2  10  -1   -0.04    0.17
  -2 -10   1   -0.01    0.19
   1  10  -1    1.96    0.18
   1  10  -1    1.96    0.22
  -1 -10   1    2.03    0.26
  -1 -10   1    1.74    0.20
   0  10  -1    2.79    0.19
   0  10  -1    2.92    0.28
   0  10  -1    3.08    0.25
   0 -10   1    2.57    0.13
   0 -10   1    2.89    0.22
   0 -10   1    2.70    0.27
  -1  10  -1    0.36    0.10
  -1  10  -1    0.48    0.17
   1 -10   1    0.44    0.09
   1 -10   1    0.40    0.13
  -2  10  -1    2.31    0.20
  -2  10  -1    2.24    0.26
   2 -10   1    2.04    0.16
   2 -10   1    1.70    0.20
  -3  10  -1    0.29    0.18
  -3  10  -1    0.23    0.14
   3 -10   1    0.36    0.13
   3 -10   1    0.30    0.16
  -4  10  -1    0.08    0.24
   4 -10   1    0.02    0.15
   3   9  -1    1.36    0.24
   3   9  -1    1.02    0.17
  -3  -9   1    0.98    0.27
   2   9  -1    0.22    0.15
   2   9  -1    0.23    0.10
  -2  -9   1    0.24    0.19
   1   9  -1    2.19    0.16
   1   9  -1    2.03    0.21
  -1  -9   1    2.10    0.21
  -1  -9   1    2.05    0.24
   0   9  -1    0.10    0.08
   0   9  -1    0.01    0.13
   0   9  -1    0.08    0.12
   0  -9   1    0.01    0.12
   0  -9   1    0.06    0.05
   0  -9   1    0.03    0.13
  -1   9  -1    0.27    0.14
  -1   9  -1    0.28    0.12
  -1   9  -1    0.24    0.09
   1  -9   1    0.22    0.12
   1  -9   1    0.34    0.08
  -2   9  -1    1.17    0.14
  -2   9  -1    1.30    0.20
   2  -9   1    1.07    0.16
   2  -9   1    1.06    0.12
  -3   9  -1    1.33    0.16
  -3   9  -1    1.25    0.21
   3  -9   1    1.23    0.14
   3  -9   1    1.47    0.18
  -4   9  -1    0.60    0.23
   4  -9   1    0.57    0.15
   4   8  -1    0.04    0.23
   4   8  -1    0.13    0.17
  -4  -8   1    0.29    0.29
   3   8  -1    1.82    0.23
   3   8  -1    1.77    0.17
  -3  -8   1    1.52    0.23
   2   8  -1    0.24    0.13
   2   8  -1    0.32    0.10
  -2  -8   1    0.14    0.17
  -2  -8   1    0.04    0.13
   1   8  -1    4.39    0.21
   1   8  -1    4.61    0.25
  -1  -8   1    4.51    0.16
  -1  -8   1    4.40    0.23
  -1  -8   1    4.82    0.29
   0   8  -1    0.20    0.08
   0   8  -1    0.03    0.11
   0   8  -1    0.13    0.10
   0  -8   1    0.15    0.05
   0  -8   1    0.11    0.10
   0  -8   1    0.10    0.12
  -1   8  -1    3.95    0.19
  -1   8  -1    4.02    0.21
  -1   8  -1    3.99    0.25
   1  -8   1    3.67    0.22
   1  -8   1    3.83    0.17
  -2   8  -1    1.81    0.19
  -2   8  -1    1.86    0.16
   2  -8   1    1.99    0.18
   2  -8   1    1.86    0.14
  -3   8  -1    0.02    0.14
  -3   8  -1   -0.03    0.11
   3  -8   1   -0.04    0.11
   3  -8   1    0.01    0.10
  -4   8  -1    0.19    0.19
   4  -8   1    0.01    0.12
  -5   8  -1    0.25    0.28
   5  -8   1    0.13    0.18
   4   7  -1    2.19    0.26
   4   7  -1    1.87    0.20
  -4  -7   1    2.58    0.32
   3   7  -1    1.82    0.17
   3   7  -1    1.47    0.20
  -3  -7   1    1.80    0.22
   2   7  -1    0.30    0.08
   2   7  -1    0.39    0.13
  -2  -7   1    0.39    0.17
  -2  -7   1    0.17    0.10
  -2  -7   1    0.27    0.05
   1   7  -1    5.68    0.24
   1   7  -1    5.91    0.27
  -1  -7   1    5.92    0.21
  -1  -7   1    6.33    0.31
  -1  -7   1    6.14    0.21
  -1  -7   1    6.05    0.26
   0   7  -1   61.37    2.04
   0   7  -1   63.50    2.01
   0   7  -1   62.86    1.99
   0  -7   1   60.71    2.01
   0  -7   1   61.98    1.97
   0  -7   1   64.82    1.99
  -1   7  -1    2.23    0.14
  -1   7  -1    1.96    0.12
  -1   7  -1    2.04    0.16
   1  -7   1    2.06    0.11
   1  -7   1    1.97    0.14
  -2   7  -1    2.69    0.17
  -2   7  -1    3.33    0.21
   2  -7   1    3.32    0.17
   2  -7   1    3.31    0.19
  -3   7  -1    0.07    0.10
  -3   7  -1    0.18    0.13
   3  -7   1    0.16    0.09
   3  -7   1    0.11    0.11
  -4   7  -1   -0.02    0.16
   4  -7   1    0.06    0.11
  -5   7  -1    0.01    0.24
   5  -7   1   -0.07    0.16
   4   6  -1    0.12    0.12
   4   6  -1    0.17    0.18
  -4  -6   1    0.14    0.21
  -4  -6   1    0.17    0.08
   3   6  -1    0.69    0.15
   3   6  -1    0.43    0.10
  -3  -6   1    0.51    0.17
  -3  -6   1    0.47    0.08
   2   6  -1   13.17    0.50
   2   6  -1   13.50    0.46
  -2  -6   1   12.52    0.51
  -2  -6   1   13.23    0.44
  -2  -6   1   13.43    0.47
   1   6  -1   10.51    0.36
   1   6  -1    9.66    0.38
  -1  -6   1   10.18    0.41
  -1  -6   1   10.19    0.34
  -1  -6   1   10.12    0.33
  -1  -6   1    9.98    0.37
   0   6  -1    2.19    0.11
   0   6  -1    2.00    0.13
   0   6  -1    1.69    0.14
   0  -6   1    1.90    0.10
   0  -6   1    1.95    0.09
   0  -6   1    1.60    0.14
   0  -6   1    2.11    0.13
  -1   6  -1    6.17    0.23
  -1   6  -1    5.73    0.27
  -1   6  -1    6.38    0.24
   1  -6   1    6.34    0.25
   1  -6   1    5.91    0.22
  -2   6  -1    1.42    0.12
  -2   6  -1    1.67    0.15
  -2   6  -1    1.47    0.10
   2  -6   1    1.33    0.13
   2  -6   1    1.45    0.12
  -3   6  -1    1.49    0.17
  -3   6  -1    1.56    0.15
   3  -6   1    1.44    0.15
   3  -6   1    1.38    0.14
  -4   6  -1    1.07    0.19
   4  -6   1    0.82    0.14
  -5   6  -1    0.49    0.25
   5   5  -1    0.08    0.23
   5   5  -1    0.10    0.17
  -5  -5   1    0.12    0.27
  -5  -5   1    0.08    0.12
   4   5  -1    0.12    0.15
   4   5  -1    0.21    0.12
  -4  -5   1    0.08    0.18
  -4  -5   1    0.09    0.08
   3   5  -1    0.48    0.12
   3   5  -1    0.48    0.09
  -3  -5   1    0.40    0.15
  -3  -5   1    0.59    0.08
   2   5  -1    0.62    0.07
   2   5  -1    0.68    0.11
  -2  -5   1    0.46    0.11
  -2  -5   1    0.80    0.07
  -2  -5   1    0.55    0.08
  -2  -5   1    0.58    0.06
   1   5  -1    0.02    0.06
   1   5  -1    0.11    0.05
   1   5  -1    0.06    0.04
  -1  -5   1    0.15    0.03
  -1  -5   1    0.13    0.03
  -1  -5   1    0.07    0.06
  -1  -5   1    0.05    0.08
   0   5  -1    5.89    0.21
   0   5  -1    5.76    0.25
   0   5  -1    5.28    0.22
   0  -5   1    5.13    0.24
   0  -5   1    5.81    0.23
   0  -5   1    6.03    0.20
   0  -5   1    5.77    0.20
  -1   5  -1   87.56    2.71
  -1   5  -1   83.85    2.68
  -1   5  -1   86.93    2.68
   1  -5   1   84.11    2.67
   1  -5   1   82.42    2.69
  -2   5  -1   14.46    0.47
  -2   5  -1   14.00    0.46
  -2   5  -1   14.04    0.50
  -2   5  -1   14.00    0.48
   2  -5   1   13.17    0.47
   2  -5   1   13.25    0.48
  -3   5  -1    2.99    0.20
  -3   5  -1    2.46    0.16
   3  -5   1    2.30    0.17
   3  -5   1    2.41    0.16
  -4   5  -1    0.04    0.15
   4  -5   1    0.01    0.10
  -5   5  -1    0.17    0.22
   5   4  -1    0.14    0.20
   5   4  -1    0.10    0.16
  -5  -4   1    0.07    0.12
  -5  -4   1    0.07    0.24
   4   4  -1    0.14    0.13
   4   4  -1    0.30    0.11
  -4  -4   1    0.19    0.16
  -4  -4   1    0.36    0.10
   3   4  -1    5.52    0.26
   3   4  -1    5.48    0.23
  -3  -4   1    5.13    0.27
  -3  -4   1    5.10    0.21
   2   4  -1    1.25    0.12
   2   4  -1    1.25    0.09
  -2  -4   1    1.24    0.08
  -2  -4   1    1.23    0.13
  -2  -4   1    1.40    0.09
  -2  -4   1    1.41    0.09
   1   4  -1   22.74    0.74
   1   4  -1   21.16    0.76
   1   4  -1   22.74    0.74
  -1  -4   1   24.10    0.73
  -1  -4   1   23.19    0.77
  -1  -4   1   23.63    0.73
  -1  -4   1   23.01    0.75
   0   4  -1    5.34    0.20
   0   4  -1    5.46    0.21
   0   4  -1    5.69    0.20
   0  -4   1    5.70    0.21
   0  -4   1    5.75    0.19
   0  -4   1    5.50    0.23
   0  -4   1    5.57    0.19
  -1   4  -1    9.96    0.35
  -1   4  -1    9.83    0.33
  -1   4  -1    9.79    0.32
   1  -4   1    9.18    0.34
   1  -4   1    9.45    0.33
  -2   4  -1    0.19    0.05
  -2   4  -1    0.22    0.05
  -2   4  -1    0.18    0.07
  -2   4  -1    0.16    0.06
   2  -4   1    0.19    0.06
   2  -4   1    0.18    0.06
   2  -4   1    0.19    0.06
  -3   4  -1    0.80    0.13
  -3   4  -1    0.38    0.10
  -3   4  -1    0.40    0.09
   3  -4   1    0.34    0.09
   3  -4   1    0.32    0.08
  -4   4  -1    3.75    0.24
  -4   4  -1    3.36    0.25
   4  -4   1    3.75    0.23
  -5   4  -1    0.05    0.18
  -5   4  -1   -0.03    0.17
   5   3  -1    1.43    0.19
   5   3  -1    1.76    0.24
  -5  -3   1    1.56    0.27
  -5  -3   1    1.23    0.16
   4   3  -1    3.23    0.24
   4   3  -1    3.25    0.20
  -4  -3   1    3.51    0.27
  -4  -3   1    3.31    0.19
   3   3  -1    6.84    0.30
   3   3  -1    7.11    0.27
  -3  -3   1    6.80    0.32
  -3  -3   1    6.70    0.26
  -3  -3   1    6.97    0.30
   2   3  -1   39.51    1.27
   2   3  -1   37.90    1.24
  -2  -3   1   39.60    1.24
  -2  -3   1   38.93    1.28
  -2  -3   1   39.53    1.23
  -2  -3   1   37.50    1.26
  -2  -3   1   39.44    1.24
   1   3  -1   56.17    1.77
   1   3  -1   55.42    1.77
   1   3  -1   55.72    1.79
  -1  -3   1   56.31    1.77
  -1  -3   1   56.44    1.80
  -1  -3   1   57.12    1.76
  -1  -3   1   56.47    1.78
   0   3  -1    8.65    0.29
   0   3  -1    8.72    0.30
   0   3  -1    8.80    0.29
   0  -3   1    9.00    0.28
   0  -3   1    8.97    0.29
   0  -3   1    8.51    0.31
   0  -3   1    9.03    0.30
  -1   3  -1   35.25    1.14
  -1   3  -1   35.51    1.15
  -1   3  -1   34.79    1.13
  -1   3  -1   36.86    1.13
   1  -3   1   36.00    1.14
   1  -3   1   35.65    1.13
  -2   3  -1    3.79    0.17
  -2   3  -1    4.00    0.19
  -2   3  -1    4.09    0.15
  -2   3  -1    4.35    0.17
   2  -3   1    4.10    0.17
   2  -3   1    4.01    0.17
   2  -3   1    4.57    0.17
  -3   3  -1    1.19    0.11
  -3   3  -1    1.24    0.12
  -3   3  -1    1.28    0.15
  -3   3  -1    1.23    0.11
   3  -3   1    1.12    0.11
   3  -3   1    0.99    0.11
   3  -3   1    1.47    0.11
  -4   3  -1    2.16    0.19
  -4   3  -1    2.32    0.23
   4  -3   1    1.90    0.19
  -5   3  -1   -0.06    0.16
  -5   3  -1   -0.07    0.17
   5   2  -1    0.14    0.14
   5   2  -1    0.27    0.19
  -5  -2   1    0.16    0.12
  -5  -2   1    0.02    0.19
   4   2  -1    3.74    0.21
   4   2  -1    3.57    0.23
  -4  -2   1    3.32    0.26
  -4  -2   1    3.40    0.19
  -4  -2   1    3.72    0.24
   3   2  -1    1.32    0.10
   3   2  -1    1.31    0.14
  -3  -2   1    1.48    0.16
  -3  -2   1    1.32    0.11
  -3  -2   1    1.32    0.14
   2   2  -1    5.23    0.22
   2   2  -1    5.57    0.20
  -2  -2   1    5.65    0.20
  -2  -2   1    5.55    0.20
  -2  -2   1    5.83    0.19
  -2  -2   1    4.80    0.22
  -2  -2   1    5.71    0.24
   1   2  -1   93.16    2.96
  -1  -2   1   92.33    2.97
  -1  -2   1   98.10    2.96
  -1  -2   1   94.96    2.95
  -1  -2   1   92.76    2.95
  -1  -2   1   93.42    2.94
   0   2  -1   44.40    1.41
   0   2  -1   44.44    1.40
   0   2  -1   43.70    1.40
   0  -2   1   42.78    1.42
   0  -2   1   45.35    1.41
   0  -2   1   45.27    1.40
   0  -2   1   46.52    1.40
  -1   2  -1    8.68    0.27
  -1   2  -1    8.37    0.30
  -1   2  -1    8.44    0.28
   1  -2   1    8.52    0.29
   1  -2   1    8.57    0.28
  -2   2  -1   31.48    1.00
  -2   2  -1   30.14    1.02
  -2   2  -1   31.00    1.00
  -2   2  -1   31.29    0.99
   2  -2   1   31.69    1.00
   2  -2   1   31.01    1.00
   2  -2   1   31.30    0.99
  -3   2  -1    0.85    0.10
  -3   2  -1    0.88    0.10
  -3   2  -1    1.24    0.14
  -3   2  -1    0.93    0.10
  -3   2  -1    0.98    0.09
   3  -2   1    0.94    0.10
   3  -2   1    1.36    0.11
   3  -2   1    0.97    0.09
  -4   2  -1    1.03    0.17
  -4   2  -1    1.20    0.15
  -5   2  -1    1.03    0.20
  -5   2  -1    1.19    0.18
   5   1  -1    0.55    0.15
   5   1  -1    0.80    0.19
  -5  -1   1    0.43    0.18
  -5  -1   1    0.60    0.20
  -5  -1   1    0.46    0.14
   4   1  -1    2.18    0.17
   4   1  -1    2.47    0.21
  -4  -1   1    2.46    0.17
  -4  -1   1    2.15    0.22
  -4  -1   1    2.53    0.21
   3   1  -1    8.88    0.33
   3   1  -1    8.78    0.31
  -3  -1   1    8.12    0.31
  -3  -1   1    8.42    0.35
  -3  -1   1    8.34    0.33
   2   1  -1    3.15    0.13
  -2  -1   1    3.23    0.13
  -2  -1   1    3.39    0.16
  -2  -1   1    3.05    0.15
   1   1  -1   24.17    0.77
  -1  -1   1   25.03    0.79
  -1  -1   1   25.03    0.78
  -1  -1   1   23.83    0.79
   0  -1   1    6.27    0.21
   0  -1   1    6.51    0.21
   0  -1   1    6.43    0.21
  -1   1  -1   30.16    0.94
  -1   1  -1   29.37    0.93
  -1   1  -1   29.75    0.93
   1  -1   1   29.39    0.93
   1  -1   1   29.31    0.93
   1  -1   1   28.84    0.93
  -2   1  -1   33.11    1.08
  -2   1  -1   33.74    1.10
  -2   1  -1   33.98    1.08
  -2   1  -1   34.82    1.07
  -2   1  -1   33.65    1.08
   2  -1   1   33.39    1.07
   2  -1   1   33.77    1.08
   2  -1   1   32.82    1.08
   2  -1   1   34.12    1.08
  -3   1  -1    1.26    0.14
  -3   1  -1    1.19    0.12
  -3   1  -1    1.09    0.11
  -3   1  -1    1.15    0.09
  -3   1  -1    1.37    0.12
   3  -1   1    1.30    0.11
   3  -1   1    1.11    0.10
   3  -1   1    1.13    0.11
  -4   1  -1    3.64    0.22
  -4   1  -1    4.12    0.22
  -4   1  -1    3.61    0.25
   4  -1   1    3.90    0.22
  -5   1  -1    3.24    0.25
  -5   1  -1    2.84    0.30
   5   0  -1    2.57    0.35
  -5   0   1    2.32    0.22
  -5   0   1    2.66    0.26
   4   0  -1    0.47    0.10
   4   0  -1    0.51    0.12
  -4   0   1    0.42    0.14
  -4   0   1    0.46    0.10
  -4   0   1    0.60    0.12
   3   0  -1    1.14    0.09
  -3   0   1    0.73    0.09
  -3   0   1    0.72    0.10
  -3   0   1    0.70    0.10
   2   0  -1    3.83    0.14
   2   0  -1    3.75    0.16
  -2   0   1    3.42    0.15
  -2   0   1    3.87    0.17
  -2   0   1    3.45    0.15
   1   0  -1  529.30   16.86
  -1   0   1  547.06   16.91
  -1   0   1  535.12   16.85
  -1   0   1  544.78   16.85
   0   0  -1    0.12    0.01
   0   0  -1    0.12    0.01
   0   0   1    0.15    0.01
  -1   0  -1  229.25    7.13
  -1   0  -1  229.49    7.13
  -1   0  -1  222.92    7.13
  -1   0  -1  236.53    7.14
  -1   0  -1  222.50    7.14
   1   0   1  225.51    7.13
   1   0   1  233.79    7.14
   1   0   1  226.56    7.13
  -2   0  -1    5.10    0.18
  -2   0  -1    5.22    0.21
  -2   0  -1    4.62    0.19
  -2   0  -1    4.95    0.19
  -2   0  -1    4.64    0.19
   2   0   1    5.21    0.19
   2   0   1    4.69    0.19
   2   0   1    4.92    0.19
  -3   0  -1    0.00    0.07
  -3   0  -1   -0.01    0.08
  -3   0  -1    0.02    0.07
   3   0   1    0.01    0.06
   3   0   1    0.01    0.07
   3   0   1   -0.02    0.05
  -4   0  -1    0.02    0.11
  -4   0  -1    0.12    0.10
  -4   0  -1    0.07    0.12
   4   0   1    0.12    0.10
   4   0   1   -0.01    0.10
  -5   0  -1   -0.05    0.19
  -5   0  -1   -0.03    0.14
  -5   1   1    1.10    0.16
  -5   1   1    1.44    0.22
   4  -1  -1    4.86    0.23
   4  -1  -1    4.99    0.25
  -4   1   1    4.34    0.23
  -4   1   1    4.69    0.25
  -4   1   1    4.57    0.27
   3  -1  -1    0.96    0.09
   3  -1  -1    1.09    0.12
  -3   1   1    0.88    0.12
  -3   1   1    0.86    0.10
  -3   1   1    0.92    0.09
   2  -1  -1    1.08    0.06
   2  -1  -1    0.97    0.09
   2  -1  -1    1.04    0.07
  -2   1   1    1.14    0.08
  -2   1   1    0.95    0.08
  -2   1   1    0.94    0.08
  -2   1   1    1.06    0.10
   1  -1  -1  162.49    5.06
   1  -1  -1  155.76    5.06
   1  -1  -1  170.29    5.06
  -1   1   1  166.59    5.06
  -1   1   1  162.01    5.06
  -1   1   1  156.44    5.07
  -1   1   1  159.02    5.06
   0  -1  -1   17.61    0.55
   0  -1  -1   16.49    0.55
   0  -1  -1   16.84    0.55
   0  -1  -1   16.90    0.55
   0   1   1   17.39    0.55
   0   1   1   17.73    0.55
   0   1   1   17.23    0.55
  -1  -1  -1    1.31    0.06
  -1  -1  -1    1.07    0.07
  -1  -1  -1    1.25    0.07
  -1  -1  -1    1.39    0.06
   1   1   1    1.38    0.06
   1   1   1    1.28    0.07
   1   1   1    1.22    0.07
  -2  -1  -1   13.95    0.45
  -2  -1  -1   14.50    0.46
  -2  -1  -1   13.30    0.48
  -2  -1  -1   13.55    0.46
   2   1   1   13.41    0.46
   2   1   1   14.19    0.47
   2   1   1   13.24    0.47
  -3  -1  -1    8.81    0.34
  -3  -1  -1    8.96    0.38
   3   1   1    9.57    0.35
   3   1   1    9.82    0.34
  -4  -1  -1    3.10    0.23
  -4  -1  -1    3.36    0.21
   4   1   1    3.51    0.21
   4   1   1    3.08    0.21
  -5  -1  -1    0.22    0.14
  -5  -1  -1    0.26    0.19
  -5   2   1    0.00    0.15
  -5   2   1   -0.01    0.13
   4  -2  -1    0.69    0.12
  -4   2   1    0.42    0.12
  -4   2   1    0.66    0.16
  -4   2   1    0.40    0.12
   3  -2  -1    2.52    0.15
   3  -2  -1    2.73    0.14
  -3   2   1    2.15    0.14
  -3   2   1    2.09    0.17
  -3   2   1    2.09    0.14
   2  -2  -1    9.04    0.31
   2  -2  -1    8.84    0.31
   2  -2  -1    9.28    0.32
  -2   2   1    8.94    0.32
  -2   2   1    9.71    0.32
  -2   2   1    9.16    0.33
  -2   2   1    8.98    0.32
   1  -2  -1  977.78   30.58
   1  -2  -1  986.67   30.60
   1  -2  -1  976.22   30.60
  -1   2   1  989.74   30.59
  -1   2   1  969.11   30.62
  -1   2   1 1000.00   30.59
  -1   2   1  947.81   30.57
   0  -2  -1   26.66    0.86
   0  -2  -1   26.26    0.86
   0  -2  -1   27.18    0.85
   0   2   1   27.16    0.86
   0   2   1   26.78    0.86
   0   2   1   26.92    0.85
  -1  -2  -1   28.70    0.90
  -1  -2  -1   27.98    0.91
  -1  -2  -1   27.89    0.89
   1   2   1   27.44    0.90
   1   2   1   28.32    0.89
   1   2   1   27.78    0.90
  -2  -2  -1    0.90    0.08
  -2  -2  -1    0.87    0.07
  -2  -2  -1    0.76    0.10
   2   2   1    0.85    0.08
   2   2   1    0.85    0.08
   2   2   1    0.97    0.10
  -3  -2  -1    1.02    0.13
  -3  -2  -1    1.06    0.11
   3   2   1    1.24    0.11
   3   2   1    0.92    0.11
  -4  -2  -1    0.40    0.16
  -4  -2  -1    0.58    0.12
   4   2   1    0.62    0.14
   4   2   1    0.89    0.13
  -5  -2  -1    0.39    0.21
  -5  -2  -1    0.26    0.14
   5   2   1    0.31    0.18
  -5   3   1   -0.03    0.17
  -5   3   1    0.02    0.14
  -4   3   1    2.60    0.22
  -4   3   1    2.69    0.19
   3  -3  -1   11.16    0.38
   3  -3  -1   11.37    0.39
   3  -3  -1   11.04    0.40
  -3   3   1    9.79    0.39
  -3   3   1   10.92    0.42
  -3   3   1   10.58    0.39
   2  -3  -1    0.11    0.06
   2  -3  -1    0.11    0.05
   2  -3  -1    0.08    0.05
  -2   3   1    0.13    0.07
  -2   3   1    0.07    0.05
  -2   3   1    0.08    0.05
  -2   3   1    0.12    0.05
   1  -3  -1   81.25    2.57
   1  -3  -1   81.72    2.57
   1  -3  -1   81.52    2.57
  -1   3   1   80.47    2.57
  -1   3   1   81.63    2.57
  -1   3   1   82.70    2.57
  -1   3   1   82.26    2.58
   0  -3  -1   26.80    0.85
   0  -3  -1   27.44    0.86
   0  -3  -1   25.48    0.87
   0   3   1   27.19    0.86
   0   3   1   26.82    0.86
   0   3   1   26.56    0.86
  -1  -3  -1  135.97    4.35
  -1  -3  -1  134.24    4.37
  -1  -3  -1  139.03    4.35
   1   3   1  139.86    4.36
   1   3   1  145.14    4.36
   1   3   1  138.13    4.35
  -2  -3  -1   62.29    1.96
  -2  -3  -1   60.77    1.97
  -2  -3  -1   62.21    2.00
   2   3   1   62.39    1.97
   2   3   1   60.23    1.98
   2   3   1   64.00    1.97
  -3  -3  -1    1.85    0.14
  -3  -3  -1    1.70    0.16
   3   3   1    1.55    0.13
   3   3   1    1.80    0.16
  -4  -3  -1    1.64    0.17
  -4  -3  -1    1.26    0.18
   4   3   1    1.72    0.16
   4   3   1    1.40    0.17
  -5  -3  -1    0.01    0.22
  -5  -3  -1    0.07    0.14
   5   3   1    0.11    0.20
  -5   4   1    0.20    0.14
  -5   4   1    0.20    0.19
  -4   4   1    0.16    0.12
  -4   4   1    0.13    0.15
   3  -4  -1    0.10    0.09
   3  -4  -1    0.13    0.07
   3  -4  -1    0.16    0.08
  -3   4   1    0.10    0.09
  -3   4   1    0.24    0.09
  -3   4   1    0.15    0.10
  -3   4   1    0.09    0.07
   2  -4  -1  199.72    6.23
   2  -4  -1  199.86    6.23
   2  -4  -1  197.42    6.23
  -2   4   1  199.65    6.22
  -2   4   1  198.88    6.23
  -2   4   1  202.40    6.23
  -2   4   1  191.74    6.25
   1  -4  -1   24.40    0.80
  -1   4   1   23.71    0.81
  -1   4   1   24.48    0.79
  -1   4   1   25.01    0.80
  -1   4   1   24.79    0.80
   0  -4  -1   13.21    0.47
   0  -4  -1   13.79    0.46
   0  -4  -1   13.23    0.45
   0   4   1   13.14    0.46
   0   4   1   13.64    0.45
   0   4   1   13.88    0.45
  -1  -4  -1    0.42    0.09
  -1  -4  -1    0.44    0.07
  -1  -4  -1    0.48    0.06
   1   4   1    0.46    0.08
   1   4   1    0.49    0.08
   1   4   1    0.50    0.06
  -2  -4  -1    1.34    0.14
  -2  -4  -1    1.00    0.10
  -2  -4  -1    1.27    0.10
   2   4   1    1.10    0.11
   2   4   1    1.35    0.10
  -3  -4  -1    0.18    0.08
  -3  -4  -1    0.34    0.14
   3   4   1    0.22    0.09
   3   4   1    0.23    0.12
  -4  -4  -1    1.07    0.20
  -4  -4  -1    1.56    0.16
   4   4   1    1.28    0.15
   4   4   1    1.49    0.19
  -5  -4  -1    0.04    0.14
  -5  -4  -1    0.14    0.24
   5   4   1    0.14    0.18
   5   4   1    0.01    0.21
  -5   5   1    0.00    0.20
  -5   5   1   -0.06    0.15
   4  -5  -1    0.68    0.15
  -4   5   1    0.75    0.18
  -4   5   1    0.61    0.14
   3  -5  -1    4.06    0.22
   3  -5  -1    4.13    0.21
  -3   5   1    4.26    0.20
  -3   5   1    4.70    0.24
  -3   5   1    4.19    0.22
  -3   5   1    4.66    0.22
   2  -5  -1    0.21    0.06
   2  -5  -1    0.11    0.07
   2  -5  -1    0.12    0.07
  -2   5   1    0.08    0.07
  -2   5   1    0.20    0.09
  -2   5   1    0.10    0.07
  -2   5   1    0.12    0.06
   1  -5  -1    5.70    0.23
   1  -5  -1    5.80    0.22
   1  -5  -1    6.51    0.22
  -1   5   1    5.62    0.25
  -1   5   1    5.29    0.23
  -1   5   1    6.22    0.22
  -1   5   1    5.98    0.23
   0  -5  -1   21.94    0.72
   0  -5  -1   21.00    0.75
   0  -5  -1   22.47    0.74
   0   5   1   22.45    0.73
   0   5   1   22.80    0.73
   0   5   1   21.98    0.74
  -1  -5  -1   18.62    0.59
  -1  -5  -1   17.20    0.58
  -1  -5  -1   17.16    0.62
  -1  -5  -1   17.82    0.60
   1   5   1   17.02    0.61
   1   5   1   17.77    0.59
  -2  -5  -1    0.51    0.12
  -2  -5  -1    0.66    0.08
  -2  -5  -1    0.48    0.09
   2   5   1    0.50    0.10
   2   5   1    0.64    0.09
  -3  -5  -1   22.22    0.79
  -3  -5  -1   20.60    0.72
   3   5   1   22.23    0.77
   3   5   1   20.83    0.73
  -4  -5  -1    0.16    0.11
  -4  -5  -1    0.12    0.19
   4   5   1    0.04    0.16
   4   5   1    0.40    0.13
  -5  -5  -1    0.28    0.15
  -5  -5  -1    0.19    0.25
   5   5   1    0.38    0.21
   5   5   1    0.22    0.25
  -5   6   1    0.15    0.24
   4  -6  -1   -0.02    0.12
  -4   6   1    0.02    0.16
   3  -6  -1    0.02    0.10
   3  -6  -1    0.07    0.10
  -3   6   1    0.08    0.09
  -3   6   1    0.26    0.13
   2  -6  -1    5.93    0.27
   2  -6  -1    5.90    0.26
  -2   6   1    6.57    0.25
  -2   6   1    6.14    0.27
  -2   6   1    6.68    0.26
  -2   6   1    6.16    0.27
   1  -6  -1    5.15    0.23
   1  -6  -1    5.27    0.22
  -1   6   1    5.27    0.25
  -1   6   1    5.59    0.22
  -1   6   1    5.45    0.23
  -1   6   1    5.02    0.22
   0  -6  -1    2.73    0.18
   0  -6  -1    2.57    0.14
   0  -6  -1    3.13    0.16
   0   6   1    3.16    0.18
   0   6   1    2.63    0.16
   0   6   1    2.94    0.14
  -1  -6  -1   31.07    1.07
  -1  -6  -1   31.20    1.02
  -1  -6  -1   31.95    1.04
   1   6   1   32.40    1.03
   1   6   1   31.44    1.05
  -2  -6  -1    1.11    0.13
  -2  -6  -1    1.05    0.11
  -2  -6  -1    0.86    0.15
   2   6   1    1.01    0.11
   2   6   1    0.92    0.14
  -3  -6  -1    0.40    0.10
  -3  -6  -1    0.25    0.17
   3   6   1    0.30    0.15
   3   6   1    0.41    0.11
  -4  -6  -1    1.00    0.24
  -4  -6  -1    0.99    0.14
   4   6   1    1.53    0.23
   4   6   1    1.45    0.19
  -5   7   1    0.01    0.24
   4  -7  -1    1.02    0.16
  -4   7   1    1.03    0.20
   3  -7  -1    0.12    0.12
   3  -7  -1    0.05    0.11
  -3   7   1    0.17    0.13
   2  -7  -1    0.25    0.09
   2  -7  -1    0.29    0.11
  -2   7   1    0.22    0.09
  -2   7   1    0.23    0.09
  -2   7   1    0.16    0.11
   1  -7  -1    2.68    0.15
   1  -7  -1    2.67    0.17
  -1   7   1    2.84    0.19
  -1   7   1    3.08    0.16
  -1   7   1    2.80    0.16
   0  -7  -1    7.80    0.34
   0  -7  -1    7.34    0.31
   0  -7  -1    7.77    0.29
   0   7   1    7.65    0.32
   0   7   1    7.95    0.34
   0   7   1    7.86    0.30
  -1  -7  -1    5.04    0.21
  -1  -7  -1    5.19    0.28
  -1  -7  -1    4.77    0.24
   1   7   1    5.01    0.23
   1   7   1    5.23    0.26
  -2  -7  -1    5.94    0.25
  -2  -7  -1    6.45    0.34
  -2  -7  -1    5.66    0.28
   2   7   1    6.10    0.27
   2   7   1    6.03    0.31
  -3  -7  -1   -0.07    0.09
  -3  -7  -1    0.00    0.18
   3   7   1    0.08    0.11
   3   7   1   -0.04    0.14
  -4  -7  -1    0.24    0.25
  -4  -7  -1    0.33    0.12
   4   7   1    0.24    0.21
   4   7   1    0.45    0.17
  -5   8   1    0.48    0.29
   4  -8  -1    0.94    0.17
  -4   8   1    1.50    0.24
   3  -8  -1    1.15    0.15
   3  -8  -1    1.11    0.17
  -3   8   1    1.45    0.20
   2  -8  -1    5.52    0.27
   2  -8  -1    5.05    0.24
  -2   8   1    4.63    0.25
  -2   8   1    5.45    0.28
  -2   8   1    5.27    0.25
   1  -8  -1    1.57    0.13
   1  -8  -1    1.41    0.15
  -1   8   1    1.48    0.14
  -1   8   1    1.36    0.14
  -1   8   1    1.65    0.18
   0  -8  -1    1.70    0.13
   0  -8  -1    2.04    0.20
   0  -8  -1    1.93    0.17
   0   8   1    1.99    0.16
   0   8   1    1.91    0.17
   0   8   1    1.64    0.19
  -1  -8  -1   18.32    0.62
  -1  -8  -1   18.51    0.66
  -1  -8  -1   18.44    0.70
   1   8   1   18.79    0.68
   1   8   1   18.41    0.65
  -2  -8  -1    0.07    0.18
  -2  -8  -1    0.14    0.13
  -2  -8  -1    0.04    0.07
   2   8   1    0.18    0.14
   2   8   1    0.09    0.10
  -3  -8  -1    0.39    0.10
  -3  -8  -1    0.43    0.19
   3   8   1    0.45    0.15
   3   8   1    0.53    0.19
  -4  -8  -1   -0.04    0.12
  -4  -8  -1    0.09    0.30
   4   8   1    0.05    0.19
   4   8   1    0.01    0.24
   4  -9  -1    0.10    0.16
  -4   9   1   -0.03    0.22
   3  -9  -1    0.23    0.16
   3  -9  -1    0.11    0.12
  -3   9   1    0.30    0.17
   2  -9  -1    5.86    0.28
   2  -9  -1    5.76    0.30
  -2   9   1    6.10    0.29
  -2   9   1    6.62    0.34
   1  -9  -1    2.15    0.20
   1  -9  -1    1.99    0.15
  -1   9   1    1.96    0.17
  -1   9   1    2.21    0.22
  -1   9   1    2.07    0.19
   0  -9  -1   -0.02    0.07
   0  -9  -1   -0.01    0.12
   0  -9  -1    0.11    0.14
   0   9   1    0.00    0.13
   0   9   1    0.03    0.12
   0   9   1   -0.03    0.09
  -1  -9  -1    1.60    0.13
  -1  -9  -1    1.93    0.23
  -1  -9  -1    1.42    0.17
   1   9   1    1.74    0.21
   1   9   1    1.91    0.17
  -2  -9  -1    2.83    0.17
  -2  -9  -1    2.54    0.24
  -2  -9  -1    2.48    0.28
   2   9   1    3.17    0.26
   2   9   1    2.70    0.22
  -3  -9  -1    0.98    0.27
  -3  -9  -1    0.91    0.11
   3   9   1    0.79    0.22
   3   9   1    0.92    0.18
   4 -10  -1   -0.03    0.17
  -4  10   1   -0.03    0.25
   3 -10  -1    0.08    0.17
   3 -10  -1    0.02    0.13
  -3  10   1   -0.02    0.18
   2 -10  -1    0.22    0.15
   2 -10  -1    0.09    0.11
  -2  10   1    0.24    0.17
  -2  10   1    0.16    0.14
   1 -10  -1    1.60    0.16
   1 -10  -1    2.31    0.22
  -1  10   1    1.20    0.19
  -1  10   1    1.66    0.19
  -1  10   1    1.10    0.15
   0 -10  -1    2.95    0.18
   0 -10  -1    2.98    0.27
   0 -10  -1    2.93    0.24
   0  10   1    3.66    0.27
   0  10   1    2.82    0.28
   0  10   1    3.13    0.22
  -1 -10  -1    1.32    0.19
  -1 -10  -1    1.33    0.13
  -1 -10  -1    1.25    0.23
   1  10   1    1.41    0.20
   1  10   1    1.41    0.16
  -2 -10  -1    0.45    0.22
  -2 -10  -1    0.43    0.09
   2  10   1    0.37    0.20
   2  10   1    0.28    0.14
  -3 -10  -1    1.07    0.32
   3  10   1    1.31    0.22
   3  10   1    0.80    0.26
   3 -11  -1    0.02    0.15
   3 -11  -1    0.17    0.20
  -3  11   1   -0.06    0.21
   2 -11  -1    0.14    0.12
   2 -11  -1    0.14    0.18
  -2  11   1    0.12    0.16
  -2  11   1    0.05    0.19
   1 -11  -1    0.03    0.11
   1 -11  -1   -0.02    0.16
  -1  11   1    0.09    0.18
  -1  11   1    0.00    0.12
   0 -11  -1    1.19    0.20
   0 -11  -1    1.36    0.24
   0 -11  -1    1.23    0.13
   0  11   1    1.09    0.16
   0  11   1    1.29    0.23
   0  11   1    1.44    0.21
  -1 -11  -1   -0.09    0.21
  -1 -11  -1   -0.05    0.09
  -1 -11  -1   -0.02    0.17
   1  11   1   -0.02    0.14
   1  11   1    0.09    0.21
   1  11   1   -0.04    0.19
  -2 -11  -1   -0.12    0.24
   2  11   1   -0.03    0.23
   2  11   1   -0.04    0.16
   2 -12  -1    0.60    0.15
   2 -12  -1    0.76    0.23
  -2  12   1    0.45    0.19
  -2  12   1    0.50    0.25
   1 -12  -1    2.59    0.28
   1 -12  -1    2.63    0.20
  -1  12   1    2.96    0.26
  -1  12   1    2.50    0.30
   0 -12  -1    0.05    0.11
   0 -12  -1    0.05    0.20
   0 -12  -1   -0.05    0.22
   0  12   1    0.02    0.21
   0  12   1    0.06    0.15
   0  12   1    0.04    0.19
  -1 -12  -1    0.02    0.26
  -1 -12  -1    0.05    0.23
   1  12   1   -0.01    0.25
   1  12   1    0.20    0.23
   1  12   1    0.02    0.18
   0  13  -2    1.51    0.20
   0  13  -2    1.38    0.31
   0 -13   2    1.67    0.26
  -1  13  -2   -0.07    0.25
  -1  13  -2   -0.08    0.15
   1 -13   2    0.08    0.20
   1  12  -2   -0.04    0.22
   1  12  -2    0.04    0.21
   1  12  -2    0.04    0.15
  -1 -12   2    0.02    0.22
  -1 -12   2   -0.09    0.19
   0  12  -2    1.49    0.27
   0  12  -2    1.48    0.17
   0 -12   2    1.35    0.22
   0 -12   2    1.87    0.28
  -1  12  -2    1.67    0.27
  -1  12  -2    1.35    0.16
   1 -12   2    1.11    0.20
  -2  12  -2    1.60    0.29
  -2  12  -2    2.34    0.22
   2 -12   2    1.85    0.15
   2 -12   2    1.22    0.22
  -3  12  -2    0.99    0.20
  -3  12  -2    0.92    0.29
   3 -12   2    0.57    0.24
   3 -12   2    0.54    0.14
   2  11  -2    0.11    0.13
   2  11  -2    0.03    0.19
  -2 -11   2    0.10    0.23
   1  11  -2    0.61    0.13
   1  11  -2    0.46    0.19
   1  11  -2    0.57    0.20
  -1 -11   2    0.41    0.22
  -1 -11   2    0.56    0.19
   0  11  -2   -0.04    0.17
   0  11  -2    0.14    0.11
   0 -11   2    0.21    0.16
   0 -11   2   -0.01    0.17
  -1  11  -2    0.88    0.13
  -1  11  -2    0.72    0.20
   1 -11   2    0.99    0.19
   1 -11   2    0.94    0.09
  -2  11  -2    0.13    0.14
  -2  11  -2    0.09    0.19
   2 -11   2    0.04    0.14
   2 -11   2    0.16    0.09
  -3  11  -2    0.21    0.16
  -3  11  -2    0.23    0.23
   3 -11   2    0.10    0.18
   3 -11   2    0.12    0.12
   3  10  -2    0.16    0.22
   3  10  -2    0.33    0.16
  -3 -10   2    0.08    0.27
   2  10  -2    1.08    0.21
   2  10  -2    0.89    0.14
  -2 -10   2    1.09    0.24
   1  10  -2    0.99    0.12
   1  10  -2    0.83    0.17
   1  10  -2    0.79    0.21
  -1 -10   2    1.03    0.17
  -1 -10   2    0.91    0.21
   0  10  -2    0.47    0.15
   0  10  -2    0.44    0.18
   0  10  -2    0.50    0.11
   0 -10   2    0.69    0.16
   0 -10   2    0.48    0.17
  -1  10  -2    0.14    0.15
  -1  10  -2    0.10    0.09
   1 -10   2    0.24    0.14
   1 -10   2    0.13    0.06
  -2  10  -2    0.10    0.11
  -2  10  -2    0.12    0.16
   2 -10   2    0.17    0.08
   2 -10   2    0.17    0.13
  -3  10  -2    0.08    0.14
  -3  10  -2    0.22    0.18
   3 -10   2    0.13    0.10
   3 -10   2    0.21    0.15
  -4  10  -2   -0.16    0.24
   4 -10   2   -0.07    0.13
   3   9  -2    0.25    0.14
   3   9  -2    0.24    0.19
  -3  -9   2    0.16    0.23
   2   9  -2    4.57    0.30
   2   9  -2    4.78    0.24
  -2  -9   2    5.06    0.35
   1   9  -2    2.53    0.16
   1   9  -2    2.35    0.22
  -1  -9   2    2.42    0.21
  -1  -9   2    2.71    0.26
   0   9  -2    0.05    0.08
   0   9  -2    0.00    0.14
   0   9  -2    0.06    0.12
   0  -9   2   -0.01    0.14
   0  -9   2    0.02    0.11
  -1   9  -2   -0.04    0.07
  -1   9  -2    0.04    0.13
   1  -9   2   -0.01    0.06
   1  -9   2   -0.02    0.12
  -2   9  -2    0.18    0.15
  -2   9  -2    0.13    0.10
   2  -9   2    0.07    0.08
   2  -9   2    0.20    0.12
  -3   9  -2    0.00    0.15
  -3   9  -2   -0.06    0.12
   3  -9   2    0.06    0.14
   3  -9   2   -0.02    0.09
  -4   9  -2    0.32    0.21
   4  -9   2    0.37    0.14
   4   8  -2    0.06    0.23
   4   8  -2    0.08    0.16
  -4  -8   2    0.04    0.27
   3   8  -2    0.32    0.11
   3   8  -2    0.34    0.16
  -3  -8   2    0.15    0.20
   2   8  -2    3.26    0.19
   2   8  -2    3.46    0.25
  -2  -8   2    3.95    0.29
   1   8  -2   15.18    0.57
   1   8  -2   15.24    0.53
  -1  -8   2   16.07    0.61
  -1  -8   2   14.72    0.55
   0   8  -2    4.56    0.27
   0   8  -2    3.95    0.23
   0   8  -2    4.58    0.20
   0  -8   2    4.50    0.23
   0  -8   2    4.32    0.26
  -1   8  -2    7.41    0.28
  -1   8  -2    6.59    0.33
  -1   8  -2    6.87    0.29
   1  -8   2    7.17    0.31
   1  -8   2    7.01    0.25
  -2   8  -2    1.62    0.14
  -2   8  -2    1.70    0.19
   2  -8   2    1.14    0.14
   2  -8   2    1.50    0.13
  -3   8  -2    1.19    0.19
  -3   8  -2    1.27    0.14
   3  -8   2    1.21    0.13
   3  -8   2    1.60    0.17
  -4   8  -2    0.03    0.17
   4  -8   2    0.03    0.11
  -5   8  -2   -0.01    0.27
   5  -8   2    0.07    0.16
   4   7  -2    0.40    0.14
   4   7  -2    0.54    0.21
  -4  -7   2    0.28    0.22
   3   7  -2    0.99    0.12
   3   7  -2    0.67    0.17
  -3  -7   2    1.04    0.21
   2   7  -2    0.83    0.10
   2   7  -2    0.62    0.13
  -2  -7   2    0.78    0.12
  -2  -7   2    1.03    0.18
   1   7  -2    4.47    0.19
   1   7  -2    3.98    0.22
  -1  -7   2    4.33    0.21
  -1  -7   2    4.56    0.25
   0   7  -2    7.46    0.30
   0   7  -2    7.34    0.27
   0   7  -2    7.53    0.34
   0  -7   2    7.22    0.30
   0  -7   2    7.52    0.33
   0  -7   2    7.40    0.24
  -1   7  -2   15.77    0.56
  -1   7  -2   14.90    0.51
  -1   7  -2   14.47    0.50
   1  -7   2   13.31    0.52
   1  -7   2   14.61    0.48
  -2   7  -2    5.63    0.29
  -2   7  -2    6.00    0.25
   2  -7   2    6.05    0.24
   2  -7   2    5.99    0.27
  -3   7  -2    0.13    0.10
  -3   7  -2    0.13    0.13
   3  -7   2    0.23    0.09
   3  -7   2    0.24    0.11
  -4   7  -2    0.38    0.18
   4  -7   2    0.30    0.12
  -5   7  -2   -0.03    0.24
   5  -7   2    0.01    0.15
   4   6  -2    1.27    0.21
   4   6  -2    1.10    0.15
  -4  -6   2    1.03    0.23
   3   6  -2    1.84    0.19
   3   6  -2    1.82    0.15
  -3  -6   2    1.40    0.20
   2   6  -2    0.12    0.09
   2   6  -2    0.24    0.06
  -2  -6   2    0.21    0.09
  -2  -6   2    0.20    0.12
   1   6  -2    0.26    0.08
   1   6  -2    0.29    0.06
  -1  -6   2    0.17    0.11
  -1  -6   2    0.23    0.08
   0   6  -2   20.37    0.72
   0   6  -2   20.28    0.66
   0   6  -2   20.67    0.68
   0   6  -2   20.07    0.67
   0  -6   2   21.40    0.69
   0  -6   2   20.66    0.64
   0  -6   2   19.04    0.71
  -1   6  -2    0.75    0.08
  -1   6  -2    0.65    0.07
  -1   6  -2    0.71    0.11
   1  -6   2    0.73    0.10
   1  -6   2    0.92    0.08
   1  -6   2    0.66    0.07
  -2   6  -2    1.59    0.15
  -2   6  -2    1.59    0.12
   2  -6   2    1.60    0.13
   2  -6   2    1.42    0.11
  -3   6  -2    1.50    0.15
  -3   6  -2    1.56    0.16
   3  -6   2    1.43    0.14
   3  -6   2    1.63    0.14
  -4   6  -2    0.47    0.18
   4  -6   2    0.37    0.12
  -5   6  -2    0.00    0.24
   5  -6   2   -0.06    0.14
   5   5  -2    0.81    0.25
   5   5  -2    0.57    0.18
  -5  -5   2    0.60    0.11
  -5  -5   2    0.59    0.27
   4   5  -2    0.45    0.12
   4   5  -2    0.49    0.17
  -4  -5   2    0.34    0.08
  -4  -5   2    0.28    0.18
   3   5  -2    0.32    0.12
   3   5  -2    0.21    0.08
  -3  -5   2    0.19    0.14
  -3  -5   2    0.25    0.05
   2   5  -2    0.01    0.08
   2   5  -2    0.03    0.05
  -2  -5   2    0.01    0.07
  -2  -5   2   -0.02    0.10
   1   5  -2   36.14    1.16
   1   5  -2   36.07    1.13
   1   5  -2   35.10    1.13
  -1  -5   2   35.28    1.18
  -1  -5   2   35.83    1.15
   0   5  -2    2.94    0.12
   0   5  -2    2.85    0.14
   0   5  -2    2.85    0.17
   0   5  -2    3.24    0.12
   0  -5   2    3.38    0.15
   0  -5   2    3.53    0.18
  -1   5  -2    6.57    0.28
  -1   5  -2    6.83    0.24
  -1   5  -2    6.41    0.24
   1  -5   2    7.67    0.24
   1  -5   2    6.76    0.24
   1  -5   2    6.10    0.26
  -2   5  -2   12.72    0.41
  -2   5  -2   12.66    0.43
  -2   5  -2   12.74    0.47
   2  -5   2   11.92    0.44
   2  -5   2   12.43    0.43
  -3   5  -2    4.59    0.24
  -3   5  -2    4.49    0.21
   3  -5   2    4.54    0.21
   3  -5   2    4.23    0.21
  -4   5  -2    1.26    0.19
   4  -5   2    1.09    0.14
  -5   5  -2    0.39    0.23
   5   4  -2    0.11    0.20
   5   4  -2    0.08    0.15
  -5  -4   2   -0.03    0.11
  -5  -4   2   -0.06    0.23
   4   4  -2    1.19    0.18
   4   4  -2    0.97    0.13
  -4  -4   2    1.04    0.10
  -4  -4   2    1.06    0.20
   3   4  -2   19.00    0.62
   3   4  -2   18.26    0.66
  -3  -4   2   17.85    0.60
  -3  -4   2   18.22    0.66
  -3  -4   2   18.26    0.68
   2   4  -2    8.70    0.36
   2   4  -2    9.59    0.33
  -2  -4   2    9.63    0.31
  -2  -4   2    9.67    0.31
  -2  -4   2    9.83    0.36
  -2  -4   2    9.65    0.33
  -2  -4   2    9.01    0.37
   1   4  -2   28.89    0.92
   1   4  -2   28.66    0.92
   1   4  -2   28.93    0.95
  -1  -4   2   29.45    0.94
  -1  -4   2   29.48    0.97
   0   4  -2   17.44    0.54
   0   4  -2   16.15    0.54
   0   4  -2   16.37    0.58
   0   4  -2   16.86    0.55
   0  -4   2   17.32    0.56
   0  -4   2   16.95    0.58
  -1   4  -2   46.96    1.51
  -1   4  -2   48.53    1.48
  -1   4  -2   46.03    1.48
   1  -4   2   45.89    1.49
   1  -4   2   46.17    1.48
   1  -4   2   47.03    1.48
  -2   4  -2   11.08    0.37
  -2   4  -2    9.94    0.39
  -2   4  -2   10.85    0.35
  -2   4  -2   10.50    0.38
   2  -4   2   10.61    0.36
   2  -4   2   10.21    0.37
   2  -4   2   10.51    0.37
  -3   4  -2    1.78    0.15
  -3   4  -2    1.46    0.15
  -3   4  -2    1.68    0.14
   3  -4   2    1.59    0.13
   3  -4   2    1.52    0.13
  -4   4  -2    0.45    0.16
   4  -4   2    0.52    0.11
  -5   4  -2   -0.03    0.19
   5   3  -2    0.39    0.20
   5   3  -2    0.44    0.15
  -5  -3   2    0.25    0.23
  -5  -3   2    0.37    0.12
   4   3  -2    0.09    0.09
   4   3  -2    0.05    0.13
  -4  -3   2    0.01    0.14
  -4  -3   2    0.00    0.08
  -4  -3   2    0.10    0.15
   3   3  -2    3.48    0.16
   3   3  -2    3.65    0.20
  -3  -3   2    3.60    0.22
  -3  -3   2    3.56    0.21
  -3  -3   2    3.25    0.16
   2   3  -2   47.82    1.53
   2   3  -2   47.45    1.51
  -2  -3   2   48.52    1.50
  -2  -3   2   46.79    1.50
  -2  -3   2   47.30    1.53
  -2  -3   2   47.04    1.50
  -2  -3   2   47.24    1.54
   1   3  -2   24.09    0.81
   1   3  -2   25.70    0.79
  -1  -3   2   25.23    0.80
  -1  -3   2   24.70    0.81
  -1  -3   2   24.99    0.82
   0   3  -2  213.24    6.61
   0   3  -2  214.08    6.60
   0   3  -2  205.22    6.60
   0  -3   2  217.31    6.62
   0  -3   2  206.95    6.63
  -1   3  -2    0.82    0.07
  -1   3  -2    0.93    0.06
  -1   3  -2    0.83    0.04
   1  -3   2    0.78    0.05
   1  -3   2    0.67    0.06
  -2   3  -2    0.00    0.06
  -2   3  -2    0.03    0.04
  -2   3  -2    0.07    0.05
  -2   3  -2    0.05    0.06
   2  -3   2    0.04    0.05
   2  -3   2    0.05    0.05
   2  -3   2    0.03    0.04
  -3   3  -2    0.69    0.10
  -3   3  -2    0.46    0.12
  -3   3  -2    0.66    0.10
   3  -3   2    0.64    0.09
   3  -3   2    0.35    0.08
  -4   3  -2    0.02    0.13
  -4   3  -2    0.01    0.13
   4  -3   2    0.08    0.10
  -5   3  -2    0.23    0.17
  -5   3  -2    0.18    0.17
   5   2  -2    0.33    0.14
   5   2  -2    0.41    0.17
  -5  -2   2    0.54    0.21
  -5  -2   2    0.60    0.18
  -5  -2   2    0.25    0.12
   4   2  -2    1.00    0.15
   4   2  -2    0.63    0.10
  -4  -2   2    0.66    0.15
  -4  -2   2    0.98    0.18
  -4  -2   2    0.75    0.11
   3   2  -2   -0.01    0.06
   3   2  -2   -0.02    0.08
  -3  -2   2    0.03    0.05
  -3  -2   2    0.01    0.08
  -3  -2   2    0.01    0.10
   2   2  -2    8.10    0.30
   2   2  -2    7.90    0.28
  -2  -2   2    8.12    0.28
  -2  -2   2    7.83    0.30
  -2  -2   2    7.86    0.31
  -2  -2   2    8.56    0.28
  -2  -2   2    8.23    0.26
   1   2  -2   39.40    1.25
   1   2  -2   41.04    1.25
  -1  -2   2   40.61    1.26
  -1  -2   2   38.53    1.28
  -1  -2   2   39.62    1.27
   0   2  -2   44.23    1.38
   0  -2   2   43.86    1.38
   0  -2   2   43.89    1.39
   0  -2   2   43.78    1.40
  -1   2  -2    3.18    0.13
  -1   2  -2    3.11    0.12
   1  -2   2    3.12    0.12
   1  -2   2    3.27    0.13
  -2   2  -2    7.80    0.27
  -2   2  -2    7.57    0.28
  -2   2  -2    7.40    0.30
  -2   2  -2    7.77    0.26
   2  -2   2    8.13    0.26
   2  -2   2    7.69    0.27
   2  -2   2    7.75    0.27
  -3   2  -2   30.19    1.06
  -3   2  -2   30.97    1.02
  -3   2  -2   32.41    1.03
  -3   2  -2   31.62    1.04
  -3   2  -2   31.62    1.02
   3  -2   2   31.16    1.03
   3  -2   2   31.50    1.02
   3  -2   2   32.17    1.02
   3  -2   2   31.24    1.03
  -4   2  -2    0.10    0.14
  -4   2  -2    0.08    0.11
   4  -2   2    0.00    0.10
  -5   2  -2    0.54    0.20
  -5   2  -2    0.62    0.17
   5   1  -2    0.35    0.18
   5   1  -2    0.51    0.13
  -5  -1   2    0.49    0.13
  -5  -1   2    0.52    0.20
  -5  -1   2    0.15    0.17
   4   1  -2    0.96    0.14
   4   1  -2    1.14    0.12
  -4  -1   2    0.92    0.16
  -4  -1   2    1.10    0.12
  -4  -1   2    0.97    0.14
   3   1  -2    0.02    0.05
  -3  -1   2    0.05    0.09
  -3  -1   2    0.00    0.08
  -3  -1   2    0.01    0.06
   2   1  -2   10.67    0.36
  -2  -1   2   10.91    0.36
  -2  -1   2   10.37    0.36
  -2  -1   2   10.79    0.39
  -2  -1   2   10.52    0.37
   1   1  -2   19.25    0.61
   1   1  -2   18.99    0.61
   1   1  -2   19.46    0.61
  -1  -1   2   19.38    0.61
  -1  -1   2   19.13    0.61
  -1  -1   2   19.32    0.63
  -1  -1   2   18.67    0.62
  -1  -1   2   19.62    0.61
   0   1  -2   29.29    0.93
   0  -1   2   29.84    0.92
   0  -1   2   29.47    0.93
   0  -1   2   28.65    0.93
  -1   1  -2  235.70    7.35
  -1   1  -2  243.28    7.35
  -1   1  -2  235.20    7.35
  -1   1  -2  237.47    7.36
   1  -1   2  231.62    7.35
   1  -1   2  235.31    7.35
   1  -1   2  234.59    7.35
   1  -1   2  227.68    7.35
  -2   1  -2   22.31    0.78
  -2   1  -2   23.82    0.76
  -2   1  -2   24.42    0.77
  -2   1  -2   24.29    0.77
  -2   1  -2   23.26    0.76
   2  -1   2   23.35    0.76
   2  -1   2   24.05    0.76
   2  -1   2   23.83    0.77
   2  -1   2   23.03    0.77
  -3   1  -2    4.66    0.20
  -3   1  -2    3.82    0.20
  -3   1  -2    3.92    0.18
  -3   1  -2    4.11    0.22
  -3   1  -2    4.24    0.18
   3  -1   2    4.27    0.18
   3  -1   2    4.21    0.19
   3  -1   2    4.22    0.20
  -4   1  -2    4.09    0.23
  -4   1  -2    3.58    0.25
  -5   1  -2    1.94    0.26
  -5   1  -2    2.30    0.24
   5   0  -2    1.11    0.19
  -5   0   2    1.23    0.15
  -5   0   2    1.00    0.20
  -5   0   2    0.96    0.19
   4   0  -2    0.01    0.09
   4   0  -2   -0.02    0.11
  -4   0   2    0.03    0.13
  -4   0   2   -0.02    0.09
  -4   0   2   -0.05    0.11
   3   0  -2    0.01    0.06
  -3   0   2    0.04    0.08
  -3   0   2   -0.02    0.08
  -3   0   2    0.06    0.06
   2   0  -2    5.22    0.19
   2   0  -2    5.12    0.18
  -2   0   2    4.70    0.19
  -2   0   2    5.08    0.20
  -2   0   2    4.49    0.18
   1   0  -2   20.62    0.64
   1   0  -2   19.88    0.64
  -1   0   2   19.50    0.65
  -1   0   2   20.60    0.65
  -1   0   2   20.06    0.64
   0   0  -2    9.64    0.32
   0   0  -2    9.75    0.31
   0   0   2   10.06    0.31
   0   0   2    9.59    0.32
  -1   0  -2   46.42    1.45
  -1   0  -2   45.25    1.44
  -1   0  -2   46.00    1.44
  -1   0  -2   44.94    1.45
   1   0   2   46.00    1.44
   1   0   2   46.01    1.44
   1   0   2   45.56    1.44
  -2   0  -2    4.85    0.20
  -2   0  -2    4.76    0.21
  -2   0  -2    5.22    0.19
  -2   0  -2    5.25    0.19
   2   0   2    5.03    0.19
   2   0   2    4.83    0.19
   2   0   2    4.76    0.19
  -3   0  -2    2.95    0.17
  -3   0  -2    3.49    0.15
   3   0   2    3.20    0.16
   3   0   2    3.39    0.17
  -4   0  -2    0.15    0.11
  -4   0  -2    0.17    0.14
   4   0   2    0.27    0.11
   4   0   2    0.21    0.11
  -5   0  -2    0.84    0.21
  -5   0  -2    0.95    0.18
  -5   1   2    2.08    0.20
  -5   1   2    1.39    0.22
   4  -1  -2    8.24    0.33
  -4   1   2    8.22    0.33
  -4   1   2    7.82    0.34
   3  -1  -2    7.02    0.26
  -3   1   2    6.42    0.26
  -3   1   2    6.48    0.27
  -3   1   2    7.20    0.29
   2  -1  -2    8.88    0.29
   2  -1  -2    9.34    0.32
   2  -1  -2    8.96    0.30
  -2   1   2    8.92    0.32
  -2   1   2    8.52    0.31
  -2   1   2    8.46    0.31
  -2   1   2    9.09    0.31
   1  -1  -2   20.05    0.63
   1  -1  -2   20.04    0.64
   1  -1  -2   19.47    0.63
  -1   1   2   19.84    0.64
  -1   1   2   19.87    0.63
  -1   1   2   19.55    0.64
   0  -1  -2   28.15    0.87
   0  -1  -2   26.96    0.86
   0  -1  -2   27.62    0.87
   0  -1  -2   27.58    0.87
   0   1   2   27.32    0.87
   0   1   2   26.97    0.87
  -1  -1  -2   24.04    0.75
  -1  -1  -2   23.70    0.76
  -1  -1  -2   23.29    0.75
  -1  -1  -2   23.74    0.75
   1   1   2   23.87    0.75
   1   1   2   23.25    0.75
   1   1   2   22.41    0.76
  -2  -1  -2    7.42    0.30
  -2  -1  -2    7.58    0.27
  -2  -1  -2    8.14    0.28
  -2  -1  -2    7.53    0.28
   2   1   2    7.69    0.28
   2   1   2    8.09    0.28
   2   1   2    7.49    0.28
  -3  -1  -2    0.45    0.11
  -3  -1  -2    0.60    0.10
   3   1   2    0.70    0.10
   3   1   2    0.65    0.09
   3   1   2    0.47    0.10
  -4  -1  -2    1.53    0.15
  -4  -1  -2    1.07    0.18
   4   1   2    1.39    0.14
   4   1   2    1.52    0.16
  -5  -1  -2    0.23    0.20
  -5  -1  -2    0.29    0.15
  -5   2   2    0.92    0.20
  -5   2   2    1.03    0.16
   4  -2  -2    0.13    0.09
  -4   2   2    0.03    0.10
  -4   2   2    0.21    0.11
  -4   2   2    0.14    0.11
   3  -2  -2    5.68    0.25
   3  -2  -2    5.79    0.23
  -3   2   2    5.40    0.24
  -3   2   2    5.77    0.24
  -3   2   2    5.73    0.26
   2  -2  -2  161.38    5.14
   2  -2  -2  169.71    5.13
  -2   2   2  164.88    5.14
  -2   2   2  165.42    5.14
  -2   2   2  157.23    5.15
  -2   2   2  164.67    5.14
   1  -2  -2    1.12    0.07
   1  -2  -2    1.31    0.06
   1  -2  -2    1.22    0.07
  -1   2   2    0.94    0.07
  -1   2   2    1.24    0.07
  -1   2   2    1.04    0.07
  -1   2   2    1.07    0.07
   0  -2  -2   70.88    2.22
   0  -2  -2   71.51    2.22
   0  -2  -2   71.59    2.22
   0   2   2   69.28    2.23
   0   2   2   69.58    2.22
   0   2   2   70.27    2.22
  -1  -2  -2   13.54    0.45
  -1  -2  -2   13.38    0.45
  -1  -2  -2   13.42    0.46
  -1  -2  -2   13.92    0.45
   1   2   2   12.94    0.45
   1   2   2   14.00    0.45
   1   2   2   13.72    0.45
  -2  -2  -2    0.45    0.08
  -2  -2  -2    0.59    0.07
  -2  -2  -2    0.58    0.07
  -2  -2  -2    0.58    0.07
   2   2   2    0.53    0.07
   2   2   2    0.65    0.08
   2   2   2    0.63    0.07
  -3  -2  -2    0.28    0.09
  -3  -2  -2    0.12    0.10
   3   2   2    0.49    0.09
   3   2   2    0.24    0.09
  -4  -2  -2    2.20    0.22
  -4  -2  -2    2.63    0.19
   4   2   2    2.73    0.21
   4   2   2    2.84    0.20
  -5  -2  -2    0.06    0.14
  -5  -2  -2    0.02    0.20
  -5   3   2    0.11    0.15
  -5   3   2    0.07    0.17
   4  -3  -2    1.28    0.14
  -4   3   2    1.43    0.16
  -4   3   2    1.39    0.19
  -4   3   2    1.14    0.14
   3  -3  -2    1.65    0.15
   3  -3  -2    2.00    0.13
  -3   3   2    1.52    0.15
  -3   3   2    1.61    0.13
  -3   3   2    1.65    0.13
   2  -3  -2   25.91    0.85
   2  -3  -2   25.85    0.84
   2  -3  -2   25.52    0.83
  -2   3   2   25.93    0.84
  -2   3   2   25.20    0.85
  -2   3   2   26.05    0.84
   1  -3  -2  108.81    3.37
   1  -3  -2  105.82    3.36
   1  -3  -2  106.73    3.36
  -1   3   2  107.82    3.36
  -1   3   2  107.05    3.36
  -1   3   2  107.23    3.36
  -1   3   2  105.01    3.37
   0  -3  -2   62.07    1.94
   0  -3  -2   60.88    1.93
   0  -3  -2   60.62    1.92
   0  -3  -2   60.37    1.93
   0   3   2   62.43    1.93
   0   3   2   61.00    1.93
   0   3   2   59.81    1.94
  -1  -3  -2   59.35    1.87
  -1  -3  -2   58.22    1.86
  -1  -3  -2   58.95    1.86
  -1  -3  -2   57.21    1.85
   1   3   2   57.94    1.87
   1   3   2   60.29    1.86
   1   3   2   58.36    1.86
  -2  -3  -2   55.92    1.78
  -2  -3  -2   55.01    1.79
  -2  -3  -2   54.30    1.81
   2   3   2   56.93    1.80
   2   3   2   56.00    1.79
   2   3   2   57.73    1.79
  -3  -3  -2   24.17    0.86
  -3  -3  -2   25.06    0.83
   3   3   2   24.11    0.83
   3   3   2   25.33    0.85
  -4  -3  -2    0.08    0.16
  -4  -3  -2    0.11    0.11
   4   3   2   -0.05    0.14
   4   3   2    0.03    0.11
  -5  -3  -2    0.11    0.15
  -5  -3  -2    0.05    0.22
   5   3   2    0.16    0.21
  -5   4   2   -0.04    0.19
  -5   4   2   -0.05    0.13
  -4   4   2    1.06    0.19
  -4   4   2    0.98    0.14
   3  -4  -2    6.43    0.26
   3  -4  -2    6.40    0.26
   3  -4  -2    6.30    0.28
  -3   4   2    6.53    0.29
  -3   4   2    6.12    0.26
  -3   4   2    6.46    0.27
   2  -4  -2   32.06    1.09
   2  -4  -2   34.20    1.08
   2  -4  -2   34.03    1.10
  -2   4   2   33.76    1.09
  -2   4   2   33.30    1.10
  -2   4   2   34.30    1.09
  -2   4   2   33.72    1.09
   1  -4  -2   37.26    1.20
   1  -4  -2   37.90    1.21
   1  -4  -2   37.15    1.21
  -1   4   2   38.05    1.21
  -1   4   2   38.76    1.22
  -1   4   2   38.19    1.21
  -1   4   2   36.53    1.20
   0  -4  -2   25.12    0.80
   0  -4  -2   24.75    0.82
   0  -4  -2   24.30    0.81
   0  -4  -2   25.63    0.83
   0   4   2   24.54    0.82
   0   4   2   25.67    0.81
   0   4   2   24.78    0.81
  -1  -4  -2   21.47    0.73
  -1  -4  -2   21.51    0.75
  -1  -4  -2   22.37    0.73
   1   4   2   22.14    0.75
   1   4   2   23.28    0.74
   1   4   2   22.61    0.73
  -2  -4  -2    0.07    0.06
  -2  -4  -2    0.02    0.08
  -2  -4  -2    0.00    0.06
   2   4   2   -0.01    0.08
   2   4   2    0.02    0.06
  -3  -4  -2    0.59    0.10
  -3  -4  -2    0.61    0.15
   3   4   2    0.75    0.12
   3   4   2    0.63    0.11
  -4  -4  -2    1.41    0.16
  -4  -4  -2    1.75    0.24
   4   4   2    1.72    0.21
   4   4   2    1.71    0.17
  -5  -4  -2    0.29    0.16
  -5  -4  -2    0.42    0.27
   5   4   2    0.80    0.25
  -5   5   2    0.27    0.16
  -5   5   2    0.42    0.21
  -4   5   2    0.89    0.17
  -4   5   2    0.79    0.15
   3  -5  -2    1.01    0.12
   3  -5  -2    1.06    0.13
  -3   5   2    1.11    0.13
  -3   5   2    0.91    0.11
  -3   5   2    1.12    0.14
   2  -5  -2    7.53    0.31
   2  -5  -2    8.29    0.30
   2  -5  -2    7.74    0.31
  -2   5   2    7.99    0.31
  -2   5   2    8.07    0.30
  -2   5   2    8.52    0.31
  -2   5   2    8.61    0.33
   1  -5  -2    9.13    0.35
   1  -5  -2    8.89    0.34
   1  -5  -2    9.81    0.33
  -1   5   2    9.18    0.35
  -1   5   2    9.67    0.34
  -1   5   2    9.43    0.34
  -1   5   2    9.70    0.34
   0  -5  -2    2.20    0.13
   0  -5  -2    1.93    0.12
   0  -5  -2    2.17    0.14
   0  -5  -2    2.25    0.11
   0   5   2    2.11    0.12
   0   5   2    2.30    0.14
   0   5   2    2.21    0.14
  -1  -5  -2    0.08    0.09
  -1  -5  -2    0.11    0.07
  -1  -5  -2    0.14    0.06
   1   5   2    0.14    0.08
   1   5   2    0.09    0.06
   1   5   2    0.16    0.09
  -2  -5  -2   25.70    0.86
  -2  -5  -2   26.84    0.87
  -2  -5  -2   25.34    0.90
   2   5   2   26.14    0.87
   2   5   2   26.45    0.89
  -3  -5  -2    0.59    0.10
  -3  -5  -2    0.59    0.15
   3   5   2    0.75    0.15
   3   5   2    0.70    0.12
  -4  -5  -2    0.36    0.20
  -4  -5  -2    0.28    0.12
   4   5   2    0.41    0.15
   4   5   2    0.25    0.17
  -5   6   2    0.04    0.24
  -4   6   2    0.05    0.16
  -4   6   2    0.03    0.14
   3  -6  -2   22.06    0.77
   3  -6  -2   23.30    0.78
  -3   6   2   21.73    0.80
  -3   6   2   22.70    0.78
  -3   6   2   22.82    0.77
   2  -6  -2    2.92    0.18
   2  -6  -2    3.07    0.18
  -2   6   2    3.08    0.17
  -2   6   2    3.28    0.19
  -2   6   2    2.81    0.18
  -2   6   2    3.09    0.17
   1  -6  -2    0.61    0.09
   1  -6  -2    0.81    0.09
  -1   6   2    1.06    0.10
  -1   6   2    1.04    0.12
  -1   6   2    0.87    0.11
  -1   6   2    0.83    0.10
   0  -6  -2    0.05    0.09
   0  -6  -2   -0.01    0.07
   0  -6  -2    0.08    0.06
   0   6   2    0.05    0.09
   0   6   2    0.02    0.06
   0   6   2    0.03    0.06
  -1  -6  -2    1.33    0.13
  -1  -6  -2    1.39    0.16
  -1  -6  -2    1.01    0.11
   1   6   2    1.32    0.12
   1   6   2    1.12    0.13
  -2  -6  -2   -0.06    0.09
  -2  -6  -2    0.07    0.13
  -2  -6  -2    0.12    0.07
   2   6   2    0.03    0.10
   2   6   2    0.04    0.09
  -3  -6  -2    0.25    0.17
  -3  -6  -2    0.32    0.10
   3   6   2    0.21    0.14
   3   6   2    0.21    0.11
  -4  -6  -2    0.10    0.12
  -4  -6  -2    0.05    0.21
   4   6   2    0.00    0.18
   4   6   2    0.04    0.15
  -5   7   2    0.19    0.27
   4  -7  -2   -0.08    0.15
  -4   7   2    0.07    0.18
   3  -7  -2    0.39    0.12
   3  -7  -2    0.39    0.13
  -3   7   2    0.46    0.15
   2  -7  -2    3.34    0.20
   2  -7  -2    3.41    0.19
  -2   7   2    3.44    0.20
  -2   7   2    3.15    0.19
  -2   7   2    3.40    0.22
   1  -7  -2   14.60    0.52
  -1   7   2   14.68    0.54
  -1   7   2   14.32    0.50
  -1   7   2   13.74    0.51
   0  -7  -2   50.25    1.64
   0  -7  -2   50.42    1.60
   0  -7  -2   49.35    1.62
   0   7   2   48.17    1.61
   0   7   2   50.69    1.64
   0   7   2   49.95    1.63
  -1  -7  -2    0.13    0.10
  -1  -7  -2    0.16    0.08
  -1  -7  -2    0.26    0.13
   1   7   2    0.19    0.11
   1   7   2    0.12    0.08
  -2  -7  -2   13.64    0.49
  -2  -7  -2   13.78    0.56
  -2  -7  -2   13.50    0.51
   2   7   2   13.35    0.53
   2   7   2   13.51    0.50
  -3  -7  -2    0.06    0.09
  -3  -7  -2    0.00    0.18
   3   7   2    0.01    0.14
   3   7   2    0.10    0.13
  -4  -7  -2    0.01    0.12
  -4  -7  -2    0.08    0.26
   4   7   2   -0.01    0.17
   4   7   2    0.11    0.21
   4  -8  -2    0.85    0.19
  -4   8   2    1.09    0.23
   3  -8  -2    0.18    0.12
   3  -8  -2    0.11    0.14
  -3   8   2    0.04    0.15
   2  -8  -2    0.06    0.10
   2  -8  -2    0.06    0.11
  -2   8   2    0.10    0.12
  -2   8   2    0.09    0.11
  -2   8   2    0.10    0.11
   1  -8  -2    0.10    0.08
   1  -8  -2    0.10    0.10
  -1   8   2    0.18    0.10
  -1   8   2    0.11    0.09
  -1   8   2    0.20    0.12
   0  -8  -2    6.16    0.30
   0  -8  -2    6.95    0.33
   0  -8  -2    6.42    0.27
   0   8   2    6.79    0.31
   0   8   2    6.56    0.29
   0   8   2    6.78    0.33
  -1  -8  -2    0.25    0.08
  -1  -8  -2    0.16    0.12
  -1  -8  -2    0.09    0.14
   1   8   2    0.20    0.13
   1   8   2    0.11    0.09
  -2  -8  -2    1.14    0.17
  -2  -8  -2    0.97    0.21
  -2  -8  -2    0.94    0.12
   2   8   2    0.87    0.17
   2   8   2    1.02    0.14
  -3  -8  -2    0.56    0.12
  -3  -8  -2    0.62    0.22
   3   8   2    0.85    0.19
   3   8   2    0.66    0.17
   4  -9  -2    0.02    0.17
  -4   9   2   -0.02    0.21
   3  -9  -2   -0.01    0.13
   3  -9  -2   -0.02    0.15
  -3   9   2    0.15    0.17
   2  -9  -2    0.76    0.16
   2  -9  -2    0.76    0.13
  -2   9   2    0.67    0.17
  -2   9   2    0.63    0.14
   1  -9  -2    1.06    0.15
   1  -9  -2    1.16    0.13
  -1   9   2    1.00    0.13
  -1   9   2    0.83    0.16
  -1   9   2    0.96    0.14
   0  -9  -2    0.46    0.10
   0  -9  -2    0.61    0.14
   0  -9  -2    0.74    0.17
   0   9   2    0.53    0.15
   0   9   2    0.49    0.12
   0   9   2    0.48    0.16
  -1  -9  -2    9.10    0.41
  -1  -9  -2    9.86    0.47
  -1  -9  -2    9.80    0.37
   1   9   2   10.54    0.44
   1   9   2    9.57    0.40
  -2  -9  -2    2.08    0.22
  -2  -9  -2    2.18    0.27
  -2  -9  -2    2.11    0.16
   2   9   2    1.64    0.18
   2   9   2    2.42    0.24
  -3  -9  -2    0.18    0.25
  -3  -9  -2    0.07    0.11
   3   9   2    0.04    0.16
   3   9   2    0.11    0.21
   4 -10  -2   -0.04    0.18
  -4  10   2    0.22    0.26
   3 -10  -2    0.98    0.20
   3 -10  -2    0.80    0.17
  -3  10   2    0.85    0.22
   2 -10  -2    0.00    0.16
   2 -10  -2    0.10    0.11
  -2  10   2    0.07    0.16
  -2  10   2    0.07    0.15
   1 -10  -2    1.12    0.13
   1 -10  -2    1.06    0.18
  -1  10   2    1.38    0.21
  -1  10   2    1.09    0.15
  -1  10   2    1.13    0.17
   0 -10  -2    0.75    0.16
   0 -10  -2    0.72    0.18
   0 -10  -2    0.56    0.11
   0  10   2    0.66    0.19
   0  10   2    0.91    0.15
   0  10   2    0.63    0.16
  -1 -10  -2   -0.01    0.09
  -1 -10  -2    0.10    0.14
  -1 -10  -2    0.07    0.19
   1  10   2    0.00    0.15
   1  10   2    0.11    0.18
   1  10   2    0.15    0.13
  -2 -10  -2    0.73    0.20
  -2 -10  -2    0.76    0.23
  -2 -10  -2    0.51    0.11
   2  10   2    0.83    0.22
   2  10   2    0.60    0.16
   3 -11  -2    0.91    0.19
   3 -11  -2    0.86    0.24
  -3  11   2    0.86    0.25
   2 -11  -2    1.45    0.17
   2 -11  -2    1.31    0.22
  -2  11   2    1.33    0.24
   1 -11  -2    0.35    0.12
   1 -11  -2    0.27    0.18
  -1  11   2    0.51    0.19
  -1  11   2    0.39    0.14
  -1  11   2    0.25    0.16
   0 -11  -2   -0.03    0.16
   0 -11  -2    0.15    0.19
   0 -11  -2    0.06    0.11
   0  11   2    0.08    0.19
   0  11   2    0.19    0.14
   0  11   2    0.06    0.16
  -1 -11  -2    0.18    0.23
  -1 -11  -2    0.24    0.11
  -1 -11  -2    0.17    0.19
   1  11   2    0.23    0.19
   1  11   2    0.42    0.23
   1  11   2    0.31    0.16
  -2 -11  -2    0.85    0.29
  -2 -11  -2    0.64    0.12
   2  11   2    0.94    0.26
   2  11   2    0.65    0.19
   2 -12  -2    0.35    0.23
   2 -12  -2    0.49    0.16
  -2  12   2    0.50    0.25
   1 -12  -2    1.82    0.27
   1 -12  -2    2.03    0.20
  -1  12   2    2.29    0.30
  -1  12   2    2.14    0.22
   0 -12  -2    0.54    0.22
   0 -12  -2    0.37    0.24
   0 -12  -2    0.42    0.13
   0  12   2    0.35    0.24
   0  12   2    0.35    0.17
   0  12   2    0.32    0.20
  -1 -12  -2    0.06    0.27
  -1 -12  -2    0.12    0.22
  -1 -12  -2    0.13    0.12
   1  12   2    0.09    0.20
   1  12   2    0.10    0.27
   1  12   2    0.15    0.24
   0  13  -3    0.56    0.27
   0  13  -3    0.60    0.16
   0 -13   3    0.64    0.22
  -1  13  -3    0.46    0.27
  -1  13  -3    0.59    0.17
   1 -13   3    0.43    0.21
   1  12  -3    0.00    0.14
   1  12  -3    0.12    0.21
   1  12  -3    0.16    0.24
  -1 -12   3    0.03    0.18
  -1 -12   3    0.14    0.24
   0  12  -3    0.08    0.21
   0  12  -3    0.00    0.12
   0 -12   3    0.20    0.21
   0 -12   3    0.07    0.17
  -1  12  -3    1.51    0.26
  -1  12  -3    1.70    0.17
   1 -12   3    1.49    0.22
  -2  12  -3    1.56    0.19
  -2  12  -3    1.51    0.29
   2 -12   3    1.52    0.12
   2 -12   3    1.18    0.22
  -3  12  -3    0.55    0.28
  -3  12  -3    0.48    0.19
   3 -12   3    0.42    0.12
   3 -12   3    0.46    0.23
   2  11  -3    0.36    0.22
   2  11  -3    0.59    0.15
  -2 -11   3    0.49    0.24
   1  11  -3    0.83    0.20
   1  11  -3    0.88    0.23
   1  11  -3    0.73    0.13
  -1 -11   3    0.75    0.23
  -1 -11   3    0.86    0.18
   0  11  -3    0.04    0.10
   0  11  -3    0.05    0.16
   0 -11   3    0.07    0.16
   0 -11   3    0.07    0.13
  -1  11  -3    0.40    0.11
  -1  11  -3    0.39    0.19
   1 -11   3    0.28    0.15
  -2  11  -3   -0.05    0.17
  -2  11  -3   -0.03    0.12
   2 -11   3    0.00    0.07
   2 -11   3    0.01    0.15
  -3  11  -3    0.20    0.23
  -3  11  -3    0.21    0.15
   3 -11   3    0.17    0.11
   3 -11   3    0.26    0.18
   3  10  -3    0.26    0.24
   3  10  -3    0.42    0.17
  -3 -10   3    0.21    0.26
   2  10  -3    0.44    0.12
   2  10  -3    0.19    0.17
  -2 -10   3    0.17    0.21
   1  10  -3    2.20    0.18
   1  10  -3    1.81    0.25
   1  10  -3    2.56    0.24
  -1 -10   3    2.21    0.23
  -1 -10   3    2.12    0.26
   0  10  -3    2.80    0.24
   0  10  -3    2.70    0.27
   0  10  -3    2.61    0.17
   0 -10   3    2.83    0.27
   0 -10   3    2.17    0.22
  -1  10  -3    2.50    0.26
  -1  10  -3    2.65    0.17
   1 -10   3    2.22    0.21
  -2  10  -3    1.38    0.15
  -2  10  -3    1.33    0.22
   2 -10   3    1.25    0.12
   2 -10   3    0.93    0.16
  -3  10  -3    0.14    0.18
  -3  10  -3   -0.07    0.12
   3 -10   3    0.02    0.10
   3 -10   3    0.03    0.15
  -4  10  -3   -0.04    0.24
   4 -10   3    0.12    0.22
   4 -10   3    0.08    0.13
   3   9  -3    0.09    0.19
   3   9  -3    0.16    0.13
  -3  -9   3    0.32    0.25
   2   9  -3    5.41    0.32
   2   9  -3    5.24    0.25
  -2  -9   3    4.87    0.35
   1   9  -3    0.00    0.07
   1   9  -3    0.00    0.12
  -1  -9   3    0.04    0.12
  -1  -9   3   -0.05    0.14
   0   9  -3    0.51    0.16
   0   9  -3    0.49    0.13
   0   9  -3    0.42    0.09
   0  -9   3    0.37    0.12
   0  -9   3    0.45    0.16
  -1   9  -3    0.04    0.13
  -1   9  -3    0.07    0.07
   1  -9   3    0.05    0.04
   1  -9   3    0.13    0.11
  -2   9  -3    0.00    0.14
  -2   9  -3    0.07    0.09
   2  -9   3    0.01    0.06
   2  -9   3   -0.02    0.11
  -3   9  -3    0.66    0.18
  -3   9  -3    0.41    0.12
   3  -9   3    0.32    0.10
   3  -9   3    0.38    0.15
  -4   9  -3    1.26    0.25
   4  -9   3    1.39    0.26
   4  -9   3    0.82    0.15
   4   8  -3    0.22    0.16
   4   8  -3    0.27    0.23
  -4  -8   3    0.12    0.26
   3   8  -3    0.02    0.11
   3   8  -3    0.09    0.17
  -3  -8   3    0.10    0.22
   2   8  -3    6.60    0.28
   2   8  -3    6.73    0.33
  -2  -8   3    6.62    0.38
   1   8  -3    8.47    0.36
   1   8  -3    8.71    0.32
  -1  -8   3    8.63    0.35
  -1  -8   3    7.88    0.40
   0   8  -3   10.91    0.37
   0   8  -3   10.00    0.44
   0   8  -3   10.68    0.40
   0  -8   3   10.37    0.41
   0  -8   3   10.16    0.44
  -1   8  -3   14.50    0.50
  -1   8  -3   13.86    0.56
   1  -8   3   15.03    0.54
   1  -8   3   14.84    0.48
  -2   8  -3    2.83    0.17
  -2   8  -3    3.02    0.23
   2  -8   3    2.62    0.19
   2  -8   3    2.81    0.15
  -3   8  -3    0.15    0.15
  -3   8  -3    0.24    0.11
   3  -8   3    0.16    0.13
   3  -8   3    0.22    0.09
  -4   8  -3    0.11    0.19
   4  -8   3    0.02    0.11
  -5   8  -3    0.09    0.28
   5  -8   3    0.12    0.17
   4   7  -3    0.06    0.13
   4   7  -3    0.03    0.19
  -4  -7   3   -0.01    0.24
   3   7  -3    0.56    0.10
   3   7  -3    0.84    0.17
  -3  -7   3    0.78    0.20
   2   7  -3    5.61    0.28
   2   7  -3    5.73    0.23
  -2  -7   3    5.89    0.33
   1   7  -3   -0.01    0.05
   1   7  -3    0.04    0.09
  -1  -7   3    0.00    0.12
  -1  -7   3    0.04    0.09
   0   7  -3    2.08    0.12
   0   7  -3    1.82    0.18
   0   7  -3    2.12    0.14
   0  -7   3    2.39    0.15
   0  -7   3    2.04    0.18
  -1   7  -3    4.19    0.24
  -1   7  -3    4.66    0.21
  -1   7  -3    4.91    0.19
   1  -7   3    4.82    0.18
   1  -7   3    5.06    0.19
  -2   7  -3    0.60    0.13
  -2   7  -3    0.40    0.08
   2  -7   3    0.47    0.07
   2  -7   3    0.39    0.10
  -3   7  -3    2.67    0.22
  -3   7  -3    2.79    0.19
   3  -7   3    2.72    0.20
   3  -7   3    2.60    0.17
  -4   7  -3   -0.01    0.17
   4  -7   3   -0.04    0.10
  -5   7  -3    0.20    0.24
   5  -7   3    0.20    0.16
   4   6  -3    1.95    0.19
   4   6  -3    1.93    0.22
  -4  -6   3    1.54    0.24
   3   6  -3    0.15    0.08
   3   6  -3    0.06    0.12
  -3  -6   3    0.18    0.15
   2   6  -3    1.61    0.16
   2   6  -3    1.66    0.11
  -2  -6   3    1.78    0.13
  -2  -6   3    1.76    0.20
   1   6  -3    0.63    0.06
   1   6  -3    0.66    0.10
  -1  -6   3    0.96    0.10
  -1  -6   3    0.70    0.13
   0   6  -3   17.84    0.56
   0   6  -3   16.62    0.56
   0   6  -3   17.21    0.58
   0   6  -3   16.74    0.62
   0  -6   3   17.52    0.59
  -1   6  -3    0.95    0.08
  -1   6  -3    0.86    0.09
  -1   6  -3    1.04    0.13
   1  -6   3    1.00    0.08
   1  -6   3    0.81    0.10
   1  -6   3    0.94    0.06
  -2   6  -3    1.29    0.11
  -2   6  -3    1.23    0.14
   2  -6   3    1.18    0.12
   2  -6   3    1.05    0.09
  -3   6  -3    0.95    0.15
  -3   6  -3    0.90    0.12
   3  -6   3    0.90    0.11
   3  -6   3    1.28    0.14
  -4   6  -3   -0.11    0.17
   4  -6   3   -0.02    0.10
  -5   6  -3   -0.10    0.25
   5  -6   3   -0.07    0.14
   5   5  -3    0.15    0.17
   5   5  -3    0.02    0.22
  -5  -5   3    0.03    0.26
   4   5  -3    0.66    0.12
   4   5  -3    0.83    0.19
  -4  -5   3    0.72    0.20
   3   5  -3    0.02    0.11
   3   5  -3    0.02    0.07
  -3  -5   3    0.01    0.11
  -3  -5   3    0.03    0.12
   2   5  -3    2.97    0.13
   2   5  -3    2.79    0.18
  -2  -5   3    3.09    0.21
  -2  -5   3    3.08    0.18
  -2  -5   3    3.19    0.15
   1   5  -3    0.67    0.06
   1   5  -3    0.99    0.10
   1   5  -3    0.66    0.06
  -1  -5   3    0.94    0.09
  -1  -5   3    1.05    0.13
   0   5  -3    6.47    0.28
   0   5  -3    6.54    0.25
   0   5  -3    6.66    0.23
   0   5  -3    6.60    0.22
   0  -5   3    7.15    0.28
  -1   5  -3    9.36    0.32
  -1   5  -3    9.21    0.36
  -1   5  -3    9.15    0.31
   1  -5   3    9.36    0.31
   1  -5   3    8.68    0.34
   1  -5   3    9.68    0.31
  -2   5  -3    1.69    0.14
  -2   5  -3    2.23    0.12
   2  -5   3    1.90    0.11
   2  -5   3    1.68    0.13
  -3   5  -3    0.26    0.09
  -3   5  -3    0.20    0.11
   3  -5   3    0.12    0.09
   3  -5   3    0.34    0.08
  -4   5  -3    0.66    0.18
   4  -5   3    0.62    0.12
  -5   5  -3    0.14    0.23
   5  -5   3    0.00    0.13
   5   4  -3    0.00    0.15
   5   4  -3   -0.08    0.21
  -5  -4   3    0.01    0.09
  -5  -4   3    0.00    0.22
   4   4  -3    4.88    0.23
   4   4  -3    4.99    0.30
  -4  -4   3    4.44    0.31
  -4  -4   3    4.49    0.19
  -4  -4   3    4.96    0.30
   3   4  -3   15.65    0.53
   3   4  -3   16.20    0.57
  -3  -4   3   14.91    0.58
  -3  -4   3   15.87    0.57
  -3  -4   3   14.96    0.50
   2   4  -3    6.14    0.26
   2   4  -3    5.95    0.22
  -2  -4   3    6.43    0.28
  -2  -4   3    6.10    0.27
  -2  -4   3    6.49    0.23
   1   4  -3   88.49    2.80
   1   4  -3   88.88    2.77
   1   4  -3   88.34    2.77
  -1  -4   3   88.66    2.79
  -1  -4   3   85.83    2.82
  -1  -4   3   91.35    2.81
   0   4  -3    0.05    0.04
   0   4  -3    0.08    0.02
   0   4  -3    0.06    0.02
   0   4  -3    0.02    0.05
   0  -4   3    0.10    0.05
   0  -4   3    0.10    0.05
  -1   4  -3   13.02    0.42
  -1   4  -3   12.79    0.42
  -1   4  -3   12.01    0.45
   1  -4   3   12.31    0.44
   1  -4   3   13.80    0.42
   1  -4   3   13.08    0.42
  -2   4  -3   53.61    1.73
  -2   4  -3   54.98    1.77
  -2   4  -3   55.87    1.74
   2  -4   3   54.06    1.74
   2  -4   3   54.03    1.73
  -3   4  -3    7.41    0.32
  -3   4  -3    7.74    0.29
   3  -4   3    7.38    0.29
   3  -4   3    7.21    0.29
  -4   4  -3    0.09    0.15
   4  -4   3    0.05    0.09
  -5   4  -3   -0.01    0.18
   5   3  -3    0.03    0.12
   5   3  -3    0.01    0.19
  -5  -3   3    0.00    0.10
  -5  -3   3    0.03    0.19
  -5  -3   3   -0.04    0.22
   4   3  -3    1.80    0.19
   4   3  -3    1.43    0.13
  -4  -3   3    0.94    0.17
  -4  -3   3    1.61    0.19
  -4  -3   3    1.55    0.13
   3   3  -3    0.17    0.06
   3   3  -3    0.06    0.09
  -3  -3   3    0.15    0.10
  -3  -3   3    0.08    0.05
  -3  -3   3    0.04    0.09
   2   3  -3    1.78    0.09
   2   3  -3    1.77    0.10
   2   3  -3    1.94    0.12
  -2  -3   3    2.19    0.09
  -2  -3   3    1.50    0.12
  -2  -3   3    1.81    0.14
   1   3  -3   68.03    2.13
   1   3  -3   68.99    2.14
   1   3  -3   66.64    2.16
  -1  -3   3   69.44    2.15
  -1  -3   3   68.13    2.17
  -1  -3   3   68.11    2.16
   0   3  -3   49.10    1.57
   0   3  -3   48.85    1.55
   0  -3   3   48.41    1.55
   0  -3   3   49.27    1.55
   0  -3   3   49.55    1.57
  -1   3  -3    7.12    0.25
  -1   3  -3    6.95    0.27
   1  -3   3    7.71    0.25
   1  -3   3    7.53    0.25
   1  -3   3    6.94    0.26
  -2   3  -3    0.03    0.06
  -2   3  -3    0.02    0.07
  -2   3  -3    0.01    0.05
   2  -3   3    0.01    0.04
   2  -3   3    0.03    0.04
   2  -3   3    0.03    0.03
   2  -3   3    0.01    0.06
  -3   3  -3    1.51    0.16
  -3   3  -3    1.43    0.12
  -3   3  -3    1.39    0.13
  -3   3  -3    1.49    0.14
   3  -3   3    1.32    0.12
   3  -3   3    1.30    0.12
  -4   3  -3    1.92    0.22
  -4   3  -3    1.75    0.20
   4  -3   3    1.99    0.18
  -5   3  -3   -0.01    0.18
   5   2  -3   -0.01    0.17
   5   2  -3   -0.03    0.12
  -5  -2   3   -0.10    0.17
  -5  -2   3    0.04    0.10
  -5  -2   3    0.11    0.20
   4   2  -3    1.11    0.12
   4   2  -3    1.12    0.16
  -4  -2   3    1.09    0.16
  -4  -2   3    1.32    0.13
  -4  -2   3    1.27    0.18
   3   2  -3    0.81    0.08
   3   2  -3    1.00    0.12
  -3  -2   3    0.79    0.13
  -3  -2   3    0.88    0.09
  -3  -2   3    1.08    0.12
   2   2  -3   30.45    0.95
   2   2  -3   30.87    0.97
   2   2  -3   30.46    0.97
  -2  -2   3   30.66    1.00
  -2  -2   3   29.90    0.99
  -2  -2   3   30.33    0.96
  -2  -2   3   30.94    0.95
  -2  -2   3   29.32    0.96
   1   2  -3   12.81    0.41
   1   2  -3   12.68    0.41
  -1  -2   3   12.80    0.43
  -1  -2   3   12.95    0.44
  -1  -2   3   12.75    0.42
   0   2  -3    2.31    0.11
   0  -2   3    2.67    0.10
   0  -2   3    2.51    0.10
   0  -2   3    2.39    0.11
  -1   2  -3   24.36    0.77
  -1   2  -3   24.07    0.79
   1  -2   3   24.12    0.77
   1  -2   3   24.25    0.78
  -2   2  -3    3.53    0.18
  -2   2  -3    3.52    0.15
  -2   2  -3    3.36    0.16
  -2   2  -3    3.56    0.16
   2  -2   3    3.29    0.15
   2  -2   3    3.86    0.14
   2  -2   3    3.77    0.15
  -3   2  -3    0.06    0.08
  -3   2  -3    0.03    0.08
  -3   2  -3   -0.01    0.09
  -3   2  -3   -0.10    0.10
   3  -2   3    0.03    0.07
   3  -2   3    0.00    0.07
   3  -2   3    0.03    0.06
   3  -2   3    0.04    0.07
  -4   2  -3    2.86    0.22
  -4   2  -3    2.33    0.23
  -5   2  -3    0.21    0.19
  -5   2  -3    0.11    0.16
   5   1  -3    0.14    0.17
  -5  -1   3   -0.05    0.16
  -5  -1   3    0.01    0.20
  -5  -1   3   -0.01    0.12
   4   1  -3    0.02    0.11
   4   1  -3    0.00    0.08
  -4  -1   3   -0.01    0.08
  -4  -1   3    0.05    0.12
  -4  -1   3    0.06    0.13
   3   1  -3   10.16    0.35
  -3  -1   3    9.87    0.35
  -3  -1   3    9.53    0.38
  -3  -1   3    9.99    0.39
   2   1  -3    5.06    0.18
  -2  -1   3    4.71    0.20
  -2  -1   3    4.92    0.17
  -2  -1   3    4.64    0.18
  -2  -1   3    4.79    0.21
   1   1  -3   77.62    2.44
   1   1  -3   78.77    2.44
   1   1  -3   79.55    2.45
  -1  -1   3   75.52    2.46
  -1  -1   3   79.01    2.46
   0   1  -3  161.56    5.13
   0   1  -3  164.21    5.14
   0   1  -3  161.53    5.12
   0   1  -3  162.86    5.13
   0  -1   3  168.32    5.13
   0  -1   3  165.11    5.13
   0  -1   3  165.33    5.14
  -1   1  -3   73.47    2.37
  -1   1  -3   74.59    2.37
  -1   1  -3   75.04    2.36
  -1   1  -3   76.80    2.37
   1  -1   3   76.21    2.36
   1  -1   3   73.66    2.37
   1  -1   3   76.40    2.36
  -2   1  -3   11.38    0.42
  -2   1  -3   12.21    0.41
  -2   1  -3   12.04    0.41
  -2   1  -3   12.13    0.41
   2  -1   3   12.09    0.41
   2  -1   3   12.09    0.41
   2  -1   3   11.76    0.40
   2  -1   3   11.96    0.41
  -3   1  -3    2.94    0.17
  -3   1  -3    2.55    0.17
  -3   1  -3    2.74    0.15
  -3   1  -3    2.76    0.19
   3  -1   3    2.65    0.17
   3  -1   3    3.18    0.16
   3  -1   3    3.06    0.15
  -4   1  -3    0.12    0.13
  -4   1  -3    0.06    0.11
  -5   1  -3    0.05    0.18
  -5   1  -3   -0.03    0.15
   5   0  -3    0.72    0.18
   5   0  -3    0.52    0.14
  -5   0   3    0.63    0.13
  -5   0   3    0.71    0.18
  -5   0   3    0.99    0.22
   4   0  -3    2.14    0.16
  -4   0   3    2.51    0.22
  -4   0   3    2.47    0.20
  -4   0   3    2.04    0.15
   3   0  -3    3.65    0.17
  -3   0   3    3.58    0.16
  -3   0   3    3.78    0.21
  -3   0   3    3.59    0.19
   2   0  -3   15.86    0.51
   2   0  -3   15.81    0.52
  -2   0   3   15.99    0.54
  -2   0   3   15.82    0.52
  -2   0   3   15.79    0.54
   1   0  -3   72.63    2.24
   1   0  -3   69.73    2.23
  -1   0   3   73.38    2.24
  -1   0   3   71.43    2.23
  -1   0   3   70.09    2.25
  -1   0   3   70.34    2.24
   0   0  -3  253.90    8.11
   0   0  -3  259.29    8.12
   0   0   3  258.11    8.12
   0   0   3  267.61    8.12
  -1   0  -3   89.44    2.86
  -1   0  -3   91.09    2.86
  -1   0  -3   91.69    2.86
  -1   0  -3   90.34    2.85
   1   0   3   92.22    2.85
   1   0   3   90.11    2.85
   1   0   3   90.99    2.86
  -2   0  -3   72.03    2.25
  -2   0  -3   72.39    2.25
  -2   0  -3   70.28    2.25
  -2   0  -3   70.31    2.27
   2   0   3   69.93    2.25
   2   0   3   71.50    2.25
   2   0   3   71.39    2.25
  -3   0  -3    4.33    0.19
  -3   0  -3    3.79    0.22
  -3   0  -3    4.21    0.21
   3   0   3    4.35    0.21
   3   0   3    4.59    0.20
   3   0   3    4.64    0.20
  -4   0  -3    1.66    0.20
  -4   0  -3    1.50    0.16
  -5   0  -3    0.15    0.20
  -5   0  -3    0.26    0.16
   5  -1  -3    0.95    0.19
   5  -1  -3    1.03    0.17
  -5   1   3    1.09    0.20
  -5   1   3    0.71    0.14
  -5   1   3    1.15    0.22
   4  -1  -3    2.79    0.18
  -4   1   3    2.78    0.18
  -4   1   3    2.57    0.22
  -4   1   3    2.89    0.21
   3  -1  -3    0.01    0.06
  -3   1   3    0.00    0.06
  -3   1   3   -0.03    0.08
  -3   1   3    0.04    0.08
   2  -1  -3    7.00    0.26
   2  -1  -3    6.77    0.23
   2  -1  -3    7.27    0.24
  -2   1   3    6.54    0.25
  -2   1   3    6.97    0.26
  -2   1   3    6.72    0.26
   1  -1  -3    3.12    0.12
   1  -1  -3    3.04    0.11
  -1   1   3    3.12    0.12
  -1   1   3    2.97    0.12
  -1   1   3    2.87    0.12
   0  -1  -3   58.70    1.76
   0  -1  -3   54.40    1.76
   0  -1  -3   53.13    1.76
   0  -1  -3   57.09    1.76
   0   1   3   57.47    1.77
   0   1   3   55.84    1.77
   0   1   3   54.78    1.76
  -1  -1  -3   18.27    0.60
  -1  -1  -3   19.20    0.61
  -1  -1  -3   18.80    0.61
  -1  -1  -3   18.62    0.61
   1   1   3   18.05    0.61
   1   1   3   18.20    0.60
   1   1   3   18.68    0.60
  -2  -1  -3    1.65    0.10
  -2  -1  -3    1.25    0.10
  -2  -1  -3    1.34    0.12
  -2  -1  -3    1.59    0.10
   2   1   3    1.27    0.10
   2   1   3    1.61    0.10
   2   1   3    1.57    0.10
  -3  -1  -3    6.10    0.23
  -3  -1  -3    5.68    0.28
  -3  -1  -3    5.50    0.25
   3   1   3    5.88    0.26
   3   1   3    5.87    0.25
   3   1   3    6.00    0.25
  -4  -1  -3    5.13    0.26
  -4  -1  -3    4.07    0.29
   4   1   3    4.78    0.27
  -5  -1  -3   -0.06    0.20
  -5  -1  -3    0.01    0.14
  -5   2   3    0.32    0.14
  -5   2   3    0.45    0.19
   4  -2  -3    0.03    0.09
  -4   2   3   -0.02    0.09
  -4   2   3   -0.01    0.11
  -4   2   3   -0.06    0.12
   3  -2  -3    3.10    0.16
  -3   2   3    2.71    0.18
  -3   2   3    2.79    0.16
  -3   2   3    3.09    0.16
   2  -2  -3   25.69    0.83
   2  -2  -3   25.73    0.83
   2  -2  -3   26.22    0.84
  -2   2   3   25.95    0.84
  -2   2   3   24.51    0.83
  -2   2   3   26.11    0.84
  -2   2   3   25.48    0.83
   1  -2  -3   28.37    0.93
   1  -2  -3   29.26    0.92
   1  -2  -3   28.32    0.92
  -1   2   3   29.30    0.92
  -1   2   3   28.76    0.92
  -1   2   3   28.89    0.93
  -1   2   3   28.70    0.92
   0  -2  -3   15.37    0.50
   0  -2  -3   16.11    0.51
   0  -2  -3   15.32    0.51
   0  -2  -3   15.34    0.50
   0   2   3   15.49    0.51
   0   2   3   15.12    0.51
   0   2   3   15.24    0.51
  -1  -2  -3   63.89    2.03
  -1  -2  -3   66.30    2.03
  -1  -2  -3   65.90    2.02
  -1  -2  -3   61.47    2.02
   1   2   3   64.09    2.03
   1   2   3   62.22    2.03
   1   2   3   63.71    2.02
  -2  -2  -3    1.01    0.09
  -2  -2  -3    1.02    0.10
  -2  -2  -3    1.04    0.10
  -2  -2  -3    0.88    0.10
   2   2   3    0.85    0.09
   2   2   3    1.06    0.10
   2   2   3    1.06    0.09
  -3  -2  -3    0.98    0.11
  -3  -2  -3    0.93    0.13
   3   2   3    1.38    0.14
   3   2   3    1.04    0.11
  -4  -2  -3    0.41    0.15
  -4  -2  -3    0.59    0.13
   4   2   3    0.40    0.15
   4   2   3    0.52    0.13
  -5  -2  -3    0.00    0.15
  -5  -2  -3    0.00    0.21
  -5   3   3   -0.02    0.14
  -5   3   3    0.11    0.18
   4  -3  -3    0.27    0.11
  -4   3   3    0.18    0.12
  -4   3   3    0.32    0.14
  -4   3   3    0.20    0.11
   3  -3  -3    1.90    0.20
   3  -3  -3    2.01    0.14
  -3   3   3    1.96    0.14
  -3   3   3    1.68    0.14
  -3   3   3    1.99    0.16
   2  -3  -3   17.88    0.59
   2  -3  -3   17.31    0.59
   2  -3  -3   18.42    0.60
  -2   3   3   17.58    0.59
  -2   3   3   17.93    0.59
  -2   3   3   18.08    0.61
  -2   3   3   17.50    0.60
   1  -3  -3   19.61    0.64
   1  -3  -3   19.19    0.65
   1  -3  -3   20.36    0.66
  -1   3   3   19.77    0.65
  -1   3   3   19.84    0.65
  -1   3   3   19.81    0.65
  -1   3   3   20.39    0.65
   0  -3  -3   14.50    0.49
   0  -3  -3   14.70    0.49
   0  -3  -3   14.89    0.49
   0  -3  -3   14.87    0.48
   0   3   3   14.09    0.49
   0   3   3   14.60    0.49
   0   3   3   14.71    0.49
  -1  -3  -3   24.17    0.82
  -1  -3  -3   24.45    0.81
  -1  -3  -3   24.57    0.81
  -1  -3  -3   25.95    0.80
   1   3   3   25.24    0.82
   1   3   3   24.42    0.81
   1   3   3   24.53    0.81
  -2  -3  -3   18.20    0.61
  -2  -3  -3   17.70    0.64
  -2  -3  -3   17.83    0.62
   2   3   3   18.44    0.62
   2   3   3   19.05    0.64
   2   3   3   18.83    0.63
  -3  -3  -3    1.61    0.15
  -3  -3  -3    2.01    0.19
   3   3   3    1.69    0.16
   3   3   3    1.66    0.15
  -4  -3  -3    0.24    0.12
  -4  -3  -3    0.08    0.16
   4   3   3    0.11    0.14
   4   3   3    0.25    0.14
  -5  -3  -3    0.01    0.16
  -5  -3  -3    0.00    0.24
  -5   4   3   -0.01    0.19
  -5   4   3    0.02    0.14
  -4   4   3    1.54    0.16
  -4   4   3    1.41    0.19
  -4   4   3    1.79    0.17
   3  -4  -3   22.60    0.75
   3  -4  -3   22.48    0.74
   3  -4  -3   21.81    0.76
  -3   4   3   22.21    0.75
  -3   4   3   22.38    0.77
  -3   4   3   21.37    0.75
   2  -4  -3   16.67    0.57
   2  -4  -3   16.35    0.57
   2  -4  -3   17.03    0.56
  -2   4   3   15.93    0.56
  -2   4   3   16.60    0.56
  -2   4   3   16.73    0.57
  -2   4   3   17.14    0.56
   1  -4  -3   19.90    0.66
   1  -4  -3   20.39    0.65
   1  -4  -3   19.40    0.66
  -1   4   3   19.28    0.66
  -1   4   3   20.37    0.66
  -1   4   3   19.90    0.66
  -1   4   3   19.93    0.65
   0  -4  -3    0.05    0.05
   0  -4  -3    0.11    0.06
   0  -4  -3    0.03    0.05
   0  -4  -3    0.04    0.06
   0   4   3    0.04    0.05
   0   4   3    0.09    0.06
   0   4   3    0.04    0.04
  -1  -4  -3    1.50    0.11
  -1  -4  -3    1.41    0.12
  -1  -4  -3    1.74    0.11
  -1  -4  -3    1.78    0.12
   1   4   3    1.53    0.12
   1   4   3    1.51    0.11
   1   4   3    1.59    0.12
  -2  -4  -3    0.34    0.11
  -2  -4  -3    0.31    0.08
  -2  -4  -3    0.46    0.09
   2   4   3    0.38    0.08
   2   4   3    0.50    0.11
  -3  -4  -3    3.28    0.20
  -3  -4  -3    3.34    0.23
   3   4   3    3.49    0.20
   3   4   3    3.28    0.22
  -4  -4  -3    0.91    0.21
  -4  -4  -3    0.69    0.14
   4   4   3    1.10    0.20
   4   4   3    0.91    0.17
  -5  -4  -3    0.07    0.26
  -5  -4  -3    0.04    0.17
   5   4   3    0.15    0.22
  -5   5   3    0.36    0.18
  -5   5   3    0.54    0.22
  -4   5   3    0.27    0.13
  -4   5   3    0.22    0.16
   3  -5  -3   12.33    0.46
   3  -5  -3   12.79    0.48
  -3   5   3   13.15    0.49
  -3   5   3   12.14    0.46
  -3   5   3   12.85    0.46
   2  -5  -3   14.01    0.48
   2  -5  -3   13.85    0.49
   2  -5  -3   12.75    0.49
  -2   5   3   14.17    0.50
  -2   5   3   14.25    0.48
  -2   5   3   13.87    0.49
  -2   5   3   14.28    0.49
  -1   5   3   24.15    0.81
  -1   5   3   23.70    0.79
  -1   5   3   24.53    0.80
  -1   5   3   23.95    0.80
   0  -5  -3    3.82    0.18
   0  -5  -3    4.25    0.20
   0  -5  -3    4.33    0.17
   0  -5  -3    4.11    0.19
   0   5   3    3.88    0.19
   0   5   3    4.23    0.20
   0   5   3    3.76    0.19
   0   5   3    4.48    0.19
  -1  -5  -3    1.39    0.11
  -1  -5  -3    1.73    0.13
  -1  -5  -3    1.59    0.15
   1   5   3    1.46    0.15
   1   5   3    1.41    0.12
   1   5   3    1.33    0.12
  -2  -5  -3    4.23    0.25
  -2  -5  -3    4.62    0.21
  -2  -5  -3    4.43    0.21
   2   5   3    3.83    0.23
   2   5   3    4.49    0.21
  -3  -5  -3    0.24    0.10
  -3  -5  -3    0.26    0.15
   3   5   3    0.26    0.14
   3   5   3    0.37    0.12
  -4  -5  -3    0.04    0.12
  -4  -5  -3    0.00    0.20
   4   5   3    0.02    0.16
   4   5   3   -0.06    0.14
  -5   6   3    0.03    0.18
  -5   6   3    0.07    0.25
  -4   6   3    5.49    0.31
  -4   6   3    5.49    0.33
   3  -6  -3    0.66    0.12
   3  -6  -3    0.71    0.13
  -3   6   3    1.02    0.15
  -3   6   3    0.67    0.12
   2  -6  -3    4.03    0.20
   2  -6  -3    3.43    0.20
  -2   6   3    3.41    0.19
  -2   6   3    3.98    0.20
  -2   6   3    3.76    0.20
  -2   6   3    3.76    0.21
   1  -6  -3    5.27    0.23
   1  -6  -3    4.93    0.24
  -1   6   3    5.45    0.24
  -1   6   3    5.47    0.23
  -1   6   3    5.35    0.24
  -1   6   3    5.50    0.25
   0  -6  -3    0.03    0.08
   0  -6  -3    0.02    0.08
   0  -6  -3    0.06    0.07
   0   6   3    0.04    0.06
   0   6   3    0.01    0.09
   0   6   3    0.03    0.08
   0   6   3    0.06    0.08
  -1  -6  -3    3.01    0.18
  -1  -6  -3    2.73    0.17
  -1  -6  -3    2.64    0.20
   1   6   3    3.18    0.20
   1   6   3    3.33    0.17
  -2  -6  -3    0.10    0.13
  -2  -6  -3    0.21    0.09
  -2  -6  -3    0.10    0.10
   2   6   3    0.12    0.11
   2   6   3    0.04    0.10
  -3  -6  -3    1.23    0.21
  -3  -6  -3    1.21    0.14
   3   6   3    1.35    0.16
   3   6   3    1.34    0.19
  -4  -6  -3    2.12    0.22
  -4  -6  -3    2.28    0.30
   4   6   3    1.83    0.24
   4   6   3    2.08    0.23
  -5   7   3    0.10    0.28
  -4   7   3    0.19    0.19
   3  -7  -3    6.00    0.30
   3  -7  -3    5.39    0.29
  -3   7   3    5.94    0.31
   2  -7  -3    1.13    0.14
   2  -7  -3    1.00    0.13
  -2   7   3    0.85    0.12
  -2   7   3    1.01    0.13
  -2   7   3    0.78    0.14
   1  -7  -3    3.57    0.21
  -1   7   3    3.44    0.19
  -1   7   3    3.60    0.21
  -1   7   3    3.11    0.19
   0  -7  -3    9.91    0.42
   0  -7  -3    9.51    0.39
   0  -7  -3   10.08    0.38
   0   7   3   10.44    0.42
   0   7   3   10.89    0.41
   0   7   3   10.25    0.39
  -1  -7  -3   44.02    1.43
  -1  -7  -3   44.41    1.47
  -1  -7  -3   43.19    1.44
   1   7   3   44.13    1.44
   1   7   3   44.20    1.46
  -2  -7  -3    0.05    0.12
  -2  -7  -3   -0.05    0.09
  -2  -7  -3    0.00    0.15
   2   7   3    0.00    0.12
   2   7   3    0.03    0.10
  -3  -7  -3    0.01    0.19
  -3  -7  -3   -0.01    0.10
   3   7   3    0.04    0.14
   3   7   3    0.08    0.14
  -4  -7  -3    0.04    0.26
  -4  -7  -3   -0.11    0.14
   4   7   3    0.02    0.21
   4   7   3   -0.05    0.19
   4  -8  -3    3.00    0.29
  -4   8   3    2.91    0.31
   3  -8  -3    0.21    0.14
   3  -8  -3    0.40    0.15
  -3   8   3    0.35    0.17
   2  -8  -3    0.18    0.12
   2  -8  -3    0.38    0.11
  -2   8   3    0.25    0.12
  -2   8   3    0.32    0.14
  -2   8   3    0.18    0.12
   1  -8  -3    0.01    0.09
   1  -8  -3    0.00    0.10
  -1   8   3   -0.02    0.09
  -1   8   3    0.02    0.10
  -1   8   3   -0.04    0.11
   0  -8  -3    0.10    0.11
   0  -8  -3    0.01    0.08
   0  -8  -3   -0.01    0.12
   0   8   3    0.07    0.10
   0   8   3    0.00    0.11
   0   8   3    0.02    0.12
  -1  -8  -3    0.49    0.16
  -1  -8  -3    0.40    0.10
  -1  -8  -3    0.36    0.13
   1   8   3    0.18    0.14
   1   8   3    0.42    0.11
  -2  -8  -3    1.08    0.13
  -2  -8  -3    0.89    0.17
  -2  -8  -3    1.14    0.22
   2   8   3    0.90    0.17
   2   8   3    0.86    0.15
  -3  -8  -3    2.94    0.22
  -3  -8  -3    2.95    0.33
   3   8   3    2.81    0.27
   3   8   3    3.32    0.31
   4  -9  -3   -0.02    0.18
  -4   9   3    0.09    0.22
   3  -9  -3    0.57    0.16
   3  -9  -3    0.32    0.17
  -3   9   3    0.38    0.17
   2  -9  -3    0.57    0.15
   2  -9  -3    0.61    0.13
  -2   9   3    0.89    0.16
  -2   9   3    0.73    0.17
   1  -9  -3    3.02    0.20
  -1   9   3    2.55    0.21
  -1   9   3    3.22    0.26
  -1   9   3    3.27    0.22
   0  -9  -3    6.00    0.31
   0  -9  -3    5.83    0.28
   0  -9  -3    6.19    0.34
   0   9   3    6.33    0.30
   0   9   3    6.87    0.35
   0   9   3    5.55    0.32
  -1  -9  -3    0.67    0.17
  -1  -9  -3    0.77    0.20
  -1  -9  -3    0.56    0.11
   1   9   3    0.75    0.15
   1   9   3    0.63    0.16
  -2  -9  -3    0.37    0.18
  -2  -9  -3    0.26    0.12
  -2  -9  -3    0.33    0.21
   2   9   3    0.17    0.17
   2   9   3    0.25    0.15
  -3  -9  -3    1.03    0.29
  -3  -9  -3    0.89    0.15
   3   9   3    0.64    0.19
   3   9   3    0.99    0.24
   4 -10  -3    0.13    0.21
  -4  10   3    0.05    0.26
   3 -10  -3    0.22    0.16
   3 -10  -3    0.11    0.18
  -3  10   3    0.03    0.20
   2 -10  -3    0.30    0.16
   2 -10  -3    0.23    0.13
  -2  10   3    0.30    0.18
   1 -10  -3    1.11    0.18
   1 -10  -3    1.72    0.17
  -1  10   3    1.39    0.17
  -1  10   3    1.73    0.22
  -1  10   3    1.42    0.19
   0 -10  -3    0.20    0.11
   0 -10  -3    0.13    0.17
   0 -10  -3    0.21    0.15
   0  10   3    0.32    0.16
   0  10   3    0.28    0.17
   0  10   3    0.25    0.13
  -1 -10  -3    0.10    0.11
  -1 -10  -3    0.09    0.20
  -1 -10  -3    0.19    0.16
   1  10   3    0.33    0.18
   1  10   3    0.12    0.19
   1  10   3    0.19    0.14
  -2 -10  -3    0.47    0.13
  -2 -10  -3    0.48    0.23
  -2 -10  -3    0.47    0.19
   2  10   3    0.68    0.23
   2  10   3    0.46    0.16
   3 -11  -3    0.74    0.24
   3 -11  -3    0.54    0.19
  -3  11   3    0.41    0.24
   2 -11  -3    1.80    0.20
   2 -11  -3    2.04    0.26
  -2  11   3    1.44    0.25
   1 -11  -3    0.08    0.18
   1 -11  -3    0.15    0.13
  -1  11   3    0.09    0.16
  -1  11   3    0.15    0.19
  -1  11   3    0.22    0.15
   0 -11  -3    4.74    0.32
   0 -11  -3    4.48    0.25
   0 -11  -3    4.65    0.35
   0  11   3    4.19    0.35
   0  11   3    4.75    0.30
   0  11   3    4.97    0.33
  -1 -11  -3    0.76    0.21
  -1 -11  -3    0.63    0.23
  -1 -11  -3    0.86    0.14
   1  11   3    0.92    0.20
   1  11   3    0.53    0.23
   1  11   3    0.85    0.23
  -2 -11  -3   -0.03    0.13
  -2 -11  -3   -0.06    0.26
   2  11   3    0.18    0.24
   2  11   3    0.01    0.19
   2 -12  -3    0.27    0.24
   2 -12  -3    0.17    0.18
  -2  12   3    0.13    0.25
   1 -12  -3   -0.11    0.21
   1 -12  -3    0.01    0.14
  -1  12   3    0.04    0.22
   0 -12  -3    0.21    0.21
   0 -12  -3    0.07    0.14
   0  12   3    0.26    0.21
   0  12   3    0.28    0.24
   0  12   3    0.37    0.18
   0  13  -4    0.08    0.15
   0  13  -4   -0.04    0.25
   0 -13   4    0.17    0.21
  -1  13  -4   -0.01    0.23
  -1  13  -4    0.06    0.15
   1 -13   4   -0.07    0.20
   1  12  -4    0.16    0.14
   1  12  -4    0.10    0.22
  -1 -12   4    0.03    0.21
  -1 -12   4    0.23    0.19
   0  12  -4    0.12    0.12
   0  12  -4   -0.04    0.22
   0 -12   4    0.14    0.17
   0 -12   4    0.11    0.21
  -1  12  -4    0.11    0.12
  -1  12  -4    0.25    0.22
   1 -12   4    0.06    0.17
  -2  12  -4    0.13    0.21
  -2  12  -4    0.13    0.15
   2 -12   4    0.13    0.19
  -3  12  -4    0.20    0.27
  -3  12  -4    0.07    0.17
   3 -12   4    0.11    0.24
   3 -12   4    0.23    0.12
   2  11  -4    0.85    0.16
   2  11  -4    1.05    0.25
  -2 -11   4    0.99    0.29
   1  11  -4    1.37    0.25
   1  11  -4    1.29    0.14
   1  11  -4    1.20    0.21
  -1 -11   4    1.28    0.19
  -1 -11   4    1.18    0.23
   0  11  -4    1.86    0.18
   0  11  -4    2.03    0.26
   0 -11   4    1.70    0.20
   0 -11   4    2.60    0.28
  -1  11  -4   -0.05    0.17
  -1  11  -4    0.00    0.10
   1 -11   4   -0.04    0.14
  -2  11  -4    0.00    0.12
  -2  11  -4    0.02    0.20
   2 -11   4   -0.02    0.15
  -3  11  -4   -0.08    0.22
  -3  11  -4   -0.04    0.14
   3 -11   4   -0.01    0.18
   3 -11   4    0.00    0.09
   3  10  -4    0.16    0.16
   3  10  -4    0.21    0.23
  -3 -10   4    0.39    0.29
   2  10  -4    0.13    0.18
   2  10  -4    0.19    0.11
  -2 -10   4    0.20    0.21
   1  10  -4    0.93    0.22
   1  10  -4    1.21    0.18
   1  10  -4    1.09    0.12
  -1 -10   4    0.67    0.20
  -1 -10   4    1.10    0.17
   0  10  -4    5.05    0.33
   0  10  -4    4.77    0.22
   0 -10   4    4.46    0.32
   0 -10   4    4.56    0.27
  -1  10  -4    4.54    0.31
  -1  10  -4    4.46    0.22
   1 -10   4    4.10    0.26
  -2  10  -4    2.45    0.19
  -2  10  -4    2.47    0.27
   2 -10   4    2.57    0.23
   2 -10   4    2.32    0.13
  -3  10  -4    0.12    0.19
  -3  10  -4   -0.04    0.13
   3 -10   4    0.09    0.09
   3 -10   4    0.02    0.16
  -4  10  -4    0.14    0.25
   4 -10   4    0.34    0.13
   4 -10   4    0.42    0.22
   3   9  -4    0.00    0.12
   3   9  -4    0.08    0.19
  -3  -9   4    0.03    0.24
   2   9  -4    0.09    0.15
   2   9  -4    0.01    0.09
  -2  -9   4    0.01    0.18
   1   9  -4    3.07    0.23
   1   9  -4    2.72    0.16
  -1  -9   4    3.21    0.22
  -1  -9   4    3.18    0.27
   0   9  -4    0.04    0.11
   0   9  -4    0.07    0.15
   0   9  -4    0.02    0.07
   0  -9   4   -0.01    0.14
   0  -9   4    0.12    0.11
  -1   9  -4   -0.01    0.13
  -1   9  -4   -0.01    0.07
   1  -9   4    0.00    0.09
  -2   9  -4    1.45    0.13
  -2   9  -4    1.35    0.20
   2  -9   4    1.49    0.11
   2  -9   4    1.73    0.18
  -3   9  -4    3.40    0.22
  -3   9  -4    3.15    0.28
   3  -9   4    3.49    0.19
   3  -9   4    3.46    0.26
  -4   9  -4    0.76    0.24
   4  -9   4    0.56    0.13
   4  -9   4    0.77    0.20
   4   8  -4    0.63    0.16
   4   8  -4    0.48    0.24
  -4  -8   4    0.48    0.28
   3   8  -4    0.21    0.17
   3   8  -4    0.15    0.10
  -3  -8   4    0.15    0.22
   2   8  -4    0.14    0.12
   2   8  -4    0.21    0.08
  -2  -8   4    0.08    0.17
   1   8  -4    0.00    0.11
   1   8  -4    0.11    0.06
  -1  -8   4    0.12    0.13
  -1  -8   4    0.02    0.09
   0   8  -4    3.72    0.17
   0   8  -4    3.91    0.25
   0   8  -4    3.79    0.21
   0  -8   4    4.10    0.22
   0  -8   4    4.04    0.24
  -1   8  -4    1.92    0.13
  -1   8  -4    2.05    0.20
   1  -8   4    2.27    0.17
  -2   8  -4    0.58    0.15
  -2   8  -4    0.54    0.09
   2  -8   4    0.39    0.07
   2  -8   4    0.29    0.11
  -3   8  -4    0.06    0.13
  -3   8  -4    0.08    0.11
   3  -8   4   -0.02    0.13
   3  -8   4    0.08    0.08
  -4   8  -4    0.44    0.19
   4  -8   4    0.59    0.19
   4  -8   4    0.53    0.12
   4   7  -4    0.78    0.15
   4   7  -4    1.07    0.23
  -4  -7   4    0.53    0.25
   3   7  -4    6.87    0.35
   3   7  -4    6.80    0.29
  -3  -7   4    7.03    0.40
   2   7  -4    0.10    0.06
   2   7  -4    0.16    0.12
  -2  -7   4    0.11    0.13
   1   7  -4    1.52    0.15
   1   7  -4    1.79    0.10
  -1  -7   4    1.63    0.14
  -1  -7   4    2.00    0.19
   0   7  -4    1.57    0.10
   0   7  -4    1.56    0.13
   0   7  -4    1.39    0.15
   0  -7   4    1.58    0.16
   0  -7   4    1.46    0.13
  -1   7  -4    0.58    0.07
  -1   7  -4    0.58    0.11
   1  -7   4    0.35    0.09
  -2   7  -4    0.53    0.13
  -2   7  -4    0.30    0.07
   2  -7   4    0.41    0.07
   2  -7   4    0.33    0.11
  -3   7  -4    2.30    0.23
  -3   7  -4    2.76    0.18
   3  -7   4    2.20    0.15
   3  -7   4    2.49    0.20
  -4   7  -4    0.13    0.18
   4  -7   4    0.18    0.11
  -5   7  -4    0.23    0.26
   5  -7   4    0.13    0.17
   4   6  -4    0.26    0.12
   4   6  -4    0.15    0.16
  -4  -6   4    0.26    0.22
   3   6  -4    3.75    0.19
   3   6  -4    4.27    0.26
  -3  -6   4    3.80    0.29
   2   6  -4    6.15    0.23
   2   6  -4    6.45    0.29
  -2  -6   4    6.35    0.32
   1   6  -4    7.33    0.30
   1   6  -4    7.77    0.26
   1   6  -4    7.60    0.26
  -1  -6   4    7.68    0.33
  -1  -6   4    7.90    0.30
   0   6  -4   36.00    1.11
   0   6  -4   34.18    1.12
   0   6  -4   34.97    1.14
   0   6  -4   34.80    1.18
   0  -6   4   35.28    1.15
   0  -6   4   35.53    1.18
  -1   6  -4    3.55    0.15
  -1   6  -4    3.06    0.20
  -1   6  -4    3.57    0.15
   1  -6   4    3.02    0.17
   1  -6   4    3.60    0.12
   1  -6   4    3.59    0.13
  -2   6  -4    0.48    0.07
  -2   6  -4    0.52    0.11
   2  -6   4    0.69    0.11
   2  -6   4    0.78    0.08
  -3   6  -4    3.53    0.20
  -3   6  -4    4.00    0.25
   3  -6   4    3.76    0.22
   3  -6   4    3.95    0.19
  -4   6  -4    0.25    0.18
   4  -6   4    0.20    0.11
  -5   6  -4    0.10    0.26
   5  -6   4   -0.01    0.16
   5   5  -4    0.10    0.22
   5   5  -4   -0.04    0.16
  -5  -5   4   -0.01    0.25
   4   5  -4   -0.04    0.15
   4   5  -4   -0.02    0.10
  -4  -5   4   -0.09    0.14
  -4  -5   4    0.01    0.18
   3   5  -4    0.54    0.14
   3   5  -4    0.48    0.08
  -3  -5   4    0.54    0.14
  -3  -5   4    0.47    0.15
   2   5  -4    2.86    0.13
   2   5  -4    2.50    0.18
  -2  -5   4    3.08    0.15
  -2  -5   4    3.01    0.18
  -2  -5   4    2.81    0.19
   1   5  -4    6.46    0.26
   1   5  -4    6.34    0.22
   1   5  -4    6.73    0.22
  -1  -5   4    7.12    0.26
  -1  -5   4    7.01    0.27
  -1  -5   4    6.82    0.29
   0   5  -4    2.86    0.13
   0   5  -4    2.73    0.11
   0   5  -4    3.12    0.11
   0   5  -4    2.67    0.17
   0  -5   4    3.09    0.15
   0  -5   4    3.08    0.17
  -1   5  -4    5.31    0.19
  -1   5  -4    4.77    0.23
  -1   5  -4    5.44    0.19
  -1   5  -4    5.07    0.19
   1  -5   4    5.30    0.18
   1  -5   4    4.81    0.22
   1  -5   4    5.52    0.18
  -2   5  -4   46.69    1.49
  -2   5  -4   45.26    1.45
   2  -5   4   43.78    1.45
   2  -5   4   45.96    1.47
  -3   5  -4    0.41    0.09
  -3   5  -4    0.43    0.13
   3  -5   4    0.28    0.10
   3  -5   4    0.39    0.09
  -4   5  -4    0.26    0.15
   4  -5   4    0.12    0.10
  -5   5  -4   -0.11    0.20
   5  -5   4    0.03    0.15
   5   4  -4   -0.04    0.15
   5   4  -4   -0.07    0.20
  -5  -4   4   -0.02    0.19
  -5  -4   4   -0.04    0.24
   4   4  -4    1.80    0.20
   4   4  -4    2.01    0.16
  -4  -4   4    2.00    0.23
   3   4  -4    4.18    0.24
  -3  -4   4    4.13    0.26
  -3  -4   4    4.23    0.24
   2   4  -4   15.87    0.53
   2   4  -4   15.66    0.57
  -2  -4   4   16.58    0.59
  -2  -4   4   16.66    0.58
  -2  -4   4   17.00    0.54
   1   4  -4    0.25    0.06
   1   4  -4    0.27    0.03
   1   4  -4    0.28    0.03
  -1  -4   4    0.39    0.09
  -1  -4   4    0.30    0.06
  -1  -4   4    0.25    0.06
   0   4  -4    0.42    0.05
   0   4  -4    0.28    0.07
   0   4  -4    0.40    0.03
   0  -4   4    0.41    0.06
   0  -4   4    0.51    0.06
   0  -4   4    0.25    0.06
  -1   4  -4   28.25    0.87
  -1   4  -4   26.95    0.88
  -1   4  -4   27.88    0.91
  -1   4  -4   26.99    0.88
   1  -4   4   27.76    0.87
   1  -4   4   27.30    0.90
   1  -4   4   27.79    0.87
  -2   4  -4    5.10    0.20
   2  -4   4    4.72    0.21
   2  -4   4    4.72    0.19
  -3   4  -4    3.47    0.21
   3  -4   4    3.09    0.17
   3  -4   4    2.85    0.18
  -4   4  -4   -0.06    0.15
   4  -4   4    0.00    0.09
  -5   4  -4    0.14    0.21
   5  -4   4    0.08    0.16
   5   3  -4    0.23    0.20
   5   3  -4    0.25    0.14
  -5  -3   4    0.29    0.09
  -5  -3   4    0.19    0.20
  -5  -3   4    0.34    0.23
   4   3  -4    1.63    0.15
   4   3  -4    1.81    0.20
  -4  -3   4    1.73    0.20
  -4  -3   4    1.83    0.21
  -4  -3   4    1.51    0.11
   3   3  -4    9.83    0.39
   3   3  -4    9.86    0.35
  -3  -3   4    9.90    0.41
  -3  -3   4    9.22    0.38
   2   3  -4    4.43    0.17
   2   3  -4    4.69    0.18
  -2  -3   4    4.92    0.22
  -2  -3   4    5.17    0.22
  -2  -3   4    5.10    0.18
  -1  -3   4    5.48    0.21
  -1  -3   4    5.32    0.22
  -1  -3   4    5.71    0.20
   0   3  -4    2.94    0.14
   0  -3   4    2.91    0.12
   0  -3   4    2.94    0.13
   0  -3   4    2.91    0.14
  -1   3  -4    9.85    0.33
  -1   3  -4    9.50    0.35
   1  -3   4   10.36    0.33
   1  -3   4   10.16    0.33
   1  -3   4    9.84    0.35
  -2   3  -4    0.17    0.07
  -2   3  -4    0.11    0.05
  -2   3  -4    0.08    0.07
   2  -3   4    0.22    0.07
   2  -3   4    0.15    0.05
  -3   3  -4    3.08    0.21
  -3   3  -4    3.13    0.17
  -3   3  -4    2.98    0.17
   3  -3   4    2.95    0.17
   3  -3   4    2.45    0.16
  -4   3  -4    1.51    0.20
   4  -3   4    1.57    0.16
  -5   3  -4    0.20    0.18
   5   2  -4    0.99    0.21
  -5  -2   4    0.75    0.12
  -5  -2   4    0.60    0.22
  -5  -2   4    0.95    0.22
   4   2  -4    1.23    0.16
   4   2  -4    1.50    0.15
  -4  -2   4    1.18    0.12
  -4  -2   4    1.75    0.21
  -4  -2   4    1.37    0.16
   3   2  -4    0.95    0.09
  -3  -2   4    0.82    0.12
  -3  -2   4    0.77    0.12
  -3  -2   4    0.93    0.08
   2   2  -4   31.69    1.02
   2   2  -4   31.74    1.02
   2   2  -4   32.52    1.01
  -2  -2   4   30.63    1.04
  -2  -2   4   32.94    1.05
   1   2  -4    0.59    0.06
   1   2  -4    0.57    0.03
   1   2  -4    0.60    0.03
  -1  -2   4    0.78    0.07
  -1  -2   4    0.67    0.08
  -1  -2   4    0.72    0.06
   0   2  -4    8.44    0.30
   0  -2   4    8.81    0.30
   0  -2   4    8.68    0.30
   0  -2   4    8.79    0.29
  -1   2  -4   28.83    0.94
  -1   2  -4   28.62    0.92
  -1   2  -4   29.32    0.94
   1  -2   4   28.50    0.94
   1  -2   4   28.36    0.92
   1  -2   4   29.79    0.93
   1  -2   4   29.68    0.91
  -2   2  -4    0.71    0.09
  -2   2  -4    1.06    0.09
  -2   2  -4    0.98    0.10
  -2   2  -4    1.05    0.09
   2  -2   4    0.92    0.09
   2  -2   4    0.92    0.09
   2  -2   4    1.01    0.10
   2  -2   4    1.04    0.07
  -3   2  -4    1.57    0.16
  -3   2  -4    1.38    0.14
  -3   2  -4    1.69    0.14
  -3   2  -4    1.65    0.15
   3  -2   4    1.60    0.14
  -4   2  -4    0.88    0.16
  -4   2  -4    0.84    0.17
   4  -2   4    0.58    0.14
  -5   2  -4    0.35    0.20
   5   1  -4    0.12    0.13
   5   1  -4    0.15    0.17
  -5  -1   4    0.19    0.17
  -5  -1   4    0.11    0.20
  -5  -1   4    0.20    0.11
   4   1  -4    0.42    0.10
  -4  -1   4    0.41    0.09
  -4  -1   4    0.24    0.13
  -4  -1   4    0.36    0.15
   3   1  -4    1.14    0.10
  -3  -1   4    1.10    0.09
  -3  -1   4    0.93    0.13
  -3  -1   4    1.24    0.13
   2   1  -4   28.41    0.94
   2   1  -4   30.73    0.92
   2   1  -4   28.49    0.93
  -2  -1   4   28.06    0.95
  -2  -1   4   28.61    0.95
  -2  -1   4   28.88    0.92
  -2  -1   4   29.41    0.92
   1   1  -4   73.44    2.36
   1   1  -4   75.56    2.36
   1   1  -4   76.26    2.37
  -1  -1   4   77.44    2.38
  -1  -1   4   73.90    2.38
   0   1  -4   28.77    0.89
   0   1  -4   27.45    0.89
   0   1  -4   27.28    0.90
   0   1  -4   28.74    0.89
   0  -1   4   28.11    0.90
   0  -1   4   28.41    0.90
  -1   1  -4   23.98    0.77
  -1   1  -4   23.47    0.76
  -1   1  -4   24.08    0.77
   1  -1   4   23.47    0.77
   1  -1   4   23.14    0.76
   1  -1   4   23.89    0.75
  -2   1  -4    1.46    0.10
  -2   1  -4    1.32    0.11
  -2   1  -4    1.34    0.10
  -2   1  -4    1.25    0.12
   2  -1   4    1.33    0.10
   2  -1   4    1.46    0.09
   2  -1   4    1.18    0.09
  -3   1  -4    5.99    0.28
  -3   1  -4    6.31    0.26
  -3   1  -4    6.01    0.27
  -3   1  -4    6.23    0.25
   3  -1   4    6.28    0.25
   3  -1   4    6.06    0.26
  -4   1  -4    1.26    0.17
  -4   1  -4    1.83    0.19
   4  -1   4    2.07    0.20
  -5   1  -4    1.07    0.20
  -5   1  -4    0.87    0.23
   5   0  -4    0.83    0.15
   5   0  -4    0.64    0.19
  -5   0   4    0.59    0.13
  -5   0   4    0.56    0.18
  -5   0   4    0.41    0.20
   4   0  -4    2.23    0.17
  -4   0   4    2.63    0.22
  -4   0   4    2.56    0.22
  -4   0   4    2.46    0.16
   3   0  -4   24.05    0.79
  -3   0   4   24.09    0.82
  -3   0   4   24.44    0.83
  -3   0   4   24.24    0.79
   2   0  -4    2.32    0.10
   2   0  -4    2.22    0.10
  -2   0   4    2.19    0.11
  -2   0   4    1.97    0.12
  -2   0   4    2.27    0.13
  -2   0   4    2.23    0.10
   1   0  -4    2.97    0.10
   1   0  -4    2.66    0.11
  -1   0   4    2.62    0.12
  -1   0   4    2.78    0.11
  -1   0   4    2.76    0.10
  -1   0   4    2.83    0.11
   0   0  -4  278.31    8.71
   0   0  -4  280.09    8.71
   0   0   4  281.14    8.72
   0   0   4  275.05    8.71
  -1   0  -4  138.99    4.34
  -1   0  -4  132.23    4.33
  -1   0  -4  141.90    4.34
  -1   0  -4  144.61    4.34
   1   0   4  136.43    4.33
   1   0   4  137.85    4.33
   1   0   4  135.08    4.33
  -2   0  -4   -0.01    0.05
  -2   0  -4    0.04    0.06
  -2   0  -4    0.04    0.06
  -2   0  -4    0.02    0.05
   2   0   4    0.02    0.05
   2   0   4    0.03    0.05
   2   0   4    0.03    0.05
  -3   0  -4    0.12    0.10
  -3   0  -4    0.04    0.10
  -3   0  -4    0.05    0.08
  -3   0  -4    0.12    0.09
   3   0   4    0.05    0.08
   3   0   4    0.14    0.08
   3   0   4    0.07    0.08
  -4   0  -4    1.31    0.19
  -4   0  -4    1.33    0.16
  -5   0  -4    0.07    0.18
  -5   0  -4    0.07    0.17
   5  -1  -4    0.38    0.14
  -5   1   4    0.23    0.19
  -5   1   4    0.12    0.17
  -5   1   4    0.13    0.12
   4  -1  -4    2.94    0.19
  -4   1   4    3.33    0.22
  -4   1   4    3.23    0.18
  -4   1   4    3.19    0.24
   3  -1  -4    0.10    0.06
  -3   1   4    0.06    0.06
  -3   1   4    0.05    0.08
  -3   1   4    0.10    0.08
   2  -1  -4    0.01    0.04
   2  -1  -4    0.04    0.05
   2  -1  -4    0.01    0.06
  -2   1   4   -0.01    0.06
  -2   1   4    0.01    0.05
  -2   1   4    0.04    0.04
   1  -1  -4   43.85    1.38
   1  -1  -4   41.93    1.37
  -1   1   4   43.32    1.38
  -1   1   4   43.55    1.37
  -1   1   4   44.31    1.37
   0  -1  -4    0.90    0.06
   0  -1  -4    1.00    0.07
   0  -1  -4    0.92    0.07
   0   1   4    0.90    0.06
  -1  -1  -4    0.18    0.05
  -1  -1  -4    0.20    0.05
  -1  -1  -4    0.23    0.05
  -1  -1  -4    0.19    0.04
   1   1   4    0.21    0.05
   1   1   4    0.32    0.05
   1   1   4    0.20    0.05
  -2  -1  -4   37.86    1.25
  -2  -1  -4   38.41    1.24
  -2  -1  -4   38.77    1.23
  -2  -1  -4   38.61    1.24
   2   1   4   37.82    1.24
   2   1   4   38.30    1.24
   2   1   4   39.06    1.24
  -3  -1  -4    3.31    0.20
  -3  -1  -4    3.99    0.23
  -3  -1  -4    3.99    0.18
   3   1   4    4.01    0.20
   3   1   4    3.67    0.20
   3   1   4    3.05    0.20
  -4  -1  -4    0.17    0.13
  -4  -1  -4    0.17    0.15
   4   1   4    0.19    0.15
  -5  -1  -4    0.00    0.21
  -5  -1  -4    0.12    0.17
  -5   2   4    0.05    0.13
  -5   2   4    0.10    0.18
   4  -2  -4   -0.02    0.10
  -4   2   4    0.02    0.09
  -4   2   4    0.07    0.13
  -4   2   4   -0.01    0.11
   3  -2  -4    0.13    0.06
  -3   2   4    0.22    0.08
  -3   2   4    0.06    0.09
  -3   2   4    0.13    0.08
   2  -2  -4    0.84    0.08
   2  -2  -4    0.81    0.09
  -2   2   4    0.88    0.10
  -2   2   4    0.76    0.08
  -2   2   4    0.69    0.07
  -2   2   4    0.99    0.09
   1  -2  -4    4.79    0.19
   1  -2  -4    4.87    0.18
   1  -2  -4    4.76    0.19
  -1   2   4    4.69    0.19
  -1   2   4    4.69    0.18
  -1   2   4    5.29    0.19
  -1   2   4    5.12    0.18
   0  -2  -4    0.35    0.06
   0  -2  -4    0.39    0.04
   0  -2  -4    0.24    0.05
   0  -2  -4    0.23    0.04
   0   2   4    0.29    0.05
   0   2   4    0.30    0.05
   0   2   4    0.35    0.05
  -1  -2  -4   14.35    0.48
  -1  -2  -4   14.37    0.48
  -1  -2  -4   13.93    0.48
  -1  -2  -4   14.56    0.48
   1   2   4   14.10    0.49
   1   2   4   14.23    0.48
   1   2   4   14.17    0.48
  -2  -2  -4   30.94    1.00
  -2  -2  -4   30.95    1.02
  -2  -2  -4   30.34    1.01
  -2  -2  -4   32.04    1.00
   2   2   4   30.34    1.01
   2   2   4   29.69    1.01
   2   2   4   31.83    1.02
  -3  -2  -4   11.59    0.43
  -3  -2  -4   11.21    0.41
  -3  -2  -4   11.38    0.45
   3   2   4   11.53    0.44
   3   2   4   10.96    0.42
  -4  -2  -4    2.70    0.23
  -4  -2  -4    2.93    0.27
   4   2   4    2.96    0.23
  -5  -2  -4   -0.06    0.23
  -5  -2  -4   -0.10    0.16
  -5   3   4    0.34    0.15
  -5   3   4    0.26    0.18
   4  -3  -4    0.04    0.10
  -4   3   4    0.07    0.10
  -4   3   4   -0.01    0.13
  -4   3   4   -0.01    0.13
   3  -3  -4    3.41    0.18
  -3   3   4    3.70    0.18
  -3   3   4    3.64    0.22
  -3   3   4    3.64    0.20
   2  -3  -4    1.03    0.09
   2  -3  -4    1.00    0.09
   2  -3  -4    0.92    0.10
  -2   3   4    0.95    0.10
  -2   3   4    0.85    0.09
  -2   3   4    0.83    0.09
  -2   3   4    0.80    0.08
   1  -3  -4    0.28    0.05
   1  -3  -4    0.45    0.07
   1  -3  -4    0.33    0.07
  -1   3   4    0.36    0.06
  -1   3   4    0.31    0.06
  -1   3   4    0.35    0.06
  -1   3   4    0.36    0.06
   0  -3  -4    0.52    0.07
   0  -3  -4    0.56    0.06
   0  -3  -4    0.40    0.06
   0  -3  -4    0.44    0.07
   0   3   4    0.48    0.07
   0   3   4    0.48    0.06
   0   3   4    0.43    0.06
  -1  -3  -4   14.02    0.48
  -1  -3  -4   13.49    0.48
  -1  -3  -4   13.53    0.47
  -1  -3  -4   14.16    0.48
   1   3   4   14.10    0.48
   1   3   4   14.20    0.49
   1   3   4   13.45    0.47
  -2  -3  -4   14.78    0.54
  -2  -3  -4   15.12    0.52
  -2  -3  -4   15.14    0.53
   2   3   4   15.80    0.53
   2   3   4   14.82    0.54
   2   3   4   15.25    0.53
  -3  -3  -4   11.47    0.46
  -3  -3  -4   11.03    0.43
   3   3   4   10.73    0.43
   3   3   4   11.52    0.45
  -4  -3  -4    0.07    0.13
  -4  -3  -4    0.12    0.16
   4   3   4    0.13    0.15
  -5  -3  -4    0.43    0.19
  -5  -3  -4    0.20    0.24
  -5   4   4    0.18    0.15
  -5   4   4    0.07    0.18
  -4   4   4    2.94    0.20
  -4   4   4    2.70    0.20
  -4   4   4    2.29    0.23
   3  -4  -4   13.07    0.47
  -3   4   4   13.25    0.49
  -3   4   4   13.61    0.48
  -3   4   4   13.60    0.50
   2  -4  -4   25.78    0.85
   2  -4  -4   26.22    0.86
   2  -4  -4   26.05    0.87
  -2   4   4   26.54    0.85
  -2   4   4   25.06    0.86
  -2   4   4   25.90    0.86
  -2   4   4   26.25    0.86
   1  -4  -4    3.60    0.17
   1  -4  -4    3.14    0.17
   1  -4  -4    3.81    0.16
  -1   4   4    3.44    0.16
  -1   4   4    3.39    0.16
  -1   4   4    3.77    0.16
  -1   4   4    3.67    0.16
   0  -4  -4   46.41    1.51
   0  -4  -4   47.68    1.49
   0  -4  -4   47.69    1.50
   0  -4  -4   48.37    1.51
   0   4   4   44.75    1.51
   0   4   4   46.50    1.50
   0   4   4   45.73    1.50
  -1  -4  -4    0.15    0.08
  -1  -4  -4    0.18    0.08
  -1  -4  -4    0.19    0.06
  -1  -4  -4    0.14    0.06
   1   4   4    0.15    0.08
   1   4   4    0.18    0.08
   1   4   4    0.20    0.07
  -2  -4  -4    2.38    0.16
  -2  -4  -4    1.98    0.17
  -2  -4  -4    2.14    0.15
   2   4   4    2.30    0.16
   2   4   4    2.50    0.17
  -3  -4  -4    0.30    0.15
  -3  -4  -4    0.32    0.11
   3   4   4    0.29    0.12
   3   4   4    0.63    0.13
  -4  -4  -4    0.02    0.13
  -4  -4  -4   -0.09    0.19
   4   4   4    0.18    0.17
  -5  -4  -4   -0.05    0.18
  -5  -4  -4    0.11    0.29
  -5   5   4   -0.03    0.22
  -5   5   4    0.02    0.16
  -4   5   4    0.88    0.21
  -4   5   4    0.86    0.15
   3  -5  -4    0.57    0.11
  -3   5   4    0.42    0.11
  -3   5   4    0.50    0.13
  -3   5   4    0.48    0.11
   2  -5  -4    0.67    0.11
   2  -5  -4    0.41    0.10
   2  -5  -4    0.53    0.09
  -2   5   4    0.58    0.09
  -2   5   4    0.70    0.10
  -2   5   4    0.53    0.10
  -2   5   4    0.48    0.10
   1  -5  -4   13.02    0.44
   1  -5  -4   13.12    0.45
   1  -5  -4   12.21    0.45
  -1   5   4   12.39    0.44
  -1   5   4   13.41    0.45
  -1   5   4   12.39    0.45
  -1   5   4   12.08    0.45
   0  -5  -4   18.18    0.63
   0  -5  -4   18.12    0.62
   0  -5  -4   18.72    0.63
   0  -5  -4   18.68    0.61
   0   5   4   17.45    0.63
   0   5   4   18.02    0.63
   0   5   4   18.69    0.62
   0   5   4   18.53    0.63
  -1  -5  -4   14.78    0.57
  -1  -5  -4   16.01    0.56
  -1  -5  -4   16.63    0.56
   1   5   4   15.92    0.57
   1   5   4   16.67    0.56
  -2  -5  -4    2.32    0.17
  -2  -5  -4    2.42    0.17
  -2  -5  -4    2.99    0.21
   2   5   4    2.26    0.19
   2   5   4    2.45    0.18
  -3  -5  -4    0.14    0.11
  -3  -5  -4    0.06    0.15
   3   5   4    0.14    0.13
   3   5   4    0.26    0.12
  -4  -5  -4    0.00    0.13
  -4  -5  -4    0.03    0.20
   4   5   4    0.12    0.17
  -5   6   4   -0.02    0.23
  -5   6   4    0.00    0.18
  -4   6   4    0.04    0.14
  -4   6   4    0.11    0.17
   3  -6  -4    0.04    0.11
   3  -6  -4    0.07    0.12
  -3   6   4    0.01    0.12
  -3   6   4    0.05    0.10
   2  -6  -4    0.05    0.08
   2  -6  -4    0.05    0.10
  -2   6   4    0.14    0.10
  -2   6   4    0.08    0.08
  -2   6   4    0.11    0.10
   1  -6  -4    3.89    0.20
   1  -6  -4    3.55    0.20
  -1   6   4    4.04    0.20
  -1   6   4    3.63    0.19
  -1   6   4    2.98    0.19
  -1   6   4    3.82    0.20
   0  -6  -4    1.16    0.14
   0  -6  -4    1.25    0.13
   0  -6  -4    1.37    0.14
   0   6   4    1.05    0.12
   0   6   4    1.30    0.13
   0   6   4    1.43    0.13
   0   6   4    1.23    0.14
  -1  -6  -4    2.31    0.19
  -1  -6  -4    2.50    0.18
  -1  -6  -4    2.79    0.17
   1   6   4    2.52    0.18
   1   6   4    2.68    0.17
  -2  -6  -4   10.82    0.41
  -2  -6  -4   10.68    0.41
  -2  -6  -4   10.61    0.45
   2   6   4   10.68    0.42
   2   6   4   10.08    0.44
  -3  -6  -4    2.37    0.20
  -3  -6  -4    2.42    0.26
   3   6   4    2.46    0.25
   3   6   4    2.95    0.25
  -4  -6  -4    0.19    0.24
  -4  -6  -4   -0.03    0.14
   4   6   4    0.04    0.20
  -5   7   4    0.22    0.29
  -5   7   4    0.04    0.24
  -4   7   4    1.70    0.24
   3  -7  -4    0.51    0.15
   3  -7  -4    0.40    0.14
  -3   7   4    0.39    0.15
  -3   7   4    0.44    0.13
   2  -7  -4    0.44    0.12
   2  -7  -4    0.28    0.10
  -2   7   4    0.43    0.12
  -2   7   4    0.47    0.13
   1  -7  -4    0.24    0.12
   1  -7  -4    0.17    0.09
  -1   7   4    0.24    0.10
  -1   7   4    0.19    0.11
  -1   7   4    0.20    0.09
   0  -7  -4    0.75    0.14
   0  -7  -4    0.90    0.12
   0  -7  -4    0.91    0.14
   0   7   4    0.58    0.12
   0   7   4    0.64    0.11
   0   7   4    0.79    0.13
  -1  -7  -4    0.00    0.11
  -1  -7  -4    0.05    0.13
  -1  -7  -4    0.04    0.09
   1   7   4    0.03    0.11
   1   7   4    0.01    0.09
  -2  -7  -4    1.19    0.16
  -2  -7  -4    1.37    0.15
  -2  -7  -4    1.65    0.22
   2   7   4    0.96    0.14
   2   7   4    1.18    0.18
  -3  -7  -4    0.08    0.20
  -3  -7  -4    0.13    0.12
   3   7   4   -0.01    0.15
   3   7   4    0.00    0.15
  -4  -7  -4    0.12    0.28
  -4  -7  -4   -0.02    0.17
   4   7   4    0.06    0.23
  -4   8   4    2.10    0.28
   3  -8  -4    0.89    0.16
   3  -8  -4    0.69    0.18
  -3   8   4    0.81    0.18
   2  -8  -4    0.12    0.12
   2  -8  -4    0.21    0.13
  -2   8   4    0.03    0.12
  -2   8   4    0.16    0.13
   1  -8  -4   -0.04    0.12
   1  -8  -4    0.05    0.09
  -1   8   4   -0.01    0.10
  -1   8   4    0.00    0.11
  -1   8   4    0.05    0.12
   0  -8  -4    2.02    0.20
   0  -8  -4    2.08    0.17
   0  -8  -4    2.15    0.21
   0   8   4    2.11    0.21
   0   8   4    1.93    0.19
   0   8   4    2.00    0.20
  -1  -8  -4    0.16    0.14
  -1  -8  -4    0.15    0.11
  -1  -8  -4    0.17    0.13
   1   8   4    0.28    0.14
   1   8   4    0.07    0.11
  -2  -8  -4    0.09    0.18
  -2  -8  -4    0.17    0.15
  -2  -8  -4    0.02    0.11
   2   8   4    0.02    0.15
   2   8   4    0.07    0.13
  -3  -8  -4   -0.06    0.23
  -3  -8  -4   -0.06    0.13
   3   8   4   -0.05    0.19
   3   8   4   -0.05    0.16
   3  -9  -4    0.67    0.20
   3  -9  -4    0.54    0.16
  -3   9   4    0.96    0.21
   2  -9  -4    2.11    0.22
   2  -9  -4    1.99    0.21
  -2   9   4    2.16    0.24
  -2   9   4    2.41    0.23
   1  -9  -4    0.60    0.13
   1  -9  -4    0.98    0.17
  -1   9   4    1.01    0.18
  -1   9   4    1.12    0.16
  -1   9   4    0.93    0.16
   0  -9  -4    6.27    0.34
   0  -9  -4    5.55    0.28
   0  -9  -4    5.85    0.32
   0   9   4    5.82    0.34
   0   9   4    5.88    0.32
   0   9   4    5.33    0.30
  -1  -9  -4    0.22    0.16
  -1  -9  -4    0.02    0.10
  -1  -9  -4    0.25    0.18
   1   9   4    0.26    0.15
   1   9   4    0.33    0.14
  -2  -9  -4    0.08    0.18
  -2  -9  -4    0.06    0.12
  -2  -9  -4   -0.06    0.20
   2   9   4    0.15    0.19
   2   9   4    0.13    0.15
  -3  -9  -4   -0.04    0.27
  -3  -9  -4    0.09    0.15
   3   9   4    0.07    0.23
   3   9   4    0.13    0.21
   3 -10  -4    0.23    0.20
   3 -10  -4    0.31    0.18
   2 -10  -4    0.57    0.15
   2 -10  -4    0.73    0.19
  -2  10   4    0.57    0.20
  -2  10   4    0.49    0.17
  -1  10   4    1.98    0.21
  -1  10   4    1.94    0.24
   0 -10  -4   -0.01    0.14
   0 -10  -4    0.07    0.12
   0 -10  -4    0.10    0.18
   0  10   4    0.00    0.14
   0  10   4    0.12    0.18
   0  10   4    0.04    0.14
  -1 -10  -4    1.43    0.17
  -1 -10  -4    1.83    0.23
  -1 -10  -4    1.44    0.25
   1  10   4    1.70    0.20
   1  10   4    1.58    0.26
   1  10   4    1.64    0.23
  -2 -10  -4    3.96    0.33
  -2 -10  -4    3.86    0.41
  -2 -10  -4    3.59    0.25
   2  10   4    4.01    0.32
   2  10   4    3.81    0.35
   3 -11  -4    0.03    0.19
   3 -11  -4    0.03    0.24
   2 -11  -4    0.16    0.16
   2 -11  -4    0.04    0.20
   1 -11  -4    4.77    0.33
   1 -11  -4    4.27    0.28
  -1  11   4    4.64    0.34
   0 -11  -4    0.04    0.23
   0 -11  -4    0.19    0.13
   0 -11  -4    0.26    0.19
   0  11   4    0.33    0.21
   0  11   4    0.17    0.16
   0  11   4    0.11    0.18
  -1 -11  -4    0.02    0.13
  -1 -11  -4   -0.03    0.23
  -1 -11  -4    0.12    0.20
   1  11   4   -0.03    0.18
   1  11   4    0.12    0.23
   1  11   4    0.01    0.19
   2 -12  -4    0.01    0.18
   1 -12  -4    0.00    0.23
   1 -12  -4    0.23    0.17
  -1  12   4    0.39    0.23
   0 -12  -4    0.04    0.14
   0 -12  -4    0.14    0.22
   0  12   4   -0.03    0.22
   0  13  -5    0.83    0.16
   0  13  -5    0.46    0.28
  -1  13  -5    0.09    0.24
  -1  13  -5    0.14    0.16
   1 -13   5    0.01    0.21
   1  12  -5   -0.07    0.26
   1  12  -5   -0.04    0.13
  -1 -12   5   -0.01    0.19
  -1 -12   5   -0.03    0.25
   0  12  -5    0.11    0.12
   0  12  -5    0.05    0.22
   0 -12   5    0.01    0.17
   0 -12   5    0.08    0.22
  -1  12  -5    1.18    0.26
  -1  12  -5    1.67    0.17
   1 -12   5    1.57    0.23
  -2  12  -5    1.91    0.28
  -2  12  -5    2.12    0.20
   2 -12   5    1.56    0.24
   2  11  -5    3.26    0.32
   2  11  -5    2.82    0.23
  -2 -11   5    2.82    0.36
   1  11  -5    1.06    0.23
   1  11  -5    1.30    0.14
   1  11  -5    1.54    0.23
  -1 -11   5    1.08    0.19
  -1 -11   5    1.09    0.23
   0  11  -5    0.01    0.17
   0  11  -5    0.00    0.09
   0 -11   5   -0.02    0.14
   0 -11   5    0.01    0.18
  -1  11  -5    0.17    0.11
  -1  11  -5    0.16    0.18
   1 -11   5    0.23    0.16
  -2  11  -5    0.22    0.20
  -2  11  -5    0.27    0.12
   2 -11   5    0.33    0.17
  -3  11  -5    0.58    0.16
  -3  11  -5    0.57    0.26
   3 -11   5    0.71    0.11
   3 -11   5    0.86    0.23
   3  10  -5    0.22    0.24
   3  10  -5    0.07    0.15
  -3 -10   5    0.14    0.28
   2  10  -5    0.32    0.19
   2  10  -5    0.31    0.11
  -2 -10   5    0.20    0.21
   1  10  -5    0.56    0.10
   1  10  -5    0.49    0.20
   1  10  -5    0.79    0.18
  -1 -10   5    0.66    0.20
  -1 -10   5    0.76    0.16
   0  10  -5    3.09    0.28
   0  10  -5    2.62    0.16
   0 -10   5    2.61    0.22
   0 -10   5    2.87    0.27
  -1  10  -5    1.22    0.21
  -1  10  -5    1.27    0.12
   1 -10   5    1.23    0.17
  -2  10  -5    0.64    0.12
  -2  10  -5    0.75    0.20
   2 -10   5    0.45    0.16
  -3  10  -5    0.19    0.13
  -3  10  -5    0.36    0.20
   3 -10   5    0.18    0.18
   3 -10   5    0.14    0.10
  -4  10  -5    0.11    0.25
  -4  10  -5    0.09    0.19
   4 -10   5    0.08    0.21
   4 -10   5    0.01    0.14
   3   9  -5    0.14    0.12
   3   9  -5   -0.04    0.19
  -3  -9   5    0.05    0.24
   2   9  -5    0.15    0.09
   2   9  -5    0.04    0.15
  -2  -9   5    0.26    0.19
   1   9  -5    0.72    0.09
   1   9  -5    1.12    0.17
  -1  -9   5    1.01    0.15
  -1  -9   5    1.07    0.20
   0   9  -5    2.12    0.13
   0   9  -5    2.09    0.24
   0  -9   5    2.13    0.19
   0  -9   5    2.10    0.23
  -1   9  -5    0.84    0.17
  -1   9  -5    1.14    0.11
   1  -9   5    0.74    0.14
  -2   9  -5    1.70    0.15
  -2   9  -5    1.76    0.20
   2  -9   5    1.86    0.10
   2  -9   5    1.78    0.19
  -3   9  -5    0.90    0.14
  -3   9  -5    1.14    0.21
   3  -9   5    0.80    0.17
   3  -9   5    0.92    0.11
  -4   9  -5    0.33    0.23
  -4   9  -5    0.27    0.17
   4  -9   5    0.25    0.19
   4  -9   5    0.22    0.13
   4   8  -5    0.02    0.13
   4   8  -5    0.10    0.23
  -4  -8   5    0.04    0.26
   3   8  -5   -0.02    0.09
   3   8  -5    0.06    0.16
  -3  -8   5   -0.03    0.20
   2   8  -5    2.03    0.14
   2   8  -5    1.96    0.21
  -2  -8   5    2.22    0.25
   1   8  -5    9.15    0.33
   1   8  -5    9.84    0.39
  -1  -8   5    9.15    0.37
  -1  -8   5    9.26    0.43
   0   8  -5    6.87    0.26
   0   8  -5    7.18    0.35
   0   8  -5    6.88    0.30
   0  -8   5    6.87    0.34
   0  -8   5    6.97    0.30
  -1   8  -5    2.07    0.13
  -1   8  -5    1.66    0.18
   1  -8   5    1.82    0.16
  -2   8  -5   -0.02    0.07
  -2   8  -5    0.00    0.11
   2  -8   5    0.02    0.11
   2  -8   5    0.06    0.06
  -3   8  -5    0.35    0.11
  -3   8  -5    0.36    0.15
   3  -8   5    0.48    0.15
   3  -8   5    0.51    0.10
  -4   8  -5    0.03    0.19
  -4   8  -5   -0.02    0.15
   4  -8   5    0.03    0.11
   4  -8   5    0.14    0.16
   4   7  -5    1.61    0.23
   4   7  -5    1.87    0.18
  -4  -7   5    2.11    0.31
   3   7  -5    1.12    0.19
   3   7  -5    1.22    0.12
  -3  -7   5    1.30    0.23
   2   7  -5    3.14    0.15
   2   7  -5    2.85    0.22
  -2  -7   5    3.54    0.27
   1   7  -5    0.09    0.09
   1   7  -5    0.06    0.05
  -1  -7   5    0.04    0.11
  -1  -7   5    0.06    0.09
   0   7  -5    0.05    0.08
   0   7  -5    0.09    0.11
   0   7  -5    0.10    0.05
   0  -7   5    0.11    0.11
   0  -7   5    0.14    0.08
  -1   7  -5    5.19    0.21
  -1   7  -5    5.24    0.28
   1  -7   5    5.49    0.25
  -2   7  -5    7.77    0.35
  -2   7  -5    7.44    0.29
   2  -7   5    6.90    0.32
   2  -7   5    7.53    0.27
  -3   7  -5    1.01    0.18
  -3   7  -5    1.31    0.14
   3  -7   5    1.04    0.11
   3  -7   5    1.24    0.16
  -4   7  -5   -0.01    0.14
  -4   7  -5   -0.05    0.18
   4  -7   5    0.02    0.11
   4  -7   5    0.01    0.16
  -5   7  -5    0.15    0.27
   5  -7   5    0.06    0.17
   4   6  -5    0.18    0.18
   4   6  -5   -0.03    0.11
  -4  -6   5    0.08    0.21
   3   6  -5    0.45    0.09
   3   6  -5    0.40    0.15
  -3  -6   5    0.54    0.16
  -3  -6   5    0.49    0.16
   2   6  -5    0.93    0.08
   2   6  -5    1.01    0.13
  -2  -6   5    0.99    0.13
  -2  -6   5    1.35    0.19
   1   6  -5   16.80    0.55
   1   6  -5   17.77    0.55
   1   6  -5   16.63    0.60
  -1  -6   5   16.76    0.63
  -1  -6   5   17.89    0.59
  -1  -6   5   17.38    0.60
   0   6  -5   10.26    0.33
   0   6  -5    9.96    0.41
   0   6  -5    9.83    0.34
   0   6  -5   10.40    0.36
   0  -6   5   10.04    0.37
   0  -6   5   10.14    0.40
  -1   6  -5    1.58    0.10
  -1   6  -5    1.82    0.15
   1  -6   5    1.87    0.14
  -2   6  -5    4.88    0.20
  -2   6  -5    4.81    0.25
   2  -6   5    4.60    0.19
   2  -6   5    5.24    0.23
  -3   6  -5    0.42    0.13
  -3   6  -5    0.52    0.11
   3  -6   5    0.47    0.09
   3  -6   5    0.73    0.13
  -4   6  -5    0.00    0.17
  -4   6  -5    0.02    0.17
  -4   6  -5   -0.02    0.18
   4  -6   5    0.02    0.11
  -5   6  -5   -0.02    0.27
   5  -6   5    0.05    0.17
   4   5  -5    2.03    0.23
   4   5  -5    1.90    0.17
  -4  -5   5    1.97    0.22
  -4  -5   5    2.33    0.27
   3   5  -5    2.24    0.20
   3   5  -5    1.76    0.12
  -3  -5   5    1.94    0.22
  -3  -5   5    1.58    0.18
   2   5  -5    4.07    0.15
   2   5  -5    3.94    0.21
  -2  -5   5    4.05    0.24
  -2  -5   5    3.89    0.21
   1   5  -5    0.06    0.07
  -1  -5   5    0.12    0.09
  -1  -5   5    0.15    0.07
  -1  -5   5    0.14    0.07
   0   5  -5   10.70    0.34
   0   5  -5   10.64    0.37
   0   5  -5   10.29    0.41
   0   5  -5   10.51    0.34
   0  -5   5   11.22    0.41
   0  -5   5   10.75    0.37
   0  -5   5   10.70    0.38
  -1   5  -5   40.84    1.23
  -1   5  -5   38.00    1.23
  -1   5  -5   39.02    1.23
  -1   5  -5   39.27    1.28
   1  -5   5   36.35    1.26
  -2   5  -5    2.47    0.17
  -2   5  -5    2.58    0.14
   2  -5   5    2.24    0.15
   2  -5   5    2.50    0.12
  -3   5  -5    8.95    0.35
  -3   5  -5    9.19    0.39
   3  -5   5    9.13    0.36
   3  -5   5    8.84    0.35
  -4   5  -5    1.25    0.21
   4  -5   5    1.95    0.18
  -5   5  -5    0.11    0.25
   5  -5   5   -0.04    0.16
   5   4  -5    0.04    0.14
   5   4  -5    0.05    0.22
  -5  -4   5   -0.09    0.25
  -5  -4   5   -0.04    0.23
   4   4  -5    0.36    0.15
  -4  -4   5    0.36    0.19
  -4  -4   5    0.23    0.15
   3   4  -5    3.13    0.22
   3   4  -5    3.54    0.16
  -3  -4   5    3.20    0.24
  -3  -4   5    3.38    0.22
   2   4  -5    0.85    0.11
   2   4  -5    1.15    0.07
  -2  -4   5    1.29    0.13
  -2  -4   5    1.33    0.15
  -2  -4   5    1.41    0.10
  -1  -4   5    6.20    0.27
  -1  -4   5    6.29    0.25
  -1  -4   5    6.14    0.23
   0   4  -5    0.16    0.07
   0   4  -5    0.22    0.05
   0  -4   5    0.30    0.06
   0  -4   5    0.25    0.07
   0  -4   5    0.29    0.05
  -1   4  -5    1.37    0.09
  -1   4  -5    1.54    0.07
  -1   4  -5    1.44    0.12
  -1   4  -5    1.35    0.08
   1  -4   5    1.38    0.11
   1  -4   5    1.57    0.07
   1  -4   5    1.62    0.07
  -2   4  -5   11.09    0.38
  -2   4  -5   11.24    0.42
   2  -4   5   10.58    0.38
   2  -4   5   10.94    0.40
  -3   4  -5    1.91    0.16
  -3   4  -5    2.00    0.15
  -3   4  -5    2.21    0.18
   3  -4   5    2.00    0.16
   3  -4   5    2.10    0.15
  -4   4  -5    0.00    0.17
   4  -4   5    0.01    0.11
  -5   4  -5   -0.04    0.20
   5  -4   5   -0.03    0.16
   5   3  -5    0.17    0.21
   5   3  -5    0.19    0.13
  -5  -3   5    0.29    0.21
  -5  -3   5    0.35    0.23
   4   3  -5    0.01    0.13
   4   3  -5    0.04    0.09
  -4  -3   5    0.14    0.16
  -4  -3   5   -0.02    0.13
   3   3  -5    6.73    0.26
  -3  -3   5    6.73    0.31
  -3  -3   5    7.13    0.32
   2   3  -5   12.80    0.43
   2   3  -5   12.70    0.43
   2   3  -5   12.97    0.43
  -2  -3   5   12.93    0.48
  -2  -3   5   13.24    0.47
  -2  -3   5   13.49    0.43
  -1  -3   5    0.14    0.05
  -1  -3   5    0.23    0.07
  -1  -3   5    0.11    0.06
   0   3  -5    2.72    0.14
   0  -3   5    2.80    0.13
   0  -3   5    2.68    0.13
   0  -3   5    2.82    0.12
  -1   3  -5   96.62    3.10
  -1   3  -5   97.61    3.08
  -1   3  -5   98.34    3.09
   1  -3   5  101.09    3.07
   1  -3   5   98.89    3.07
   1  -3   5   96.24    3.10
   1  -3   5   97.84    3.08
  -2   3  -5    0.06    0.05
  -2   3  -5    0.03    0.07
  -2   3  -5    0.11    0.09
  -2   3  -5    0.00    0.08
   2  -3   5    0.00    0.06
   2  -3   5    0.06    0.05
  -3   3  -5    2.36    0.16
  -3   3  -5    2.38    0.16
  -3   3  -5    2.64    0.20
   3  -3   5    2.26    0.16
   3  -3   5    2.24    0.15
  -4   3  -5    0.61    0.16
   4  -3   5    0.62    0.13
  -5   3  -5    0.11    0.20
   5  -3   5    0.06    0.16
   5   2  -5    1.69    0.18
   5   2  -5    1.63    0.24
  -5  -2   5    1.73    0.24
  -5  -2   5    1.41    0.26
  -5  -2   5    1.65    0.15
   4   2  -5    0.41    0.10
  -4  -2   5    0.70    0.08
  -4  -2   5    0.57    0.17
  -4  -2   5    0.60    0.16
   3   2  -5    0.94    0.09
  -3  -2   5    0.83    0.07
  -3  -2   5    0.74    0.13
  -3  -2   5    0.92    0.08
  -3  -2   5    1.04    0.14
   2   2  -5    0.63    0.07
   2   2  -5    0.57    0.06
   2   2  -5    0.80    0.06
  -2  -2   5    0.89    0.11
  -2  -2   5    0.62    0.09
   1   2  -5    8.54    0.30
   1   2  -5    8.60    0.28
   1   2  -5    8.60    0.28
  -1  -2   5    9.21    0.32
  -1  -2   5    8.80    0.30
  -1  -2   5    9.20    0.32
   0   2  -5   71.20    2.22
   0   2  -5   71.29    2.24
   0   2  -5   69.60    2.24
   0   2  -5   71.26    2.22
   0  -2   5   71.36    2.23
   0  -2   5   69.55    2.24
   0  -2   5   71.93    2.24
  -1   2  -5   10.70    0.37
  -1   2  -5   10.32    0.35
  -1   2  -5    9.82    0.36
   1  -2   5   10.17    0.35
   1  -2   5   10.17    0.36
   1  -2   5   10.92    0.34
   1  -2   5   10.71    0.35
  -2   2  -5    0.13    0.08
  -2   2  -5    0.06    0.07
  -2   2  -5    0.12    0.06
  -2   2  -5    0.11    0.07
   2  -2   5    0.06    0.05
   2  -2   5    0.06    0.04
   2  -2   5    0.03    0.06
   2  -2   5    0.10    0.07
  -3   2  -5    0.06    0.08
  -3   2  -5    0.04    0.09
  -3   2  -5    0.16    0.12
   3  -2   5    0.09    0.08
  -4   2  -5    1.18    0.19
   4  -2   5    0.91    0.14
  -5   2  -5    0.71    0.22
   5   1  -5    0.22    0.19
   5   1  -5    0.14    0.13
  -5  -1   5    0.17    0.18
  -5  -1   5    0.08    0.19
  -5  -1   5    0.08    0.10
   4   1  -5    0.01    0.09
  -4  -1   5   -0.01    0.07
  -4  -1   5    0.02    0.13
  -4  -1   5    0.00    0.14
   3   1  -5    1.12    0.10
  -3  -1   5    1.29    0.15
  -3  -1   5    1.16    0.09
  -3  -1   5    1.27    0.14
   2   1  -5   30.72    1.02
   2   1  -5   32.68    1.01
   2   1  -5   32.62    1.02
  -2  -1   5   31.10    1.04
  -2  -1   5   31.35    1.01
  -2  -1   5   31.94    1.04
  -2  -1   5   32.47    1.01
   1   1  -5   42.04    1.36
   1   1  -5   44.03    1.37
   1   1  -5   42.61    1.36
  -1  -1   5   44.48    1.37
  -1  -1   5   42.46    1.38
   0   1  -5   86.87    2.65
   0   1  -5   82.25    2.64
   0   1  -5   85.94    2.65
   0   1  -5   80.70    2.66
   0  -1   5   84.76    2.64
   0  -1   5   85.43    2.64
   0  -1   5   84.73    2.66
  -1   1  -5   13.26    0.45
  -1   1  -5   12.89    0.44
  -1   1  -5   12.85    0.43
   1  -1   5   12.90    0.43
   1  -1   5   13.47    0.43
  -2   1  -5   18.36    0.59
  -2   1  -5   17.21    0.58
  -2   1  -5   17.31    0.59
  -2   1  -5   17.05    0.61
   2  -1   5   16.55    0.59
   2  -1   5   18.23    0.59
   2  -1   5   17.74    0.58
  -3   1  -5    5.83    0.28
  -3   1  -5    5.92    0.27
  -3   1  -5    6.23    0.26
  -3   1  -5    5.88    0.25
   3  -1   5    5.69    0.25
  -4   1  -5    1.76    0.21
  -4   1  -5    2.12    0.20
   4  -1   5    2.29    0.20
  -5   1  -5    0.29    0.22
   5   0  -5   -0.09    0.13
  -5   0   5    0.03    0.18
  -5   0   5   -0.09    0.17
  -5   0   5    0.00    0.11
   4   0  -5    3.71    0.20
  -4   0   5    3.23    0.25
  -4   0   5    3.71    0.24
  -4   0   5    3.39    0.18
   3   0  -5    0.79    0.08
  -3   0   5    1.15    0.13
  -3   0   5    0.89    0.12
  -3   0   5    0.98    0.09
   2   0  -5    2.40    0.11
  -2   0   5    2.41    0.11
  -2   0   5    2.50    0.11
  -2   0   5    2.17    0.13
  -2   0   5    2.26    0.13
   1   0  -5    0.84    0.07
   1   0  -5    1.03    0.06
  -1   0   5    0.94    0.08
  -1   0   5    1.14    0.06
  -1   0   5    1.03    0.07
  -1   0   5    1.04    0.05
   0   0  -5    3.55    0.13
   0   0  -5    3.16    0.15
   0   0   5    3.64    0.13
   0   0   5    3.95    0.14
   0   0   5    3.66    0.14
  -1   0  -5    7.54    0.27
  -1   0  -5    7.58    0.27
  -1   0  -5    7.74    0.28
  -1   0  -5    7.75    0.26
   1   0   5    7.55    0.27
   1   0   5    7.93    0.27
   1   0   5    6.87    0.29
  -2   0  -5   12.17    0.41
  -2   0  -5   11.41    0.42
  -2   0  -5   11.03    0.42
  -2   0  -5   11.99    0.41
   2   0   5   11.73    0.41
   2   0   5   11.84    0.41
   2   0   5   11.91    0.41
  -3   0  -5    0.26    0.09
  -3   0  -5    0.26    0.11
  -3   0  -5    0.11    0.09
  -3   0  -5    0.26    0.11
   3   0   5    0.24    0.09
   3   0   5    0.20    0.09
  -4   0  -5    0.72    0.18
  -4   0  -5    0.47    0.15
  -5   0  -5    1.04    0.21
  -5   0  -5    1.17    0.25
   5  -1  -5    1.51    0.18
  -5   1   5    1.43    0.24
  -5   1   5    1.42    0.23
  -5   1   5    1.17    0.15
   4  -1  -5    4.41    0.23
  -4   1   5    4.44    0.28
  -4   1   5    4.63    0.22
  -4   1   5    4.69    0.26
   3  -1  -5    1.26    0.11
  -3   1   5    1.31    0.11
  -3   1   5    1.34    0.13
  -3   1   5    1.24    0.13
   2  -1  -5   -0.01    0.05
   2  -1  -5    0.02    0.04
   2  -1  -5    0.03    0.08
  -2   1   5   -0.01    0.04
  -2   1   5    0.03    0.06
  -2   1   5    0.04    0.08
  -2   1   5   -0.02    0.06
   1  -1  -5    0.13    0.05
   1  -1  -5    0.19    0.04
  -1   1   5    0.19    0.04
  -1   1   5    0.17    0.05
  -1   1   5    0.24    0.04
   0  -1  -5   25.28    0.82
   0  -1  -5   25.15    0.81
   0  -1  -5   25.79    0.82
   0   1   5   25.05    0.82
   0   1   5   24.97    0.81
  -1  -1  -5   10.17    0.35
  -1  -1  -5   10.38    0.35
  -1  -1  -5    9.80    0.36
  -1  -1  -5   10.31    0.36
   1   1   5   10.07    0.36
   1   1   5   10.43    0.36
   1   1   5   10.42    0.36
  -2  -1  -5    0.50    0.08
  -2  -1  -5    0.46    0.09
  -2  -1  -5    0.64    0.09
  -2  -1  -5    0.52    0.08
   2   1   5    0.54    0.08
   2   1   5    0.31    0.07
   2   1   5    0.75    0.09
  -3  -1  -5    1.80    0.17
  -3  -1  -5    2.03    0.19
  -3  -1  -5    1.99    0.15
   3   1   5    1.94    0.15
   3   1   5    1.60    0.16
  -4  -1  -5    0.04    0.13
  -4  -1  -5   -0.04    0.15
  -5  -1  -5    0.08    0.18
  -5  -1  -5   -0.13    0.22
   5  -2  -5    0.08    0.15
  -5   2   5    0.03    0.12
  -5   2   5    0.08    0.19
  -5   2   5    0.00    0.18
   4  -2  -5    2.42    0.18
  -4   2   5    2.24    0.21
  -4   2   5    2.33    0.22
  -4   2   5    2.23    0.17
   3  -2  -5    0.23    0.07
  -3   2   5    0.11    0.07
  -3   2   5    0.23    0.09
  -3   2   5    0.10    0.10
   2  -2  -5    1.26    0.10
   2  -2  -5    1.30    0.13
   2  -2  -5    1.12    0.09
  -2   2   5    1.31    0.11
  -2   2   5    1.01    0.09
  -2   2   5    0.98    0.10
   1  -2  -5   35.60    1.16
   1  -2  -5   37.08    1.17
   1  -2  -5   35.21    1.15
  -1   2   5   36.96    1.16
  -1   2   5   36.84    1.15
  -1   2   5   35.84    1.17
  -1   2   5   35.66    1.16
   0  -2  -5   38.93    1.31
   0  -2  -5   42.54    1.29
   0  -2  -5   41.04    1.30
   0  -2  -5   41.01    1.30
   0   2   5   40.23    1.31
   0   2   5   40.78    1.30
   0   2   5   40.25    1.30
  -1  -2  -5    4.89    0.20
  -1  -2  -5    4.76    0.19
  -1  -2  -5    4.73    0.20
  -1  -2  -5    4.66    0.20
   1   2   5    5.22    0.20
   1   2   5    4.70    0.20
   1   2   5    4.72    0.20
  -2  -2  -5    0.90    0.09
  -2  -2  -5    1.01    0.10
  -2  -2  -5    0.83    0.10
  -2  -2  -5    0.98    0.11
   2   2   5    0.79    0.09
   2   2   5    1.08    0.11
   2   2   5    0.86    0.10
  -3  -2  -5    9.83    0.38
  -3  -2  -5   10.41    0.40
  -3  -2  -5   10.24    0.42
   3   2   5    9.35    0.39
   3   2   5    9.15    0.39
   3   2   5   10.54    0.49
  -4  -2  -5    2.05    0.20
  -4  -2  -5    2.19    0.26
   4   2   5    2.30    0.23
  -5  -2  -5   -0.08    0.24
  -5  -2  -5    0.02    0.17
  -5   3   5    0.02    0.19
  -5   3   5    0.05    0.14
   4  -3  -5    1.21    0.14
  -4   3   5    1.12    0.13
  -4   3   5    0.94    0.16
  -4   3   5    1.08    0.16
   3  -3  -5    7.80    0.31
  -3   3   5    8.20    0.32
  -3   3   5    7.95    0.34
  -3   3   5    8.63    0.33
   2  -3  -5   25.82    0.86
   2  -3  -5   27.86    0.87
   2  -3  -5   26.40    0.85
  -2   3   5   25.65    0.85
  -2   3   5   24.89    0.87
  -2   3   5   26.18    0.86
   1  -3  -5    1.47    0.12
   1  -3  -5    1.73    0.09
   1  -3  -5    1.39    0.11
  -1   3   5    1.48    0.10
  -1   3   5    1.60    0.09
  -1   3   5    1.44    0.10
  -1   3   5    1.58    0.10
   0  -3  -5    2.04    0.13
   0  -3  -5    2.48    0.12
   0  -3  -5    2.27    0.11
   0  -3  -5    1.94    0.12
   0   3   5    2.11    0.12
   0   3   5    1.98    0.12
   0   3   5    1.92    0.12
  -1  -3  -5   60.92    1.92
  -1  -3  -5   61.30    1.92
  -1  -3  -5   60.63    1.93
  -1  -3  -5   60.32    1.93
   1   3   5   58.97    1.93
   1   3   5   59.59    1.93
   1   3   5   60.04    1.92
  -2  -3  -5   28.69    0.93
  -2  -3  -5   27.59    0.94
  -2  -3  -5   27.49    0.95
   2   3   5   28.39    0.94
   2   3   5   28.15    0.95
   2   3   5   28.37    0.93
  -3  -3  -5    6.37    0.29
  -3  -3  -5    6.53    0.31
  -3  -3  -5    6.88    0.33
   3   3   5    6.92    0.31
   3   3   5    6.62    0.31
  -4  -3  -5    0.04    0.14
  -4  -3  -5    0.07    0.18
   4   3   5    0.04    0.15
  -5  -3  -5    0.14    0.20
  -5  -3  -5   -0.08    0.25
  -5   4   5    0.64    0.16
  -5   4   5    0.37    0.21
  -4   4   5    0.04    0.12
  -4   4   5   -0.03    0.11
  -4   4   5    0.01    0.15
   3  -4  -5    0.24    0.09
  -3   4   5    0.10    0.11
  -3   4   5    0.13    0.10
  -3   4   5    0.17    0.09
   2  -4  -5    0.35    0.10
   2  -4  -5    0.18    0.06
   2  -4  -5    0.32    0.09
  -2   4   5    0.32    0.08
  -2   4   5    0.29    0.09
  -2   4   5    0.30    0.08
   1  -4  -5   20.72    0.69
   1  -4  -5   20.87    0.67
   1  -4  -5   19.31    0.68
  -1   4   5   19.47    0.67
  -1   4   5   21.17    0.67
  -1   4   5   19.97    0.68
  -1   4   5   20.18    0.69
   0  -4  -5    0.60    0.08
   0  -4  -5    0.64    0.07
   0  -4  -5    0.47    0.08
   0  -4  -5    0.50    0.09
   0   4   5    0.46    0.08
   0   4   5    0.51    0.08
   0   4   5    0.78    0.09
   0   4   5    0.41    0.07
  -1  -4  -5    2.97    0.15
  -1  -4  -5    2.58    0.16
  -1  -4  -5    2.66    0.16
  -1  -4  -5    2.37    0.16
   1   4   5    2.73    0.17
   1   4   5    2.90    0.16
   1   4   5    2.83    0.17
  -2  -4  -5    0.59    0.11
  -2  -4  -5    0.67    0.12
  -2  -4  -5    0.81    0.11
   2   4   5    0.70    0.11
   2   4   5    0.52    0.18
   2   4   5    0.80    0.13
  -3  -4  -5    0.30    0.12
  -3  -4  -5    0.46    0.15
   3   4   5    0.46    0.13
   3   4   5    0.44    0.14
  -4  -4  -5    0.06    0.21
  -4  -4  -5    0.11    0.14
   4   4   5    0.18    0.17
  -5   5   5    0.01    0.16
  -5   5   5    0.03    0.24
  -4   5   5    0.07    0.13
  -4   5   5   -0.07    0.17
  -4   5   5   -0.03    0.12
   3  -5  -5   -0.06    0.15
  -3   5   5   -0.03    0.10
  -3   5   5    0.11    0.10
  -3   5   5    0.03    0.12
   2  -5  -5    1.18    0.13
   2  -5  -5    1.40    0.14
   2  -5  -5    1.27    0.12
  -2   5   5    1.24    0.13
  -2   5   5    1.10    0.12
  -2   5   5    1.38    0.14
   1  -5  -5    1.32    0.13
   1  -5  -5    1.23    0.12
   1  -5  -5    1.30    0.11
  -1   5   5    1.17    0.12
  -1   5   5    1.27    0.11
  -1   5   5    0.93    0.11
  -1   5   5    1.25    0.12
   0  -5  -5   30.63    1.02
   0  -5  -5   30.55    1.00
   0  -5  -5   30.90    1.02
   0  -5  -5   29.84    1.02
   0   5   5   31.37    1.02
   0   5   5   29.77    1.02
   0   5   5   31.72    1.01
   0   5   5   30.71    1.02
  -1  -5  -5    1.00    0.12
  -1  -5  -5    1.03    0.12
  -1  -5  -5    1.09    0.14
   1   5   5    0.73    0.12
   1   5   5    1.16    0.13
   1   5   5    0.75    0.11
  -2  -5  -5    1.03    0.16
  -2  -5  -5    1.10    0.14
  -2  -5  -5    1.07    0.13
   2   5   5    1.39    0.16
   2   5   5    1.17    0.14
  -3  -5  -5    1.31    0.16
  -3  -5  -5    1.38    0.21
   3   5   5    0.91    0.17
   3   5   5    1.06    0.20
  -4  -5  -5    2.77    0.31
  -4  -5  -5    2.12    0.21
   4   5   5    2.21    0.26
  -5   6   5    0.16    0.19
  -4   6   5    0.82    0.21
  -4   6   5    0.51    0.16
   3  -6  -5   -0.02    0.11
  -3   6   5    0.08    0.12
  -3   6   5    0.08    0.13
  -3   6   5    0.03    0.12
   2  -6  -5    0.12    0.10
   2  -6  -5    0.21    0.12
  -2   6   5    0.17    0.10
  -2   6   5    0.11    0.09
  -2   6   5    0.06    0.10
   1  -6  -5    6.95    0.30
   1  -6  -5    7.47    0.31
  -1   6   5    7.31    0.31
  -1   6   5    7.36    0.30
  -1   6   5    7.48    0.31
  -1   6   5    7.11    0.31
   0  -6  -5    1.38    0.15
   0  -6  -5    1.35    0.14
   0  -6  -5    1.78    0.16
   0   6   5    1.47    0.15
   0   6   5    1.48    0.15
   0   6   5    1.58    0.15
   0   6   5    1.46    0.15
  -1  -6  -5   15.02    0.55
  -1  -6  -5   15.00    0.57
  -1  -6  -5   14.90    0.54
   1   6   5   15.29    0.57
   1   6   5   15.00    0.55
  -2  -6  -5    9.37    0.41
  -2  -6  -5    8.51    0.37
  -2  -6  -5    8.88    0.37
   2   6   5    8.90    0.37
   2   6   5    8.80    0.40
  -3  -6  -5   -0.02    0.18
  -3  -6  -5    0.05    0.12
   3   6   5    0.05    0.15
  -4  -6  -5   -0.13    0.24
  -4  -6  -5   -0.09    0.15
   4   6   5    0.02    0.21
  -4   7   5    0.49    0.18
   3  -7  -5    1.01    0.16
  -3   7   5    0.88    0.16
  -3   7   5    0.55    0.15
  -3   7   5    1.02    0.18
   2  -7  -5    2.29    0.21
   2  -7  -5    2.16    0.20
  -2   7   5    2.41    0.20
  -2   7   5    2.10    0.18
  -2   7   5    1.98    0.19
   1  -7  -5    2.35    0.19
   1  -7  -5    2.14    0.18
  -1   7   5    1.95    0.17
  -1   7   5    1.80    0.17
  -1   7   5    2.00    0.18
   0  -7  -5    8.53    0.35
   0  -7  -5    8.18    0.37
   0  -7  -5    8.05    0.36
   0   7   5    9.13    0.38
   0   7   5    8.23    0.37
   0   7   5    9.13    0.36
  -1  -7  -5    7.63    0.33
  -1  -7  -5    8.39    0.38
  -1  -7  -5    7.42    0.34
   1   7   5    7.45    0.36
   1   7   5    7.87    0.34
  -2  -7  -5    0.03    0.11
  -2  -7  -5   -0.02    0.13
  -2  -7  -5    0.06    0.18
   2   7   5    0.09    0.14
   2   7   5    0.08    0.13
  -3  -7  -5    0.47    0.23
  -3  -7  -5    0.49    0.15
   3   7   5    0.41    0.19
   3  -8  -5    0.83    0.18
   3  -8  -5    0.72    0.17
  -3   8   5    0.68    0.16
   2  -8  -5    2.13    0.22
  -2   8   5    1.75    0.19
  -2   8   5    1.71    0.20
   1  -8  -5   -0.08    0.13
   1  -8  -5    0.08    0.10
  -1   8   5   -0.02    0.12
  -1   8   5    0.01    0.12
   0  -8  -5    0.22    0.15
   0  -8  -5    0.33    0.14
   0  -8  -5    0.14    0.10
   0   8   5    0.30    0.14
   0   8   5    0.12    0.12
   0   8   5    0.36    0.13
  -1  -8  -5    3.17    0.27
  -1  -8  -5    2.66    0.23
  -1  -8  -5    2.90    0.21
   1   8   5    2.65    0.23
   1   8   5    2.94    0.25
  -2  -8  -5    0.72    0.22
  -2  -8  -5    0.70    0.14
  -2  -8  -5    0.89    0.18
   2   8   5    0.96    0.20
   2   8   5    0.63    0.16
  -3  -8  -5   -0.01    0.15
  -3  -8  -5    0.07    0.26
   3   8   5    0.16    0.21
   3  -9  -5    0.00    0.16
   3  -9  -5    0.06    0.18
   2  -9  -5    2.39    0.24
   2  -9  -5    2.38    0.24
  -2   9   5    2.19    0.23
   1  -9  -5    4.24    0.29
  -1   9   5    4.39    0.28
   0  -9  -5    0.45    0.16
   0  -9  -5    0.65    0.14
   0  -9  -5    0.78    0.26
   0   9   5    0.58    0.15
   0   9   5    0.53    0.15
   0   9   5    0.79    0.18
  -1  -9  -5    0.27    0.19
  -1  -9  -5    0.38    0.17
  -1  -9  -5    0.45    0.13
   1   9   5    0.47    0.16
   1   9   5    0.59    0.16
  -2  -9  -5    0.04    0.22
  -2  -9  -5    0.07    0.19
  -2  -9  -5    0.03    0.13
   2   9   5    0.07    0.19
  -3  -9  -5    0.50    0.19
  -3  -9  -5    0.30    0.31
   3   9   5    0.60    0.26
   3 -10  -5    0.17    0.18
   3 -10  -5    0.11    0.22
   2 -10  -5    0.16    0.16
   2 -10  -5    0.10    0.17
  -2  10   5    0.15    0.17
   1 -10  -5   -0.02    0.13
   1 -10  -5    0.02    0.16
  -1  10   5   -0.01    0.16
   0 -10  -5    3.33    0.24
   0 -10  -5    2.38    0.25
   0  10   5    3.43    0.29
  -1 -10  -5    0.99    0.16
  -1 -10  -5    1.32    0.23
   1  10   5    0.96    0.21
  -2 -10  -5    0.37    0.24
  -2 -10  -5    0.23    0.16
   2  10   5    0.26    0.24
   2 -11  -5    0.17    0.21
   2 -11  -5    0.09    0.17
   1 -11  -5    0.34    0.20
   1 -11  -5    0.21    0.15
  -1  11   5    0.46    0.20
   0 -11  -5    0.04    0.15
   0 -11  -5    0.26    0.21
   0  11   5    0.29    0.19
  -1 -11  -5   -0.17    0.20
  -1 -11  -5    0.03    0.15
   1  11   5   -0.03    0.21
   1 -12  -5   -0.09    0.18
   1  12  -6    0.62    0.14
   1  12  -6    0.63    0.29
  -1 -12   6    0.65    0.23
  -1 -12   6    0.61    0.28
   0  12  -6    0.67    0.13
   0  12  -6    0.66    0.25
   0 -12   6    0.86    0.21
  -1  12  -6    1.31    0.16
  -1  12  -6    1.42    0.26
   1 -12   6    1.40    0.22
  -2  12  -6    0.12    0.24
  -2  12  -6    0.05    0.14
   2 -12   6    0.17    0.21
   2  11  -6    0.11    0.13
   2  11  -6   -0.08    0.23
  -2 -11   6   -0.06    0.25
   1  11  -6    0.05    0.20
   1  11  -6    0.06    0.11
  -1 -11   6   -0.06    0.19
  -1 -11   6    0.01    0.18
   0  11  -6    0.27    0.10
   0  11  -6    0.24    0.19
   0 -11   6    0.20    0.19
   0 -11   6    0.23    0.16
  -1  11  -6    0.05    0.19
  -1  11  -6    0.17    0.11
   1 -11   6    0.12    0.16
  -2  11  -6    3.93    0.34
  -2  11  -6    3.89    0.24
   2 -11   6    3.82    0.31
  -3  11  -6    0.21    0.23
  -3  11  -6    0.12    0.15
   3 -11   6    0.05    0.21
   3  10  -6    2.61    0.24
   3  10  -6    2.37    0.31
  -3 -10   6    1.99    0.33
   2  10  -6    0.07    0.19
   2  10  -6    0.05    0.10
  -2 -10   6    0.00    0.20
   1  10  -6    0.36    0.19
   1  10  -6    0.62    0.18
   1  10  -6    0.46    0.10
  -1 -10   6    0.44    0.20
  -1 -10   6    0.37    0.16
   0  10  -6    0.13    0.08
   0  10  -6    0.00    0.16
   0 -10   6   -0.03    0.16
   0 -10   6   -0.01    0.14
  -1  10  -6    3.66    0.30
  -1  10  -6    4.29    0.21
   1 -10   6    3.93    0.27
  -2  10  -6   -0.01    0.09
  -2  10  -6   -0.02    0.16
   2 -10   6    0.05    0.15
  -3  10  -6   -0.01    0.17
  -3  10  -6    0.04    0.13
   3 -10   6   -0.03    0.08
   3 -10   6   -0.08    0.17
  -4  10  -6    0.19    0.19
  -4  10  -6    0.05    0.25
   4 -10   6    0.09    0.23
   4 -10   6    0.13    0.12
   3   9  -6    0.54    0.21
   3   9  -6    0.53    0.13
  -3  -9   6    0.65    0.27
   2   9  -6    1.64    0.15
   2   9  -6    1.71    0.21
  -2  -9   6    1.16    0.21
   1   9  -6    0.09    0.07
   1   9  -6    0.15    0.13
   1   9  -6    0.04    0.17
  -1  -9   6    0.06    0.16
  -1  -9   6    0.06    0.13
   0   9  -6   -0.02    0.15
   0   9  -6   -0.01    0.06
   0  -9   6    0.09    0.15
   0  -9   6    0.00    0.12
  -1   9  -6    4.13    0.28
  -1   9  -6    4.75    0.21
   1  -9   6    4.60    0.26
  -2   9  -6    0.13    0.09
  -2   9  -6    0.30    0.14
   2  -9   6    0.35    0.15
  -3   9  -6    0.23    0.17
  -3   9  -6    0.04    0.12
   3  -9   6    0.14    0.08
   3  -9   6    0.07    0.15
  -4   9  -6    0.09    0.23
  -4   9  -6    0.15    0.17
   4  -9   6    0.05    0.12
   4  -9   6    0.01    0.18
   3   8  -6   -0.01    0.09
   3   8  -6    0.06    0.16
  -3  -8   6    0.04    0.22
   2   8  -6    3.29    0.16
   2   8  -6    3.28    0.24
  -2  -8   6    2.98    0.29
   1   8  -6   23.74    0.80
   1   8  -6   22.43    0.74
  -1  -8   6   22.76    0.85
  -1  -8   6   22.92    0.79
   0   8  -6   14.57    0.58
   0   8  -6   15.13    0.50
   0   8  -6   14.57    0.54
   0  -8   6   15.73    0.55
   0  -8   6   14.45    0.58
  -1   8  -6    0.21    0.13
  -1   8  -6    0.26    0.07
   1  -8   6    0.12    0.11
  -2   8  -6    0.99    0.10
  -2   8  -6    0.67    0.15
   2  -8   6    0.78    0.14
   2  -8   6    0.79    0.07
  -3   8  -6    0.08    0.11
  -3   8  -6    0.10    0.16
   3  -8   6    0.10    0.14
   3  -8   6    0.01    0.08
  -4   8  -6    0.10    0.20
  -4   8  -6    0.05    0.15
   4  -8   6    0.02    0.17
   4  -8   6    0.04    0.12
   4   7  -6    1.37    0.16
   4   7  -6    0.95    0.24
  -4  -7   6    1.30    0.28
   3   7  -6    0.93    0.17
   3   7  -6    1.39    0.13
  -3  -7   6    1.17    0.24
  -3  -7   6    0.84    0.17
   2   7  -6    2.63    0.13
   2   7  -6    2.50    0.21
  -2  -7   6    2.30    0.23
  -2  -7   6    2.28    0.21
   1   7  -6    0.08    0.04
   1   7  -6    0.12    0.10
  -1  -7   6    0.20    0.13
  -1  -7   6    0.06    0.10
   0   7  -6    0.80    0.07
   0   7  -6    0.74    0.10
   0   7  -6    0.49    0.12
   0  -7   6    0.67    0.13
   0  -7   6    0.99    0.12
  -1   7  -6   15.76    0.58
  -1   7  -6   15.06    0.51
   1  -7   6   15.10    0.55
  -2   7  -6    5.74    0.30
  -2   7  -6    5.95    0.24
   2  -7   6    5.95    0.28
   2  -7   6    5.72    0.21
  -3   7  -6    0.00    0.15
  -3   7  -6   -0.01    0.10
   3  -7   6   -0.04    0.12
   3  -7   6    0.08    0.08
  -4   7  -6    0.08    0.19
  -4   7  -6   -0.03    0.16
  -4   7  -6    0.07    0.14
   4  -7   6   -0.05    0.11
   4  -7   6    0.08    0.16
  -5   7  -6    0.79    0.30
   5  -7   6    0.62    0.18
   4   6  -6    0.61    0.18
   4   6  -6    0.54    0.13
  -4  -6   6    0.29    0.19
  -4  -6   6    0.46    0.24
   3   6  -6    0.22    0.14
   3   6  -6    0.25    0.07
  -3  -6   6    0.30    0.15
  -3  -6   6    0.27    0.18
   2   6  -6    0.09    0.05
   2   6  -6    0.01    0.10
  -2  -6   6    0.18    0.14
  -2  -6   6    0.00    0.11
   1   6  -6    0.04    0.08
   1   6  -6    0.09    0.03
  -1  -6   6    0.04    0.09
  -1  -6   6    0.06    0.08
  -1  -6   6    0.13    0.11
   0   6  -6    0.01    0.09
   0   6  -6    0.03    0.07
   0   6  -6    0.10    0.03
   0   6  -6    0.09    0.03
   0  -6   6    0.05    0.09
   0  -6   6    0.03    0.07
   0  -6   6    0.07    0.08
  -1   6  -6    0.02    0.09
  -1   6  -6    0.07    0.05
   1  -6   6    0.05    0.09
  -2   6  -6    1.91    0.18
  -2   6  -6    1.72    0.12
   2  -6   6    1.80    0.10
   2  -6   6    1.81    0.16
  -3   6  -6    0.31    0.10
  -3   6  -6    0.33    0.14
   3  -6   6    0.36    0.09
   3  -6   6    0.37    0.12
  -4   6  -6    0.00    0.17
  -4   6  -6   -0.08    0.13
  -4   6  -6   -0.07    0.15
   4  -6   6   -0.04    0.10
   4  -6   6   -0.05    0.16
  -5   6  -6    0.16    0.29
   5  -6   6    0.05    0.16
   4   5  -6    0.08    0.09
   4   5  -6    0.14    0.17
  -4  -5   6    0.00    0.16
  -4  -5   6   -0.05    0.18
   3   5  -6    0.23    0.13
   3   5  -6    0.15    0.07
  -3  -5   6    0.11    0.13
  -3  -5   6    0.04    0.15
   2   5  -6    4.86    0.25
   2   5  -6    5.05    0.18
  -2  -5   6    4.94    0.27
  -2  -5   6    4.76    0.24
   1   5  -6    6.62    0.28
  -1  -5   6    7.08    0.31
  -1  -5   6    7.41    0.28
  -1  -5   6    6.89    0.27
   0   5  -6    0.07    0.08
   0   5  -6    0.03    0.05
   0   5  -6    0.03    0.02
   0   5  -6    0.03    0.02
   0  -5   6    0.06    0.07
   0  -5   6    0.01    0.08
   0  -5   6    0.01    0.05
  -1   5  -6    1.64    0.14
  -1   5  -6    1.52    0.08
   1  -5   6    1.46    0.12
  -2   5  -6    0.46    0.11
  -2   5  -6    0.52    0.08
   2  -5   6    0.61    0.07
   2  -5   6    0.25    0.08
  -3   5  -6    2.67    0.20
  -3   5  -6    2.89    0.20
  -3   5  -6    2.62    0.18
   3  -5   6    2.77    0.16
   3  -5   6    2.89    0.20
  -4   5  -6    1.91    0.23
   4  -5   6    1.84    0.18
  -5   5  -6    0.35    0.27
   5  -5   6    0.21    0.16
   5   4  -6    0.00    0.13
   5   4  -6   -0.11    0.22
  -5  -4   6    0.06    0.25
  -5  -4   6    0.12    0.24
   4   4  -6    1.55    0.20
   4   4  -6    1.76    0.16
  -4  -4   6    1.36    0.22
  -4  -4   6    1.54    0.21
   3   4  -6   10.61    0.38
   3   4  -6   10.53    0.44
  -3  -4   6   10.95    0.46
  -3  -4   6   11.05    0.44
   2   4  -6   43.13    1.36
  -2  -4   6   42.71    1.42
  -2  -4   6   43.12    1.41
  -1  -4   6   17.60    0.63
  -1  -4   6   18.17    0.62
  -1  -4   6   18.58    0.61
   0   4  -6    0.97    0.10
   0  -4   6    1.04    0.09
   0  -4   6    0.96    0.11
   0  -4   6    0.90    0.08
  -1   4  -6   21.85    0.69
  -1   4  -6   21.32    0.73
  -1   4  -6   20.47    0.69
  -1   4  -6   21.83    0.69
   1  -4   6   20.98    0.72
   1  -4   6   22.34    0.69
  -2   4  -6    8.14    0.34
  -2   4  -6    8.68    0.31
  -2   4  -6    8.88    0.33
   2  -4   6    8.42    0.30
   2  -4   6    8.21    0.33
  -3   4  -6    1.77    0.15
  -3   4  -6    1.68    0.17
  -3   4  -6    1.64    0.19
   3  -4   6    1.48    0.13
   3  -4   6    1.93    0.17
  -4   4  -6   -0.02    0.18
   4  -4   6   -0.05    0.10
  -5   4  -6   -0.03    0.21
   5  -4   6   -0.01    0.15
   5   3  -6   -0.02    0.21
  -5  -3   6    0.11    0.23
  -5  -3   6    0.12    0.21
   4   3  -6    0.40    0.15
   4   3  -6    0.51    0.10
  -4  -3   6    0.55    0.16
  -4  -3   6    0.37    0.17
   3   3  -6    0.36    0.07
  -3  -3   6    0.40    0.13
  -3  -3   6    0.21    0.11
   2   3  -6    0.70    0.06
  -2  -3   6    0.86    0.12
  -2  -3   6    0.83    0.11
   1   3  -6   17.11    0.57
  -1  -3   6   17.25    0.58
  -1  -3   6   17.30    0.59
  -1  -3   6   17.32    0.57
   0   3  -6   97.31    3.08
   0   3  -6   97.69    3.05
   0   3  -6   95.84    3.08
   0   3  -6   96.85    3.05
   0  -3   6   96.83    3.08
   0  -3   6   97.73    3.08
   0  -3   6  100.29    3.07
  -1   3  -6    1.86    0.09
  -1   3  -6    1.88    0.10
  -1   3  -6    1.73    0.11
  -1   3  -6    1.76    0.12
   1  -3   6    2.03    0.09
   1  -3   6    1.95    0.08
   1  -3   6    1.60    0.12
   1  -3   6    1.92    0.09
  -2   3  -6    2.06    0.12
  -2   3  -6    1.80    0.15
  -2   3  -6    2.05    0.14
   2  -3   6    1.87    0.14
   2  -3   6    1.91    0.11
  -3   3  -6    0.45    0.10
  -3   3  -6    0.48    0.13
  -3   3  -6    0.36    0.12
   3  -3   6    0.55    0.09
   3  -3   6    0.42    0.12
  -4   3  -6    0.19    0.17
   4  -3   6    0.27    0.11
  -5   3  -6    0.19    0.21
   5  -3   6    0.09    0.16
   5   2  -6    0.17    0.15
   5   2  -6    0.18    0.19
  -5  -2   6    0.29    0.23
  -5  -2   6    0.08    0.18
   4   2  -6    0.14    0.09
  -4  -2   6    0.05    0.16
  -4  -2   6   -0.07    0.13
   3   2  -6    0.00    0.06
  -3  -2   6   -0.01    0.11
  -3  -2   6    0.03    0.09
   2   2  -6    0.67    0.07
   2   2  -6    0.48    0.05
  -2  -2   6    0.80    0.10
  -2  -2   6    0.49    0.09
   1   2  -6   16.28    0.52
   1   2  -6   15.94    0.52
   1   2  -6   16.08    0.54
  -1  -2   6   16.32    0.55
  -1  -2   6   16.52    0.55
   0   2  -6    8.63    0.29
   0   2  -6    9.09    0.31
   0   2  -6    8.92    0.29
   0   2  -6    8.97    0.32
   0  -2   6    8.78    0.32
   0  -2   6    9.13    0.31
  -1   2  -6   40.71    1.33
  -1   2  -6   40.47    1.32
  -1   2  -6   41.31    1.31
   1  -2   6   42.41    1.30
   1  -2   6   40.86    1.32
   1  -2   6   41.52    1.30
   1  -2   6   40.32    1.30
  -2   2  -6    2.07    0.14
  -2   2  -6    2.04    0.13
  -2   2  -6    2.07    0.15
   2  -2   6    1.82    0.14
   2  -2   6    2.01    0.12
   2  -2   6    2.30    0.10
  -3   2  -6    0.56    0.14
  -3   2  -6    0.62    0.12
  -3   2  -6    0.94    0.12
   3  -2   6    0.65    0.10
  -4   2  -6    1.63    0.20
   4  -2   6    1.33    0.16
  -5   2  -6    0.52    0.23
   5   1  -6    0.04    0.19
   5   1  -6    0.02    0.13
  -5  -1   6    0.00    0.09
  -5  -1   6    0.02    0.20
  -5  -1   6   -0.07    0.19
   4   1  -6    0.05    0.09
  -4  -1   6    0.06    0.14
  -4  -1   6   -0.02    0.07
  -4  -1   6    0.00    0.14
   3   1  -6    0.70    0.08
  -3  -1   6    0.85    0.08
  -3  -1   6    0.81    0.13
  -3  -1   6    0.71    0.12
   2   1  -6    7.17    0.26
   2   1  -6    7.72    0.27
  -2  -1   6    8.00    0.30
  -2  -1   6    7.74    0.30
   1   1  -6   22.18    0.73
   1   1  -6   22.36    0.72
   1   1  -6   22.48    0.72
  -1  -1   6   23.27    0.73
  -1  -1   6   21.88    0.74
   0   1  -6   14.30    0.49
   0   1  -6   15.59    0.49
   0   1  -6   14.66    0.51
   0   1  -6   15.55    0.49
   0  -1   6   14.97    0.50
   0  -1   6   15.20    0.48
   0  -1   6   15.05    0.48
  -1   1  -6   44.35    1.40
  -1   1  -6   45.01    1.41
  -1   1  -6   43.26    1.41
   1  -1   6   44.04    1.40
   1  -1   6   43.48    1.40
  -2   1  -6   50.67    1.61
  -2   1  -6   50.04    1.59
  -2   1  -6   50.06    1.60
  -2   1  -6   51.02    1.60
   2  -1   6   49.49    1.58
   2  -1   6   47.55    1.59
  -3   1  -6    0.18    0.09
  -3   1  -6    0.30    0.10
  -3   1  -6    0.10    0.12
   3  -1   6    0.17    0.09
  -4   1  -6    0.18    0.15
   4  -1   6    0.21    0.12
  -5   1  -6    0.60    0.24
   5   0  -6    0.58    0.15
  -5   0   6    0.49    0.20
  -5   0   6    0.29    0.22
  -5   0   6    0.40    0.12
   4   0  -6    0.58    0.11
  -4   0   6    0.66    0.16
  -4   0   6    0.63    0.16
  -4   0   6    0.56    0.09
   3   0  -6    2.42    0.13
  -3   0   6    1.78    0.17
  -3   0   6    1.96    0.12
  -3   0   6    1.98    0.17
   2   0  -6    7.97    0.29
   2   0  -6    8.16    0.29
  -2   0   6    8.36    0.28
  -2   0   6    8.10    0.31
  -2   0   6    7.91    0.28
  -2   0   6    8.60    0.31
   1   0  -6   60.88    1.95
   1   0  -6   59.98    1.94
  -1   0   6   63.93    1.94
  -1   0   6   59.88    1.93
  -1   0   6   62.74    1.94
  -1   0   6   62.05    1.96
   0   0  -6   13.80    0.48
   0   0  -6   14.17    0.47
   0   0   6   14.86    0.47
   0   0   6   14.34    0.48
   0   0   6   14.35    0.47
  -1   0  -6    2.81    0.14
  -1   0  -6    2.38    0.14
  -1   0  -6    2.34    0.12
  -1   0  -6    2.72    0.12
   1   0   6    2.39    0.12
   1   0   6    2.59    0.12
  -2   0  -6    1.41    0.13
  -2   0  -6    1.55    0.13
  -2   0  -6    1.61    0.12
  -2   0  -6    1.74    0.12
   2   0   6    1.72    0.12
   2   0   6    1.41    0.11
  -3   0  -6    0.75    0.13
  -3   0  -6    0.81    0.12
  -3   0  -6    0.66    0.11
  -3   0  -6    0.84    0.14
   3   0   6    0.73    0.11
   3   0   6    0.91    0.12
  -4   0  -6    2.36    0.26
   4   0   6    2.99    0.23
  -5   0  -6    0.11    0.22
   5  -1  -6    0.43    0.15
  -5   1   6    0.37    0.12
  -5   1   6    0.29    0.20
  -5   1   6    0.43    0.20
   4  -1  -6    1.76    0.16
  -4   1   6    1.76    0.20
  -4   1   6    1.87    0.15
  -4   1   6    2.00    0.20
   3  -1  -6    8.25    0.31
  -3   1   6    8.38    0.34
  -3   1   6    8.32    0.33
  -3   1   6    7.86    0.30
   2  -1  -6    0.03    0.06
   2  -1  -6    0.03    0.04
  -2   1   6    0.01    0.06
  -2   1   6    0.04    0.05
  -2   1   6    0.01    0.06
   1  -1  -6    0.29    0.06
   1  -1  -6    0.34    0.05
  -1   1   6    0.39    0.06
  -1   1   6    0.21    0.04
  -1   1   6    0.32    0.07
  -1   1   6    0.43    0.05
   0  -1  -6    0.50    0.08
   0  -1  -6    0.39    0.05
   0  -1  -6    0.49    0.07
   0   1   6    0.44    0.05
   0   1   6    0.50    0.06
  -1  -1  -6    6.47    0.25
  -1  -1  -6    6.58    0.24
  -1  -1  -6    5.93    0.25
  -1  -1  -6    6.29    0.24
   1   1   6    6.36    0.25
   1   1   6    6.74    0.25
   1   1   6    6.16    0.24
  -2  -1  -6    0.33    0.09
  -2  -1  -6    0.29    0.07
  -2  -1  -6    0.21    0.08
  -2  -1  -6    0.29    0.09
   2   1   6    0.19    0.08
   2   1   6    0.18    0.07
   2   1   6    0.25    0.08
  -3  -1  -6    1.03    0.16
  -3  -1  -6    1.11    0.14
  -3  -1  -6    1.22    0.14
   3   1   6    0.90    0.13
   3   1   6    1.31    0.14
  -4  -1  -6    0.19    0.17
  -4  -1  -6    0.21    0.15
  -5  -1  -6    0.04    0.23
  -5  -1  -6    0.02    0.19
   5  -2  -6    0.10    0.14
  -5   2   6    0.29    0.13
  -5   2   6    0.25    0.19
  -5   2   6    0.36    0.21
   4  -2  -6    0.07    0.10
  -4   2   6    0.23    0.14
  -4   2   6    0.09    0.14
  -4   2   6    0.08    0.09
   3  -2  -6    0.11    0.08
  -3   2   6    0.12    0.10
  -3   2   6    0.02    0.07
  -3   2   6    0.02    0.09
   2  -2  -6   10.82    0.38
   2  -2  -6   10.89    0.38
  -2   2   6   10.58    0.37
  -2   2   6    9.84    0.39
  -2   2   6   11.47    0.38
   1  -2  -6    8.45    0.32
   1  -2  -6    8.48    0.32
   1  -2  -6    8.65    0.30
  -1   2   6    8.31    0.30
  -1   2   6    9.17    0.29
  -1   2   6    8.48    0.32
   0  -2  -6    6.91    0.27
   0  -2  -6    7.15    0.26
   0  -2  -6    7.01    0.24
   0  -2  -6    7.18    0.27
   0   2   6    7.43    0.24
   0   2   6    6.98    0.26
   0   2   6    7.14    0.27
  -1  -2  -6    6.63    0.26
  -1  -2  -6    6.75    0.25
  -1  -2  -6    6.56    0.26
  -1  -2  -6    6.47    0.25
   1   2   6    7.05    0.26
   1   2   6    6.46    0.26
   1   2   6    6.52    0.26
  -2  -2  -6    0.03    0.08
  -2  -2  -6   -0.01    0.07
  -2  -2  -6    0.08    0.09
  -2  -2  -6    0.10    0.09
   2   2   6    0.10    0.08
   2   2   6    0.01    0.08
   2   2   6    0.06    0.08
  -3  -2  -6    1.10    0.14
  -3  -2  -6    0.82    0.13
  -3  -2  -6    0.86    0.16
   3   2   6    0.90    0.13
   3   2   6    1.00    0.15
  -4  -2  -6    1.50    0.22
  -4  -2  -6    1.38    0.19
  -5  -2  -6    0.09    0.20
  -5  -2  -6   -0.09    0.25
  -5   3   6    0.07    0.20
  -5   3   6    0.07    0.14
   4  -3  -6    0.95    0.14
  -4   3   6    0.86    0.15
  -4   3   6    1.02    0.17
  -4   3   6    1.06    0.13
   3  -3  -6    4.04    0.21
  -3   3   6    4.81    0.23
  -3   3   6    3.99    0.23
  -3   3   6    4.27    0.21
   2  -3  -6   10.08    0.37
   2  -3  -6   11.04    0.38
  -2   3   6   10.37    0.37
  -2   3   6    9.99    0.39
  -2   3   6   10.14    0.37
   1  -3  -6   19.74    0.65
   1  -3  -6   19.54    0.67
   1  -3  -6   20.12    0.67
  -1   3   6   18.37    0.65
  -1   3   6   20.24    0.64
  -1   3   6   20.35    0.66
  -1   3   6   19.78    0.67
   0  -3  -6   21.70    0.71
   0  -3  -6   20.96    0.71
   0  -3  -6   21.64    0.70
   0  -3  -6   21.35    0.69
   0   3   6   20.61    0.71
   0   3   6   20.70    0.71
   0   3   6   20.48    0.70
   0   3   6   21.25    0.69
  -1  -3  -6    1.26    0.10
  -1  -3  -6    0.95    0.11
  -1  -3  -6    1.16    0.12
  -1  -3  -6    1.13    0.12
   1   3   6    1.05    0.10
   1   3   6    1.09    0.12
   1   3   6    1.02    0.11
  -2  -3  -6   13.12    0.50
  -2  -3  -6   13.55    0.50
  -2  -3  -6   14.02    0.49
   2   3   6   13.64    0.51
   2   3   6   13.64    0.50
   2   3   6   13.87    0.50
  -3  -3  -6    2.72    0.21
  -3  -3  -6    2.92    0.24
  -3  -3  -6    2.77    0.22
   3   3   6    2.59    0.22
  -4  -3  -6   -0.01    0.15
  -4  -3  -6   -0.02    0.18
   4   3   6   -0.03    0.16
  -5   4   6   -0.09    0.14
   4  -4  -6   -0.01    0.17
  -4   4   6   -0.04    0.21
  -4   4   6    0.01    0.11
  -4   4   6    0.14    0.13
   3  -4  -6    3.11    0.19
  -3   4   6    3.21    0.18
  -3   4   6    2.59    0.19
  -3   4   6    3.01    0.22
   2  -4  -6    5.37    0.23
   2  -4  -6    5.38    0.25
  -2   4   6    5.25    0.24
  -2   4   6    5.98    0.24
  -2   4   6    5.13    0.23
   1  -4  -6    1.68    0.15
   1  -4  -6    2.00    0.15
   1  -4  -6    2.17    0.12
  -1   4   6    2.30    0.14
  -1   4   6    1.89    0.14
  -1   4   6    1.81    0.13
  -1   4   6    2.24    0.12
   0  -4  -6    9.26    0.33
   0  -4  -6    8.36    0.34
   0  -4  -6    8.93    0.35
   0  -4  -6    9.13    0.33
   0   4   6    9.25    0.33
   0   4   6    8.91    0.34
   0   4   6    9.11    0.35
   0   4   6    8.95    0.34
  -1  -4  -6    0.51    0.10
  -1  -4  -6    0.54    0.10
  -1  -4  -6    0.51    0.08
  -1  -4  -6    0.34    0.09
   1   4   6    0.38    0.10
   1   4   6    0.33    0.09
   1   4   6    0.41    0.09
  -2  -4  -6    1.23    0.14
  -2  -4  -6    0.89    0.14
  -2  -4  -6    1.07    0.13
   2   4   6    1.40    0.14
   2   4   6    1.07    0.14
   2   4   6    1.16    0.15
  -3  -4  -6    1.50    0.17
  -3  -4  -6    1.76    0.18
  -3  -4  -6    1.72    0.21
   3   4   6    1.79    0.20
  -4  -4  -6    0.08    0.21
  -4  -4  -6    0.03    0.15
   4   4   6    0.03    0.19
  -5   5   6    0.17    0.17
  -4   5   6    0.38    0.16
  -4   5   6    0.17    0.13
   3  -5  -6    0.00    0.13
  -3   5   6   -0.06    0.10
  -3   5   6    0.08    0.11
   2  -5  -6    0.33    0.08
   2  -5  -6    0.25    0.11
   2  -5  -6    0.28    0.12
  -2   5   6    0.35    0.10
  -2   5   6    0.30    0.10
  -2   5   6    0.29    0.10
   1  -5  -6    3.84    0.21
   1  -5  -6    3.97    0.19
   1  -5  -6    3.67    0.21
  -1   5   6    3.80    0.21
  -1   5   6    4.02    0.20
  -1   5   6    4.22    0.19
   0  -5  -6    6.51    0.26
   0  -5  -6    5.76    0.27
   0  -5  -6    6.01    0.27
   0  -5  -6    6.04    0.28
   0   5   6    6.89    0.28
   0   5   6    6.58    0.28
   0   5   6    6.18    0.27
   0   5   6    6.54    0.27
  -1  -5  -6    0.74    0.12
  -1  -5  -6    0.76    0.13
  -1  -5  -6    0.63    0.12
   1   5   6    0.60    0.12
   1   5   6    0.59    0.10
   1   5   6    0.51    0.12
  -2  -5  -6    0.00    0.13
  -2  -5  -6    0.01    0.11
  -2  -5  -6   -0.01    0.10
   2   5   6   -0.06    0.12
   2   5   6   -0.02    0.11
  -3  -5  -6    0.56    0.19
  -3  -5  -6    0.41    0.14
   3   5   6    0.66    0.17
  -4  -5  -6    0.21    0.17
  -4  -5  -6    0.30    0.23
   4   5   6    0.21    0.23
  -5   6   6   -0.01    0.19
  -4   6   6    0.21    0.15
  -4   6   6    0.15    0.16
   3  -6  -6    0.31    0.16
  -3   6   6    0.28    0.13
  -3   6   6    0.34    0.13
   2  -6  -6    5.72    0.29
  -2   6   6    6.01    0.28
  -2   6   6    6.10    0.28
   1  -6  -6    1.52    0.16
   1  -6  -6    1.12    0.14
  -1   6   6    1.22    0.14
  -1   6   6    1.48    0.22
  -1   6   6    1.48    0.15
   0  -6  -6    0.06    0.11
   0  -6  -6    0.16    0.11
   0  -6  -6    0.05    0.10
   0   6   6    0.07    0.10
   0   6   6    0.05    0.09
   0   6   6    0.07    0.10
   0   6   6    0.11    0.10
  -1  -6  -6    5.01    0.27
  -1  -6  -6    4.86    0.27
  -1  -6  -6    5.41    0.26
   1   6   6    4.89    0.26
   1   6   6    4.91    0.27
  -2  -6  -6    0.13    0.12
  -2  -6  -6    0.19    0.14
  -2  -6  -6    0.18    0.16
   2   6   6    0.11    0.14
  -3  -6  -6    0.13    0.20
  -3  -6  -6    0.34    0.14
   3   6   6    0.23    0.17
  -4  -6  -6    0.02    0.27
  -4  -6  -6    0.21    0.18
   4   6   6    0.58    0.25
  -4   7   6    0.59    0.17
   3  -7  -6    2.52    0.24
  -3   7   6    2.65    0.23
  -3   7   6    2.52    0.23
   2  -7  -6    0.70    0.16
   2  -7  -6    0.41    0.14
  -2   7   6    0.44    0.13
  -2   7   6    0.61    0.13
   1  -7  -6   10.02    0.39
   1  -7  -6    9.00    0.39
  -1   7   6    8.02    0.40
  -1   7   6    8.80    0.38
   0  -7  -6    7.63    0.36
   0  -7  -6    8.76    0.36
   0   7   6    8.91    0.38
  -1  -7  -6    2.46    0.20
  -1  -7  -6    2.35    0.24
  -1  -7  -6    2.41    0.21
   1   7   6    2.26    0.22
   1   7   6    2.29    0.22
  -2  -7  -6    1.02    0.21
  -2  -7  -6    0.87    0.15
  -2  -7  -6    0.95    0.17
   2   7   6    1.02    0.18
  -3  -7  -6    0.21    0.16
  -3  -7  -6    0.27    0.23
   3   7   6    0.21    0.20
   3  -8  -6    0.25    0.17
  -3   8   6    0.41    0.16
   2  -8  -6    0.15    0.15
   2  -8  -6    0.02    0.13
  -2   8   6   -0.01    0.12
   1  -8  -6    0.16    0.14
   1  -8  -6    0.09    0.12
  -1   8   6    0.17    0.13
   0  -8  -6    1.17    0.15
   0  -8  -6    1.33    0.19
   0   8   6    1.53    0.18
  -1  -8  -6    2.11    0.21
  -1  -8  -6    2.39    0.23
   1   8   6    2.01    0.21
  -2  -8  -6    0.35    0.18
  -2  -8  -6    0.09    0.14
   2   8   6    0.17    0.17
  -3  -8  -6    0.08    0.17
   3   8   6   -0.09    0.22
   3  -9  -6    0.01    0.19
   2  -9  -6    0.66    0.18
   2  -9  -6    0.67    0.17
  -2   9   6    0.83    0.18
   1  -9  -6    0.43    0.17
   1  -9  -6    0.34    0.14
  -1   9   6    0.26    0.14
   0  -9  -6    0.24    0.13
   0  -9  -6    0.39    0.17
   0   9   6    0.24    0.14
  -1  -9  -6    0.24    0.16
  -1  -9  -6    0.16    0.14
   1   9   6    0.20    0.17
  -2  -9  -6    2.37    0.27
  -2  -9  -6    2.44    0.23
   2   9   6    2.03    0.27
   3 -10  -6    0.21    0.21
   3 -10  -6    0.13    0.22
   2 -10  -6   -0.04    0.17
   2 -10  -6    0.02    0.19
  -2  10   6   -0.04    0.18
   1 -10  -6    0.43    0.19
   1 -10  -6    0.57    0.17
  -1  10   6    0.72    0.19
   0 -10  -6    0.03    0.15
   0 -10  -6    0.13    0.19
   0  10   6    0.03    0.17
  -1 -10  -6    0.13    0.20
  -1 -10  -6    0.03    0.14
   1  10   6    0.10    0.19
  -2 -10  -6   -0.11    0.24
  -2 -10  -6    0.01    0.17
   2  10   6    0.11    0.21
   2 -11  -6    1.26    0.26
   2 -11  -6    1.08    0.23
  -2  11   6    1.21    0.25
   1 -11  -6    0.71    0.23
   1 -11  -6    0.83    0.19
  -1  11   6    0.87    0.22
   0 -11  -6    0.16    0.16
   0 -11  -6   -0.03    0.20
   0  11   6    0.12    0.19
  -1 -11  -6    0.08    0.18
  -1 -11  -6    0.06    0.25
   1  11   6    0.23    0.22
   1  12  -7    0.05    0.12
   1  12  -7    0.10    0.28
  -1 -12   7    0.14    0.27
   0  12  -7    0.12    0.24
   0  12  -7    0.11    0.11
   0 -12   7    0.21    0.21
  -1  12  -7    0.04    0.22
  -1  12  -7    0.00    0.13
   1 -12   7   -0.01    0.20
  -2  12  -7    0.00    0.14
  -2  12  -7   -0.03    0.22
   2 -12   7    0.09    0.22
   2  11  -7    1.53    0.17
   2  11  -7    2.07    0.35
   2  11  -7    2.22    0.29
   1  11  -7    0.98    0.26
   1  11  -7    1.18    0.13
  -1 -11   7    1.29    0.22
  -1 -11   7    1.02    0.26
   0  11  -7    0.02    0.09
   0  11  -7    0.02    0.20
   0 -11   7   -0.07    0.19
   0 -11   7    0.05    0.17
  -1  11  -7    0.85    0.13
  -1  11  -7    0.71    0.21
   1 -11   7    0.63    0.19
  -2  11  -7    0.42    0.13
  -2  11  -7    0.30    0.21
   2 -11   7    0.28    0.19
  -3  11  -7    0.18    0.15
  -3  11  -7    0.19    0.24
   3 -11   7    0.16    0.22
   2  10  -7    0.38    0.20
   2  10  -7    0.54    0.11
  -2 -10   7    0.52    0.24
   1  10  -7    0.15    0.08
   1  10  -7    0.09    0.19
  -1 -10   7    0.33    0.17
  -1 -10   7    0.05    0.19
   0  10  -7    2.11    0.26
   0  10  -7    2.07    0.14
   0 -10   7    2.15    0.21
   0 -10   7    2.05    0.25
  -1  10  -7    0.61    0.10
  -1  10  -7    0.60    0.18
   1 -10   7    0.79    0.18
  -2  10  -7   -0.04    0.09
  -2  10  -7    0.01    0.17
   2 -10   7    0.03    0.15
  -3  10  -7    0.16    0.21
  -3  10  -7    0.22    0.14
   3 -10   7    0.24    0.18
   3   9  -7    0.17    0.20
   3   9  -7    0.00    0.11
  -3  -9   7   -0.04    0.25
   2   9  -7    1.06    0.11
   2   9  -7    0.96    0.18
  -2  -9   7    0.63    0.20
   1   9  -7    0.19    0.15
   1   9  -7    0.13    0.06
   1   9  -7    0.15    0.13
  -1  -9   7    0.31    0.18
  -1  -9   7    0.16    0.14
   0   9  -7    0.09    0.07
   0   9  -7   -0.03    0.14
   0  -9   7    0.03    0.14
   0  -9   7    0.07    0.13
  -1   9  -7    8.33    0.41
  -1   9  -7    8.67    0.31
   1  -9   7    7.94    0.37
  -2   9  -7    1.44    0.13
  -2   9  -7    1.79    0.22
   2  -9   7    1.32    0.17
  -3   9  -7    0.53    0.13
  -3   9  -7    0.34    0.18
   3  -9   7    0.39    0.08
   3  -9   7    0.45    0.17
  -4   9  -7    0.99    0.20
  -4   9  -7    1.06    0.28
   4  -9   7    0.96    0.23
   4  -9   7    0.87    0.14
   3   8  -7    0.20    0.19
   3   8  -7    0.46    0.11
  -3  -8   7    0.41    0.23
   2   8  -7    3.12    0.15
   2   8  -7    3.62    0.26
  -2  -8   7    3.47    0.30
   1   8  -7    3.94    0.23
   1   8  -7    3.65    0.28
   1   8  -7    3.66    0.15
  -1  -8   7    4.07    0.24
  -1  -8   7    3.39    0.26
   0   8  -7    0.17    0.14
   0   8  -7    0.13    0.05
   0  -8   7    0.10    0.12
   0  -8   7    0.05    0.13
  -1   8  -7    1.48    0.11
  -1   8  -7    1.39    0.18
   1  -8   7    1.75    0.17
  -2   8  -7    0.76    0.10
  -2   8  -7    0.94    0.17
   2  -8   7    0.82    0.15
  -3   8  -7    0.05    0.17
  -3   8  -7    0.09    0.11
   3  -8   7    0.07    0.14
   3  -8   7    0.05    0.08
  -4   8  -7    0.05    0.19
  -4   8  -7    0.08    0.21
  -4   8  -7   -0.07    0.15
   4  -8   7    0.00    0.17
   4  -8   7   -0.01    0.11
   4   7  -7    0.04    0.22
   4   7  -7   -0.01    0.13
  -4  -7   7   -0.07    0.25
   3   7  -7    0.35    0.17
   3   7  -7    0.19    0.08
  -3  -7   7    0.30    0.21
  -3  -7   7    0.39    0.17
   2   7  -7    0.96    0.15
   2   7  -7    1.11    0.09
  -2  -7   7    1.19    0.20
  -2  -7   7    1.30    0.16
   1   7  -7    2.05    0.17
   1   7  -7    2.18    0.09
  -1  -7   7    2.21    0.18
  -1  -7   7    2.26    0.22
  -1  -7   7    2.25    0.18
   0   7  -7   18.97    0.71
   0   7  -7   19.76    0.65
   0   7  -7   18.90    0.62
   0  -7   7   19.34    0.70
   0  -7   7   18.86    0.67
  -1   7  -7    0.03    0.11
  -1   7  -7    0.01    0.05
   1  -7   7    0.03    0.10
  -2   7  -7    1.13    0.11
  -2   7  -7    1.25    0.17
   2  -7   7    1.12    0.07
   2  -7   7    1.04    0.14
  -3   7  -7    0.11    0.11
  -3   7  -7    0.05    0.16
   3  -7   7    0.11    0.13
   3  -7   7    0.14    0.08
  -4   7  -7    0.03    0.14
  -4   7  -7   -0.01    0.20
  -4   7  -7    0.25    0.18
   4  -7   7    0.07    0.17
   4  -7   7    0.05    0.11
   4   6  -7    0.44    0.11
   4   6  -7    0.34    0.20
  -4  -6   7    0.27    0.24
  -4  -6   7    0.32    0.20
   3   6  -7    0.50    0.08
   3   6  -7    0.41    0.15
  -3  -6   7    0.43    0.17
  -3  -6   7    0.47    0.15
   2   6  -7    4.43    0.25
   2   6  -7    4.31    0.16
  -2  -6   7    4.37    0.25
  -2  -6   7    4.15    0.28
   1   6  -7    3.32    0.20
  -1  -6   7    3.66    0.24
  -1  -6   7    3.69    0.20
  -1  -6   7    3.58    0.19
   0   6  -7    1.01    0.06
   0   6  -7    1.03    0.06
   0   6  -7    1.16    0.12
   0   6  -7    1.07    0.14
   0  -6   7    0.96    0.13
   0  -6   7    1.52    0.14
   0  -6   7    1.37    0.12
  -1   6  -7    1.29    0.09
  -1   6  -7    1.21    0.15
   1  -6   7    1.45    0.13
  -2   6  -7    3.27    0.22
  -2   6  -7    3.39    0.17
   2  -6   7    3.22    0.14
   2  -6   7    3.46    0.20
  -3   6  -7    2.99    0.25
  -3   6  -7    2.69    0.19
  -3   6  -7    2.57    0.21
   3  -6   7    3.24    0.22
   3  -6   7    2.68    0.16
  -4   6  -7    0.31    0.17
  -4   6  -7    0.32    0.15
  -4   6  -7    0.11    0.19
   4  -6   7    0.32    0.16
   4  -6   7    0.30    0.11
  -5   6  -7    0.80    0.33
   5  -6   7    0.76    0.19
   4   5  -7    0.64    0.18
  -4  -5   7    0.69    0.19
  -4  -5   7    1.04    0.24
   3   5  -7    0.58    0.14
   3   5  -7    0.95    0.09
  -3  -5   7    0.52    0.18
  -3  -5   7    0.58    0.13
   2   5  -7    0.04    0.04
   2   5  -7    0.08    0.09
  -2  -5   7    0.09    0.13
  -2  -5   7    0.05    0.10
  -1  -5   7    0.46    0.09
  -1  -5   7    0.29    0.11
  -1  -5   7    0.51    0.09
   0   5  -7   15.76    0.50
   0   5  -7   15.15    0.57
   0   5  -7   15.38    0.50
   0   5  -7   15.74    0.53
   0  -5   7   15.45    0.56
   0  -5   7   16.72    0.53
   0  -5   7   15.53    0.54
  -1   5  -7   11.26    0.44
  -1   5  -7   11.57    0.39
   1  -5   7   11.87    0.43
  -2   5  -7    1.38    0.16
  -2   5  -7    1.54    0.12
  -2   5  -7    1.47    0.14
   2  -5   7    1.58    0.10
   2  -5   7    1.36    0.13
  -3   5  -7    0.17    0.10
  -3   5  -7    0.40    0.13
  -3   5  -7    0.20    0.14
   3  -5   7    0.09    0.12
   3  -5   7    0.30    0.08
  -4   5  -7    3.59    0.26
  -4   5  -7    3.12    0.29
  -4   5  -7    3.36    0.28
   4  -5   7    3.22    0.22
   4  -5   7    3.42    0.35
  -5   5  -7    0.16    0.25
   5  -5   7    0.08    0.17
   4   4  -7    0.12    0.16
   4   4  -7    0.19    0.10
  -4  -4   7    0.01    0.15
  -4  -4   7    0.05    0.19
   3   4  -7   13.24    0.46
  -3  -4   7   13.53    0.54
  -3  -4   7   13.98    0.53
   2   4  -7   22.74    0.73
  -2  -4   7   23.39    0.78
  -2  -4   7   22.14    0.79
   1   4  -7    6.54    0.27
  -1  -4   7    7.24    0.27
  -1  -4   7    7.35    0.30
  -1  -4   7    7.17    0.28
   0   4  -7    1.02    0.05
   0   4  -7    1.23    0.11
   0   4  -7    1.14    0.06
   0   4  -7    1.01    0.11
   0  -4   7    1.31    0.11
   0  -4   7    1.33    0.11
   0  -4   7    1.41    0.10
  -1   4  -7    0.08    0.07
  -1   4  -7    0.06    0.07
  -1   4  -7    0.04    0.04
   1  -4   7    0.07    0.05
   1  -4   7    0.02    0.07
  -2   4  -7    2.58    0.18
  -2   4  -7    2.89    0.15
  -2   4  -7    2.76    0.18
   2  -4   7    2.87    0.14
   2  -4   7    2.81    0.17
  -3   4  -7    1.83    0.17
  -3   4  -7    1.87    0.18
  -3   4  -7    1.99    0.20
   3  -4   7    1.76    0.17
   3  -4   7    1.71    0.14
  -4   4  -7    0.38    0.20
   4  -4   7    0.17    0.12
  -5   4  -7    0.33    0.26
   5  -4   7   -0.01    0.16
   5   3  -7    0.18    0.15
   5   3  -7    0.09    0.20
  -5  -3   7    0.00    0.24
  -5  -3   7    0.06    0.21
   4   3  -7    0.46    0.10
  -4  -3   7    0.38    0.16
  -4  -3   7    0.50    0.19
   3   3  -7    0.48    0.07
  -3  -3   7    0.39    0.13
  -3  -3   7    0.42    0.13
   2   3  -7    0.16    0.04
  -2  -3   7    0.22    0.10
  -2  -3   7    0.38    0.10
   1   3  -7    5.80    0.20
   1   3  -7    5.97    0.19
   1   3  -7    5.66    0.23
  -1  -3   7    6.09    0.25
  -1  -3   7    6.17    0.25
  -1  -3   7    6.50    0.24
   0   3  -7   12.06    0.39
   0   3  -7   11.87    0.43
   0   3  -7   11.66    0.39
   0   3  -7   12.27    0.43
   0  -3   7   12.50    0.41
   0  -3   7   12.73    0.43
  -1   3  -7    6.59    0.26
  -1   3  -7    5.82    0.25
  -1   3  -7    6.17    0.22
   1  -3   7    6.09    0.21
   1  -3   7    6.73    0.22
   1  -3   7    6.34    0.21
   1  -3   7    5.74    0.25
  -2   3  -7    0.25    0.09
  -2   3  -7    0.45    0.10
  -2   3  -7    0.30    0.07
   2  -3   7    0.34    0.09
   2  -3   7    0.41    0.07
  -3   3  -7    2.87    0.20
  -3   3  -7    2.83    0.18
  -3   3  -7    2.67    0.21
   3  -3   7    2.50    0.17
  -4   3  -7    0.74    0.20
   4  -3   7    1.01    0.14
  -5   3  -7    0.02    0.22
   5  -3   7   -0.03    0.16
   5   2  -7    0.20    0.14
   5   2  -7    0.21    0.20
  -5  -2   7    0.20    0.24
  -5  -2   7    0.18    0.21
   4   2  -7    0.26    0.10
  -4  -2   7    0.50    0.18
  -4  -2   7    0.18    0.15
   3   2  -7    2.95    0.14
  -3  -2   7    2.84    0.20
  -3  -2   7    2.52    0.20
   2   2  -7    0.80    0.07
   2   2  -7    0.96    0.10
  -2  -2   7    1.16    0.13
  -2  -2   7    1.19    0.12
   1   2  -7    0.35    0.04
   1   2  -7    0.35    0.07
   1   2  -7    0.28    0.03
  -1  -2   7    0.30    0.07
  -1  -2   7    0.30    0.07
   0   2  -7   66.82    2.14
   0   2  -7   68.02    2.14
   0   2  -7   69.45    2.15
   0   2  -7   68.30    2.17
   0  -2   7   67.89    2.16
  -1   2  -7    0.30    0.05
  -1   2  -7    0.25    0.08
  -1   2  -7    0.30    0.07
   1  -2   7    0.43    0.06
   1  -2   7    0.36    0.05
   1  -2   7    0.27    0.05
  -2   2  -7    0.03    0.08
  -2   2  -7   -0.02    0.09
  -2   2  -7   -0.03    0.06
   2  -2   7   -0.02    0.06
  -3   2  -7    1.26    0.13
  -3   2  -7    1.51    0.16
  -3   2  -7    1.52    0.18
   3  -2   7    1.36    0.14
  -4   2  -7    2.51    0.26
   4  -2   7    2.32    0.21
  -5   2  -7    0.43    0.22
   5  -2   7    0.67    0.19
   5   1  -7    0.20    0.14
  -5  -1   7    0.34    0.23
  -5  -1   7    0.07    0.21
   4   1  -7    0.08    0.09
  -4  -1   7    0.15    0.16
  -4  -1   7    0.20    0.16
  -4  -1   7    0.13    0.06
   3   1  -7    3.07    0.15
  -3  -1   7    2.86    0.20
  -3  -1   7    2.89    0.12
  -3  -1   7    3.02    0.20
   2   1  -7    3.17    0.15
   2   1  -7    2.94    0.13
  -2  -1   7    3.41    0.17
  -2  -1   7    3.13    0.17
   1   1  -7   55.83    1.77
   1   1  -7   55.53    1.78
   1   1  -7   55.82    1.76
  -1  -1   7   58.39    1.78
  -1  -1   7   54.15    1.79
   0   1  -7    2.67    0.12
   0   1  -7    2.32    0.11
   0   1  -7    2.61    0.11
   0   1  -7    2.27    0.13
   0  -1   7    2.62    0.13
   0  -1   7    2.55    0.10
   0  -1   7    2.77    0.10
  -1   1  -7    5.05    0.20
  -1   1  -7    5.34    0.22
  -1   1  -7    5.36    0.20
   1  -1   7    5.03    0.19
   1  -1   7    5.31    0.20
   1  -1   7    4.90    0.20
  -2   1  -7    1.11    0.11
  -2   1  -7    1.40    0.13
  -2   1  -7    1.27    0.14
   2  -1   7    1.19    0.10
   2  -1   7    1.25    0.11
  -3   1  -7    0.49    0.12
  -3   1  -7    0.54    0.14
  -3   1  -7    0.46    0.10
   3  -1   7    0.44    0.10
  -4   1  -7    0.88    0.18
   4  -1   7    1.41    0.17
  -5   1  -7    0.17    0.23
   5   0  -7    0.52    0.16
  -5   0   7    0.45    0.21
  -5   0   7    0.55    0.11
   4   0  -7    3.84    0.21
  -4   0   7    3.84    0.18
  -4   0   7    3.84    0.26
  -4   0   7    3.95    0.28
   3   0  -7    6.96    0.27
  -3   0   7    6.65    0.30
  -3   0   7    6.85    0.25
  -3   0   7    7.10    0.31
   2   0  -7    6.48    0.25
   2   0  -7    6.75    0.24
  -2   0   7    6.69    0.24
  -2   0   7    6.40    0.23
  -2   0   7    6.61    0.27
  -2   0   7    6.95    0.26
   1   0  -7   20.70    0.70
   1   0  -7   20.71    0.68
  -1   0   7   21.88    0.68
  -1   0   7   20.26    0.70
  -1   0   7   21.96    0.68
   0   0  -7   54.98    1.73
   0   0  -7   52.78    1.71
   0   0   7   53.47    1.72
   0   0   7   55.43    1.71
   0   0   7   53.37    1.71
  -1   0  -7    5.88    0.22
  -1   0  -7    5.51    0.24
  -1   0  -7    6.08    0.24
  -1   0  -7    5.86    0.22
   1   0   7    5.45    0.23
   1   0   7    5.51    0.22
  -2   0  -7    0.97    0.10
  -2   0  -7    1.09    0.12
  -2   0  -7    1.18    0.14
  -2   0  -7    0.92    0.11
   2   0   7    0.98    0.10
   2   0   7    1.14    0.11
  -3   0  -7    0.06    0.11
  -3   0  -7    0.02    0.12
  -3   0  -7   -0.04    0.10
   3   0   7    0.04    0.09
  -4   0  -7    0.12    0.16
   4   0   7    0.06    0.13
  -5   0  -7    0.11    0.24
   5  -1  -7   -0.01    0.15
  -5   1   7    0.14    0.11
  -5   1   7    0.03    0.20
   4  -1  -7    0.22    0.10
  -4   1   7    0.27    0.15
  -4   1   7    0.32    0.09
  -4   1   7    0.23    0.16
   3  -1  -7    2.52    0.15
  -3   1   7    2.41    0.14
  -3   1   7    2.67    0.18
  -3   1   7    2.41    0.18
   2  -1  -7    6.59    0.27
   2  -1  -7    7.05    0.26
  -2   1   7    6.59    0.28
  -2   1   7    7.20    0.27
  -2   1   7    6.82    0.25
   1  -1  -7    0.45    0.08
   1  -1  -7    0.43    0.06
  -1   1   7    0.74    0.08
  -1   1   7    0.59    0.05
  -1   1   7    0.61    0.06
  -1   1   7    0.80    0.09
   0  -1  -7    8.22    0.29
   0  -1  -7    7.90    0.31
   0  -1  -7    8.55    0.31
   0   1   7    8.83    0.31
   0   1   7    8.11    0.29
  -1  -1  -7   34.13    1.10
  -1  -1  -7   34.45    1.11
  -1  -1  -7   34.93    1.12
  -1  -1  -7   34.04    1.10
   1   1   7   33.60    1.11
   1   1   7   33.07    1.15
   1   1   7   34.85    1.12
  -2  -1  -7    1.45    0.15
  -2  -1  -7    1.87    0.13
  -2  -1  -7    1.71    0.16
  -2  -1  -7    1.92    0.15
   2   1   7    1.51    0.13
   2   1   7    1.74    0.14
  -3  -1  -7    0.54    0.14
  -3  -1  -7    0.44    0.12
  -3  -1  -7    0.57    0.14
   3   1   7    0.39    0.11
   3   1   7    0.61    0.13
  -4  -1  -7    1.09    0.21
  -5  -1  -7    0.07    0.26
   5  -2  -7    0.02    0.15
  -5   2   7   -0.10    0.13
  -5   2   7   -0.04    0.20
   4  -2  -7    0.42    0.12
  -4   2   7    0.41    0.15
  -4   2   7    0.38    0.10
   3  -2  -7    0.02    0.08
  -3   2   7    0.10    0.10
  -3   2   7    0.05    0.12
  -3   2   7    0.04    0.07
   2  -2  -7    0.14    0.09
   2  -2  -7    0.08    0.06
  -2   2   7    0.08    0.07
  -2   2   7    0.07    0.07
  -2   2   7    0.12    0.06
   1  -2  -7   41.14    1.31
   1  -2  -7   39.00    1.29
   1  -2  -7   40.34    1.27
  -1   2   7   38.37    1.27
  -1   2   7   39.89    1.29
   0  -2  -7    0.28    0.07
   0  -2  -7    0.33    0.08
   0  -2  -7    0.34    0.06
   0   2   7    0.25    0.07
   0   2   7    0.28    0.06
   0   2   7    0.22    0.07
  -1  -2  -7    0.28    0.09
  -1  -2  -7    0.24    0.07
  -1  -2  -7    0.28    0.07
  -1  -2  -7    0.26    0.09
   1   2   7    0.15    0.12
   1   2   7    0.34    0.08
   1   2   7    0.26    0.07
  -2  -2  -7    2.52    0.19
  -2  -2  -7    2.55    0.18
  -2  -2  -7    2.84    0.17
  -2  -2  -7    3.09    0.17
   2   2   7    2.30    0.17
   2   2   7    2.97    0.18
  -3  -2  -7   16.39    0.58
  -3  -2  -7   15.45    0.59
  -3  -2  -7   15.37    0.56
   3   2   7   14.89    0.57
   3   2   7   14.70    0.57
  -4  -2  -7    0.79    0.21
  -4  -2  -7    1.12    0.18
  -5   3   7   -0.05    0.22
  -5   3   7    0.01    0.15
   4  -3  -7    0.25    0.12
  -4   3   7    0.10    0.10
  -4   3   7    0.01    0.12
   3  -3  -7    0.28    0.09
  -3   3   7    0.25    0.11
  -3   3   7    0.46    0.10
   2  -3  -7    0.22    0.07
   2  -3  -7    0.27    0.10
  -2   3   7    0.09    0.07
  -2   3   7    0.38    0.09
   1  -3  -7    1.10    0.12
   1  -3  -7    1.07    0.11
   1  -3  -7    1.04    0.10
  -1   3   7    0.80    0.10
  -1   3   7    0.85    0.09
   0  -3  -7    1.64    0.13
   0  -3  -7    1.97    0.12
   0  -3  -7    1.78    0.15
   0   3   7    1.60    0.12
  -1  -3  -7    1.24    0.11
  -1  -3  -7    1.13    0.13
  -1  -3  -7    1.25    0.12
  -1  -3  -7    1.09    0.12
   1   3   7    0.80    0.11
   1   3   7    0.96    0.11
  -2  -3  -7    1.38    0.15
  -2  -3  -7    1.44    0.15
  -2  -3  -7    1.54    0.15
   2   3   7    1.25    0.14
   2   3   7    1.55    0.15
  -3  -3  -7    3.25    0.27
  -3  -3  -7    3.83    0.25
  -3  -3  -7    3.09    0.24
   3   3   7    3.23    0.24
  -4  -3  -7    0.01    0.20
  -4  -3  -7    0.07    0.16
  -5   4   7    0.04    0.15
   4  -4  -7    0.14    0.12
  -4   4   7    0.12    0.12
  -4   4   7    0.12    0.14
   3  -4  -7    4.94    0.23
  -3   4   7    4.51    0.25
  -3   4   7    4.68    0.23
   2  -4  -7    8.49    0.33
   2  -4  -7    8.40    0.35
  -2   4   7    8.90    0.34
  -2   4   7    8.86    0.35
   1  -4  -7    2.16    0.17
   1  -4  -7    2.31    0.17
   1  -4  -7    2.43    0.14
  -1   4   7    2.45    0.16
  -1   4   7    2.13    0.14
   0  -4  -7    0.01    0.06
   0  -4  -7    0.00    0.07
   0  -4  -7    0.09    0.08
   0   4   7   -0.02    0.07
   0   4   7    0.08    0.08
  -1  -4  -7    1.08    0.13
  -1  -4  -7    0.83    0.12
  -1  -4  -7    0.96    0.11
  -1  -4  -7    0.91    0.12
   1   4   7    0.85    0.11
   1   4   7    0.98    0.13
  -2  -4  -7    4.40    0.26
  -2  -4  -7    4.85    0.26
  -2  -4  -7    4.84    0.25
   2   4   7    4.16    0.26
   2   4   7    4.63    0.27
  -3  -4  -7    0.26    0.17
  -3  -4  -7    0.28    0.14
  -3  -4  -7    0.25    0.14
   3   4   7    0.31    0.15
  -4  -4  -7    0.49    0.24
  -4  -4  -7    0.46    0.18
   4   4   7    0.43    0.20
  -5   5   7    0.40    0.18
  -4   5   7    0.33    0.14
  -4   5   7    0.17    0.15
   3  -5  -7    0.06    0.12
  -3   5   7   -0.01    0.10
  -3   5   7    0.11    0.12
   2  -5  -7    0.01    0.11
   2  -5  -7    0.03    0.08
  -2   5   7    0.01    0.10
  -2   5   7   -0.05    0.09
   1  -5  -7    4.91    0.25
   1  -5  -7    4.39    0.24
   1  -5  -7    5.04    0.22
  -1   5   7    4.34    0.22
  -1   5   7    4.65    0.24
   0  -5  -7    1.50    0.14
   0  -5  -7    1.55    0.15
   0  -5  -7    1.31    0.14
   0   5   7    1.45    0.15
   0   5   7    1.23    0.13
  -1  -5  -7    4.23    0.24
  -1  -5  -7    4.11    0.24
   1   5   7    4.43    0.24
   1   5   7    3.97    0.24
  -2  -5  -7    0.53    0.17
  -2  -5  -7    0.42    0.14
  -2  -5  -7    0.36    0.13
   2   5   7    0.53    0.15
  -3  -5  -7    0.66    0.16
  -3  -5  -7    0.70    0.19
  -3  -5  -7    1.01    0.22
   3   5   7    0.76    0.18
  -4  -5  -7   -0.11    0.25
  -4  -5  -7    0.15    0.18
   4   5   7    0.04    0.22
  -4   6   7   -0.13    0.16
  -4   6   7    0.06    0.15
  -3   6   7    0.62    0.15
  -3   6   7    0.49    0.14
   2  -6  -7    1.35    0.17
  -2   6   7    1.27    0.16
  -2   6   7    1.21    0.14
   1  -6  -7    3.51    0.22
  -1   6   7    3.47    0.22
  -1   6   7    3.02    0.20
   0  -6  -7    1.64    0.17
   0  -6  -7    1.36    0.16
   0   6   7    1.84    0.17
   0   6   7    1.34    0.15
  -1  -6  -7    0.50    0.13
  -1  -6  -7    0.68    0.13
   1   6   7    0.49    0.13
  -2  -6  -7    3.27    0.24
  -2  -6  -7    2.95    0.24
   2   6   7    2.71    0.25
  -3  -6  -7    0.20    0.15
   3   6   7   -0.01    0.17
  -4   7   7    0.46    0.18
   3  -7  -7    0.69    0.26
  -3   7   7    0.55    0.15
  -3   7   7    0.37    0.16
   2  -7  -7    2.90    0.26
  -2   7   7    2.70    0.22
  -2   7   7    2.52    0.21
   1  -7  -7    0.13    0.12
   1  -7  -7    0.10    0.13
  -1   7   7    0.11    0.11
  -1   7   7    0.27    0.13
   0  -7  -7    0.52    0.15
   0  -7  -7    0.50    0.13
   0   7   7    0.41    0.13
  -1  -7  -7    0.68    0.15
  -1  -7  -7    0.67    0.16
   1   7   7    0.64    0.15
  -2  -7  -7    0.74    0.18
  -2  -7  -7    0.56    0.15
   2   7   7    0.82    0.18
  -3  -7  -7    0.00    0.17
   3   7   7   -0.03    0.19
  -4   8   7    0.35    0.21
   3  -8  -7    0.54    0.19
  -3   8   7    0.83    0.33
  -3   8   7    0.68    0.18
   2  -8  -7    0.01    0.16
  -2   8   7    0.01    0.13
   1  -8  -7    0.94    0.18
   1  -8  -7    0.82    0.16
  -1   8   7    1.00    0.17
   0  -8  -7    2.80    0.24
   0  -8  -7    2.67    0.25
   0   8   7    2.77    0.23
  -1  -8  -7    0.20    0.14
  -1  -8  -7    0.34    0.16
   1   8   7    0.12    0.14
  -2  -8  -7   -0.05    0.17
  -2  -8  -7   -0.01    0.15
   2   8   7   -0.02    0.17
  -3  -8  -7    0.62    0.20
   3   8   7    0.60    0.26
   3  -9  -7    0.13    0.20
  -3   9   7    0.03    0.19
   2  -9  -7    0.50    0.18
   2  -9  -7    0.76    0.20
  -2   9   7    0.49    0.17
   1  -9  -7    1.05    0.18
   1  -9  -7    0.64    0.20
  -1   9   7    0.39    0.16
   0  -9  -7    0.07    0.16
   0  -9  -7    0.05    0.14
   0   9   7    0.00    0.14
  -1  -9  -7    0.17    0.15
  -1  -9  -7   -0.04    0.18
   1   9   7    0.30    0.17
  -2  -9  -7    0.07    0.22
  -2  -9  -7    0.03    0.18
   2   9   7   -0.05    0.20
   3 -10  -7    0.10    0.24
   2 -10  -7    0.07    0.17
   2 -10  -7    0.24    0.20
  -2  10   7    0.25    0.19
   1 -10  -7    0.05    0.21
   1 -10  -7    0.08    0.17
  -1  10   7    0.22    0.18
   0 -10  -7    0.23    0.17
   0 -10  -7    0.62    0.23
   0  10   7    0.46    0.19
  -1 -10  -7    0.16    0.23
  -1 -10  -7    0.13    0.17
   1  10   7   -0.05    0.19
   1 -11  -7    0.12    0.22
   1 -11  -7    0.08    0.20
  -1  11   7   -0.01    0.22
   0 -11  -7    0.15    0.18
   0 -11  -7    0.16    0.25
   0  11   7    0.06    0.22
   0  12  -8    0.05    0.11
   0  12  -8    0.15    0.24
   0 -12   8    0.04    0.21
  -1  12  -8    0.15    0.26
  -1  12  -8    0.10    0.13
   1 -12   8    0.22    0.21
  -2  12  -8   -0.03    0.25
  -2  12  -8    0.07    0.13
   2 -12   8   -0.01    0.22
   2  11  -8    0.45    0.28
   2  11  -8    0.46    0.30
   2  11  -8    0.31    0.12
  -2 -11   8    0.21    0.27
   1  11  -8    0.83    0.12
   1  11  -8    0.52    0.25
  -1 -11   8    0.72    0.26
  -1 -11   8    0.76    0.24
   0  11  -8    0.71    0.23
   0  11  -8    0.59    0.10
   0 -11   8    0.51    0.19
  -1  11  -8    0.06    0.20
  -1  11  -8    0.08    0.10
   1 -11   8   -0.02    0.18
  -2  11  -8   -0.02    0.12
  -2  11  -8    0.22    0.23
   2 -11   8    0.06    0.18
  -3  11  -8   -0.11    0.24
  -3  11  -8    0.05    0.16
   3 -11   8    0.07    0.22
   2  10  -8    0.10    0.10
   2  10  -8    0.14    0.19
  -2 -10   8    0.19    0.23
   1  10  -8    0.29    0.20
   1  10  -8    0.31    0.09
  -1 -10   8    0.23    0.19
  -1 -10   8    0.30    0.17
   0  10  -8    0.04    0.07
   0  10  -8    0.11    0.17
   0 -10   8    0.07    0.15
   0 -10   8    0.13    0.18
  -1  10  -8   -0.01    0.16
  -1  10  -8    0.03    0.09
   1 -10   8    0.02    0.15
  -2  10  -8    1.68    0.25
  -2  10  -8    1.61    0.15
   2 -10   8    1.59    0.21
  -3  10  -8   -0.09    0.13
  -3  10  -8   -0.03    0.22
   3 -10   8    0.03    0.19
   3   9  -8    0.88    0.13
   3   9  -8    1.13    0.25
  -3  -9   8    0.55    0.28
   2   9  -8    0.08    0.08
   2   9  -8    0.15    0.17
  -2  -9   8    0.04    0.18
   1   9  -8    1.78    0.24
   1   9  -8    1.77    0.11
   1   9  -8    2.05    0.20
  -1  -9   8    1.45    0.23
  -1  -9   8    1.89    0.20
   0   9  -8   10.22    0.47
   0   9  -8    9.84    0.34
   0  -9   8    9.82    0.46
   0  -9   8    9.54    0.41
  -1   9  -8    0.02    0.07
  -1   9  -8    0.05    0.15
   1  -9   8   -0.03    0.13
  -2   9  -8    0.64    0.11
  -2   9  -8    0.56    0.17
   2  -9   8    0.62    0.16
  -3   9  -8    1.03    0.15
  -3   9  -8    0.83    0.22
   3  -9   8    1.28    0.20
   3  -9   8    1.00    0.10
  -4   9  -8    0.25    0.18
  -4   9  -8    0.60    0.23
  -4   9  -8    0.31    0.25
   4  -9   8    0.33    0.22
   4  -9   8    0.39    0.13
   3   8  -8    0.18    0.09
   3   8  -8    0.14    0.20
  -3  -8   8    0.19    0.24
   2   8  -8    0.01    0.06
   2   8  -8    0.07    0.14
  -2  -8   8    0.05    0.14
  -2  -8   8    0.07    0.17
   1   8  -8    2.89    0.28
   1   8  -8    3.25    0.24
   1   8  -8    3.07    0.13
  -1  -8   8    2.95    0.27
  -1  -8   8    3.58    0.23
   0   8  -8    2.62    0.12
   0   8  -8    2.74    0.25
   0  -8   8    2.56    0.20
   0  -8   8    2.56    0.23
  -1   8  -8    1.66    0.12
  -1   8  -8    1.92    0.22
   1  -8   8    1.76    0.18
  -2   8  -8    0.25    0.09
  -2   8  -8    0.19    0.15
   2  -8   8    0.16    0.13
  -3   8  -8    0.06    0.11
  -3   8  -8    0.03    0.17
   3  -8   8   -0.04    0.14
   3  -8   8    0.04    0.07
  -4   8  -8    0.17    0.16
  -4   8  -8    0.19    0.21
  -4   8  -8    0.16    0.23
   4  -8   8    0.31    0.21
   4  -8   8    0.14    0.12
   4   7  -8    1.04    0.15
   4   7  -8    1.18    0.26
  -4  -7   8    0.93    0.33
  -4  -7   8    1.16    0.25
   3   7  -8    2.17    0.14
   3   7  -8    2.05    0.23
  -3  -7   8    2.51    0.26
  -3  -7   8    1.96    0.27
   2   7  -8    0.23    0.14
   2   7  -8    0.26    0.05
  -2  -7   8    0.14    0.16
  -2  -7   8    0.10    0.14
   1   7  -8    3.76    0.22
   1   7  -8    3.89    0.27
  -1  -7   8    3.50    0.26
  -1  -7   8    3.78    0.21
  -1  -7   8    3.56    0.22
   0   7  -8   14.17    0.54
   0   7  -8   13.58    0.45
   0  -7   8   13.67    0.51
   0  -7   8   13.40    0.53
  -1   7  -8    4.65    0.27
  -1   7  -8    4.50    0.18
   1  -7   8    4.44    0.23
  -2   7  -8    0.13    0.12
  -2   7  -8   -0.03    0.08
   2  -7   8    0.01    0.11
  -3   7  -8    1.56    0.19
  -3   7  -8    1.54    0.15
  -3   7  -8    1.43    0.21
   3  -7   8    1.45    0.13
   3  -7   8    1.48    0.18
  -4   7  -8    0.42    0.16
  -4   7  -8    0.44    0.23
  -4   7  -8    0.67    0.22
   4  -7   8    0.57    0.13
   4  -7   8    0.65    0.21
   4   6  -8    0.22    0.10
   4   6  -8    0.10    0.19
  -4  -6   8    0.32    0.20
  -4  -6   8    0.21    0.26
   3   6  -8    2.39    0.24
   3   6  -8    2.01    0.13
  -3  -6   8    1.77    0.21
  -3  -6   8    2.24    0.27
   2   6  -8    2.38    0.20
   2   6  -8    2.60    0.11
  -2  -6   8    2.20    0.25
  -2  -6   8    2.28    0.20
   1   6  -8    0.77    0.12
  -1  -6   8    0.78    0.12
  -1  -6   8    0.61    0.15
  -1  -6   8    0.91    0.12
   0   6  -8    0.20    0.04
   0   6  -8    0.29    0.04
   0   6  -8    0.41    0.09
   0   6  -8    0.27    0.11
   0  -6   8    0.12    0.09
   0  -6   8    0.28    0.09
   0  -6   8    0.29    0.11
  -1   6  -8    1.52    0.10
  -1   6  -8    1.36    0.16
   1  -6   8    1.65    0.15
  -2   6  -8    0.36    0.12
  -2   6  -8    0.53    0.09
  -2   6  -8    0.69    0.13
   2  -6   8    0.56    0.12
   2  -6   8    0.65    0.06
  -3   6  -8    2.06    0.20
  -3   6  -8    1.68    0.21
  -3   6  -8    1.94    0.17
   3  -6   8    2.06    0.20
   3  -6   8    1.98    0.14
  -4   6  -8    2.70    0.31
  -4   6  -8    2.65    0.26
  -4   6  -8    3.24    0.30
   4  -6   8    2.73    0.20
   4  -6   8    2.74    0.27
   4   5  -8   -0.08    0.10
   4   5  -8    0.12    0.18
  -4  -5   8    0.04    0.22
  -4  -5   8    0.06    0.18
   3   5  -8    0.04    0.13
   3   5  -8   -0.01    0.07
  -3  -5   8   -0.08    0.13
  -3  -5   8    0.08    0.17
   2   5  -8    0.04    0.04
  -2  -5   8    0.01    0.11
  -2  -5   8    0.04    0.13
   1   5  -8   46.22    1.48
  -1  -5   8   45.03    1.51
  -1  -5   8   45.68    1.48
  -1  -5   8   45.20    1.47
   0   5  -8    0.67    0.05
   0   5  -8    0.77    0.10
   0   5  -8    0.59    0.11
   0   5  -8    0.64    0.05
   0  -5   8    0.84    0.10
   0  -5   8    0.61    0.11
   0  -5   8    0.90    0.10
  -1   5  -8    8.03    0.28
  -1   5  -8    7.66    0.32
  -1   5  -8    7.32    0.33
   1  -5   8    8.48    0.33
  -2   5  -8    5.76    0.27
  -2   5  -8    5.05    0.22
  -2   5  -8    5.14    0.26
   2  -5   8    5.01    0.20
   2  -5   8    5.49    0.26
  -3   5  -8    6.08    0.32
  -3   5  -8    5.95    0.27
  -3   5  -8    6.20    0.30
   3  -5   8    5.64    0.29
   3  -5   8    5.06    0.24
  -4   5  -8    0.04    0.15
  -4   5  -8   -0.04    0.19
  -4   5  -8    0.08    0.19
   4  -5   8    0.02    0.11
  -5   5  -8   -0.09    0.27
   5  -5   8   -0.01    0.17
   4   4  -8    0.02    0.16
   4   4  -8    0.15    0.10
  -4  -4   8    0.18    0.17
  -4  -4   8   -0.01    0.19
   3   4  -8    0.04    0.06
  -3  -4   8    0.04    0.13
  -3  -4   8    0.03    0.16
   2   4  -8    0.67    0.06
  -2  -4   8    0.60    0.12
  -2  -4   8    0.59    0.14
   1   4  -8    0.25    0.09
  -1  -4   8    0.24    0.08
  -1  -4   8    0.26    0.10
  -1  -4   8    0.19    0.09
   0   4  -8    2.31    0.15
   0   4  -8    2.37    0.10
   0   4  -8    2.44    0.16
   0   4  -8    2.45    0.10
   0  -4   8    2.53    0.14
   0  -4   8    2.52    0.15
  -1   4  -8    4.92    0.19
  -1   4  -8    4.90    0.23
  -1   4  -8    4.93    0.23
   1  -4   8    4.75    0.22
  -2   4  -8    3.31    0.17
  -2   4  -8    2.75    0.20
  -2   4  -8    3.49    0.21
   2  -4   8    3.52    0.15
   2  -4   8    3.47    0.20
  -3   4  -8    1.32    0.17
  -3   4  -8    0.96    0.17
  -3   4  -8    0.97    0.13
   3  -4   8    0.96    0.11
   3  -4   8    0.93    0.16
  -4   4  -8    2.80    0.27
  -4   4  -8    2.97    0.30
   4  -4   8    2.78    0.21
  -5   4  -8    0.16    0.27
   5  -4   8    0.27    0.18
   5   3  -8    0.15    0.15
   5   3  -8    0.12    0.21
  -5  -3   8    0.00    0.20
   4   3  -8    0.03    0.09
  -4  -3   8    0.16    0.18
  -4  -3   8    0.07    0.16
   3   3  -8    1.21    0.10
  -3  -3   8    1.29    0.18
  -3  -3   8    1.47    0.17
   2   3  -8    0.02    0.04
  -2  -3   8    0.01    0.10
  -2  -3   8    0.07    0.10
   1   3  -8    0.73    0.06
   1   3  -8    0.81    0.10
   1   3  -8    0.76    0.05
  -1  -3   8    0.85    0.10
  -1  -3   8    1.01    0.12
   0   3  -8    0.37    0.08
   0   3  -8    0.42    0.05
   0   3  -8    0.28    0.08
   0   3  -8    0.43    0.04
   0  -3   8    0.41    0.07
   0  -3   8    0.34    0.08
  -1   3  -8    0.20    0.05
  -1   3  -8    0.11    0.07
  -1   3  -8    0.09    0.08
   1  -3   8    0.14    0.05
   1  -3   8    0.17    0.03
   1  -3   8    0.08    0.07
   1  -3   8    0.17    0.03
  -2   3  -8    0.67    0.12
  -2   3  -8    0.50    0.11
  -2   3  -8    0.89    0.10
   2  -3   8    0.69    0.12
   2  -3   8    0.77    0.08
  -3   3  -8    5.29    0.24
  -3   3  -8    4.87    0.26
  -3   3  -8    4.44    0.27
   3  -3   8    4.33    0.22
  -4   3  -8    1.10    0.21
   4  -3   8    0.97    0.15
  -5   3  -8    0.20    0.25
   5  -3   8    0.29    0.18
   5   2  -8    0.16    0.15
   5   2  -8    0.01    0.21
  -5  -2   8    0.10    0.22
   4   2  -8    2.76    0.19
  -4  -2   8    2.80    0.23
  -4  -2   8    2.85    0.28
   3   2  -8    3.69    0.17
  -3  -2   8    4.00    0.24
  -3  -2   8    3.83    0.25
   2   2  -8    0.27    0.05
  -2  -2   8    0.22    0.09
  -2  -2   8    0.29    0.10
   1   2  -8    3.51    0.17
   1   2  -8    3.34    0.13
   1   2  -8    3.55    0.14
  -1  -2   8    3.76    0.17
  -1  -2   8    3.67    0.17
   0   2  -8    6.66    0.23
   0   2  -8    6.63    0.25
   0   2  -8    6.77    0.24
   0   2  -8    6.56    0.27
   0  -2   8    7.22    0.26
  -1   2  -8    0.80    0.10
  -1   2  -8    0.72    0.07
  -1   2  -8    0.66    0.09
   1  -2   8    0.72    0.07
   1  -2   8    0.75    0.08
   1  -2   8    0.68    0.07
  -2   2  -8    0.41    0.08
  -2   2  -8    0.36    0.10
  -2   2  -8    0.48    0.11
   2  -2   8    0.36    0.07
  -3   2  -8    8.18    0.34
  -3   2  -8    8.34    0.38
  -3   2  -8    8.21    0.35
   3  -2   8    7.71    0.33
  -4   2  -8    0.38    0.18
   4  -2   8    0.24    0.13
  -5   2  -8    0.00    0.23
   5  -2   8   -0.01    0.18
   5   1  -8    0.00    0.14
  -5  -1   8    0.03    0.21
   4   1  -8    0.14    0.10
  -4  -1   8    0.09    0.16
   3   1  -8    0.00    0.07
  -3  -1   8    0.04    0.12
  -3  -1   8   -0.01    0.11
   2   1  -8   10.63    0.37
   2   1  -8   10.79    0.39
  -2  -1   8   10.81    0.41
  -2  -1   8   11.08    0.40
   1   1  -8   58.69    1.91
   1   1  -8   59.00    1.88
  -1  -1   8   59.52    1.91
  -1  -1   8   61.43    1.89
   0   1  -8   32.09    1.06
   0   1  -8   31.62    1.06
   0   1  -8   32.10    1.04
   0   1  -8   33.99    1.03
   0  -1   8   32.43    1.02
   0  -1   8   32.41    1.05
   0  -1   8   32.11    1.02
  -1   1  -8    0.71    0.10
  -1   1  -8    0.62    0.07
  -1   1  -8    0.72    0.08
   1  -1   8    0.66    0.07
   1  -1   8    0.52    0.07
  -2   1  -8    3.18    0.19
  -2   1  -8    3.13    0.19
  -2   1  -8    3.13    0.17
   2  -1   8    3.22    0.16
   2  -1   8    3.25    0.17
  -3   1  -8    0.45    0.11
  -3   1  -8    0.29    0.12
  -3   1  -8    0.32    0.13
   3  -1   8    0.37    0.10
  -4   1  -8    0.35    0.18
   4  -1   8    0.24    0.13
  -5   1  -8    0.33    0.27
   5   0  -8    0.15    0.15
  -5   0   8    0.19    0.10
  -5   0   8    0.28    0.23
   4   0  -8    1.60    0.15
  -4   0   8    1.55    0.20
  -4   0   8    1.48    0.12
   3   0  -8    1.41    0.12
  -3   0   8    1.38    0.15
  -3   0   8    1.46    0.10
   2   0  -8    0.90    0.10
   2   0  -8    0.83    0.08
  -2   0   8    0.88    0.07
  -2   0   8    1.06    0.08
  -2   0   8    1.00    0.12
   1   0  -8    6.52    0.23
   1   0  -8    5.96    0.26
  -1   0   8    6.49    0.26
  -1   0   8    6.65    0.23
   0   0  -8    0.77    0.07
   0   0  -8    0.64    0.09
   0   0   8    0.77    0.09
   0   0   8    0.65    0.07
   0   0   8    0.91    0.08
  -1   0  -8    2.65    0.14
  -1   0  -8    2.82    0.14
  -1   0  -8    3.03    0.17
   1   0   8    2.71    0.14
   1   0   8    2.55    0.14
  -2   0  -8    2.36    0.16
  -2   0  -8    2.06    0.16
  -2   0  -8    2.01    0.14
   2   0   8    2.18    0.15
   2   0   8    2.10    0.14
  -3   0  -8    1.23    0.16
  -3   0  -8    0.85    0.16
  -3   0  -8    1.30    0.16
   3   0   8    1.13    0.13
  -4   0  -8    0.01    0.18
   4   0   8    0.12    0.14
  -5   0  -8    0.01    0.26
   5  -1  -8    0.01    0.15
  -5   1   8    0.25    0.23
  -5   1   8    0.01    0.11
   4  -1  -8    0.06    0.10
  -4   1   8   -0.01    0.15
  -4   1   8   -0.01    0.08
   3  -1  -8    0.05    0.07
  -3   1   8   -0.01    0.10
  -3   1   8    0.08    0.07
   2  -1  -8    0.01    0.08
   2  -1  -8    0.00    0.05
  -2   1   8    0.06    0.05
  -2   1   8    0.07    0.08
   1  -1  -8    0.11    0.05
   1  -1  -8    0.13    0.08
  -1   1   8    0.08    0.05
  -1   1   8    0.10    0.07
   0  -1  -8   10.88    0.36
   0  -1  -8   10.31    0.39
   0   1   8   10.70    0.38
   0   1   8    9.88    0.36
  -1  -1  -8    1.40    0.14
  -1  -1  -8    1.50    0.11
   1   1   8    1.44    0.11
   1   1   8    1.23    0.12
  -2  -1  -8    2.38    0.17
  -2  -1  -8    2.34    0.16
  -2  -1  -8    2.91    0.19
   2   1   8    2.28    0.16
   2   1   8    2.08    0.16
  -3  -1  -8    0.24    0.14
  -3  -1  -8    0.31    0.13
   3   1   8    0.22    0.12
  -4  -1  -8    0.06    0.18
   4   1   8    0.04    0.17
   5  -2  -8    0.27    0.18
  -5   2   8    0.16    0.13
  -5   2   8   -0.01    0.22
   4  -2  -8    0.66    0.12
  -4   2   8    0.68    0.16
  -4   2   8    0.58    0.11
   3  -2  -8    0.28    0.08
  -3   2   8    0.41    0.08
  -3   2   8    0.40    0.12
   2  -2  -8   20.71    0.71
   2  -2  -8   21.09    0.72
  -2   2   8   21.87    0.73
   1  -2  -8    1.39    0.10
   1  -2  -8    1.24    0.12
  -1   2   8    1.14    0.10
  -1   2   8    1.04    0.11
   0  -2  -8    0.35    0.09
   0  -2  -8    0.37    0.07
   0   2   8    0.44    0.08
   0   2   8    0.30    0.07
  -1  -2  -8    1.42    0.14
  -1  -2  -8    1.72    0.16
  -1  -2  -8    1.63    0.12
   1   2   8    1.30    0.12
   1   2   8    1.29    0.13
  -2  -2  -8    1.11    0.14
  -2  -2  -8    1.34    0.13
  -2  -2  -8    0.91    0.13
   2   2   8    1.18    0.14
   2   2   8    1.25    0.13
  -3  -2  -8    5.91    0.30
  -3  -2  -8    5.92    0.32
   3   2   8    5.83    0.31
   3   2   8    5.69    0.30
  -4  -2  -8    2.50    0.28
  -5   3   8    0.00    0.15
  -5   3   8    0.15    0.24
   4  -3  -8    0.16    0.11
  -4   3   8    0.20    0.11
  -4   3   8    0.22    0.15
   3  -3  -8    4.35    0.22
  -3   3   8    4.61    0.25
  -3   3   8    4.04    0.21
   2  -3  -8    5.50    0.24
   2  -3  -8    5.57    0.27
  -2   3   8    5.98    0.24
  -2   3   8    6.44    0.27
   1  -3  -8    0.61    0.11
   1  -3  -8    0.65    0.08
  -1   3   8    0.53    0.09
  -1   3   8    0.45    0.08
   0  -3  -8    4.13    0.18
   0  -3  -8    3.41    0.19
   0   3   8    3.34    0.19
   0   3   8    3.19    0.18
  -1  -3  -8    3.31    0.18
  -1  -3  -8    3.88    0.20
  -1  -3  -8    3.43    0.21
   1   3   8    3.79    0.20
   1   3   8    3.08    0.19
  -2  -3  -8    6.96    0.32
  -2  -3  -8    7.11    0.34
   2   3   8    7.53    0.33
   2   3   8    7.57    0.33
  -3  -3  -8    0.36    0.15
  -3  -3  -8    0.25    0.15
  -3  -3  -8    0.45    0.29
   3   3   8    0.36    0.15
  -4  -3  -8    0.15    0.18
  -4  -3  -8    0.20    0.27
  -5   4   8    0.11    0.15
  -5   4   8   -0.11    0.25
   4  -4  -8    0.17    0.13
  -4   4   8    0.08    0.12
  -4   4   8    0.14    0.15
   3  -4  -8   -0.03    0.09
  -3   4   8    0.02    0.09
  -3   4   8   -0.01    0.11
   2  -4  -8    8.47    0.35
  -2   4   8    7.77    0.33
  -2   4   8    8.08    0.32
   1  -4  -8    1.21    0.15
   1  -4  -8    1.17    0.11
  -1   4   8    0.74    0.10
  -1   4   8    0.94    0.12
   0  -4  -8    0.02    0.07
   0  -4  -8   -0.02    0.10
   0  -4  -8   -0.03    0.08
   0   4   8   -0.04    0.07
   0   4   8    0.00    0.08
  -1  -4  -8    0.12    0.10
  -1  -4  -8    0.07    0.11
  -1  -4  -8    0.18    0.15
   1   4   8    0.12    0.09
   1   4   8    0.05    0.09
  -2  -4  -8    0.51    0.14
  -2  -4  -8    0.62    0.14
   2   4   8    0.48    0.14
   2   4   8    0.46    0.13
  -3  -4  -8    0.07    0.15
  -3  -4  -8    0.05    0.14
   3   4   8    0.05    0.16
  -4  -4  -8    0.20    0.19
  -4   5   8    0.67    0.15
  -4   5   8    0.29    0.17
   3  -5  -8    0.02    0.12
  -3   5   8    0.00    0.10
  -3   5   8    0.03    0.12
   2  -5  -8    0.14    0.09
   2  -5  -8    0.02    0.12
  -2   5   8    0.13    0.11
  -2   5   8    0.07    0.10
   1  -5  -8    3.69    0.23
   1  -5  -8    3.63    0.19
  -1   5   8    3.32    0.20
  -1   5   8    3.48    0.21
   0  -5  -8    3.80    0.23
   0  -5  -8    3.32    0.23
   0   5   8    3.31    0.21
   0   5   8    3.60    0.22
  -1  -5  -8    4.95    0.28
  -1  -5  -8    5.53    0.28
   1   5   8    5.10    0.27
   1   5   8    5.78    0.28
  -2  -5  -8    3.62    0.25
  -2  -5  -8    3.03    0.24
   2   5   8    3.58    0.25
  -3  -5  -8   -0.03    0.17
  -3  -5  -8    0.14    0.16
   3   5   8    0.11    0.18
  -4  -5  -8    0.24    0.21
   4   5   8    0.19    0.24
  -4   6   8    0.01    0.18
  -4   6   8    0.01    0.15
  -3   6   8    0.09    0.13
  -3   6   8    0.21    0.14
   2  -6  -8    0.23    0.14
  -2   6   8    0.35    0.13
  -2   6   8    0.42    0.12
   1  -6  -8    1.50    0.17
  -1   6   8    1.76    0.18
  -1   6   8    1.63    0.17
   0  -6  -8    0.71    0.15
   0  -6  -8    0.99    0.15
   0   6   8    0.51    0.12
   0   6   8    0.99    0.15
  -1  -6  -8   10.10    0.43
  -1  -6  -8   10.30    0.42
   1   6   8    9.70    0.42
  -2  -6  -8    1.06    0.18
  -2  -6  -8    1.65    0.20
   2   6   8    0.93    0.18
  -3  -6  -8    0.45    0.18
   3   6   8    1.04    0.22
  -4   7   8   -0.07    0.18
  -4   7   8    0.06    0.20
  -3   7   8    0.11    0.14
  -3   7   8    0.11    0.16
   2  -7  -8    0.33    0.15
  -2   7   8    0.24    0.14
  -2   7   8    0.23    0.14
   1  -7  -8    0.46    0.16
  -1   7   8    0.43    0.14
  -1   7   8    0.38    0.14
   0  -7  -8    1.16    0.17
   0  -7  -8    1.14    0.17
   0   7   8    1.09    0.17
  -1  -7  -8    1.15    0.18
  -1  -7  -8    1.03    0.18
   1   7   8    0.68    0.16
  -2  -7  -8    0.53    0.16
  -2  -7  -8    0.68    0.19
   2   7   8    0.88    0.20
  -3  -7  -8   -0.03    0.19
   3   7   8    0.05    0.22
  -3   8   8    0.86    0.19
  -3   8   8    0.65    0.18
   2  -8  -8   -0.04    0.18
  -2   8   8   -0.07    0.14
   1  -8  -8    0.21    0.17
   1  -8  -8    0.20    0.15
  -1   8   8    0.24    0.15
   0  -8  -8    1.47    0.20
   0  -8  -8    1.34    0.20
   0   8   8    1.13    0.18
  -1  -8  -8    0.38    0.17
  -1  -8  -8    0.17    0.16
   1   8   8    0.39    0.17
  -2  -8  -8    0.11    0.18
  -2  -8  -8    0.05    0.19
   2   8   8   -0.02    0.19
  -3   9   8    0.37    0.21
   2  -9  -8    0.40    0.21
  -2   9   8    0.17    0.17
   1  -9  -8    0.72    0.18
   1  -9  -8    1.40    0.23
  -1   9   8    1.28    0.21
   0  -9  -8    0.29    0.16
   0  -9  -8    0.14    0.20
   0   9   8    0.12    0.16
  -1  -9  -8   -0.02    0.20
  -1  -9  -8    0.02    0.16
   1   9   8   -0.03    0.18
  -2  -9  -8    0.16    0.24
  -2  -9  -8    0.02    0.21
   2   9   8   -0.04    0.21
   2 -10  -8    0.65    0.24
  -2  10   8    0.68    0.22
   1 -10  -8    1.01    0.25
   1 -10  -8    1.18    0.21
  -1  10   8    1.49    0.25
   0 -10  -8    0.64    0.23
   0 -10  -8    0.78    0.21
   0  10   8    0.71    0.21
  -1 -10  -8   -0.12    0.19
  -1 -10  -8    0.00    0.24
   1  10   8   -0.12    0.20
   0  12  -9    0.11    0.13
   0  12  -9   -0.04    0.26
   0 -12   9    0.01    0.23
  -1  12  -9    0.57    0.29
  -1  12  -9    0.60    0.14
   1 -12   9    0.62    0.23
   1  11  -9    1.07    0.12
   1  11  -9    0.91    0.28
  -1 -11   9    0.63    0.26
   0  11  -9    0.04    0.10
   0  11  -9   -0.02    0.21
   0 -11   9   -0.02    0.19
  -1  11  -9    0.26    0.10
  -1  11  -9    0.40    0.24
   1 -11   9    0.46    0.20
  -2  11  -9    0.07    0.23
  -2  11  -9    0.01    0.13
   2 -11   9    0.28    0.21
   2  10  -9    0.35    0.10
   2  10  -9    0.21    0.21
   2  10  -9    0.41    0.26
  -2 -10   9    0.14    0.26
   1  10  -9   -0.03    0.20
   1  10  -9    0.10    0.08
  -1 -10   9    0.04    0.19
  -1 -10   9    0.24    0.18
   0  10  -9    0.34    0.09
   0  10  -9    0.24    0.20
   0 -10   9    0.25    0.16
  -1  10  -9    0.00    0.08
  -1  10  -9    0.03    0.19
   1 -10   9    0.01    0.16
  -2  10  -9   -0.01    0.10
  -2  10  -9    0.02    0.18
   2 -10   9   -0.04    0.17
  -3  10  -9    0.12    0.23
  -3  10  -9    0.12    0.14
   3 -10   9    0.20    0.20
   3   9  -9    0.05    0.11
   3   9  -9    0.00    0.23
  -3  -9   9   -0.10    0.29
   2   9  -9   -0.07    0.18
   2   9  -9   -0.02    0.08
  -2  -9   9   -0.04    0.21
   1   9  -9    0.00    0.17
   1   9  -9    0.03    0.06
  -1  -9   9    0.11    0.15
  -1  -9   9    0.14    0.17
   0   9  -9    1.68    0.11
   0   9  -9    1.60    0.22
   0  -9   9    1.29    0.18
  -1   9  -9    0.40    0.08
  -1   9  -9    0.26    0.18
   1  -9   9    0.27    0.14
  -2   9  -9    0.71    0.12
  -2   9  -9    0.77    0.20
   2  -9   9    0.82    0.17
  -3   9  -9    0.23    0.21
  -3   9  -9    0.28    0.14
   3  -9   9    0.39    0.17
   3   8  -9    0.07    0.20
   3   8  -9    0.05    0.09
  -3  -8   9    0.01    0.18
  -3  -8   9   -0.07    0.23
   2   8  -9    0.96    0.09
   2   8  -9    1.18    0.19
  -2  -8   9    1.13    0.23
  -2  -8   9    1.04    0.19
   1   8  -9    4.13    0.26
   1   8  -9    4.37    0.32
  -1  -8   9    4.77    0.27
  -1  -8   9    4.65    0.27
   0   8  -9    1.12    0.19
   0   8  -9    0.97    0.08
   0  -8   9    0.94    0.15
  -1   8  -9    3.57    0.17
  -1   8  -9    3.58    0.27
   1  -8   9    3.99    0.25
  -2   8  -9    0.06    0.09
  -2   8  -9    0.03    0.15
   2  -8   9    0.09    0.14
  -3   8  -9    0.70    0.18
  -3   8  -9    0.79    0.14
  -3   8  -9    0.69    0.21
   3  -8   9    0.67    0.17
   3  -8   9    0.78    0.08
  -4   8  -9    0.00    0.25
  -4   8  -9   -0.02    0.23
  -4   8  -9   -0.08    0.17
   4  -8   9    0.08    0.12
   4  -8   9    0.06    0.22
   3   7  -9    0.33    0.08
   3   7  -9    0.34    0.19
  -3  -7   9    0.40    0.23
  -3  -7   9    0.18    0.18
   2   7  -9    0.60    0.16
  -2  -7   9    0.53    0.19
  -2  -7   9    0.61    0.16
   1   7  -9    6.04    0.34
   1   7  -9    5.81    0.29
  -1  -7   9    5.95    0.33
  -1  -7   9    5.85    0.29
  -1  -7   9    6.31    0.29
   0   7  -9    0.80    0.15
   0   7  -9    0.71    0.07
   0  -7   9    0.57    0.12
  -1   7  -9    0.19    0.07
  -1   7  -9    0.15    0.13
   1  -7   9    0.24    0.12
  -2   7  -9    1.74    0.15
  -2   7  -9    2.08    0.20
  -2   7  -9    1.99    0.21
   2  -7   9    2.06    0.20
  -3   7  -9    0.84    0.18
  -3   7  -9    1.02    0.14
  -3   7  -9    0.88    0.20
   3  -7   9    1.04    0.18
   3  -7   9    0.69    0.10
  -4   7  -9    0.16    0.17
  -4   7  -9    0.08    0.21
  -4   7  -9    0.00    0.23
   4  -7   9    0.00    0.11
   4  -7   9   -0.08    0.19
   4   6  -9    0.07    0.21
  -4  -6   9    0.01    0.21
  -4  -6   9   -0.06    0.25
   3   6  -9    0.61    0.16
   3   6  -9    0.67    0.09
  -3  -6   9    0.96    0.22
  -3  -6   9    0.69    0.16
   2   6  -9    0.24    0.05
   2   6  -9    0.22    0.13
  -2  -6   9    0.19    0.13
  -2  -6   9    0.38    0.16
   1   6  -9    4.37    0.27
   1   6  -9    4.44    0.23
   1   6  -9    4.62    0.24
  -1  -6   9    4.06    0.22
  -1  -6   9    4.69    0.27
  -1  -6   9    4.19    0.23
   0   6  -9    9.30    0.37
   0   6  -9    8.72    0.39
   0   6  -9    9.28    0.30
   0  -6   9    9.02    0.36
  -1   6  -9    0.00    0.11
  -1   6  -9    0.02    0.11
  -1   6  -9    0.04    0.06
   1  -6   9    0.03    0.10
  -2   6  -9   -0.03    0.12
  -2   6  -9    0.00    0.07
  -2   6  -9    0.09    0.13
   2  -6   9    0.02    0.12
  -3   6  -9    0.10    0.11
  -3   6  -9   -0.05    0.14
  -3   6  -9    0.03    0.15
   3  -6   9   -0.08    0.14
   3  -6   9    0.01    0.07
  -4   6  -9    0.16    0.20
  -4   6  -9    0.17    0.23
  -4   6  -9   -0.05    0.16
   4  -6   9    0.06    0.11
   4  -6   9    0.19    0.19
   4   5  -9    0.44    0.20
   4   5  -9    0.71    0.12
  -4  -5   9    0.41    0.26
  -4  -5   9    0.54    0.19
   3   5  -9    0.34    0.08
   3   5  -9    0.19    0.13
  -3  -5   9    0.21    0.18
  -3  -5   9    0.15    0.15
   2   5  -9   25.24    0.80
  -2  -5   9   25.50    0.89
  -2  -5   9   24.49    0.87
   1   5  -9    0.92    0.13
   1   5  -9    0.95    0.15
  -1  -5   9    0.79    0.14
  -1  -5   9    0.84    0.12
  -1  -5   9    0.88    0.13
   0   5  -9   12.51    0.40
   0   5  -9   11.99    0.47
   0   5  -9   12.19    0.41
   0   5  -9   12.13    0.46
   0  -5   9   12.41    0.46
   0  -5   9   12.92    0.44
  -1   5  -9    2.11    0.18
  -1   5  -9    2.11    0.18
  -1   5  -9    2.42    0.12
   1  -5   9    2.52    0.18
  -2   5  -9    0.14    0.12
  -2   5  -9    0.06    0.11
  -2   5  -9    0.08    0.08
   2  -5   9    0.03    0.05
   2  -5   9   -0.01    0.11
  -3   5  -9    0.07    0.11
  -3   5  -9    0.19    0.16
  -3   5  -9    0.23    0.15
   3  -5   9    0.27    0.09
   3  -5   9    0.26    0.14
  -4   5  -9   -0.02    0.19
  -4   5  -9   -0.05    0.15
  -4   5  -9   -0.07    0.21
   4  -5   9    0.06    0.11
   4   4  -9    0.69    0.20
   4   4  -9    0.59    0.11
  -4  -4   9    0.41    0.20
   3   4  -9    4.58    0.20
  -3  -4   9    4.62    0.29
  -3  -4   9    4.81    0.31
   2   4  -9    8.75    0.29
  -2  -4   9    8.28    0.38
  -2  -4   9    8.72    0.37
   1   4  -9    0.10    0.10
   1   4  -9    0.17    0.04
   1   4  -9    0.12    0.03
  -1  -4   9    0.06    0.10
  -1  -4   9    0.06    0.09
  -1  -4   9    0.36    0.11
   0   4  -9    0.91    0.12
   0   4  -9    1.15    0.12
   0   4  -9    0.93    0.07
   0   4  -9    0.95    0.09
   0  -4   9    1.11    0.12
   0  -4   9    1.32    0.12
  -1   4  -9    0.13    0.09
  -1   4  -9    0.17    0.06
  -1   4  -9    0.15    0.10
   1  -4   9    0.18    0.10
  -2   4  -9    0.88    0.14
  -2   4  -9    1.11    0.11
  -2   4  -9    1.30    0.16
   2  -4   9    1.03    0.10
   2  -4   9    1.11    0.14
  -3   4  -9    6.37    0.34
  -3   4  -9    5.69    0.27
  -3   4  -9    5.55    0.30
   3  -4   9    5.74    0.25
  -4   4  -9    1.39    0.25
  -4   4  -9    1.30    0.21
   4  -4   9    0.81    0.14
   4   3  -9    0.20    0.10
  -4  -3   9    0.15    0.17
   3   3  -9    0.89    0.09
  -3  -3   9    1.20    0.17
   2   3  -9   23.47    0.77
  -2  -3   9   24.30    0.83
  -2  -3   9   24.27    0.83
   1   3  -9    0.08    0.05
   1   3  -9    0.09    0.04
   1   3  -9    0.12    0.09
  -1  -3   9    0.05    0.09
  -1  -3   9    0.10    0.08
   0   3  -9    1.46    0.13
   0   3  -9    1.31    0.08
   0   3  -9    1.49    0.12
   0  -3   9    1.68    0.12
  -1   3  -9    2.99    0.19
  -1   3  -9    2.79    0.17
  -1   3  -9    3.13    0.14
  -2   3  -9    5.44    0.26
  -2   3  -9    4.90    0.22
  -2   3  -9    4.35    0.25
   2  -3   9    4.79    0.21
  -3   3  -9   -0.04    0.13
  -3   3  -9    0.05    0.11
  -3   3  -9    0.02    0.17
   3  -3   9    0.02    0.08
  -4   3  -9    1.46    0.24
  -4   3  -9    1.25    0.23
   4  -3   9    1.24    0.16
   4   2  -9    0.94    0.13
  -4  -2   9    1.09    0.21
   3   2  -9    0.17    0.08
  -3  -2   9    0.06    0.12
   2   2  -9    0.84    0.07
  -2  -2   9    0.93    0.13
   1   2  -9    0.18    0.09
   1   2  -9    0.22    0.04
  -1  -2   9    0.14    0.08
   0   2  -9    5.25    0.25
   0   2  -9    6.08    0.21
   0  -2   9    6.03    0.24
  -1   2  -9    1.65    0.10
  -1   2  -9    1.42    0.13
  -1   2  -9    1.19    0.12
   1  -2   9    1.56    0.11
   1  -2   9    1.58    0.09
  -2   2  -9   20.88    0.71
  -2   2  -9   19.95    0.69
  -2   2  -9   19.94    0.71
   2  -2   9   20.63    0.69
  -3   2  -9   10.29    0.44
  -3   2  -9    8.93    0.41
  -3   2  -9   10.64    0.40
   3  -2   9    9.55    0.39
  -4   2  -9    0.08    0.18
   4  -2   9    0.09    0.13
   5   1  -9    0.01    0.15
  -5  -1   9    0.00    0.23
   4   1  -9    0.12    0.10
  -4  -1   9   -0.08    0.16
   3   1  -9    4.44    0.20
  -3  -1   9    4.83    0.27
   2   1  -9    3.57    0.15
   2   1  -9    3.08    0.21
  -2  -1   9    3.32    0.19
   1   1  -9   13.96    0.47
   1   1  -9   13.71    0.49
  -1  -1   9   14.33    0.50
   0   1  -9    3.74    0.21
   0   1  -9    4.61    0.18
   0  -1   9    4.56    0.16
   0  -1   9    4.56    0.16
   0  -1   9    4.73    0.20
  -1   1  -9   11.94    0.41
  -1   1  -9   11.55    0.44
   1  -1   9   12.26    0.42
   1  -1   9   11.65    0.41
  -2   1  -9    0.05    0.08
  -2   1  -9    0.01    0.10
  -2   1  -9    0.07    0.10
   2  -1   9    0.08    0.08
  -3   1  -9    0.11    0.11
  -3   1  -9    0.15    0.13
  -3   1  -9    0.16    0.13
   3  -1   9    0.11    0.10
  -4   1  -9    0.40    0.19
   4  -1   9    0.30    0.14
   5   0  -9    0.86    0.18
  -5   0   9    0.52    0.25
   4   0  -9    0.64    0.12
  -4   0   9    0.52    0.18
   3   0  -9    0.20    0.07
  -3   0   9    0.15    0.10
  -3   0   9    0.24    0.05
   2   0  -9    0.11    0.06
   2   0  -9    0.12    0.09
  -2   0   9    0.17    0.08
  -2   0   9    0.18    0.04
  -2   0   9    0.19    0.09
   1   0  -9    0.07    0.08
   1   0  -9    0.11    0.05
  -1   0   9    0.04    0.05
  -1   0   9    0.03    0.07
   0   0  -9    0.07    0.08
   0   0  -9    0.01    0.04
   0   0   9    0.00    0.04
   0   0   9    0.02    0.07
  -1   0  -9    2.87    0.18
  -1   0  -9    3.42    0.16
   1   0   9    3.62    0.17
   1   0   9    3.21    0.16
  -2   0  -9   27.13    0.91
  -2   0  -9   26.76    0.93
   2   0   9   27.97    0.92
   2   0   9   27.62    0.91
  -3   0  -9    1.13    0.18
  -3   0  -9    1.26    0.17
   3   0   9    1.15    0.15
  -4   0  -9    0.34    0.21
   4   0   9    0.31    0.15
   5  -1  -9    0.14    0.17
  -5   1   9   -0.04    0.23
  -5   1   9    0.08    0.11
   4  -1  -9    0.02    0.10
  -4   1   9    0.05    0.08
  -4   1   9    0.00    0.16
  -3   1   9    1.85    0.12
  -3   1   9    2.10    0.19
   2  -1  -9    6.41    0.27
   2  -1  -9    6.49    0.25
  -2   1   9    6.06    0.27
  -2   1   9    6.21    0.23
   1  -1  -9   -0.01    0.08
   1  -1  -9    0.06    0.06
  -1   1   9    0.04    0.08
  -1   1   9    0.07    0.05
   0  -1  -9    5.70    0.22
   0  -1  -9    5.10    0.25
   0   1   9    5.58    0.22
   0   1   9    5.33    0.23
  -1  -1  -9    0.30    0.08
  -1  -1  -9    0.30    0.10
   1   1   9    0.36    0.08
   1   1   9    0.41    0.09
  -2  -1  -9    0.35    0.10
  -2  -1  -9    0.48    0.13
   2   1   9    0.46    0.11
   2   1   9    0.50    0.10
  -3  -1  -9    0.74    0.16
   3   1   9    0.74    0.14
   4   1   9    0.05    0.16
   5  -2  -9    0.49    0.19
  -5   2   9    0.29    0.13
  -5   2   9    0.07    0.24
   4  -2  -9    0.12    0.11
  -4   2   9    0.05    0.09
  -4   2   9    0.03    0.15
   3  -2  -9    0.34    0.09
  -3   2   9    0.34    0.13
  -3   2   9    0.52    0.09
   2  -2  -9    0.15    0.10
   2  -2  -9    0.17    0.07
  -2   2   9    0.19    0.07
  -2   2   9    0.11    0.10
   1  -2  -9    0.29    0.07
   1  -2  -9    0.37    0.10
  -1   2   9    0.28    0.07
  -1   2   9    0.39    0.09
   0  -2  -9    1.84    0.13
   0  -2  -9    1.94    0.15
   0   2   9    1.41    0.12
   0   2   9    1.75    0.14
  -1  -2  -9    0.18    0.08
  -1  -2  -9    0.17    0.10
   1   2   9    0.25    0.09
   1   2   9    0.17    0.09
  -2  -2  -9    1.29    0.13
  -2  -2  -9    1.06    0.15
   2   2   9    1.21    0.14
   2   2   9    0.89    0.13
  -3  -2  -9    0.32    0.15
   3   2   9    0.54    0.15
   4  -3  -9    0.40    0.13
  -4   3   9    0.36    0.15
  -4   3   9    0.32    0.11
   3  -3  -9    4.12    0.22
  -3   3   9    3.99    0.21
  -3   3   9    4.40    0.25
   2  -3  -9    3.89    0.20
   2  -3  -9    3.73    0.22
  -2   3   9    4.05    0.22
  -2   3   9    3.90    0.19
   1  -3  -9   10.85    0.39
   1  -3  -9   10.67    0.42
  -1   3   9   10.36    0.39
  -1   3   9   11.25    0.42
   0  -3  -9    1.61    0.16
   0  -3  -9    1.54    0.13
   0   3   9    1.35    0.13
   0   3   9    1.63    0.15
  -1  -3  -9    0.24    0.12
  -1  -3  -9    0.23    0.09
   1   3   9    0.50    0.11
   1   3   9    0.32    0.10
  -2  -3  -9    0.00    0.12
   2   3   9    0.08    0.11
   2   3   9    0.03    0.11
  -3  -3  -9    0.83    0.18
   3   3   9    1.03    0.18
   3   3   9    0.96    0.17
   4  -4  -9    0.16    0.14
  -4   4   9    0.16    0.17
  -4   4   9    0.12    0.12
  -3   4   9    1.00    0.13
   2  -4  -9    0.54    0.09
   2  -4  -9    0.74    0.15
  -2   4   9    0.59    0.12
  -2   4   9    0.45    0.10
   1  -4  -9    0.05    0.11
   1  -4  -9    0.02    0.08
  -1   4   9    0.04    0.08
  -1   4   9   -0.01    0.09
   0  -4  -9    3.52    0.22
   0  -4  -9    3.24    0.19
   0   4   9    3.57    0.20
   0   4   9    3.22    0.21
  -1  -4  -9    0.56    0.14
   1   4   9    0.64    0.12
   1   4   9    0.47    0.12
  -2  -4  -9    0.84    0.16
   2   4   9    0.90    0.15
   2   4   9    0.79    0.15
  -3  -4  -9    0.51    0.20
   3   4   9    0.33    0.17
  -4   5   9    0.01    0.14
  -4   5   9    0.00    0.17
  -3   5   9    0.13    0.11
  -3   5   9   -0.04    0.14
   2  -5  -9    0.71    0.16
   2  -5  -9    0.96    0.13
  -2   5   9    0.94    0.15
  -2   5   9    0.68    0.12
   1  -5  -9    0.35    0.10
   1  -5  -9    0.32    0.13
  -1   5   9    0.43    0.10
  -1   5   9    0.39    0.12
   0  -5  -9    5.33    0.29
   0   5   9    5.22    0.26
   0   5   9    5.46    0.28
  -1  -5  -9    0.84    0.16
   1   5   9    0.43    0.13
   1   5   9    0.75    0.15
  -2  -5  -9    0.07    0.14
  -2  -5  -9   -0.06    0.15
   2   5   9    0.07    0.13
  -3  -5  -9   -0.06    0.16
  -3  -5  -9    0.06    0.19
   3   5   9    0.15    0.17
  -4   6   9    0.03    0.17
  -4   6   9   -0.04    0.19
  -3   6   9    0.15    0.15
   2  -6  -9   -0.03    0.15
  -2   6   9   -0.07    0.12
  -2   6   9   -0.02    0.12
   1  -6  -9   -0.04    0.14
  -1   6   9    0.04    0.11
  -1   6   9    0.00    0.10
   0  -6  -9   -0.06    0.13
   0   6   9    0.10    0.12
   0   6   9    0.03    0.11
  -1  -6  -9    0.83    0.17
  -1  -6  -9    0.99    0.17
   1   6   9    1.02    0.17
   1   6   9    0.95    0.21
  -2  -6  -9    1.88    0.22
  -2  -6  -9    1.51    0.21
   2   6   9    1.24    0.20
  -3  -6  -9    0.09    0.19
  -3  -6  -9    0.21    0.27
   3   6   9    0.21    0.20
  -4   7   9    0.24    0.20
  -4   7   9    0.33    0.23
  -3   7   9    0.28    0.15
  -3   7   9    0.26    0.18
   2  -7  -9    0.82    0.19
  -2   7   9    0.86    0.16
  -2   7   9    0.81    0.16
   1  -7  -9    0.37    0.16
  -1   7   9    0.35    0.14
  -1   7   9    0.40    0.14
   0  -7  -9    3.69    0.27
   0   7   9    3.67    0.26
  -1  -7  -9    0.19    0.16
  -1  -7  -9    0.24    0.17
   1   7   9    0.12    0.15
  -2  -7  -9    0.11    0.20
  -2  -7  -9    0.05    0.16
   2   7   9    0.01    0.17
  -3  -7  -9   -0.03    0.22
  -3   8   9    0.21    0.20
  -3   8   9    0.11    0.18
   2  -8  -9    0.32    0.21
  -2   8   9    0.49    0.18
  -2   8   9    0.23    0.17
   1  -8  -9    0.12    0.17
  -1   8   9    0.07    0.15
   0  -8  -9    0.55    0.19
   0  -8  -9    0.68    0.20
   0   8   9    0.34    0.16
  -1  -8  -9    0.21    0.18
  -1  -8  -9    0.26    0.18
   1   8   9    0.18    0.17
  -2  -8  -9    0.17    0.21
  -2  -8  -9    0.21    0.20
   2   8   9    0.02    0.20
   2  -9  -9    0.26    0.22
  -2   9   9    0.27    0.19
   1  -9  -9    0.54    0.22
  -1   9   9    0.42    0.19
   0  -9  -9   -0.06    0.20
   0  -9  -9    0.00    0.17
   0   9   9   -0.05    0.18
  -1  -9  -9    0.45    0.20
  -1  -9  -9    0.45    0.22
   1   9   9    0.22    0.19
   1 -10  -9    1.36    0.28
   1 -10  -9    1.02    0.28
  -1  10   9    1.37    0.26
   0 -10  -9   -0.06    0.24
   0 -10  -9    0.01    0.19
   0  10   9   -0.06    0.22
   1  11 -10    0.02    0.26
   1  11 -10    0.24    0.09
  -1 -11  10    0.10    0.24
   0  11 -10    0.45    0.11
   0  11 -10    0.57    0.25
   0 -11  10    0.72    0.22
  -1  11 -10   -0.01    0.10
  -1  11 -10   -0.08    0.24
   1 -11  10    0.07    0.20
  -2  11 -10    0.06    0.14
  -2  11 -10    0.11    0.25
   2 -11  10    0.07    0.20
   2  10 -10    0.40    0.10
   2  10 -10    0.69    0.29
  -2 -10  10    0.51    0.26
   1  10 -10    0.24    0.07
   1  10 -10    0.56    0.25
  -1 -10  10    0.19    0.23
   0  10 -10    0.05    0.20
   0  10 -10    0.06    0.08
   0 -10  10    0.10    0.16
  -1  10 -10    0.39    0.21
  -1  10 -10    0.20    0.09
   1 -10  10    0.24    0.16
  -2  10 -10    0.02    0.20
  -2  10 -10    0.07    0.12
   2 -10  10    0.16    0.18
  -3  10 -10   -0.07    0.22
  -3  10 -10   -0.04    0.15
  -3  10 -10    0.02    0.26
   3 -10  10    0.00    0.20
   2   9 -10    0.49    0.08
   2   9 -10    0.54    0.20
  -2  -9  10    0.98    0.26
   1   9 -10    0.06    0.20
  -1  -9  10    0.20    0.20
  -1  -9  10    0.09    0.16
   0   9 -10    0.38    0.07
   0   9 -10    0.35    0.19
   0  -9  10    0.44    0.16
  -1   9 -10   -0.02    0.07
  -1   9 -10   -0.07    0.17
   1  -9  10    0.05    0.14
  -2   9 -10    0.23    0.18
  -2   9 -10    0.23    0.11
   2  -9  10    0.16    0.16
  -3   9 -10    0.38    0.23
  -3   9 -10    0.57    0.22
  -3   9 -10    0.37    0.15
   3  -9  10    0.50    0.21
   3   8 -10    0.02    0.21
   3   8 -10    0.02    0.09
  -3  -8  10    0.14    0.22
  -3  -8  10   -0.11    0.26
   2   8 -10    0.13    0.16
   2   8 -10    0.00    0.06
  -2  -8  10    0.07    0.17
  -2  -8  10   -0.02    0.20
   1   8 -10    4.28    0.26
   1   8 -10    3.84    0.32
  -1  -8  10    3.44    0.30
  -1  -8  10    4.06    0.25
   0   8 -10    1.04    0.19
   0   8 -10    1.01    0.08
   0  -8  10    0.97    0.16
  -1   8 -10    1.40    0.12
  -1   8 -10    1.29    0.21
   1  -8  10    1.62    0.18
  -2   8 -10    0.08    0.15
  -2   8 -10    0.17    0.17
  -2   8 -10    0.11    0.09
   2  -8  10   -0.03    0.14
  -3   8 -10    0.06    0.12
  -3   8 -10    0.04    0.20
  -3   8 -10    0.02    0.18
   3  -8  10   -0.02    0.17
  -4   8 -10    0.08    0.20
  -4   8 -10    0.09    0.29
  -4   8 -10    0.01    0.26
   4  -8  10   -0.04    0.24
   4  -8  10    0.07    0.12
   3   7 -10    0.51    0.19
  -3  -7  10    0.52    0.24
  -3  -7  10    0.36    0.19
   2   7 -10    0.17    0.15
   2   7 -10    0.13    0.05
  -2  -7  10    0.11    0.17
  -2  -7  10   -0.03    0.14
   1   7 -10    0.11    0.12
   1   7 -10    0.34    0.14
   1   7 -10    0.27    0.16
  -1  -7  10    0.20    0.16
  -1  -7  10    0.33    0.13
  -1  -7  10    0.25    0.13
   0   7 -10   -0.03    0.12
   0   7 -10   -0.01    0.13
   0   7 -10    0.02    0.05
   0  -7  10   -0.01    0.11
  -1   7 -10    0.81    0.15
  -1   7 -10    1.03    0.09
  -1   7 -10    1.10    0.18
   1  -7  10    0.98    0.15
  -2   7 -10    2.43    0.21
  -2   7 -10    2.40    0.17
  -2   7 -10    2.73    0.25
   2  -7  10    2.52    0.21
  -3   7 -10    0.55    0.18
  -3   7 -10    0.59    0.13
  -3   7 -10    0.32    0.20
   3  -7  10    0.55    0.09
   3  -7  10    0.45    0.17
  -4   7 -10    0.38    0.19
  -4   7 -10    0.50    0.27
  -4   7 -10    0.27    0.25
   4  -7  10    0.09    0.23
   4  -7  10    0.15    0.12
   4   6 -10    0.00    0.12
   4   6 -10   -0.09    0.22
  -4  -6  10    0.06    0.22
   3   6 -10    0.29    0.18
   3   6 -10    0.30    0.08
  -3  -6  10    0.19    0.17
   2   6 -10    0.72    0.07
   2   6 -10    0.73    0.16
  -2  -6  10    1.04    0.17
  -2  -6  10    0.74    0.18
   1   6 -10    0.08    0.14
   1   6 -10    0.10    0.13
  -1  -6  10    0.05    0.12
  -1  -6  10    0.00    0.13
  -1  -6  10    0.03    0.11
   0   6 -10    0.38    0.13
   0   6 -10    0.59    0.06
   0   6 -10    0.58    0.13
   0  -6  10    0.38    0.12
  -1   6 -10    0.06    0.13
  -1   6 -10    0.11    0.12
  -1   6 -10    0.15    0.06
   1  -6  10    0.11    0.12
  -2   6 -10    3.74    0.27
  -2   6 -10    3.60    0.19
  -2   6 -10    3.58    0.26
   2  -6  10    3.73    0.25
  -3   6 -10    1.49    0.21
  -3   6 -10    1.50    0.16
  -3   6 -10    1.62    0.23
   3  -6  10    1.20    0.12
   3  -6  10    1.21    0.19
  -4   6 -10    0.49    0.25
  -4   6 -10    0.78    0.24
  -4   6 -10    0.54    0.18
   4  -6  10    0.36    0.13
   4   5 -10    0.24    0.12
   4   5 -10    0.40    0.23
  -4  -5  10    0.38    0.22
   3   5 -10   -0.02    0.07
  -3  -5  10    0.03    0.16
   2   5 -10   -0.01    0.04
  -2  -5  10   -0.08    0.13
   1   5 -10    4.97    0.31
   1   5 -10    6.01    0.28
  -1  -5  10    6.02    0.28
  -1  -5  10    5.88    0.27
  -1  -5  10    6.17    0.30
   0   5 -10    0.46    0.12
   0   5 -10    0.62    0.06
   0   5 -10    0.56    0.13
   0  -5  10    0.60    0.11
   0  -5  10    0.43    0.12
  -1   5 -10    5.15    0.27
  -1   5 -10    4.37    0.25
  -1   5 -10    4.98    0.20
   1  -5  10    4.99    0.25
  -2   5 -10    3.86    0.20
  -2   5 -10    4.43    0.26
  -2   5 -10    4.16    0.25
   2  -5  10    3.64    0.15
   2  -5  10    3.82    0.24
  -3   5 -10    0.09    0.17
  -3   5 -10    0.08    0.11
  -3   5 -10    0.22    0.17
   3  -5  10    0.12    0.09
   3  -5  10    0.10    0.16
  -4   5 -10    0.18    0.16
  -4   5 -10    0.17    0.21
  -4   5 -10    0.22    0.25
   4  -5  10    0.19    0.12
   4   4 -10    0.57    0.12
  -4  -4  10    0.39    0.21
   3   4 -10    2.25    0.14
  -3  -4  10    2.19    0.24
   2   4 -10    0.02    0.05
  -2  -4  10    0.02    0.12
   1   4 -10   24.37    0.78
   1   4 -10   24.28    0.83
  -1  -4  10   24.87    0.83
   0   4 -10    0.04    0.11
   0   4 -10    0.08    0.05
   0  -4  10    0.08    0.09
   0  -4  10   -0.02    0.10
  -1   4 -10    6.65    0.31
  -1   4 -10    6.04    0.28
  -1   4 -10    6.74    0.25
   1  -4  10    6.73    0.30
  -2   4 -10    0.87    0.15
  -2   4 -10    0.79    0.10
  -2   4 -10    0.69    0.14
   2  -4  10    0.63    0.08
  -3   4 -10    0.41    0.12
  -3   4 -10    0.26    0.18
  -3   4 -10    0.46    0.17
   3  -4  10    0.37    0.10
  -4   4 -10    0.18    0.23
  -4   4 -10    0.13    0.20
   4  -4  10    0.09    0.12
   4   3 -10    0.03    0.11
  -4  -3  10   -0.01    0.19
   3   3 -10    5.97    0.24
  -3  -3  10    5.74    0.32
   2   3 -10    0.71    0.07
  -2  -3  10    0.82    0.14
   1   3 -10    2.84    0.19
   1   3 -10    3.20    0.13
  -1  -3  10    3.30    0.19
   0   3 -10    5.69    0.26
   0   3 -10    5.31    0.20
   0  -3  10    5.69    0.24
  -1   3 -10    0.04    0.11
  -1   3 -10    0.02    0.06
  -2   3 -10    0.51    0.15
  -2   3 -10    0.71    0.14
  -2   3 -10    0.64    0.10
   2  -3  10    0.52    0.08
  -3   3 -10    0.29    0.12
  -3   3 -10    0.27    0.15
  -3   3 -10    0.41    0.18
   3  -3  10    0.25    0.10
  -4   3 -10    0.21    0.22
  -4   3 -10    0.25    0.19
   4  -3  10    0.17    0.13
   4   2 -10    0.03    0.11
  -4  -2  10   -0.07    0.18
   3   2 -10    2.69    0.16
  -3  -2  10    3.01    0.24
   2   2 -10    1.92    0.11
  -2  -2  10    2.17    0.17
   1   2 -10    0.16    0.05
   1   2 -10    0.24    0.09
  -1  -2  10    0.15    0.09
   0   2 -10    2.37    0.12
   0   2 -10    2.10    0.16
   0  -2  10    2.11    0.14
  -1   2 -10    4.06    0.22
  -1   2 -10    3.78    0.18
   1  -2  10    4.06    0.19
   1  -2  10    3.94    0.16
  -2   2 -10   14.71    0.55
  -2   2 -10   14.15    0.51
   2  -2  10   14.94    0.52
  -3   2 -10    0.68    0.13
  -3   2 -10    0.84    0.16
   3  -2  10    0.65    0.12
   4  -2  10    0.18    0.14
   4   1 -10    1.95    0.18
  -4  -1  10    1.71    0.23
   3   1 -10    0.80    0.10
  -3  -1  10    0.71    0.16
   2   1 -10    1.66    0.11
  -2  -1  10    1.99    0.16
   1   1 -10    0.03    0.05
   1   1 -10    0.02    0.09
  -1  -1  10    0.01    0.07
   0   1 -10    0.83    0.11
   0   1 -10    1.01    0.09
   0  -1  10    1.06    0.06
   0  -1  10    1.12    0.11
   0  -1  10    1.12    0.07
  -1   1 -10    0.20    0.07
  -1   1 -10    0.18    0.10
   1  -1  10    0.19    0.08
   1  -1  10    0.18    0.06
  -2   1 -10    0.17    0.09
  -2   1 -10    0.23    0.12
   2  -1  10    0.24    0.09
  -3   1 -10    1.31    0.16
  -3   1 -10    1.27    0.18
   3  -1  10    1.47    0.16
   4  -1  10    0.38    0.16
   4   0 -10    0.90    0.13
  -4   0  10    1.47    0.21
   3   0 -10    0.06    0.08
  -3   0  10    0.02    0.12
   2   0 -10   -0.03    0.06
   2   0 -10   -0.03    0.10
  -2   0  10    0.02    0.09
   1   0 -10    1.26    0.14
   1   0 -10    1.32    0.10
  -1   0  10    1.29    0.08
  -1   0  10    1.22    0.12
   0   0 -10    1.60    0.12
   0   0 -10    1.71    0.16
   0   0  10    1.73    0.10
   0   0  10    1.78    0.13
  -1   0 -10   32.48    1.09
  -1   0 -10   32.51    1.07
   1   0  10   32.92    1.07
   1   0  10   32.44    1.06
  -2   0 -10   11.49    0.46
  -2   0 -10   11.54    0.43
   2   0  10   11.36    0.44
  -3   0 -10    0.11    0.15
   3   0  10    0.07    0.12
   4   0  10    0.04    0.16
   4  -1 -10    1.54    0.16
  -4   1  10    1.28    0.21
  -4   1  10    1.41    0.13
   3  -1 -10    2.06    0.16
  -3   1  10    2.16    0.13
  -3   1  10    2.04    0.20
   2  -1 -10    2.06    0.18
   2  -1 -10    1.99    0.13
  -2   1  10    1.99    0.16
  -2   1  10    2.17    0.12
   1  -1 -10    0.05    0.06
   1  -1 -10    0.03    0.09
  -1   1  10    0.01    0.05
  -1   1  10   -0.01    0.09
   0  -1 -10    1.35    0.14
   0  -1 -10    1.17    0.11
   0   1  10    1.01    0.10
   0   1  10    1.15    0.12
  -1  -1 -10    0.60    0.13
  -1  -1 -10    0.82    0.10
   1   1  10    1.04    0.12
   1   1  10    0.85    0.10
  -2  -1 -10    1.60    0.18
  -2  -1 -10    1.10    0.13
   2   1  10    1.35    0.14
   2   1  10    1.48    0.16
  -3  -1 -10    0.62    0.16
   3   1  10    0.72    0.15
   4   1  10    0.29    0.18
   4  -2 -10    0.07    0.12
  -4   2  10   -0.03    0.10
  -4   2  10   -0.02    0.15
   3  -2 -10    0.11    0.09
  -3   2  10    0.04    0.12
  -3   2  10    0.08    0.08
   2  -2 -10    0.76    0.13
   2  -2 -10    0.72    0.10
  -2   2  10    0.81    0.09
  -2   2  10    0.58    0.12
   1  -2 -10    4.21    0.22
   1  -2 -10    3.84    0.19
  -1   2  10    3.99    0.21
  -1   2  10    3.91    0.18
   0  -2 -10    2.53    0.15
   0  -2 -10    2.12    0.18
   0   2  10    2.35    0.17
   0   2  10    2.33    0.15
  -1  -2 -10   29.02    0.98
  -1  -2 -10   29.21    0.96
   1   2  10   28.33    0.96
   1   2  10   28.63    0.97
  -2  -2 -10    0.00    0.10
  -2  -2 -10   -0.07    0.12
   2   2  10    0.03    0.10
   2   2  10    0.03    0.11
  -3  -2 -10   -0.04    0.15
   3   2  10    0.09    0.15
   4  -3 -10    0.07    0.13
  -4   3  10    0.04    0.11
  -4   3  10    0.11    0.16
   3  -3 -10    0.21    0.10
  -3   3  10    0.26    0.14
  -3   3  10    0.26    0.10
   2  -3 -10    2.87    0.21
   2  -3 -10    2.79    0.17
  -2   3  10    2.67    0.16
  -2   3  10    3.01    0.21
   1  -3 -10    9.41    0.37
   1  -3 -10    8.43    0.34
  -1   3  10    8.57    0.36
  -1   3  10    8.76    0.33
   0  -3 -10    0.09    0.11
   0  -3 -10    0.01    0.08
   0   3  10   -0.04    0.09
   0   3  10    0.02    0.08
  -1  -3 -10    0.33    0.13
  -1  -3 -10    0.37    0.10
   1   3  10    0.89    0.12
   1   3  10    0.75    0.13
  -2  -3 -10    0.18    0.15
   2   3  10    0.18    0.13
   2   3  10   -0.04    0.12
  -3  -3 -10    0.07    0.17
   3   3  10    0.05    0.16
   4  -4 -10    0.33    0.15
  -4   4  10    0.24    0.14
  -4   4  10    0.15    0.18
   3  -4 -10    0.12    0.11
  -3   4  10    0.01    0.10
  -3   4  10    0.06    0.14
   2  -4 -10    0.64    0.15
   2  -4 -10    0.35    0.10
  -2   4  10    0.69    0.11
  -2   4  10    0.38    0.12
   1  -4 -10    1.42    0.17
   1  -4 -10    1.40    0.13
  -1   4  10    1.51    0.15
  -1   4  10    1.44    0.16
   0  -4 -10    2.29    0.18
   0  -4 -10    2.21    0.21
   0   4  10    1.93    0.17
   0   4  10    2.19    0.19
  -1  -4 -10    0.56    0.15
   1   4  10    0.51    0.12
   1   4  10    0.46    0.13
  -2  -4 -10    0.41    0.17
   2   4  10    0.49    0.15
   2   4  10    0.62    0.16
  -3  -4 -10    0.00    0.20
   3   4  10    0.01    0.16
  -4   5  10    0.45    0.21
  -4   5  10    0.44    0.16
  -3   5  10    0.03    0.15
  -3   5  10   -0.01    0.12
   2  -5 -10   -0.01    0.11
   2  -5 -10    0.00    0.15
  -2   5  10   -0.05    0.11
  -2   5  10    0.00    0.12
   1  -5 -10   -0.01    0.10
   1  -5 -10    0.04    0.13
  -1   5  10    0.01    0.10
  -1   5  10   -0.01    0.11
   0  -5 -10    0.27    0.15
   0   5  10    0.20    0.11
   0   5  10    0.25    0.13
  -1  -5 -10    0.41    0.15
   1   5  10    0.52    0.14
   1   5  10    0.49    0.14
  -2  -5 -10    0.00    0.15
   2   5  10    0.03    0.18
   2   5  10   -0.05    0.14
  -3  -5 -10    0.01    0.20
   3   5  10   -0.04    0.18
  -4   6  10    0.56    0.23
  -4   6  10    0.25    0.18
  -3   6  10   -0.05    0.15
   2  -6 -10   -0.01    0.16
  -2   6  10   -0.03    0.12
  -2   6  10    0.07    0.12
   1  -6 -10    1.83    0.21
  -1   6  10    1.40    0.16
  -1   6  10    1.81    0.20
   0  -6 -10    0.82    0.17
   0   6  10    0.75    0.14
   0   6  10    0.91    0.17
  -1  -6 -10    0.78    0.18
   1   6  10    0.84    0.17
   1   6  10    0.48    0.15
  -2  -6 -10    0.15    0.19
   2   6  10   -0.06    0.16
  -3  -6 -10    0.78    0.25
   3   6  10    0.43    0.23
  -3   7  10    1.10    0.19
  -3   7  10    0.92    0.22
   2  -7 -10    0.57    0.20
  -2   7  10    0.47    0.16
  -2   7  10    0.43    0.17
   1  -7 -10    0.41    0.18
  -1   7  10    0.51    0.14
  -1   7  10    0.58    0.16
   0  -7 -10    0.45    0.18
   0   7  10    0.33    0.16
   0   7  10    0.37    0.17
  -1  -7 -10    0.22    0.18
   1   7  10    0.17    0.16
  -2  -7 -10    0.01    0.21
  -2  -7 -10    0.15    0.33
   2   7  10    0.14    0.19
  -3   8  10    0.00    0.19
  -3   8  10   -0.07    0.21
   2  -8 -10    0.00    0.21
  -2   8  10    0.27    0.19
  -2   8  10    0.21    0.18
   1  -8 -10    0.38    0.20
  -1   8  10    0.11    0.16
   0  -8 -10    0.78    0.21
   0   8  10    0.88    0.19
  -1  -8 -10    0.43    0.21
   1   8  10    0.28    0.19
   2  -9 -10    0.11    0.25
  -2   9  10   -0.09    0.22
   1  -9 -10    0.09    0.23
  -1   9  10    0.16    0.20
   0  -9 -10    0.41    0.24
   0   9  10    0.48    0.21
  -1  -9 -10   -0.07    0.22
   0  11 -11    0.11    0.25
   0  11 -11    0.15    0.10
   0 -11  11    0.23    0.22
  -1  11 -11    0.09    0.11
  -1  11 -11    0.17    0.27
   1 -11  11    0.19    0.22
   1  10 -11    0.04    0.24
  -1 -10  11    0.02    0.24
   0  10 -11   -0.01    0.21
   0  10 -11    0.07    0.08
   0 -10  11    0.13    0.18
  -1  10 -11    0.39    0.11
  -1  10 -11    0.41    0.23
   1 -10  11    0.40    0.19
  -2  10 -11    0.05    0.22
  -2  10 -11    0.07    0.12
  -2  10 -11    0.12    0.21
   2 -10  11    0.13    0.20
   2   9 -11    0.88    0.39
  -2  -9  11    0.46    0.32
  -2  -9  11    1.03    0.24
   1   9 -11    0.04    0.20
  -1  -9  11    0.08    0.19
   0   9 -11    1.78    0.25
   0   9 -11    2.32    0.23
   0   9 -11    1.71    0.11
   0  -9  11    2.00    0.21
  -1   9 -11    0.60    0.21
  -1   9 -11    0.67    0.10
  -1   9 -11    0.72    0.18
   1  -9  11    0.52    0.17
  -2   9 -11    0.32    0.21
  -2   9 -11    0.21    0.12
  -2   9 -11    0.33    0.20
   2  -9  11    0.43    0.19
  -3   9 -11    0.03    0.23
  -3   9 -11   -0.02    0.15
  -3   9 -11    0.00    0.22
   3  -9  11    0.11    0.21
   3   8 -11    0.15    0.10
   3   8 -11    0.07    0.24
  -3  -8  11    0.19    0.24
   2   8 -11    0.32    0.19
  -2  -8  11    0.30    0.20
   1   8 -11   -0.08    0.23
   1   8 -11    0.15    0.17
  -1  -8  11    0.05    0.16
  -1  -8  11    0.14    0.19
   0   8 -11    0.99    0.18
   0   8 -11    0.92    0.08
   0   8 -11    0.67    0.19
   0  -8  11    1.20    0.18
  -1   8 -11   -0.01    0.07
  -1   8 -11   -0.06    0.17
  -1   8 -11    0.04    0.15
   1  -8  11   -0.04    0.14
  -2   8 -11    0.29    0.18
  -2   8 -11    0.36    0.11
  -2   8 -11    0.53    0.19
   2  -8  11    0.32    0.17
  -3   8 -11    0.16    0.14
  -3   8 -11    0.46    0.22
  -3   8 -11    0.43    0.23
   3  -8  11    0.16    0.20
   3   7 -11   -0.04    0.20
   3   7 -11    0.04    0.09
  -3  -7  11    0.04    0.19
   2   7 -11    0.04    0.15
  -2  -7  11    0.15    0.15
   1   7 -11    0.34    0.16
  -1  -7  11    0.26    0.16
  -1  -7  11    0.38    0.15
   0   7 -11    0.17    0.14
   0   7 -11    0.37    0.26
   0   7 -11    0.14    0.06
   0  -7  11    0.14    0.13
  -1   7 -11    2.38    0.23
  -1   7 -11    2.38    0.23
  -1   7 -11    2.09    0.14
   1  -7  11    2.53    0.22
  -2   7 -11    0.07    0.09
  -2   7 -11    0.13    0.17
  -2   7 -11    0.00    0.16
   2  -7  11    0.04    0.15
  -3   7 -11    0.04    0.19
  -3   7 -11    0.04    0.13
  -3   7 -11    0.21    0.21
   3  -7  11    0.06    0.17
  -4   7 -11    0.34    0.29
  -4   7 -11    0.37    0.28
  -4   7 -11    0.32    0.19
   4  -7  11    0.21    0.13
   3   6 -11    0.09    0.18
   3   6 -11   -0.01    0.08
  -3  -6  11    0.03    0.18
   2   6 -11    1.17    0.08
  -2  -6  11    1.22    0.19
   1   6 -11    0.39    0.15
  -1  -6  11    0.58    0.14
  -1  -6  11    0.35    0.13
   0   6 -11    0.52    0.14
   0   6 -11    0.43    0.06
   0  -6  11    0.41    0.14
  -1   6 -11    0.04    0.07
  -1   6 -11    0.04    0.13
   1  -6  11   -0.02    0.11
  -2   6 -11    2.96    0.25
  -2   6 -11    2.66    0.18
  -2   6 -11    3.31    0.26
   2  -6  11    2.55    0.23
  -3   6 -11    0.68    0.15
  -3   6 -11    0.63    0.20
  -3   6 -11    0.60    0.20
   3  -6  11    0.79    0.10
   3  -6  11    0.89    0.21
  -4   6 -11    0.21    0.18
  -4   6 -11    0.34    0.25
  -4   6 -11    0.15    0.27
   4  -6  11    0.20    0.13
   4   5 -11    0.69    0.14
   4   5 -11    0.75    0.24
  -4  -5  11    0.69    0.24
   3   5 -11    0.86    0.10
  -3  -5  11    0.94    0.20
   2   5 -11    0.66    0.06
  -2  -5  11    0.67    0.17
   1   5 -11    0.03    0.04
   1   5 -11    0.06    0.14
  -1  -5  11    0.09    0.12
   0   5 -11    0.68    0.15
   0   5 -11    0.79    0.07
   0  -5  11    0.85    0.15
  -1   5 -11    9.42    0.34
  -1   5 -11    9.44    0.39
   1  -5  11    8.86    0.39
  -2   5 -11    0.70    0.10
  -2   5 -11    0.45    0.16
   2  -5  11    0.53    0.16
  -3   5 -11    0.02    0.12
  -3   5 -11    0.09    0.17
   3  -5  11    0.00    0.09
  -4   5 -11    0.05    0.18
  -4   5 -11    0.08    0.21
   4  -5  11    0.08    0.13
   4   4 -11    0.22    0.12
  -4  -4  11    0.44    0.23
   3   4 -11    0.04    0.07
  -3  -4  11    0.12    0.17
   2   4 -11    3.88    0.16
  -2  -4  11    3.88    0.26
   1   4 -11    1.45    0.09
   1   4 -11    1.72    0.17
  -1  -4  11    1.72    0.18
   0   4 -11    0.19    0.05
   0   4 -11    0.22    0.12
   0  -4  11    0.16    0.10
  -1   4 -11    0.21    0.13
  -1   4 -11    0.10    0.07
  -2   4 -11    0.21    0.09
  -2   4 -11    0.17    0.13
   2  -4  11    0.12    0.06
  -3   4 -11    0.98    0.14
  -3   4 -11    0.65    0.18
   3  -4  11    0.76    0.12
  -4   4 -11    0.00    0.22
   4  -4  11    0.07    0.14
   4   3 -11    0.23    0.12
  -4  -3  11    0.45    0.22
   3   3 -11   -0.04    0.08
  -3  -3  11    0.06    0.15
   2   3 -11    0.17    0.06
  -2  -3  11    0.18    0.13
   1   3 -11    0.89    0.14
   1   3 -11    0.71    0.07
  -1  -3  11    0.63    0.11
   0   3 -11    0.11    0.06
   0   3 -11    0.15    0.11
   0  -3  11    0.04    0.09
  -1   3 -11    0.72    0.08
  -1   3 -11    0.64    0.14
  -2   3 -11    0.11    0.09
  -2   3 -11    0.01    0.11
   2  -3  11    0.03    0.07
  -3   3 -11    0.06    0.16
  -3   3 -11    0.02    0.12
   3  -3  11    0.03    0.10
  -4   3 -11   -0.06    0.19
   4  -3  11    0.01    0.14
   4   2 -11    0.27    0.13
  -4  -2  11    0.28    0.21
   3   2 -11    0.63    0.09
  -3  -2  11    0.92    0.18
   2   2 -11    6.50    0.25
  -2  -2  11    6.65    0.31
   1   2 -11    0.54    0.12
   1   2 -11    0.61    0.07
  -1  -2  11    0.40    0.11
   0   2 -11   24.58    0.84
   0   2 -11   24.18    0.80
   0  -2  11   24.55    0.82
  -1   2 -11   10.08    0.40
  -1   2 -11    9.62    0.35
   1  -2  11    9.52    0.33
  -2   2 -11    0.03    0.12
  -2   2 -11    0.06    0.09
   2  -2  11    0.09    0.08
  -3   2 -11    0.04    0.12
  -3   2 -11    0.01    0.14
   3  -2  11    0.01    0.10
  -4   2 -11    0.08    0.22
   4  -2  11    0.03    0.15
   4   1 -11    1.25    0.15
  -4  -1  11    1.74    0.25
   3   1 -11    0.21    0.08
  -3  -1  11    0.13    0.13
   2   1 -11    0.03    0.06
  -2  -1  11   -0.05    0.10
   1   1 -11    8.67    0.31
   1   1 -11    9.14    0.36
  -1  -1  11    8.19    0.35
   0   1 -11    9.37    0.38
   0   1 -11    9.35    0.34
   0  -1  11    9.11    0.31
   0  -1  11   10.09    0.31
   0  -1  11    8.85    0.36
  -1   1 -11    6.02    0.25
  -1   1 -11    6.36    0.30
   1  -1  11    6.13    0.24
   1  -1  11    5.74    0.26
  -2   1 -11    1.08    0.17
  -2   1 -11    0.79    0.11
   2  -1  11    0.74    0.11
  -3   1 -11    1.39    0.19
  -3   1 -11    0.97    0.16
   3  -1  11    1.37    0.17
   4  -1  11    0.04    0.15
   4   0 -11    0.16    0.12
  -4   0  11    0.22    0.20
  -3   0  11    3.16    0.24
   2   0 -11   -0.01    0.06
  -2   0  11    0.02    0.10
   1   0 -11    0.55    0.08
   1   0 -11    0.54    0.12
  -1   0  11    0.51    0.05
  -1   0  11    0.55    0.12
   0   0 -11    0.37    0.08
   0   0 -11    0.44    0.12
   0   0  11    0.37    0.10
   0   0  11    0.52    0.07
  -1   0 -11    8.38    0.35
  -1   0 -11    8.25    0.32
   1   0  11    8.47    0.33
   1   0  11    8.04    0.32
  -2   0 -11    1.38    0.18
  -2   0 -11    0.81    0.12
   2   0  11    0.93    0.13
  -3   0 -11    0.39    0.18
   3   0  11    0.24    0.13
   4   0  11   -0.09    0.17
   4  -1 -11    0.11    0.12
  -4   1  11    0.17    0.19
   3  -1 -11    0.99    0.12
  -3   1  11    0.89    0.09
  -3   1  11    0.97    0.16
   2  -1 -11    0.90    0.10
   2  -1 -11    0.87    0.15
  -2   1  11    0.91    0.08
  -2   1  11    1.11    0.15
   1  -1 -11    0.00    0.07
   1  -1 -11    0.00    0.10
  -1   1  11    0.01    0.08
  -1   1  11    0.03    0.06
   0  -1 -11    0.42    0.08
   0  -1 -11    0.52    0.12
   0   1  11    0.56    0.11
   0   1  11    0.39    0.08
  -1  -1 -11    1.65    0.15
  -1  -1 -11    2.16    0.20
   1   1  11    1.98    0.16
   1   1  11    1.69    0.15
  -2  -1 -11    1.28    0.15
  -2  -1 -11    1.06    0.18
   2   1  11    1.10    0.17
   2   1  11    0.91    0.14
  -3  -1 -11    0.45    0.16
   3   1  11    0.50    0.16
   4   1  11    0.37    0.20
   4  -2 -11    0.23    0.13
  -4   2  11    0.25    0.11
  -4   2  11    0.25    0.17
   3  -2 -11    0.04    0.09
  -3   2  11   -0.01    0.13
  -3   2  11    0.05    0.08
   2  -2 -11    1.00    0.15
   2  -2 -11    0.75    0.10
  -2   2  11    1.20    0.16
  -2   2  11    1.08    0.11
   1  -2 -11    0.45    0.13
   1  -2 -11    0.46    0.09
  -1   2  11    0.25    0.11
  -1   2  11    0.24    0.08
   0  -2 -11   31.56    1.07
   0  -2 -11   31.52    1.05
   0   2  11   31.38    1.07
   0   2  11   32.23    1.04
  -1  -2 -11    3.44    0.23
  -1  -2 -11    3.72    0.21
   1   2  11    3.54    0.22
   1   2  11    3.22    0.20
  -2  -2 -11    0.05    0.14
   2   2  11    0.18    0.13
   2   2  11    0.11    0.12
  -3  -2 -11    1.22    0.21
   3   2  11    1.76    0.22
   4   2  11    0.57    0.24
   4  -3 -11    0.33    0.15
  -4   3  11    0.39    0.13
  -4   3  11    0.32    0.19
   3  -3 -11    0.28    0.12
  -3   3  11    0.32    0.14
  -3   3  11    0.38    0.10
   2  -3 -11    0.07    0.14
   2  -3 -11    0.02    0.09
  -2   3  11    0.03    0.12
  -2   3  11    0.02    0.08
   1  -3 -11    0.07    0.09
   1  -3 -11    0.20    0.13
  -1   3  11    0.11    0.09
  -1   3  11    0.05    0.10
   0  -3 -11    1.85    0.16
   0  -3 -11    1.73    0.18
   0   3  11    1.73    0.16
   0   3  11    1.86    0.18
  -1  -3 -11    1.92    0.17
  -1  -3 -11    1.72    0.20
   1   3  11    1.85    0.18
   1   3  11    1.68    0.18
  -2  -3 -11    0.01    0.15
   2   3  11    0.13    0.13
   2   3  11    0.13    0.13
  -3  -3 -11    0.08    0.19
   3   3  11    0.14    0.16
   4  -4 -11    0.06    0.17
  -4   4  11    0.16    0.20
  -4   4  11    0.05    0.14
   3  -4 -11   -0.01    0.11
  -3   4  11    0.02    0.11
  -3   4  11   -0.06    0.15
   2  -4 -11    1.80    0.18
   2  -4 -11    2.07    0.21
  -2   4  11    1.65    0.19
  -2   4  11    1.98    0.17
   1  -4 -11    2.29    0.22
   1  -4 -11    2.45    0.19
  -1   4  11    2.21    0.21
  -1   4  11    2.02    0.17
   0  -4 -11    6.02    0.31
   0  -4 -11    5.62    0.27
   0   4  11    5.31    0.29
   0   4  11    5.37    0.27
  -1  -4 -11    0.31    0.15
   1   4  11    0.42    0.14
   1   4  11    0.36    0.13
  -2  -4 -11    0.71    0.19
   2   4  11    0.52    0.16
   2   4  11    0.68    0.17
  -3  -4 -11   -0.16    0.21
  -4   5  11   -0.01    0.22
  -3   5  11    0.38    0.18
  -3   5  11    0.31    0.13
   2  -5 -11    0.77    0.19
   2  -5 -11    0.66    0.14
  -2   5  11    0.54    0.13
  -2   5  11    0.67    0.16
   1  -5 -11    0.07    0.15
  -1   5  11    0.10    0.11
  -1   5  11   -0.02    0.13
   0  -5 -11    0.48    0.16
   0   5  11    0.32    0.14
   0   5  11    0.26    0.12
  -1  -5 -11    0.39    0.16
   1   5  11    0.21    0.14
   1   5  11    0.30    0.16
  -2  -5 -11   -0.06    0.17
   2   5  11    0.02    0.16
   2   5  11    0.03    0.16
  -3  -5 -11    0.02    0.23
   3   5  11    0.14    0.22
  -3   6  11   -0.01    0.18
   2  -6 -11    0.05    0.17
  -2   6  11    0.00    0.13
  -2   6  11    0.04    0.14
   1  -6 -11    3.20    0.28
  -1   6  11    3.03    0.25
  -1   6  11    3.23    0.23
   0  -6 -11    1.67    0.21
   0   6  11    1.69    0.21
   0   6  11    2.14    0.21
  -1  -6 -11    0.62    0.19
   1   6  11    1.04    0.20
   1   6  11    0.54    0.17
  -2  -6 -11    0.09    0.21
   2   6  11    0.08    0.17
  -3   7  11    0.20    0.21
  -3   7  11    0.39    0.19
   2  -7 -11    0.06    0.20
  -2   7  11    0.07    0.16
  -2   7  11   -0.09    0.17
   1  -7 -11   -0.09    0.18
  -1   7  11    0.03    0.14
  -1   7  11   -0.09    0.16
   0  -7 -11   -0.15    0.18
   0   7  11   -0.06    0.17
   0   7  11    0.12    0.16
  -1  -7 -11    0.14    0.20
   1   7  11    0.12    0.18
  -2  -7 -11    0.19    0.23
   2   7  11    0.14    0.20
   2  -8 -11   -0.04    0.24
  -2   8  11   -0.11    0.18
  -2   8  11   -0.04    0.21
   1  -8 -11    0.14    0.22
  -1   8  11    0.19    0.17
  -1   8  11    0.10    0.20
   0  -8 -11    0.21    0.23
   0   8  11    0.05    0.20
  -1  -8 -11   -0.02    0.24
   1   8  11    0.04    0.21
   0  10 -12    0.44    0.09
   0  10 -12    0.36    0.22
   0 -10  12    0.45    0.21
  -1  10 -12    0.09    0.21
  -1  10 -12    0.00    0.10
   1 -10  12   -0.11    0.19
  -2  10 -12    0.15    0.23
  -2  10 -12   -0.09    0.13
  -2  10 -12   -0.06    0.26
   2 -10  12    0.11    0.21
   0   9 -12    1.56    0.23
   0   9 -12    1.37    0.12
   0  -9  12    1.29    0.22
  -1   9 -12    0.14    0.19
  -1   9 -12    0.18    0.10
   1  -9  12    0.11    0.18
  -2   9 -12    0.31    0.21
  -2   9 -12    0.34    0.13
   2  -9  12    0.28    0.20
   2   8 -12    0.21    0.20
  -2  -8  12    0.24    0.20
  -1  -8  12    0.26    0.18
   0   8 -12    0.07    0.06
   0   8 -12    0.08    0.18
   0  -8  12    0.00    0.17
  -1   8 -12    0.54    0.19
  -1   8 -12    0.45    0.09
   1  -8  12    0.50    0.18
  -2   8 -12    0.07    0.11
  -2   8 -12    0.10    0.19
   2  -8  12    0.02    0.18
  -3   8 -12    0.03    0.15
  -3   8 -12    0.02    0.23
   3  -8  12    0.01    0.21
   3   7 -12    0.91    0.24
   3   7 -12    0.99    0.11
  -3  -7  12    0.75    0.23
   2   7 -12    0.01    0.17
  -2  -7  12   -0.09    0.16
   1   7 -12    1.15    0.19
  -1  -7  12    0.97    0.18
   0   7 -12    0.21    0.07
   0   7 -12    0.10    0.17
   0  -7  12    0.23    0.14
  -1   7 -12    0.07    0.16
  -1   7 -12    0.09    0.08
   1  -7  12   -0.02    0.14
  -2   7 -12    0.05    0.18
  -2   7 -12    0.00    0.11
   2  -7  12    0.01    0.16
  -3   7 -12    0.07    0.22
  -3   7 -12   -0.09    0.15
   3  -7  12   -0.21    0.20
   3   6 -12    0.26    0.09
   3   6 -12    0.37    0.21
  -3  -6  12    0.18    0.21
   2   6 -12    0.03    0.05
  -2  -6  12    0.11    0.16
   1   6 -12    0.07    0.16
   1   6 -12    0.05    0.04
  -1  -6  12    0.17    0.15
   0   6 -12   -0.03    0.15
   0   6 -12    0.01    0.06
   0  -6  12   -0.03    0.13
  -1   6 -12    0.42    0.08
  -1   6 -12    0.46    0.16
   1  -6  12    0.60    0.15
  -2   6 -12    1.21    0.21
  -2   6 -12    0.84    0.12
   2  -6  12    0.74    0.18
  -3   6 -12    0.05    0.13
  -3   6 -12    0.03    0.19
   3  -6  12    0.01    0.07
   3   5 -12    0.26    0.09
  -3  -5  12    0.18    0.18
   2   5 -12    1.32    0.10
  -2  -5  12    1.06    0.19
   1   5 -12    0.53    0.16
   1   5 -12    0.66    0.06
  -1  -5  12    0.84    0.15
   0   5 -12    6.01    0.31
   0   5 -12    5.80    0.22
  -1   5 -12    0.47    0.09
  -1   5 -12    0.43    0.16
  -2   5 -12    0.03    0.15
  -2   5 -12    0.03    0.09
  -3   5 -12    0.07    0.18
  -3   5 -12    0.16    0.13
   3  -5  12    0.00    0.09
  -4   5 -12    0.02    0.24
  -4   5 -12   -0.02    0.19
   4  -5  12    0.03    0.14
   3   4 -12    1.30    0.11
  -3  -4  12    1.26    0.22
   2   4 -12    0.13    0.06
  -2  -4  12    0.17    0.15
   1   4 -12    0.00    0.12
   1   4 -12    0.01    0.05
  -1  -4  12   -0.03    0.13
   0   4 -12    1.43    0.17
   0   4 -12    1.15    0.10
  -1   4 -12    2.17    0.14
  -1   4 -12    2.42    0.22
  -2   4 -12    0.46    0.16
  -2   4 -12    0.47    0.11
  -3   4 -12   -0.07    0.17
  -3   4 -12    0.10    0.12
   3  -4  12    0.04    0.10
  -4   4 -12    0.17    0.24
   4  -4  12    0.02    0.15
   4   3 -12   -0.03    0.12
  -4  -3  12   -0.29    0.22
   3   3 -12   -0.02    0.07
  -3  -3  12    0.09    0.17
   2   3 -12    0.04    0.06
  -2  -3  12    0.10    0.14
   1   3 -12    0.04    0.06
   1   3 -12    0.02    0.12
  -1  -3  12   -0.04    0.10
   0   3 -12    1.87    0.12
   0   3 -12    1.94    0.19
   0  -3  12    1.68    0.15
  -1   3 -12    0.04    0.07
  -1   3 -12   -0.04    0.12
  -2   3 -12    0.20    0.14
  -2   3 -12    0.38    0.11
   2  -3  12    0.26    0.08
  -3   3 -12    0.08    0.17
  -3   3 -12   -0.06    0.12
   3  -3  12    0.01    0.11
  -4   3 -12   -0.04    0.22
   4  -3  12    0.13    0.16
   4   2 -12    0.05    0.12
  -4  -2  12    0.12    0.22
   3   2 -12    0.83    0.11
  -3  -2  12    0.70    0.19
   2   2 -12    0.34    0.07
  -2  -2  12    0.35    0.13
   1   2 -12    0.51    0.08
   1   2 -12    0.66    0.14
  -1  -2  12    0.46    0.12
   0   2 -12    2.87    0.15
   0   2 -12    3.21    0.21
   0  -2  12    2.97    0.19
  -1   2 -12    0.33    0.09
  -1   2 -12    0.37    0.13
   1  -2  12    0.31    0.06
  -2   2 -12    0.07    0.13
  -2   2 -12    0.18    0.10
   2  -2  12    0.11    0.08
  -3   2 -12    0.04    0.16
  -3   2 -12    0.09    0.14
   3  -2  12    0.13    0.12
  -4   2 -12    0.04    0.23
   4  -2  12   -0.12    0.16
   4   1 -12    0.90    0.14
  -4  -1  12    0.95    0.24
   3   1 -12   -0.05    0.08
  -3  -1  12    0.08    0.14
   2   1 -12    0.40    0.08
  -2  -1  12    0.34    0.12
   1   1 -12    5.35    0.27
   1   1 -12    4.61    0.21
  -1  -1  12    4.79    0.25
   0   1 -12    3.30    0.17
   0   1 -12    2.90    0.22
   0  -1  12    3.48    0.20
  -1   1 -12    1.01    0.15
  -1   1 -12    1.35    0.12
   1  -1  12    1.08    0.10
  -2   1 -12    0.35    0.15
  -2   1 -12    0.40    0.12
   2  -1  12    0.27    0.10
  -3   1 -12    0.00    0.17
  -3   1 -12    0.04    0.14
   3  -1  12    0.10    0.13
   4  -1  12    0.00    0.18
   4   0 -12    0.21    0.13
  -4   0  12    0.27    0.22
   3   0 -12    0.09    0.09
  -3   0  12    0.33    0.15
   2   0 -12    0.05    0.07
  -2   0  12    0.07    0.12
   1   0 -12    2.27    0.15
   1   0 -12    2.65    0.21
  -1   0  12    2.40    0.19
   0   0 -12    0.26    0.13
   0   0 -12    0.25    0.08
   0   0  12    0.46    0.07
   0   0  12    0.43    0.11
  -1   0 -12    0.19    0.14
  -1   0 -12    0.08    0.08
   1   0  12    0.11    0.08
   1   0  12    0.12    0.11
  -2   0 -12    0.81    0.14
  -2   0 -12    0.81    0.17
   2   0  12    0.52    0.12
  -3   0 -12    0.15    0.19
   3   0  12    0.16    0.14
   4   0  12   -0.04    0.19
   4  -1 -12    0.01    0.13
  -4   1  12    0.06    0.21
   3  -1 -12    0.24    0.10
  -3   1  12    0.42    0.15
   2  -1 -12    0.14    0.08
  -2   1  12    0.09    0.06
  -2   1  12    0.25    0.13
   1  -1 -12    1.11    0.15
   1  -1 -12    1.19    0.12
  -1   1  12    1.10    0.15
  -1   1  12    1.15    0.10
   0  -1 -12    1.78    0.14
   0  -1 -12    1.31    0.15
   0   1  12    1.81    0.17
   0   1  12    1.58    0.12
  -1  -1 -12    2.74    0.23
  -1  -1 -12    2.71    0.19
   1   1  12    2.75    0.21
   1   1  12    2.72    0.17
  -2  -1 -12    3.62    0.24
  -2  -1 -12    3.25    0.26
   2   1  12    3.07    0.22
  -3  -1 -12   -0.04    0.17
   3   1  12    0.04    0.15
   4  -2 -12    0.55    0.18
  -4   2  12    0.39    0.21
  -4   2  12    0.39    0.11
   3  -2 -12    0.01    0.11
  -3   2  12    0.10    0.14
  -3   2  12    0.05    0.08
   2  -2 -12    1.16    0.13
   2  -2 -12    1.46    0.19
  -2   2  12    1.28    0.12
  -2   2  12    1.07    0.16
   1  -2 -12    5.82    0.30
   1  -2 -12    4.91    0.25
  -1   2  12    5.68    0.23
  -1   2  12    5.56    0.28
   0  -2 -12    0.48    0.15
   0  -2 -12    0.32    0.10
   0   2  12    0.39    0.12
   0   2  12    0.47    0.10
  -1  -2 -12    0.07    0.14
  -1  -2 -12    0.08    0.10
   1   2  12    0.02    0.11
   1   2  12    0.06    0.10
  -2  -2 -12    2.26    0.24
   2   2  12    1.91    0.20
   2   2  12    1.94    0.21
  -3  -2 -12   -0.07    0.21
   3   2  12    0.10    0.16
   4  -3 -12   -0.01    0.18
  -4   3  12    0.04    0.12
  -4   3  12    0.14    0.20
   3  -3 -12    0.74    0.14
  -3   3  12    0.84    0.12
  -3   3  12    0.77    0.17
   2  -3 -12    1.13    0.13
   2  -3 -12    1.63    0.20
  -2   3  12    1.23    0.18
   1  -3 -12    4.92    0.29
   1  -3 -12    4.71    0.24
  -1   3  12    4.67    0.23
  -1   3  12    4.80    0.27
   0  -3 -12    2.09    0.21
   0  -3 -12    2.21    0.18
   0   3  12    1.82    0.17
   0   3  12    1.73    0.19
  -1  -3 -12   -0.19    0.14
  -1  -3 -12    0.04    0.11
   1   3  12   -0.02    0.10
   1   3  12    0.07    0.13
  -2  -3 -12    0.26    0.17
   2   3  12    0.31    0.14
   2   3  12    0.42    0.16
  -3  -3 -12    0.04    0.22
   3   3  12   -0.02    0.18
   3  -4 -12   -0.03    0.13
  -3   4  12    0.04    0.16
  -3   4  12   -0.01    0.12
   2  -4 -12    0.30    0.12
   2  -4 -12    0.37    0.17
  -2   4  12    0.30    0.15
  -2   4  12    0.14    0.10
   1  -4 -12    6.36    0.35
   1  -4 -12    6.87    0.31
  -1   4  12    6.78    0.30
  -1   4  12    7.06    0.34
   0  -4 -12    0.43    0.16
   0  -4 -12    0.41    0.12
   0   4  12    0.49    0.15
   0   4  12    0.43    0.12
  -1  -4 -12   -0.07    0.15
   1   4  12    0.02    0.14
   1   4  12    0.07    0.12
  -2  -4 -12    0.01    0.19
   2   4  12   -0.02    0.17
   2   4  12    0.02    0.15
  -3  -4 -12   -0.10    0.25
   3   4  12   -0.06    0.20
  -3   5  12    0.13    0.14
  -3   5  12    0.16    0.19
   2  -5 -12    0.08    0.19
  -2   5  12   -0.01    0.15
  -2   5  12    0.16    0.13
   1  -5 -12    0.75    0.19
  -1   5  12    0.94    0.15
  -1   5  12    0.74    0.17
   0  -5 -12    1.99    0.22
   0   5  12    2.48    0.22
   0   5  12    2.41    0.24
  -1  -5 -12    1.30    0.21
   1   5  12    1.28    0.18
   1   5  12    1.15    0.20
  -2  -5 -12    0.02    0.20
   2   5  12    0.08    0.18
   2   5  12    0.00    0.18
  -3   6  12    0.06    0.16
  -3   6  12    0.04    0.21
   2  -6 -12    2.94    0.30
  -2   6  12    2.21    0.21
  -2   6  12    2.01    0.24
   1  -6 -12    0.12    0.19
  -1   6  12    0.23    0.14
  -1   6  12    0.14    0.16
   0  -6 -12    0.11    0.18
   0   6  12    0.07    0.15
   0   6  12    0.05    0.16
  -1  -6 -12    0.58    0.23
   1   6  12    0.66    0.18
   1   6  12    0.62    0.20
  -2  -6 -12    0.10    0.24
   2   6  12    0.05    0.20
   2  -7 -12    0.11    0.23
  -2   7  12   -0.03    0.19
  -2   7  12   -0.08    0.17
   1  -7 -12    0.02    0.21
  -1   7  12    0.12    0.17
  -1   7  12    0.12    0.16
   0  -7 -12    0.16    0.22
   0   7  12    0.13    0.17
   0   7  12    0.19    0.19
  -1  -7 -12    0.05    0.23
   1   7  12   -0.06    0.20
   1  -8 -12    0.05    0.25
  -1   8  12    0.03    0.19
  -1   8  12    0.05    0.19
   0  -8 -12    0.19    0.25
   0   8  12    0.14    0.21
   0  10 -13    0.53    0.10
   0  10 -13    0.45    0.26
   0 -10  13    0.46    0.24
  -1  10 -13    0.10    0.24
  -1  10 -13    0.01    0.12
   1 -10  13    0.02    0.22
   0   9 -13    0.29    0.08
   0   9 -13    0.22    0.21
   0  -9  13    0.73    0.22
  -1   9 -13    0.52    0.23
  -1   9 -13    0.40    0.11
   1  -9  13    0.54    0.22
  -2   9 -13   -0.13    0.13
  -2   9 -13    0.06    0.24
   2  -9  13    0.19    0.22
   0   8 -13    0.80    0.09
   0   8 -13    0.63    0.21
   0  -8  13    0.30    0.18
  -1   8 -13    0.71    0.11
  -1   8 -13    0.67    0.21
   1  -8  13    0.55    0.19
  -2   8 -13   -0.07    0.13
  -2   8 -13    0.00    0.21
   2  -8  13   -0.06    0.19
   2   7 -13    0.04    0.06
   2   7 -13    0.12    0.19
  -2  -7  13   -0.02    0.19
   0   7 -13    0.16    0.19
   0   7 -13    0.15    0.07
   0  -7  13    0.12    0.17
  -1   7 -13    0.01    0.08
  -1   7 -13   -0.02    0.18
   1  -7  13   -0.02    0.17
  -2   7 -13   -0.07    0.21
  -2   7 -13   -0.07    0.11
   2  -7  13    0.01    0.20
  -3   7 -13   -0.07    0.24
  -3   7 -13   -0.03    0.15
   3   6 -13    0.77    0.11
  -3  -6  13    0.84    0.25
   2   6 -13    0.01    0.06
  -2  -6  13    0.00    0.18
   1   6 -13    0.09    0.18
   1   6 -13    0.08    0.06
   0   6 -13    0.02    0.06
   0   6 -13    0.06    0.17
  -1   6 -13    0.24    0.18
  -1   6 -13    0.35    0.09
  -2   6 -13    1.07    0.14
  -2   6 -13    0.99    0.21
  -3   6 -13    0.70    0.17
  -3   6 -13    0.90    0.24
   3   5 -13   -0.01    0.09
  -3  -5  13   -0.02    0.20
   2   5 -13    0.09    0.06
  -2  -5  13    0.16    0.18
   1   5 -13    0.74    0.17
   1   5 -13    0.76    0.07
  -1  -5  13    0.75    0.17
   0   5 -13    1.00    0.19
   0   5 -13    1.11    0.11
  -1   5 -13    0.01    0.08
  -1   5 -13   -0.03    0.16
  -2   5 -13    0.70    0.12
  -2   5 -13    0.85    0.20
  -3   5 -13    0.68    0.16
  -3   5 -13    0.33    0.20
   3  -5  13    0.52    0.10
   3   4 -13    0.16    0.10
  -3  -4  13    0.30    0.20
   2   4 -13    0.68    0.08
  -2  -4  13    0.44    0.17
   1   4 -13    0.57    0.16
   1   4 -13    0.58    0.07
  -1  -4  13    0.72    0.16
   0   4 -13    0.41    0.14
   0   4 -13    0.50    0.08
  -1   4 -13    0.50    0.10
  -1   4 -13    0.43    0.15
  -2   4 -13    0.07    0.10
  -2   4 -13    0.16    0.16
  -3   4 -13    0.29    0.14
  -3   4 -13    0.28    0.21
   3  -4  13    0.33    0.11
   3   3 -13    0.00    0.09
  -3  -3  13    0.02    0.18
   2   3 -13    0.04    0.07
  -2  -3  13    0.00    0.15
   1   3 -13    1.89    0.13
   1   3 -13    2.40    0.22
  -1  -3  13    1.92    0.19
   0   3 -13    0.13    0.07
   0   3 -13    0.12    0.14
  -1   3 -13    0.56    0.16
  -1   3 -13    0.57    0.10
  -2   3 -13    0.50    0.18
  -2   3 -13    0.25    0.11
   2  -3  13    0.42    0.08
  -3   3 -13   -0.07    0.18
  -3   3 -13   -0.05    0.14
   3  -3  13   -0.01    0.11
   3   2 -13    0.25    0.10
  -3  -2  13    0.14    0.18
   2   2 -13    0.01    0.07
  -2  -2  13    0.01    0.12
   1   2 -13    1.19    0.17
   1   2 -13    0.91    0.10
  -1  -2  13    0.98    0.15
   0   2 -13    4.12    0.20
   0   2 -13    4.61    0.28
   0  -2  13    4.72    0.24
  -1   2 -13    2.01    0.16
  -1   2 -13    2.03    0.21
  -2   2 -13    0.07    0.14
  -2   2 -13    0.18    0.11
   2  -2  13    0.03    0.08
  -3   2 -13    0.70    0.21
  -3   2 -13    0.59    0.17
   3  -2  13    0.42    0.14
   3   1 -13    0.16    0.10
  -3  -1  13    0.15    0.17
   2   1 -13    0.82    0.10
  -2  -1  13    0.97    0.16
   1   1 -13    0.26    0.15
   1   1 -13    0.12    0.08
  -1  -1  13    0.11    0.12
   0   1 -13   -0.02    0.08
   0   1 -13    0.02    0.13
   0  -1  13    0.01    0.11
  -1   1 -13    0.26    0.15
  -1   1 -13    0.20    0.09
   1  -1  13    0.28    0.08
  -2   1 -13   -0.01    0.11
  -2   1 -13   -0.05    0.15
   2  -1  13    0.08    0.10
  -3   1 -13    0.19    0.21
  -3   1 -13    0.05    0.16
   3  -1  13    0.10    0.13
   4   0 -13    0.56    0.15
  -4   0  13    0.68    0.26
   3   0 -13   -0.02    0.10
  -3   0  13    0.00    0.15
   2   0 -13    0.33    0.09
  -2   0  13    0.36    0.14
   1   0 -13    2.01    0.15
   1   0 -13    2.01    0.21
  -1   0  13    1.76    0.19
   0   0 -13   -0.06    0.07
   0   0 -13   -0.09    0.14
   0   0  13    0.00    0.06
   0   0  13   -0.02    0.11
  -1   0 -13    0.11    0.15
  -1   0 -13    0.00    0.09
   1   0  13    0.07    0.12
   1   0  13   -0.02    0.07
  -2   0 -13    0.13    0.17
  -2   0 -13    0.07    0.12
   2   0  13    0.10    0.10
  -3   0 -13   -0.03    0.20
   3   0  13    0.05    0.14
   3  -1 -13   -0.04    0.11
  -3   1  13    0.05    0.17
   2  -1 -13    1.98    0.16
  -2   1  13    2.03    0.21
  -2   1  13    2.24    0.11
   1  -1 -13    0.14    0.14
   1  -1 -13    0.15    0.10
  -1   1  13    0.17    0.13
  -1   1  13    0.20    0.07
   0  -1 -13    0.07    0.13
   0  -1 -13    0.06    0.09
   0   1  13    0.17    0.12
   0   1  13    0.08    0.07
  -1  -1 -13    1.40    0.15
  -1  -1 -13    1.10    0.18
   1   1  13    1.50    0.17
   1   1  13    1.56    0.15
  -2  -1 -13    0.36    0.18
  -2  -1 -13    0.59    0.15
   2   1  13    0.59    0.13
  -3  -1 -13    0.32    0.22
   3   1  13    0.36    0.17
   3  -2 -13    0.01    0.12
  -3   2  13    0.03    0.15
  -3   2  13    0.07    0.08
   2  -2 -13    0.08    0.10
  -2   2  13    0.04    0.12
  -2   2  13    0.05    0.08
   1  -2 -13    0.05    0.15
   1  -2 -13    0.08    0.10
  -1   2  13    0.01    0.08
  -1   2  13   -0.01    0.11
   0  -2 -13    0.07    0.15
   0  -2 -13    0.02    0.11
   0   2  13    0.11    0.13
   0   2  13    0.00    0.08
  -1  -2 -13    2.71    0.26
  -1  -2 -13    2.97    0.21
   1   2  13    3.19    0.24
   1   2  13    3.15    0.21
  -2  -2 -13    0.24    0.17
   2   2  13    0.33    0.14
  -3  -2 -13    0.37    0.23
   3   2  13    0.64    0.20
   3  -3 -13    0.06    0.13
  -3   3  13    0.02    0.11
  -3   3  13    0.11    0.18
   2  -3 -13    0.15    0.18
   2  -3 -13    0.16    0.11
  -2   3  13    0.09    0.14
   1  -3 -13   -0.06    0.10
   1  -3 -13    0.03    0.16
  -1   3  13    0.00    0.09
  -1   3  13   -0.04    0.13
   0  -3 -13    1.19    0.15
   0  -3 -13    1.06    0.19
   0   3  13    1.06    0.13
   0   3  13    1.21    0.17
  -1  -3 -13    0.03    0.17
   1   3  13    0.04    0.12
   1   3  13    0.09    0.15
  -2  -3 -13    0.47    0.20
   2   3  13    0.17    0.15
   2   3  13    0.62    0.19
  -3  -3 -13    0.12    0.25
   3   3  13    0.04    0.20
   3  -4 -13    0.19    0.14
  -3   4  13    0.01    0.18
  -3   4  13    0.01    0.13
   2  -4 -13    0.77    0.21
   2  -4 -13    0.57    0.14
  -2   4  13    0.65    0.13
  -2   4  13    0.63    0.18
   1  -4 -13    0.00    0.12
   1  -4 -13   -0.02    0.16
  -1   4  13   -0.03    0.11
  -1   4  13   -0.11    0.14
   0  -4 -13    0.04    0.18
   0   4  13   -0.03    0.13
   0   4  13    0.07    0.12
  -1  -4 -13    0.47    0.20
   1   4  13    0.45    0.15
   1   4  13    0.64    0.17
  -2  -4 -13    0.05    0.22
   2   4  13    0.26    0.17
   2   4  13    0.09    0.18
  -3   5  13   -0.02    0.20
  -3   5  13    0.01    0.15
   2  -5 -13    1.16    0.24
  -2   5  13    0.98    0.16
  -2   5  13    1.00    0.21
   1  -5 -13    2.15    0.26
  -1   5  13    1.76    0.18
  -1   5  13    1.54    0.20
   0  -5 -13    0.63    0.20
   0   5  13    0.84    0.16
   0   5  13    0.96    0.19
  -1  -5 -13    0.13    0.19
   1   5  13    0.13    0.16
   1   5  13    0.36    0.19
  -2  -5 -13    0.22    0.23
   2   5  13   -0.10    0.21
   2   5  13    0.05    0.19
   2  -6 -13    0.31    0.24
  -2   6  13    0.34    0.17
  -2   6  13    0.38    0.21
   1  -6 -13    0.08    0.21
  -1   6  13   -0.03    0.18
  -1   6  13    0.08    0.15
   0  -6 -13    0.26    0.22
   0   6  13    0.33    0.17
   0   6  13    0.20    0.18
  -1  -6 -13   -0.01    0.24
   1   6  13    0.06    0.20
   1   6  13    0.13    0.18
   1  -7 -13   -0.04    0.25
  -1   7  13   -0.02    0.18
  -1   7  13    0.02    0.20
   0  -7 -13    0.28    0.25
   0   7  13    0.22    0.20
   0   7  13   -0.01    0.20
   0   9 -14    0.20    0.24
   0   9 -14    0.05    0.09
   0  -9  14    0.07    0.22
  -1   9 -14    0.77    0.14
  -1   9 -14    1.10    0.28
   1  -9  14    0.88    0.25
   0   8 -14   -0.04    0.22
   0   8 -14    0.22    0.09
   0  -8  14   -0.17    0.20
  -1   8 -14    0.11    0.23
  -1   8 -14    0.03    0.10
   1  -8  14    0.13    0.21
  -2   8 -14    0.06    0.25
  -2   8 -14    0.08    0.13
   2  -8  14    0.14    0.24
   2   7 -14    0.03    0.07
   1   7 -14    0.93    0.08
   0   7 -14    0.07    0.21
   0   7 -14    0.04    0.08
  -1   7 -14   -0.04    0.20
  -1   7 -14    0.00    0.09
  -2   7 -14    0.07    0.13
  -2   7 -14   -0.04    0.22
   2   6 -14    0.65    0.08
  -2  -6  14    0.80    0.22
   1   6 -14    0.06    0.06
   0   6 -14   -0.03    0.17
   0   6 -14    0.14    0.08
  -1   6 -14    0.23    0.10
  -1   6 -14    0.02    0.18
  -2   6 -14    0.67    0.14
  -2   6 -14    0.50    0.22
  -3   6 -14    0.43    0.17
  -3   6 -14    0.27    0.24
   3   5 -14    0.61    0.11
  -3  -5  14    0.62    0.25
   2   5 -14    1.49    0.12
  -2  -5  14    1.89    0.24
   1   5 -14    0.74    0.18
   1   5 -14    0.49    0.08
   0   5 -14    0.31    0.08
   0   5 -14    0.34    0.17
  -1   5 -14    0.73    0.19
  -1   5 -14    0.76    0.11
  -2   5 -14    1.02    0.14
  -2   5 -14    0.92    0.21
  -3   5 -14    0.15    0.16
  -3   5 -14    0.16    0.23
   3   4 -14    0.04    0.11
  -3  -4  14   -0.08    0.22
   2   4 -14    0.00    0.07
  -2  -4  14    0.01    0.18
   1   4 -14    0.62    0.09
   1   4 -14    0.57    0.18
  -1  -4  14    0.81    0.18
   0   4 -14    0.58    0.09
   0   4 -14    0.80    0.18
  -1   4 -14    0.13    0.16
  -1   4 -14   -0.03    0.09
  -2   4 -14    0.02    0.12
  -2   4 -14   -0.05    0.19
  -3   4 -14    0.00    0.16
  -3   4 -14   -0.02    0.22
   3  -4  14   -0.01    0.10
   3   3 -14    0.05    0.10
  -3  -3  14    0.00    0.20
   2   3 -14    0.15    0.08
  -2  -3  14    0.24    0.17
   1   3 -14    0.49    0.17
   1   3 -14    0.50    0.09
  -1  -3  14    0.35    0.14
   0   3 -14    0.11    0.08
   0   3 -14   -0.08    0.14
  -1   3 -14    0.85    0.11
  -1   3 -14    0.74    0.18
  -2   3 -14    0.69    0.19
  -2   3 -14    0.56    0.14
   2  -3  14    0.77    0.08
  -3   3 -14    0.01    0.17
  -3   3 -14    0.17    0.21
   3  -3  14    0.08    0.12
   3   2 -14    0.09    0.10
  -3  -2  14    0.14    0.21
   2   2 -14    0.14    0.08
  -2  -2  14    0.24    0.15
   1   2 -14    0.93    0.10
   1   2 -14    1.08    0.19
  -1  -2  14    0.76    0.16
   0   2 -14    0.73    0.11
   0   2 -14    0.62    0.16
   0  -2  14    0.79    0.16
  -1   2 -14    3.18    0.20
  -1   2 -14    3.83    0.27
  -2   2 -14    2.04    0.24
  -2   2 -14    2.38    0.21
   2  -2  14    2.61    0.16
  -3   2 -14    0.04    0.21
  -3   2 -14   -0.01    0.16
   3  -2  14    0.02    0.13
   3   1 -14   -0.06    0.10
  -3  -1  14   -0.08    0.18
   2   1 -14    0.16    0.09
  -2  -1  14    0.12    0.14
   1   1 -14    0.63    0.10
   1   1 -14    0.77    0.18
  -1  -1  14    0.52    0.15
   0   1 -14    0.25    0.09
   0   1 -14    0.22    0.15
   0  -1  14    0.37    0.14
  -1   1 -14    0.06    0.09
  -1   1 -14    0.16    0.16
   1  -1  14    0.12    0.07
  -2   1 -14    0.40    0.13
  -2   1 -14    0.46    0.19
   2  -1  14    0.62    0.12
  -3   1 -14   -0.12    0.24
   3  -1  14    0.00    0.14
   3   0 -14    0.10    0.12
  -3   0  14    0.08    0.17
   2   0 -14    1.10    0.13
  -2   0  14    1.52    0.20
   1   0 -14    0.27    0.09
   1   0 -14    0.23    0.15
  -1   0  14    0.14    0.13
   0   0 -14    0.23    0.16
   0   0 -14    0.13    0.09
   0   0  14    0.30    0.14
   0   0  14    0.20    0.07
  -1   0 -14    0.13    0.17
  -1   0 -14    0.18    0.10
   1   0  14    0.19    0.09
  -2   0 -14    0.04    0.20
  -2   0 -14   -0.01    0.12
   2   0  14    0.04    0.11
  -3   0 -14    0.07    0.22
   3   0  14    0.14    0.16
   3  -1 -14    0.36    0.13
  -3   1  14    0.38    0.19
   2  -1 -14    0.03    0.10
  -2   1  14   -0.01    0.14
   1  -1 -14    0.04    0.16
   1  -1 -14    0.11    0.10
  -1   1  14    0.14    0.14
   0  -1 -14    0.69    0.12
   0  -1 -14    0.47    0.17
   0   1  14    0.83    0.16
   0   1  14    1.08    0.11
  -1  -1 -14    0.04    0.12
  -1  -1 -14    0.05    0.15
   1   1  14    0.01    0.15
   1   1  14    0.00    0.10
  -2  -1 -14    0.09    0.14
  -2  -1 -14    0.10    0.18
   2   1  14    0.17    0.13
  -3  -1 -14    0.08    0.23
   3   1  14    0.16    0.18
   3  -2 -14    0.12    0.14
  -3   2  14    0.13    0.19
   2  -2 -14    1.63    0.16
  -2   2  14    1.68    0.14
  -2   2  14    1.64    0.20
   1  -2 -14    0.91    0.19
   1  -2 -14    0.76    0.13
  -1   2  14    0.88    0.11
  -1   2  14    1.13    0.18
   0  -2 -14    0.32    0.13
   0  -2 -14    0.32    0.16
   0   2  14    0.35    0.15
   0   2  14    0.34    0.10
  -1  -2 -14    0.41    0.19
  -1  -2 -14    0.34    0.13
   1   2  14    0.24    0.11
   1   2  14    0.22    0.15
  -2  -2 -14    0.45    0.22
   2   2  14    0.47    0.15
   3  -3 -14    0.93    0.18
  -3   3  14    0.95    0.13
  -3   3  14    0.84    0.23
   2  -3 -14    0.17    0.13
  -2   3  14    0.23    0.18
  -2   3  14    0.19    0.10
   1  -3 -14    0.07    0.12
   1  -3 -14   -0.01    0.18
  -1   3  14    0.19    0.11
  -1   3  14    0.07    0.15
   0  -3 -14    0.18    0.13
   0  -3 -14    0.32    0.18
   0   3  14    0.25    0.11
   0   3  14    0.23    0.16
  -1  -3 -14    0.06    0.19
   1   3  14   -0.02    0.12
   1   3  14    0.07    0.17
  -2  -3 -14    0.04    0.22
   2   3  14    0.02    0.16
   2  -4 -14    0.06    0.14
  -2   4  14    0.03    0.12
  -2   4  14    0.05    0.18
   1  -4 -14    0.15    0.14
   1  -4 -14    0.08    0.19
  -1   4  14    0.08    0.12
  -1   4  14    0.10    0.16
   0  -4 -14    0.47    0.22
   0   4  14    0.57    0.18
   0   4  14    0.52    0.14
  -1  -4 -14    0.16    0.22
   1   4  14    0.19    0.18
   1   4  14    0.16    0.15
  -2  -4 -14   -0.09    0.24
   2   4  14   -0.10    0.18
   2  -5 -14    0.13    0.25
  -2   5  14    0.12    0.15
  -2   5  14    0.15    0.20
   1  -5 -14   -0.08    0.23
  -1   5  14    0.10    0.19
  -1   5  14    0.03    0.14
   0  -5 -14    0.23    0.22
   0   5  14    0.32    0.19
   0   5  14    0.10    0.15
  -1  -5 -14    0.22    0.22
   1   5  14    0.32    0.21
   1   5  14    0.23    0.17
   1  -6 -14   -0.01    0.25
  -1   6  14    0.05    0.17
  -1   6  14    0.09    0.21
   0  -6 -14    0.09    0.25
   0   6  14   -0.04    0.20
   0   6  14    0.00    0.17
   0   8 -15    0.16    0.24
   0   8 -15    0.07    0.10
  -1   8 -15    0.29    0.13
  -1   8 -15    0.00    0.26
   1   7 -15    0.26    0.08
   0   7 -15    1.35    0.26
   0   7 -15    1.40    0.12
  -1   7 -15   -0.09    0.10
  -1   7 -15    0.16    0.23
  -2   7 -15    0.22    0.14
  -2   7 -15    0.31    0.26
   2   6 -15    0.00    0.08
  -2  -6  15   -0.18    0.33
   1   6 -15    0.04    0.08
   0   6 -15   -0.04    0.19
   0   6 -15    0.09    0.09
  -1   6 -15    0.18    0.21
  -1   6 -15    0.08    0.11
  -2   6 -15   -0.05    0.22
  -2   6 -15    0.13    0.13
   2   5 -15    0.02    0.08
  -2  -5  15    0.11    0.22
   1   5 -15    0.47    0.09
   0   5 -15    0.03    0.18
   0   5 -15    0.08    0.08
  -1   5 -15    0.10    0.19
  -1   5 -15   -0.05    0.10
  -2   5 -15   -0.10    0.13
  -2   5 -15    0.04    0.21
   2   4 -15   -0.02    0.09
  -2  -4  15    0.03    0.20
   1   4 -15    0.02    0.17
   1   4 -15    0.02    0.08
   0   4 -15    0.00    0.18
   0   4 -15    0.05    0.08
  -1   4 -15    0.00    0.10
  -1   4 -15    0.00    0.18
  -2   4 -15    0.27    0.21
  -2   4 -15    0.26    0.14
   2   3 -15    0.24    0.10
  -2  -3  15    0.30    0.19
   1   3 -15    0.39    0.10
   1   3 -15    0.40    0.19
  -1  -3  15    0.06    0.15
   0   3 -15    0.12    0.16
   0   3 -15    0.20    0.09
  -1   3 -15    0.42    0.19
  -1   3 -15    0.33    0.11
  -2   3 -15    0.32    0.15
  -2   3 -15    0.17    0.20
   3   2 -15    0.00    0.12
  -3  -2  15    0.09    0.23
   2   2 -15    0.19    0.10
  -2  -2  15    0.08    0.16
   1   2 -15    0.17    0.10
   1   2 -15    0.07    0.18
  -1  -2  15    0.40    0.16
   0   2 -15    1.09    0.12
   0   2 -15    0.90    0.19
  -1   2 -15    1.81    0.23
  -1   2 -15    1.58    0.15
  -2   2 -15    0.15    0.14
  -2   2 -15    0.08    0.20
   2  -2  15    0.11    0.09
   3   1 -15    0.08    0.13
  -3  -1  15    0.12    0.20
   2   1 -15    0.06    0.10
  -2  -1  15    0.13    0.16
   1   1 -15   -0.02    0.09
   1   1 -15    0.02    0.17
  -1  -1  15    0.02    0.14
   0   1 -15    0.10    0.18
   0   1 -15    0.32    0.10
   0  -1  15    0.51    0.14
  -1   1 -15    0.26    0.19
  -1   1 -15    0.06    0.11
   1  -1  15    0.13    0.07
  -2   1 -15    0.10    0.14
  -2   1 -15    0.27    0.22
   2  -1  15    0.26    0.11
   3   0 -15    0.14    0.13
  -3   0  15    0.08    0.19
   2   0 -15    0.06    0.11
  -2   0  15    0.23    0.16
   1   0 -15    0.02    0.11
   1   0 -15   -0.09    0.17
  -1   0  15    0.00    0.14
   0   0 -15    0.06    0.16
   0   0 -15    0.16    0.11
   0   0  15    0.13    0.14
   0   0  15    0.23    0.06
  -1   0 -15    0.54    0.14
  -1   0 -15    0.42    0.20
   1   0  15    0.60    0.10
  -2   0 -15    0.34    0.22
  -2   0 -15    0.29    0.16
   2   0  15    0.18    0.12
   3  -1 -15    0.06    0.14
  -3   1  15    0.06    0.20
   2  -1 -15    0.00    0.11
  -2   1  15    0.01    0.16
   1  -1 -15    0.01    0.11
   1  -1 -15   -0.07    0.16
  -1   1  15    0.12    0.15
   0  -1 -15    0.10    0.17
   0  -1 -15    0.20    0.12
   0   1  15    0.26    0.15
   0   1  15    0.15    0.09
  -1  -1 -15    0.25    0.13
  -1  -1 -15    0.35    0.20
   1   1  15    0.26    0.11
  -2  -1 -15    0.02    0.21
   2   1  15    0.25    0.14
   2  -2 -15    0.05    0.13
  -2   2  15    0.05    0.08
  -2   2  15    0.07    0.17
   1  -2 -15    0.30    0.20
   1  -2 -15    0.34    0.13
  -1   2  15    0.43    0.10
  -1   2  15    0.34    0.17
   0  -2 -15    1.01    0.16
   0  -2 -15    0.74    0.21
   0   2  15    0.76    0.12
   0   2  15    0.87    0.18
  -1  -2 -15   -0.05    0.15
  -1  -2 -15    0.08    0.20
   1   2  15    0.12    0.17
   1   2  15    0.05    0.13
  -2  -2 -15    0.18    0.23
   2   2  15    0.31    0.17
   2  -3 -15    0.23    0.14
  -2   3  15    0.12    0.11
  -2   3  15    0.16    0.20
   1  -3 -15    0.06    0.14
   1  -3 -15    0.16    0.22
  -1   3  15    0.02    0.18
  -1   3  15    0.02    0.12
   0  -3 -15    0.03    0.21
   0  -3 -15    0.04    0.14
   0   3  15    0.07    0.17
   0   3  15    0.04    0.11
  -1  -3 -15    0.05    0.22
   1   3  15    0.03    0.18
   1   3  15    0.03    0.14
   2  -4 -15   -0.06    0.16
  -2   4  15    0.10    0.20
   1  -4 -15    0.11    0.21
   1  -4 -15    0.19    0.23
  -1   4  15    0.10    0.13
  -1   4  15    0.03    0.18
   0  -4 -15    0.19    0.25
   0   4  15   -0.01    0.13
   0   4  15    0.00    0.19
  -1  -4 -15   -0.07    0.24
   1   4  15    0.08    0.17
   1   4  15    0.05    0.21
   1  -5 -15    0.04    0.26
  -1   5  15   -0.01    0.20
  -1   5  15   -0.01    0.16
   0  -5 -15   -0.03    0.24
   0   5  15    0.00    0.15
   0   5  15   -0.04    0.21
   0   7 -16    0.04    0.11
   0   7 -16    0.05    0.24
   1   6 -16   -0.02    0.10
   0   6 -16    0.17    0.10
   0   6 -16    0.08    0.22
  -1   6 -16   -0.02    0.23
  -1   6 -16    0.08    0.12
   1   5 -16    0.18    0.10
   0   5 -16    0.00    0.09
   0   5 -16   -0.05    0.21
  -1   5 -16    0.15    0.12
  -1   5 -16    0.25    0.23
  -2   5 -16    0.11    0.25
  -2   5 -16    0.12    0.15
   2   4 -16    0.26    0.11
  -2  -4  16    0.11    0.23
   1   4 -16    0.17    0.10
   0   4 -16   -0.02    0.19
   0   4 -16    0.10    0.10
  -1   4 -16   -0.05    0.20
  -1   4 -16    0.02    0.12
  -2   4 -16    1.08    0.26
  -2   4 -16    1.00    0.18
   2   3 -16    0.02    0.11
  -2  -3  16   -0.05    0.23
   1   3 -16   -0.07    0.20
   1   3 -16    0.00    0.10
   0   3 -16    0.14    0.10
   0   3 -16    0.02    0.19
  -1   3 -16    0.35    0.20
  -1   3 -16    0.18    0.12
  -2   3 -16   -0.07    0.15
  -2   3 -16   -0.01    0.22
   2   2 -16    0.09    0.11
  -2  -2  16   -0.05    0.18
   1   2 -16    0.45    0.22
   1   2 -16    0.20    0.11
  -1  -2  16    0.29    0.17
   0   2 -16    0.06    0.10
   0   2 -16    0.05    0.20
  -1   2 -16    0.65    0.22
  -1   2 -16    0.82    0.14
  -2   2 -16    0.66    0.17
  -2   2 -16    0.92    0.26
   2  -2  16    0.74    0.10
   2   1 -16   -0.01    0.12
  -2  -1  16    0.07    0.19
   1   1 -16    0.05    0.12
   1   1 -16    0.18    0.19
  -1  -1  16    0.15    0.17
   0   1 -16    0.14    0.12
   0   1 -16    0.30    0.21
  -1   1 -16    0.52    0.15
  -1   1 -16    0.73    0.24
  -2   1 -16    0.10    0.16
  -2   1 -16    0.19    0.25
   2  -1  16    0.15    0.12
   2   0 -16   -0.06    0.12
  -2   0  16   -0.05    0.18
   1   0 -16    0.38    0.20
   1   0 -16    0.26    0.13
  -1   0  16    0.40    0.18
   0   0 -16    0.52    0.19
   0   0 -16    0.37    0.13
   0   0  16    0.62    0.18
  -1   0 -16    0.61    0.21
  -1   0 -16    0.39    0.15
   1   0  16    0.76    0.11
  -2   0 -16    0.15    0.24
  -2   0 -16    0.17    0.18
   2   0  16    0.17    0.13
   2  -1 -16    0.14    0.13
  -2   1  16    0.02    0.19
   1  -1 -16    0.04    0.13
   1  -1 -16    0.04    0.21
  -1   1  16    0.11    0.18
   0  -1 -16    0.03    0.14
   0  -1 -16   -0.03    0.20
   0   1  16    0.06    0.18
   0   1  16   -0.03    0.09
  -1  -1 -16   -0.02    0.15
  -1  -1 -16    0.08    0.22
   1   1  16   -0.01    0.11
   2  -2 -16    0.02    0.15
   1  -2 -16   -0.03    0.22
   1  -2 -16    0.01    0.14
  -1   2  16   -0.01    0.18
   0  -2 -16   -0.04    0.20
   0  -2 -16    0.07    0.16
   0   2  16    0.09    0.11
   0   2  16    0.10    0.18
  -1  -2 -16    0.04    0.19
  -1  -2 -16   -0.16    0.23
   1   2  16    0.02    0.13
   1  -3 -16    0.01    0.26
   1  -3 -16   -0.07    0.17
  -1   3  16    0.08    0.20
  -1   3  16   -0.03    0.12
   0  -3 -16    0.11    0.26
   0  -3 -16    0.12    0.18
   0   3  16    0.00    0.19
   0   3  16    0.11    0.14
   0   5 -17    0.06    0.23
   0   5 -17    0.04    0.12
   1   4 -17    0.25    0.12
   0   4 -17    0.02    0.12
   0   4 -17    0.22    0.23
  -1   4 -17    0.22    0.24
  -1   4 -17    0.13    0.13
   1   3 -17   -0.04    0.12
   0   3 -17   -0.05    0.23
   0   3 -17   -0.02    0.11
  -1   3 -17    0.10    0.14
  -1   3 -17    0.14    0.23
   1   2 -17    0.04    0.13
   1   2 -17    0.06    0.24
   0   2 -17    0.38    0.13
   0   2 -17    0.39    0.25
  -1   2 -17    0.09    0.14
  -1   2 -17    0.13    0.25
   1   1 -17   -0.02    0.23
   1   1 -17    0.06    0.14
  -1  -1  17   -0.02    0.19
   0   1 -17    0.17    0.23
   0   1 -17   -0.01    0.14
  -1   1 -17    0.02    0.15
  -1   1 -17   -0.07    0.26
   1   0 -17    0.13    0.24
   1   0 -17    0.16    0.15
  -1   0  17    0.14    0.20
   0   0 -17    0.33    0.24
   0   0 -17    0.54    0.17
  -1   0 -17    0.51    0.17
   0  -1 -17    0.07    0.17
   0  -1 -17   -0.09    0.25
   0   1  17   -0.02    0.09
   0   1  17    0.04    0.22
   0   0   0    0.00    0.00
;
_shelx_hkl_checksum              88911
_shelx_res_file
;
    JTM672_0m.res created by SHELXL-2014/7
TITL JTM672_0m_a.res in P-1
REM Old TITL JTM672_0m in P-1
REM SHELXT solution in P-1
REM R1 0.273,  Rweak 0.034,  Alpha 0.034,  Orientation as input
REM Formula found by SHELXT:  C12 N2 O3
CELL  0.71073   4.3949   9.9144  13.1376   98.481   90.755   97.377
ZERR    2.000   0.0004   0.0008   0.0011    0.001    0.001    0.001
LATT  1
SFAC C H N O Cl
UNIT 20 20 6 6 2
TEMP 298
SIZE 0.105 0.204 0.454
L.S. 8
BOND $H
LIST 4
FMAP 2
PLAN 5
EQIV $1 -x+1, -y+1, -z
HTAB O3 N2_$1
EQIV $2 -x+1, -y+1, -z+1
HTAB C2 O1_$2
EQIV $3 x-1, y, z
HTAB C10 O3_$3
CONF
ACTA 56.7
MPLA N1 N2 C1 > C7
WGHT    0.091600
FVAR       0.27156
CL1   5    0.462050    0.099138    0.126466    11.00000    0.07549    0.04446 =
         0.10615    0.00744    0.01580    0.00095
O1    4    0.821697    0.604135    0.577049    11.00000    0.12764    0.10788 =
         0.05544    0.03021    0.00291   -0.01105
O2    4    1.187892    0.767471    0.613244    11.00000    0.15458    0.16021 =
         0.06468    0.02561   -0.04539   -0.03616
O3    4    0.701135    0.384891    0.071953    11.00000    0.04697    0.06958 =
         0.04964    0.01156    0.00407   -0.00463
AFIX 148
H3    2    0.562423    0.362151    0.009074    11.00000   -1.50000
AFIX   0
N1    3    0.578762    0.632862    0.198165    11.00000    0.04800    0.04738 =
         0.04266    0.01040   -0.00450    0.00063
N2    3    0.643358    0.703858    0.118594    11.00000    0.06345    0.05205 =
         0.04815    0.01701   -0.00474   -0.00066
N3    3    0.993309    0.699947    0.554192    11.00000    0.09031    0.08352 =
         0.04372    0.00863   -0.00715    0.00529
C1    1    0.753490    0.691615    0.283228    11.00000    0.04274    0.04175 =
         0.04363    0.00484    0.00013    0.00660
C2    1    0.765175    0.652770    0.381482    11.00000    0.05172    0.04782 =
         0.04446    0.00876    0.00372    0.00372
AFIX  43
H2    2    0.644074    0.575814    0.398538    11.00000   -1.20000
AFIX   0
C3    1    0.967885    0.736513    0.450253    11.00000    0.05987    0.05818 =
         0.04021    0.00338   -0.00231    0.00970
C4    1    1.152932    0.853307    0.427772    11.00000    0.06565    0.05882 =
         0.05371   -0.00313   -0.01132   -0.00322
AFIX  43
H4    2    1.285070    0.906412    0.478402    11.00000   -1.20000
AFIX   0
C5    1    1.140092    0.889567    0.331679    11.00000    0.06331    0.04798 =
         0.06097    0.00603   -0.00140   -0.00780
AFIX  43
H5    2    1.263259    0.966643    0.315724    11.00000   -1.20000
AFIX   0
C6    1    0.935286    0.807124    0.257302    11.00000    0.05173    0.04200 =
         0.04970    0.00905    0.00081    0.00274
C7    1    0.853488    0.807250    0.152916    11.00000    0.06945    0.04910 =
         0.05336    0.01764   -0.00204   -0.00376
AFIX  43
H7    2    0.938081    0.872447    0.113585    11.00000   -1.20000
AFIX   0
C8    1    0.362321    0.507617    0.184287    11.00000    0.03998    0.05141 =
         0.04821    0.00898   -0.00086   -0.00299
AFIX  23
H8A   2    0.218063    0.509970    0.128257    11.00000   -1.20000
H8B   2    0.247208    0.502547    0.246404    11.00000   -1.20000
AFIX   0
C9    1    0.524820    0.379826    0.160510    11.00000    0.04265    0.05030 =
         0.04207    0.01146    0.00032   -0.00290
AFIX  13
H9    2    0.665075    0.378338    0.218828    11.00000   -1.20000
AFIX   0
C10   1    0.289111    0.253737    0.152352    11.00000    0.05155    0.05186 =
         0.06130    0.00922    0.00695   -0.00422
AFIX  23
H10A  2    0.140266    0.255862    0.097626    11.00000   -1.20000
H10B  2    0.180995    0.254503    0.216286    11.00000   -1.20000
AFIX   0
HKLF 4
REM  JTM672_0m_a.res in P-1
REM R1 =  0.0467 for    1874 Fo > 4sig(Fo)  and  0.0652 for all    2790 data
REM    156 parameters refined using      0 restraints
END
WGHT      0.0916      0.0000
REM Highest difference peak  0.430,  deepest hole -0.193,  1-sigma level  0.049
Q1    1   0.7254  0.3812  0.2342  11.00000  0.05    0.43
Q2    1   0.4903  0.1225  0.0858  11.00000  0.05    0.35
Q3    1   1.0621  0.7974  0.6162  11.00000  0.05    0.26
Q4    1   1.1792  0.7761  0.6432  11.00000  0.05    0.25
Q5    1   0.7056  0.6689  0.2571  11.00000  0.05    0.25
;
_shelx_res_checksum              13081
loop_
_space_group_symop_operation_xyz
'x, y, z'
'-x, -y, -z'
loop_
_atom_site_type_symbol
_atom_site_label
_atom_site_fract_x
_atom_site_fract_y
_atom_site_fract_z
_atom_site_U_iso_or_equiv
_atom_site_adp_type
_atom_site_calc_flag
_atom_site_occupancy
Cl Cl1 0.46205(13) 0.09914(5) 0.12647(5) 0.0763(2) Uani d 1
O O1 0.8217(5) 0.6041(2) 0.57705(12) 0.0975(6) Uani d 1
O O2 1.1879(6) 0.7675(3) 0.61324(14) 0.1311(9) Uani d 1
O O3 0.7011(3) 0.38489(14) 0.07195(10) 0.0562(4) Uani d 1
H H3 0.562 0.362 0.0091 0.084 Uiso calc 1
N N1 0.5788(3) 0.63286(15) 0.19817(10) 0.0462(4) Uani d 1
N N2 0.6434(4) 0.70386(16) 0.11859(11) 0.0544(4) Uani d 1
N N3 0.9933(5) 0.6999(2) 0.55419(13) 0.0732(5) Uani d 1
C C1 0.7535(4) 0.69161(17) 0.28323(12) 0.0428(4) Uani d 1
C C2 0.7652(4) 0.65277(18) 0.38148(13) 0.0480(4) Uani d 1
H H2 0.6441 0.5758 0.3985 0.058 Uiso calc 1
C C3 0.9679(5) 0.7365(2) 0.45025(13) 0.0530(5) Uani d 1
C C4 1.1529(5) 0.8533(2) 0.42777(15) 0.0617(5) Uani d 1
H H4 1.2851 0.9064 0.4784 0.074 Uiso calc 1
C C5 1.1401(5) 0.8896(2) 0.33168(15) 0.0590(5) Uani d 1
H H5 1.2633 0.9666 0.3157 0.071 Uiso calc 1
C C6 0.9353(4) 0.80712(18) 0.25730(13) 0.0479(4) Uani d 1
C C7 0.8535(5) 0.80725(19) 0.15292(14) 0.0573(5) Uani d 1
H H7 0.9381 0.8724 0.1136 0.069 Uiso calc 1
C C8 0.3623(4) 0.50762(18) 0.18429(13) 0.0472(4) Uani d 1
H H8A 0.2181 0.5100 0.1283 0.057 Uiso calc 1
H H8B 0.2472 0.5025 0.2464 0.057 Uiso calc 1
C C9 0.5248(4) 0.37983(17) 0.16051(12) 0.0454(4) Uani d 1
H H9 0.6651 0.3783 0.2188 0.054 Uiso calc 1
C C10 0.2891(4) 0.25374(19) 0.15235(15) 0.0558(5) Uani d 1
H H10A 0.1403 0.2559 0.0976 0.067 Uiso calc 1
H H10B 0.1810 0.2545 0.2163 0.067 Uiso calc 1
loop_
_atom_site_aniso_label
_atom_site_aniso_U_11
_atom_site_aniso_U_22
_atom_site_aniso_U_33
_atom_site_aniso_U_12
_atom_site_aniso_U_13
_atom_site_aniso_U_23
Cl1 0.0755(4) 0.0445(3) 0.1061(5) 0.0009(2) 0.0158(3) 0.0074(3)
O1 0.1276(16) 0.1079(15) 0.0554(9) -0.0111(12) 0.0029(9) 0.0302(9)
O2 0.155(2) 0.160(2) 0.0647(11) -0.0362(17) -0.0454(12) 0.0256(12)
O3 0.0470(7) 0.0696(9) 0.0496(7) -0.0046(6) 0.0041(6) 0.0116(6)
N1 0.0480(8) 0.0474(8) 0.0427(7) 0.0006(6) -0.0045(6) 0.0104(6)
N2 0.0634(10) 0.0521(9) 0.0482(8) -0.0007(7) -0.0047(7) 0.0170(7)
N3 0.0903(14) 0.0835(14) 0.0437(9) 0.0053(11) -0.0071(9) 0.0086(9)
C1 0.0427(9) 0.0418(8) 0.0436(9) 0.0066(7) 0.0001(7) 0.0048(7)
C2 0.0517(10) 0.0478(9) 0.0445(9) 0.0037(8) 0.0037(7) 0.0088(7)
C3 0.0599(11) 0.0582(11) 0.0402(9) 0.0097(9) -0.0023(8) 0.0034(8)
C4 0.0656(13) 0.0588(12) 0.0537(11) -0.0032(9) -0.0113(9) -0.0031(9)
C5 0.0633(12) 0.0480(10) 0.0610(11) -0.0078(9) -0.0014(9) 0.0060(9)
C6 0.0517(10) 0.0420(9) 0.0497(9) 0.0027(7) 0.0008(8) 0.0090(7)
C7 0.0695(13) 0.0491(10) 0.0534(10) -0.0038(9) -0.0020(9) 0.0176(8)
C8 0.0400(9) 0.0514(10) 0.0482(9) -0.0030(7) -0.0009(7) 0.0090(7)
C9 0.0427(9) 0.0503(9) 0.0421(8) -0.0029(7) 0.0003(7) 0.0115(7)
C10 0.0515(11) 0.0519(10) 0.0613(11) -0.0042(8) 0.0070(9) 0.0092(8)
loop_
_atom_type_symbol
_atom_type_description
_atom_type_scat_dispersion_real
_atom_type_scat_dispersion_imag
_atom_type_scat_source
C C 0.0033 0.0016 'International Tables Vol C Tables 4.2.6.8 and 6.1.1.4'
H H 0.0000 0.0000 'International Tables Vol C Tables 4.2.6.8 and 6.1.1.4'
N N 0.0061 0.0033 'International Tables Vol C Tables 4.2.6.8 and 6.1.1.4'
O O 0.0106 0.0060 'International Tables Vol C Tables 4.2.6.8 and 6.1.1.4'
Cl Cl 0.1484 0.1585 'International Tables Vol C Tables 4.2.6.8 and 6.1.1.4'
loop_
_geom_angle_atom_site_label_1
_geom_angle_atom_site_label_2
_geom_angle_atom_site_label_3
_geom_angle
C9 O3 H3 109.5
N2 N1 C1 110.65(14)
N2 N1 C8 120.76(13)
C1 N1 C8 128.49(14)
C7 N2 N1 106.79(14)
O2 N3 O1 122.9(2)
O2 N3 C3 117.9(2)
O1 N3 C3 119.21(19)
N1 C1 C6 107.13(14)
N1 C1 C2 130.19(16)
C6 C1 C2 122.68(16)
C3 C2 C1 114.95(17)
C3 C2 H2 122.5
C1 C2 H2 122.5
C2 C3 C4 124.27(17)
C2 C3 N3 117.44(18)
C4 C3 N3 118.29(17)
C5 C4 C3 120.15(17)
C5 C4 H4 119.9
C3 C4 H4 119.9
C4 C5 C6 118.24(18)
C4 C5 H5 120.9
C6 C5 H5 120.9
C1 C6 C5 119.71(16)
C1 C6 C7 104.02(15)
C5 C6 C7 136.27(17)
N2 C7 C6 111.41(15)
N2 C7 H7 124.3
C6 C7 H7 124.3
N1 C8 C9 111.61(14)
N1 C8 H8A 109.3
C9 C8 H8A 109.3
N1 C8 H8B 109.3
C9 C8 H8B 109.3
H8A C8 H8B 108.0
O3 C9 C10 113.23(14)
O3 C9 C8 111.05(13)
C10 C9 C8 108.81(15)
O3 C9 H9 107.9
C10 C9 H9 107.9
C8 C9 H9 107.9
C9 C10 Cl1 111.62(14)
C9 C10 H10A 109.3
Cl1 C10 H10A 109.3
C9 C10 H10B 109.3
Cl1 C10 H10B 109.3
H10A C10 H10B 108.0
loop_
_geom_bond_atom_site_label_1
_geom_bond_atom_site_label_2
_geom_bond_distance
Cl1 C10 1.787(2)
O1 N3 1.211(3)
O2 N3 1.210(3)
O3 C9 1.4098(19)
O3 H3 1.0000
N1 N2 1.357(2)
N1 C1 1.360(2)
N1 C8 1.451(2)
N2 C7 1.310(2)
N3 C3 1.470(3)
C1 C6 1.398(2)
C1 C2 1.403(2)
C2 C3 1.366(3)
C2 H2 0.9300
C3 C4 1.398(3)
C4 C5 1.365(3)
C4 H4 0.9300
C5 C6 1.409(3)
C5 H5 0.9300
C6 C7 1.413(2)
C7 H7 0.9300
C8 C9 1.528(3)
C8 H8A 0.9700
C8 H8B 0.9700
C9 C10 1.507(2)
C9 H9 0.9800
C10 H10A 0.9700
C10 H10B 0.9700
loop_
_geom_hbond_atom_site_label_D
_geom_hbond_atom_site_label_H
_geom_hbond_atom_site_label_A
_geom_hbond_site_symmetry_A
_geom_hbond_distance_DH
_geom_hbond_distance_HA
_geom_hbond_distance_DA
_geom_hbond_angle_DHA
O3 H3 N2 2_665 1.00 1.88 2.871(2) 169
C2 H2 O1 2_666 0.93 2.59 3.492(3) 163
C10 H10A O3 1_455 0.97 2.49 3.268(3) 137
loop_
_geom_torsion_atom_site_label_1
_geom_torsion_atom_site_label_2
_geom_torsion_atom_site_label_3
_geom_torsion_atom_site_label_4
_geom_torsion
C1 N1 N2 C7 -0.7(2)
C8 N1 N2 C7 -177.30(17)
N2 N1 C1 C6 1.0(2)
C8 N1 C1 C6 177.20(16)
N2 N1 C1 C2 -179.43(17)
C8 N1 C1 C2 -3.2(3)
N1 C1 C2 C3 -179.49(18)
C6 C1 C2 C3 0.0(3)
C1 C2 C3 C4 0.3(3)
C1 C2 C3 N3 -179.21(16)
O2 N3 C3 C2 174.7(2)
O1 N3 C3 C2 -5.0(3)
O2 N3 C3 C4 -4.8(3)
O1 N3 C3 C4 175.5(2)
C2 C3 C4 C5 -0.6(3)
N3 C3 C4 C5 178.9(2)
C3 C4 C5 C6 0.5(3)
N1 C1 C6 C5 179.55(16)
C2 C1 C6 C5 -0.1(3)
N1 C1 C6 C7 -0.8(2)
C2 C1 C6 C7 179.58(16)
C4 C5 C6 C1 -0.2(3)
C4 C5 C6 C7 -179.7(2)
N1 N2 C7 C6 0.2(2)
C1 C6 C7 N2 0.4(2)
C5 C6 C7 N2 179.9(2)
N2 N1 C8 C9 94.92(18)
C1 N1 C8 C9 -81.0(2)
N1 C8 C9 O3 -57.54(17)
N1 C8 C9 C10 177.18(13)
O3 C9 C10 Cl1 56.88(18)
C8 C9 C10 Cl1 -179.12(11)

_cod_database_fobs_code 1546635
