#------------------------------------------------------------------------------
#$Date: 2017-07-25 13:20:03 +0300 (Tue, 25 Jul 2017) $
#$Revision: 199235 $
#$URL: file:///home/coder/svn-repositories/cod/cif/1/54/66/1546641.cif $
#------------------------------------------------------------------------------
#
# This file is available in the Crystallography Open Database (COD),
# http://www.crystallography.net/. The original data for this entry
# were provided by IUCr Journals, http://journals.iucr.org/.
#
# The file may be used within the scientific community so long as
# proper attribution is given to the journal article from which the
# data were obtained.
#
data_1546641
loop_
_publ_author_name
'Filali Baba, Yassir'
'Kandri Rodi, Youssef'
'Jasinski, Jerry P.'
'Kaur, Manpreet'
'Ouzidan, Younes'
'Essassi, El Mokhtar'
_publ_section_title
;
 Prop-2-ynyl 2-oxo-1-(prop-2-ynyl)-1,2-dihydroquinoline-4-carboxylate
;
_journal_coeditor_code           VM4026
_journal_issue                   7
_journal_name_full               IUCrData
_journal_page_first              x171072
_journal_paper_doi               10.1107/S2414314617010720
_journal_volume                  2
_journal_year                    2017
_chemical_formula_iupac          'C16 H11 N O3'
_chemical_formula_moiety         'C16 H11 N O3'
_chemical_formula_sum            'C16 H11 N O3'
_chemical_formula_weight         265.26
_chemical_name_systematic
;
Prop-2-ynyl 2-oxo-1-(prop-2-ynyl)-1,2-dihydroquinoline-4-carboxylate
;
_space_group_crystal_system      triclinic
_space_group_IT_number           2
_space_group_name_Hall           '-P 1'
_space_group_name_H-M_alt        'P -1'
_symmetry_space_group_name_Hall  '-P 1'
_symmetry_space_group_name_H-M   'P -1'
_atom_sites_solution_hydrogens   geom
_atom_sites_solution_primary     dual
_audit_creation_method
;
Olex2 1.2
(compiled 2017.03.28 svn.r3405 for OlexSys, GUI svn.r5337)
;
_cell_angle_alpha                91.059(11)
_cell_angle_beta                 107.867(12)
_cell_angle_gamma                109.814(14)
_cell_formula_units_Z            2
_cell_length_a                   7.3070(11)
_cell_length_b                   8.7763(13)
_cell_length_c                   11.2927(13)
_cell_measurement_reflns_used    943
_cell_measurement_temperature    293(2)
_cell_measurement_theta_max      70.1840
_cell_measurement_theta_min      4.1210
_cell_volume                     642.36(18)
_computing_cell_refinement
;
CrysAlis PRO (Rigaku, 2015)
;
_computing_data_collection
;
CrysAlis PRO (Rigaku, 2015)
;
_computing_data_reduction
;
CrysAlis PRO (Rigaku, 2015)
;
_computing_molecular_graphics
;
<i>OLEX2</i> (Dolomanov <i>et al.</i>,  2009)
;
_computing_publication_material
;
<i>OLEX2</i> (Dolomanov <i>et al.</i>,  2009)
;
_computing_structure_refinement
;
SHELXL2016 (Sheldrick, 2015b)
;
_computing_structure_solution
;
SHELXT (Sheldrick, 2015a)
;
_diffrn_ambient_temperature      293(2)
_diffrn_detector_area_resol_mean 16.0416
_diffrn_measured_fraction_theta_full 0.995
_diffrn_measured_fraction_theta_max 0.974
_diffrn_measurement_device       'four-circle diffractometer'
_diffrn_measurement_device_type  'Rigaku Oxford Diffraction'
_diffrn_measurement_method       '\w scans'
_diffrn_radiation_monochromator  graphite
_diffrn_radiation_type           CuK\a
_diffrn_radiation_wavelength     1.54184
_diffrn_reflns_av_R_equivalents  0.0278
_diffrn_reflns_limit_h_max       6
_diffrn_reflns_limit_h_min       -8
_diffrn_reflns_limit_k_max       10
_diffrn_reflns_limit_k_min       -10
_diffrn_reflns_limit_l_max       13
_diffrn_reflns_limit_l_min       -13
_diffrn_reflns_number            3962
_diffrn_reflns_theta_full        67.684
_diffrn_reflns_theta_max         71.006
_diffrn_reflns_theta_min         4.152
_exptl_absorpt_coefficient_mu    0.788
_exptl_absorpt_correction_T_max  1.00000
_exptl_absorpt_correction_T_min  0.83249
_exptl_absorpt_correction_type   multi-scan
_exptl_absorpt_process_details
;
(CrysAlis PRO; Rigaku, 2015)
;
_exptl_crystal_colour            colourless
_exptl_crystal_density_diffrn    1.371
_exptl_crystal_description       plate
_exptl_crystal_F_000             276
_exptl_crystal_size_max          0.4
_exptl_crystal_size_mid          0.12
_exptl_crystal_size_min          0.06
_refine_diff_density_max         0.139
_refine_diff_density_min         -0.197
_refine_ls_extinction_method     none
_refine_ls_goodness_of_fit_ref   1.019
_refine_ls_hydrogen_treatment    constr
_refine_ls_matrix_type           full
_refine_ls_number_parameters     181
_refine_ls_number_reflns         2418
_refine_ls_number_restraints     0
_refine_ls_restrained_S_all      1.019
_refine_ls_R_factor_all          0.0738
_refine_ls_R_factor_gt           0.0487
_refine_ls_shift/su_max          0.000
_refine_ls_shift/su_mean         0.000
_refine_ls_structure_factor_coef Fsqd
_refine_ls_weighting_details
'w=1/[\s^2^(Fo^2^)+(0.0621P)^2^] where P=(Fo^2^+2Fc^2^)/3'
_refine_ls_weighting_scheme      calc
_refine_ls_wR_factor_gt          0.1181
_refine_ls_wR_factor_ref         0.1417
_reflns_number_gt                1624
_reflns_number_total             2418
_reflns_threshold_expression     'I > 2\s(I)'
_cod_data_source_file            vm4026sup1.cif
_cod_data_source_block           I
_cod_original_cell_volume        642.36(17)
_cod_database_code               1546641
_shelx_space_group_comment
;
The symmetry employed for this shelxl refinement is uniquely defined
by the following loop, which should always be used as a source of
symmetry information in preference to the above space-group names.
They are only intended as comments.
;
_shelx_hkl_file
;
   0   0   1 2197.17   14.47
   0   0  -1 2260.56   13.46
   0   0   2  155.52    5.49
   0   0  -2  169.41    5.21
   0   0  -3  120.60    5.49
   0   0  -4  491.07   13.06
   0   0  -5   38.86    4.68
   0   0  -5   45.56    4.65
   0   0  -6   74.63    7.08
   0   0  -6   70.80    6.54
   0   0  -7  101.64    8.70
   0   0  -7  101.78    9.07
   0   0  -8   20.52    4.54
   0   0  -8   16.30    3.75
   0   0   8   17.25    3.66
   0   0   9    3.49    2.18
   0   0   9    2.68    1.37
   0   0  10   25.01    4.66
   0   0  10   30.24    5.14
   0   0  11   -1.06    1.14
   0   0 -12   36.66    4.32
   0   0 -13   68.35    4.71
   0  -1  12    3.81    1.40
   0  -1  11    4.05    1.86
   0  -1  11    5.12    2.33
   0  -1  10    1.42    1.35
   0  -1  10    3.99    2.00
   0  -1   9   15.90    3.70
   0  -1   9   16.65    3.95
   0   1  -8   39.80    6.04
   0   1  -7  577.32   21.00
   0   1  -6  196.28   11.13
   0   1  -6  196.69   10.97
   0   1  -5 2641.51   36.46
   0   1  -5 2547.59   35.13
   0   1  -4   69.52    5.31
   0   1  -4   66.86    5.10
   0  -1   4   73.12    3.88
   0   1  -3   51.46    3.85
   0   1  -3   53.86    4.01
   0  -1   3   51.24    2.90
   0   1  -2  306.09    7.60
   0   1  -2  327.98    8.03
   0  -1   2  314.20    6.08
   0   1  -1  263.58    5.73
   0   1   0  852.82    9.96
   0   1   1  878.85   11.59
   0   1   1  890.00   12.08
   0  -1  -2   16.45    1.97
   0   1   2   15.74    2.07
   0   1   3  478.70   12.41
   0  -1  -3  488.64   11.93
   0   1   4  228.69   10.13
   0  -1  -5  169.80    9.12
   0   1   5  173.85   10.20
   0  -1  -6  123.06    8.72
   0  -1  -7    1.54    2.27
   0  -1  -7    1.47    1.83
   0   1   8  184.69   11.71
   0   1   8  191.62   12.05
   0  -1  -8  201.64   12.00
   0   1   9   19.05    4.10
   0  -1  -9   16.33    3.80
   0   1  10    1.23    1.33
   0   1  11   16.58    3.43
   0  -1 -11   18.60    4.15
   0  -1 -12    0.06    1.30
   0  -2  12    1.59    1.19
   0  -2  11   11.04    3.12
   0  -2  11    6.36    2.23
   0  -2  10    4.53    2.53
   0  -2  10    4.56    2.34
   0  -2   9   15.37    3.58
   0   2  -8    1.90    1.52
   0  -2   8    6.01    2.04
   0   2  -7   26.53    4.70
   0   2  -7   19.53    3.80
   0   2  -6  101.68    8.08
   0   2  -5   14.76    2.94
   0  -2   4  282.75    8.56
   0   2  -4  284.83   10.66
   0   2  -3  699.01   15.01
   0  -2   3  810.36   13.38
   0   2  -2  923.99   15.64
   0   2  -1  412.17    9.72
   0   2  -1  397.65    9.67
   0   2   0  781.63   14.41
   0   2   0  799.61   13.68
   0   2   1  569.22   11.98
   0   2   1  557.28   12.45
   0   2   2 1127.91   19.12
   0   2   2 1205.17   20.15
   0  -2  -3  236.54    9.13
   0   2   3  255.41   10.51
   0  -2  -4   -0.93    1.05
   0   2   4   -0.66    1.06
   0   2   5   87.29    7.71
   0   2   6    3.72    1.93
   0  -2  -6    3.04    1.73
   0  -2  -7    3.58    1.96
   0   2   8    5.75    2.46
   0  -2  -8    6.42    2.58
   0  -2  -9   40.63    5.83
   0   2   9   38.26    5.58
   0  -2 -10   86.11    8.20
   0   2  10   87.85    8.18
   0  -2 -11   -1.26    1.80
   0  -2 -12   32.14    3.37
   0  -2 -12   37.45    3.95
   0  -3  12   14.08    3.08
   0  -3  12   13.20    2.76
   0  -3  11    0.73    1.11
   0  -3  11    0.55    1.54
   0  -3  10   18.65    3.97
   0  -3   9   12.74    3.32
   0  -3   8    1.82    1.46
   0   3  -7   32.33    5.13
   0   3  -6   31.75    4.82
   0   3  -5  136.78    8.98
   0  -3   4   37.77    3.72
   0   3  -4   37.38    4.42
   0   3  -3  247.37   10.39
   0   3  -2 1220.42   21.50
   0   3  -2 1195.83   21.47
   0   3  -1 1050.74   19.70
   0   3   0  425.08   13.27
   0   3   0  430.61   12.40
   0   3   1  264.26    9.99
   0   3   1  270.87   10.58
   0   3   2  265.37   10.74
   0   3   2  259.70   11.23
   0  -3  -3  571.60   15.66
   0   3   3  585.51   18.07
   0   3   4  699.57   21.43
   0  -3  -4  713.37   19.65
   0   3   5  139.00   10.38
   0   3   6  101.66    9.97
   0   3   7    5.96    2.18
   0  -3  -7    6.59    2.27
   0  -3  -8  173.56   11.91
   0   3   8  206.67   12.97
   0  -3  -8  194.23   12.79
   0  -3  -9    2.37    2.01
   0   3   9    7.35    2.59
   0  -3 -10   39.71    5.42
   0  -3 -11   -0.95    1.60
   0  -3 -11   -1.76    0.99
   0  -4  12    8.53    2.18
   0  -4  12    4.87    1.68
   0  -4  11    9.59    2.71
   0  -4  11   14.23    3.14
   0  -4  10    2.10    1.76
   0  -4  10    3.58    1.85
   0  -4   9    6.89    2.49
   0  -4   9    5.63    2.18
   0  -4   8    6.39    2.48
   0  -4   7  194.36   11.29
   0  -4   7  192.71   11.74
   0   4  -6  144.01   10.87
   0   4  -5   18.05    3.77
   0  -4   4  235.44   11.10
   0   4  -4  262.90   12.99
   0   4  -4  259.64   12.84
   0   4  -3 1028.33   24.38
   0   4  -3 1066.44   24.82
   0   4  -2  601.32   18.03
   0   4  -1   19.30    3.54
   0   4  -1   15.93    2.97
   0   4   0  184.02    9.53
   0   4   0  166.05    9.79
   0   4   1  913.53   22.94
   0   4   1 1044.02   23.06
   0   4   2   27.88    4.06
   0   4   2   29.94    4.54
   0   4   3   15.92    3.55
   0   4   4   27.25    4.83
   0   4   5    7.26    2.85
   0   4   6   12.82    3.20
   0  -4  -6   10.46    3.36
   0   4   7    1.53    1.82
   0  -4  -7    1.38    1.92
   0  -4  -8    6.24    2.74
   0   4   8    2.83    1.56
   0  -4  -9    5.46    2.75
   0  -4 -10    7.33    2.57
   0  -4 -11    1.27    1.35
   0  -5  12    1.06    0.80
   0  -5  11   -0.66    0.91
   0  -5  11    0.07    0.94
   0  -5  10   24.92    3.97
   0  -5  10   25.57    4.34
   0  -5   9    5.02    1.95
   0  -5   9    5.77    2.50
   0  -5   8  168.93   11.49
   0  -5   7   69.09    7.33
   0  -5   7   64.93    6.89
   0  -5   6   16.83    3.53
   0   5  -6   13.85    3.77
   0  -5   6   15.44    3.47
   0  -5   6   22.64    4.11
   0   5  -5   24.87    4.94
   0   5  -5   20.37    4.55
   0   5  -4    0.85    1.24
   0   5  -3   97.53    8.65
   0   5  -2   52.40    6.08
   0   5  -2   44.16    6.01
   0   5  -1   -0.24    1.11
   0   5  -1   -0.78    1.29
   0   5   0  189.68   11.05
   0   5   0  155.94   10.62
   0   5   1   19.76    3.70
   0   5   1   18.54    4.01
   0   5   2   63.36    7.33
   0   5   2   68.84    7.18
   0   5   3    1.47    1.86
   0   5   4   -1.35    1.51
   0  -5  -4   -0.74    2.09
   0   5   5   -0.96    1.14
   0  -5  -5   -0.52    1.65
   0   5   6   21.46    4.14
   0  -5  -6   13.65    3.62
   0  -5  -7    8.65    2.88
   0   5   7   16.94    3.70
   0  -5  -8   -0.13    1.77
   0  -5  -9    5.12    2.23
   0  -5 -10    0.80    1.31
   0  -6  11    2.04    1.02
   0  -6  10   -0.77    1.24
   0  -6   9    3.04    1.62
   0  -6   9    2.53    1.67
   0  -6   8   10.89    3.00
   0  -6   7    9.30    2.76
   0  -6   7    9.89    2.96
   0  -6   6    2.85    2.03
   0  -6   6   -0.10    1.57
   0  -6   5   -0.13    1.04
   0  -6   5    2.42    1.20
   0  -6   4    7.21    1.98
   0  -6   4    7.68    2.44
   0  -6   4    9.05    2.63
   0   6  -3   74.79    8.97
   0   6  -2    3.12    2.34
   0   6  -1   53.70    7.04
   0   6   0  185.00   13.34
   0   6   1   48.84    7.17
   0  -6  -2   24.66    4.36
   0  -6  -3   13.78    3.53
   0  -6  -4  110.24    9.10
   0   6   4  112.45    9.64
   0   6   5    0.17    1.85
   0  -6  -5   -1.78    2.14
   0   6   6    4.28    2.01
   0  -6  -6    1.31    1.64
   0  -6  -7    1.05    1.43
   0  -6  -8   -0.71    1.31
   0  -6  -9    2.38    1.55
   0  -7  10   -0.07    0.80
   0  -7   9    4.91    1.81
   0  -7   8   53.04    6.13
   0  -7   7    2.34    1.59
   0  -7   6   89.93    8.05
   0  -7   6   97.96    8.52
   0  -7   5    4.04    1.84
   0  -7   5    3.76    1.96
   0  -7   4    1.10    1.28
   0  -7   4    1.11    2.00
   0  -7   4   -0.31    1.22
   0  -7   3   15.52    3.67
   0  -7   3   10.95    2.93
   0  -7   3   17.42    3.71
   0  -7   2   39.92    5.33
   0  -7   2   33.59    5.17
   0  -7   2   30.03    4.67
   0  -7   1  297.64   14.54
   0  -7   1  318.81   14.69
   0  -7   0  610.50   20.99
   0  -7  -1   41.05    5.59
   0  -7  -1   48.50    6.23
   0  -7  -2    0.86    1.45
   0  -7  -3    1.11    2.25
   0  -7  -4    5.05    2.39
   0  -7  -5   17.18    3.59
   0  -7  -6    3.28    2.09
   0  -7  -7   13.16    2.58
   0   7   7   13.75    2.55
   0  -7  -7   12.32    2.42
   0  -7  -8    1.74    1.03
   0  -8   9   21.05    2.91
   0  -8   8    2.55    1.50
   0  -8   7   14.25    2.97
   0  -8   6   38.69    4.84
   0  -8   6   36.98    4.77
   0  -8   6   41.76    5.17
   0  -8   5   97.15    7.85
   0  -8   5  103.79    8.15
   0  -8   4    5.35    2.34
   0  -8   4    3.70    2.19
   0  -8   4    5.03    2.08
   0  -8   3   -0.80    1.19
   0  -8   3    0.40    1.27
   0  -8   3   -0.17    1.73
   0  -8   2   18.28    3.91
   0  -8   2   17.22    3.50
   0  -8   2   11.17    2.87
   0  -8   1    3.41    2.03
   0  -8   1    1.86    1.40
   0  -8   0    5.82    2.63
   0  -8  -1    3.40    1.84
   0  -8  -2   23.55    4.15
   0  -8  -3    0.74    1.28
   0  -8  -4    3.83    1.95
   0  -8  -5    1.15    1.35
   0   8   6   -1.42    1.01
   0  -8  -6    1.38    1.29
   0  -9   7    0.83    0.73
   0  -9   6   13.36    2.34
   0  -9   5    2.08    1.30
   0  -9   4    0.84    1.53
   0  -9   4   -0.17    0.96
   0  -9   3    0.96    1.37
   0  -9   3   -2.45    1.36
   0  -9   2    7.88    2.20
   0  -9   2    6.61    2.25
   0  -9   1    2.91    2.03
   0  -9   0    6.19    2.40
   0  -9  -1   11.65    2.76
   0  -9  -2    8.79    2.59
   0  -9  -3   -0.17    1.08
   0  -9  -4    0.22    1.00
   0   9   4    0.76    0.65
   0 -10   0    0.74    1.00
   1 -10  -2    3.52    1.28
   1 -10  -1   -0.78    0.98
   1 -10  -1   -2.62    1.28
   1 -10   0    5.01    1.74
   1 -10   0    3.55    1.47
   1 -10   1    0.93    1.12
   1 -10   2    1.44    1.14
   1 -10   3    6.01    1.75
   1 -10   4    0.67    0.94
   1  -9  -5    2.27    0.96
  -1   9   5    5.11    1.67
   1  -9  -4    3.11    1.56
  -1   9   4    4.89    1.74
  -1   9   3   23.92    3.70
   1  -9  -3   19.05    3.37
   1  -9  -2    5.68    2.07
   1  -9  -1   39.22    5.05
   1  -9   0    6.54    2.28
   1  -9   0    4.46    2.10
   1  -9   1    6.30    2.45
   1  -9   1    2.80    1.84
   1  -9   2    1.21    1.82
   1  -9   2    2.73    1.99
   1  -9   3    8.85    2.74
   1  -9   4    8.94    2.54
   1  -9   5    7.88    2.30
   1  -9   6    1.68    1.11
   1  -9   7   -0.21    0.87
   1  -8  -7   -3.69    1.27
  -1   8   7    0.40    0.77
  -1   8   6    7.69    2.11
   1  -8  -6    6.29    2.10
   1  -8  -6    7.04    1.86
   1  -8  -5   11.08    2.74
   1  -8  -5    4.71    1.67
   1  -8  -4    1.19    1.65
   1  -8  -3   17.13    3.73
   1  -8  -2    5.44    2.63
   1  -8  -1  111.09    9.12
   1  -8   0    1.20    1.58
   1  -8   1    1.50    1.60
   1  -8   2    2.41    2.03
   1  -8   2    4.24    2.22
   1  -8   3    4.84    2.13
   1  -8   3    8.74    3.08
   1  -8   4   73.46    7.34
   1  -8   4   75.72    7.05
   1  -8   5    0.90    1.19
   1  -8   5   -0.39    1.38
   1  -8   5    1.45    1.41
   1  -8   6    0.99    1.49
   1  -8   6    2.17    1.48
   1  -8   7   20.37    3.52
   1  -8   8    2.22    1.37
   1  -8   8    5.99    1.98
   1  -8   9   27.32    3.26
   1  -7  -8    9.89    2.38
   1  -7  -7    4.80    1.97
  -1   7   7    4.38    1.73
   1  -7  -7    6.25    2.28
   1  -7  -6   23.25    4.20
   1  -7  -5   43.08    5.69
   1  -7  -4   18.92    3.85
   1  -7  -3    2.94    2.05
   1  -7  -2   29.21    4.72
   1  -7  -1  323.57   15.05
   1  -7   0   11.68    3.05
   1  -7   1   -3.96    2.16
   1  -7   2    3.13    2.16
   1  -7   3    2.45    1.60
   1  -7   3    3.32    2.10
   1  -7   3    3.75    1.84
   1  -7   4   19.33    3.84
   1  -7   4   18.82    3.84
   1  -7   5   65.81    7.05
   1  -7   5   67.54    7.64
   1  -7   5   69.40    7.03
   1  -7   6   22.40    4.29
   1  -7   6   18.29    4.06
   1  -7   6   21.79    4.22
   1  -7   7   46.92    6.02
   1  -7   8   13.15    3.21
   1  -7   9    2.43    1.42
   1  -7   9    2.77    1.50
   1  -7  10   -2.04    1.00
   1  -7  10    0.16    0.84
   1  -6 -10    9.01    2.02
   1  -6  -9    1.96    1.28
  -1   6   9    0.59    0.78
  -1   6   8    1.56    1.29
   1  -6  -8    1.11    1.45
   1  -6  -7   55.66    6.46
  -1   6   7   51.77    6.42
   1  -6  -6  123.24    9.55
  -1   6   6  127.21   10.33
  -1   6   5   13.60    3.51
   1  -6  -5   19.49    4.04
  -1   6   4    1.87    1.37
   1  -6  -4    2.59    2.26
  -1   6   3    1.16    1.23
  -1   6   3    3.54    2.05
  -1   6   2    6.52    2.47
  -1   6   1    7.80    2.89
  -1   6   0   34.85    5.58
  -1   6  -1  234.13   14.37
  -1   6  -1  242.22   14.29
  -1   6  -2    4.97    2.41
  -1   6  -2    4.24    2.06
  -1   6  -3   37.27    6.04
   1  -6   4   36.73    4.96
   1  -6   4   35.11    4.90
   1  -6   4   37.41    5.12
  -1   6  -4   39.29    6.77
   1  -6   5   49.74    5.90
   1  -6   5   62.20    7.20
   1  -6   5   60.54    6.43
   1  -6   6   23.39    4.41
   1  -6   6   21.60    4.17
   1  -6   6   19.83    4.08
   1  -6   7  144.33   10.94
   1  -6   8   24.90    4.56
   1  -6   9   20.44    3.98
   1  -6   9   21.45    3.82
   1  -6  10    4.67    1.57
   1  -6  10    3.62    1.83
   1  -6  11    5.42    1.68
   1  -5 -11    6.01    1.66
  -1   5  10   -0.63    0.80
   1  -5 -10    0.55    1.53
  -1   5   9   -0.10    1.14
   1  -5  -9   -0.61    1.42
   1  -5  -8    1.26    1.94
  -1   5   8    2.00    1.50
   1  -5  -7   13.68    3.68
  -1   5   7   14.17    3.53
  -1   5   6    0.61    1.41
   1  -5  -6    6.06    2.92
  -1   5   5    1.33    1.41
   1  -5  -5    1.41    2.26
  -1   5   3  276.18   14.14
  -1   5   3  256.07   14.42
  -1   5   2   96.87    8.00
  -1   5   2   94.58    8.42
  -1   5   1   23.80    3.91
  -1   5   1   19.41    3.85
  -1   5   0  331.56   14.44
  -1   5   0  340.58   15.39
  -1   5  -1   -2.58    1.57
  -1   5  -1    0.38    1.09
  -1   5  -2    2.43    1.95
  -1   5  -3   74.38    7.98
  -1   5  -4   61.23    7.37
  -1   5  -5   15.66    3.96
  -1   5  -5   18.64    4.16
   1  -5   6  133.31    9.52
   1  -5   6  144.40    9.78
   1  -5   6  144.37   10.56
   1  -5   7  306.72   15.86
   1  -5   8  131.12   10.43
   1  -5   9   66.80    6.70
   1  -5   9   58.99    6.96
   1  -5  10    3.62    2.09
   1  -5  11   10.63    2.49
  -1   4  11    2.88    1.34
   1  -4 -11    2.25    1.46
   1  -4 -10    0.25    1.55
  -1   4  10    1.33    1.23
   1  -4  -9    0.96    1.94
  -1   4   9   -0.31    1.49
   1  -4  -8    2.66    2.25
  -1   4   8    2.98    1.58
   1  -4  -7   12.13    3.16
  -1   4   7   11.78    3.29
   1  -4  -6   41.67    6.05
   1  -4  -5    3.65    1.89
  -1   4   5    2.80    1.54
   1  -4  -4  604.96   20.16
  -1   4   4  595.33   20.52
  -1   4   4  656.48   20.55
  -1   4   3  124.60    8.27
  -1   4   3  123.06    9.07
  -1   4   2   21.82    3.31
  -1   4   2   18.86    3.46
  -1   4   1  107.61    6.79
  -1   4   1  113.08    7.89
  -1   4   0  246.88   11.67
  -1   4   0  238.03   10.42
  -1   4  -1   46.21    5.24
  -1   4  -2   24.30    3.95
  -1   4  -3    0.22    1.06
  -1   4  -3    1.72    1.36
  -1   4  -4  236.30   12.55
  -1   4  -5   42.21    5.76
  -1   4  -6  272.35   15.26
   1  -4   7  719.54   23.25
   1  -4   8  152.75   11.20
   1  -4   9   -1.39    1.73
   1  -4  10    4.40    2.05
   1  -4  11    1.99    1.66
   1  -4  12    5.49    1.74
   1  -3 -12    1.71    1.32
  -1   3  12    1.38    0.89
   1  -3 -11   22.40    4.19
  -1   3  11   27.15    4.27
   1  -3 -10   10.15    3.36
  -1   3  10    7.38    2.70
  -1   3   9  557.88   21.89
  -1   3   8  684.32   23.72
   1  -3  -7   43.68    6.40
  -1   3   6    3.77    1.82
   1  -3  -6    4.16    2.09
   1  -3  -5    3.64    2.03
  -1   3   5    2.78    1.45
  -1   3   4  371.35   14.61
   1  -3  -4  347.82   13.96
  -1   3   3  232.53   10.89
  -1   3   3  230.82    9.70
  -1   3   2   47.94    4.02
  -1   3   2   41.48    4.32
  -1   3   1  127.16    7.20
  -1   3   1  124.69    5.92
  -1   3   0 1383.07   23.60
  -1   3  -1  588.66   15.56
  -1   3  -2  364.04   12.35
  -1   3  -3  122.73    7.56
  -1   3  -4   59.32    5.68
  -1   3  -5    6.04    2.24
  -1   3  -6    6.02    2.24
  -1   3  -7    8.79    2.66
   1  -3   8    9.35    2.89
   1  -3   9   14.05    3.60
   1  -3  10    1.32    1.66
   1  -3  11    3.18    1.93
  -1   3 -12    3.02    1.08
  -1   2  12   15.13    2.93
   1  -2 -12   18.14    3.58
  -1   2  11    4.95    2.18
  -1   2  10    6.10    2.48
  -1   2   9  436.39   19.34
  -1   2   8  267.11   14.40
   1  -2  -7   11.41    3.38
   1  -2  -6   14.32    3.44
   1  -2  -5   33.24    4.51
  -1   2   5   34.46    4.43
  -1   2   4   13.15    2.41
   1  -2  -4   13.49    2.71
  -1   2   3  376.35   10.26
  -1   2   3  359.56   11.77
  -1   2   2   52.07    3.25
  -1   2   2   47.46    3.90
  -1   2   1  204.98    5.60
  -1   2   1  195.73    7.41
  -1   2   0  214.42    7.77
  -1   2  -1 1290.95   11.81
  -1   2  -1 1262.58   18.35
  -1   2  -2  920.14   16.43
  -1   2  -3  173.24    7.84
   1  -2   3  166.46    3.88
  -1   2  -4  181.25    8.85
  -1   2  -5  145.09    8.78
  -1   2  -6   75.55    7.07
  -1   2  -7   27.19    4.74
   1  -2   8   51.78    6.33
   1  -2   9   -2.40    1.80
   1  -2  10   60.04    7.12
   1  -2  11    5.43    2.30
  -1   2 -11    3.40    1.60
  -1   2 -12    0.53    0.91
  -1   1  13    4.43    1.47
   1  -1 -13    8.36    2.25
  -1   1  12    5.55    2.17
  -1   1  11    7.99    2.82
  -1   1  10   11.53    3.34
  -1   1   9  208.96   13.14
   1  -1  -8   40.10    6.06
   1  -1  -8   41.67    6.42
   1  -1  -7    1.94    1.46
   1  -1  -6   17.53    3.41
   1  -1  -5   40.45    4.45
   1  -1  -4   57.63    4.97
  -1   1   4   61.15    2.45
   1  -1  -3  713.10   14.85
  -1   1   2  773.67   12.87
  -1   1   2  800.43   10.32
  -1   1   1 2270.88    8.94
  -1   1   1 2280.30   19.13
  -1   1   0  108.23    3.67
  -1   1   0  109.49    4.01
  -1   1  -1  793.06   10.88
  -1   1  -2  114.70    4.73
  -1   1  -2  125.18    5.59
  -1   1  -3    1.35    1.12
  -1   1  -4 3803.52   40.15
  -1   1  -5  231.85   11.39
  -1   1  -6   19.18    3.75
  -1   1  -7   33.10    5.41
   1  -1   8    2.24    1.76
   1  -1   9   42.02    5.99
   1  -1  10   46.46    6.19
  -1   1 -11    3.41    2.15
  -1   1 -12    3.22    1.63
   1   0 -13    1.69    1.81
  -1   0  13    0.17    0.67
  -1   0  12   -2.43    1.54
  -1   0  11    2.28    1.92
  -1   0  10  137.94   11.02
  -1   0  10  143.96   10.81
  -1   0   9   35.98    5.25
  -1   0   9   33.06    5.34
   1   0  -8  143.23   11.65
   1   0  -8  137.77   11.12
   1   0  -7  359.49   16.30
   1   0  -7  365.10   16.65
   1   0  -6  462.73   16.59
   1   0  -5  769.76   18.99
   1   0  -4 1075.30   19.01
   1   0  -4 1113.80   20.08
   1   0  -3 4054.29   32.55
  -1   0   3 4219.27   30.47
   1   0  -2   35.60    2.47
  -1   0   2   33.64    1.91
  -1   0   1  252.18    5.88
  -1   0   0   43.35    2.09
   1   0   0   49.26    2.42
  -1   0  -1   94.80    3.60
  -1   0  -1   94.74    3.20
   1   0   1   90.34    4.23
  -1   0  -1  103.52    4.66
  -1   0  -2  151.16    4.94
   1   0   2  143.08    6.23
  -1   0  -2  153.31    5.89
  -1   0  -2  151.46    3.99
  -1   0  -3   39.17    3.67
  -1   0  -3   37.06    3.13
   1   0   3   29.97    3.62
  -1   0  -4  969.91   20.67
  -1   0  -4 1016.19   18.85
   1   0   4  984.44   22.61
  -1   0  -5  300.32   12.14
  -1   0  -5  274.22   12.52
  -1   0  -6  220.53   12.60
  -1   0  -7   20.37    4.24
   1   0   8   43.30    5.86
  -1   0  -9   18.45    4.13
   1   0   9   20.34    4.32
  -1   0 -10    5.25    2.40
  -1   0 -10    0.07    1.41
  -1   0 -11    3.12    1.82
  -1   0 -12   -0.64    1.05
  -1  -1  13   14.90    2.85
  -1  -1  12    5.94    2.11
  -1  -1  11  179.43   12.34
  -1  -1  11  189.04   12.16
  -1  -1  10   -0.94    1.43
  -1  -1  10   -0.13    1.60
  -1  -1   9    3.81    1.88
   1   1  -8  181.87   12.62
   1   1  -8  193.13   13.31
   1   1  -7   10.25    3.01
   1   1  -7    5.64    2.24
   1   1  -6  423.43   16.01
   1   1  -6  397.35   15.60
  -1  -1   6  413.65   13.56
   1   1  -5  177.83    9.29
   1   1  -5  184.96    9.24
  -1  -1   5  164.12    7.79
   1   1  -4   41.68    3.89
  -1  -1   4   41.62    3.68
   1   1  -4   44.62    4.20
   1   1  -3    3.23    1.26
   1   1  -3    2.57    1.05
  -1  -1   3    2.76    1.06
   1   1  -2 1314.55   16.02
   1   1  -2 1321.87   13.90
  -1  -1   1 1697.16   14.94
   1   1  -1 1698.39   11.68
   1   1   0 1478.43   11.18
   1   1   0 1401.76   18.61
   1   1   1 8094.69   48.90
  -1  -1  -1 8185.18   43.10
  -1  -1  -2  823.39   15.91
   1   1   2  786.44   17.03
  -1  -1  -3  415.40   10.10
   1   1   3  419.54   13.80
  -1  -1  -3  410.44   13.07
  -1  -1  -4   42.16    3.88
   1   1   4   37.37    4.67
  -1  -1  -4   39.66    4.40
  -1  -1  -5  122.00    8.70
   1   1   5  124.59    9.59
  -1  -1  -6   93.81    8.41
  -1  -1  -6  102.69    9.01
  -1  -1  -7    5.30    2.43
   1   1   7    4.94    1.86
  -1  -1  -7    3.88    1.67
  -1  -1  -7   10.56    3.18
  -1  -1  -8    3.38    1.85
  -1  -1  -9    5.49    2.25
  -1  -1  -9    6.41    2.72
  -1  -1 -10    0.79    1.91
  -1  -1 -10   -0.25    1.15
  -1  -1 -11    0.76    1.18
  -1  -1 -11    1.43    1.19
  -1  -1 -11    1.37    1.33
  -1  -1 -12   19.45    2.54
  -1  -2  13   23.24    3.37
  -1  -2  12    5.16    2.10
  -1  -2  11    9.49    3.14
  -1  -2  11   13.10    3.23
  -1  -2  10    0.49    1.16
  -1  -2   9   54.64    6.52
   1   2  -8   22.13    4.42
   1   2  -7    3.19    1.81
  -1  -2   6 1207.23   23.99
   1   2  -6 1324.00   27.77
  -1  -2   5   25.53    3.44
   1   2  -5   29.45    3.70
  -1  -2   4  782.36   17.42
   1   2  -4  815.66   16.81
   1   2  -3   40.20    3.68
  -1  -2   3   48.32    4.14
   1   2  -2  142.00    6.08
   1   2  -2  150.66    5.70
   1   2  -1  510.99    9.66
   1   2  -1  523.89   10.71
  -1  -2   1  498.56    8.79
   1   2   0  892.60   18.67
   1   2   0  950.07   13.62
   1   2   1   91.81    6.28
  -1  -2  -1   80.90    3.61
   1   2   2    1.77    1.25
  -1  -2  -2    2.89    1.17
  -1  -2  -3    2.52    1.20
   1   2   3    0.69    0.96
   1   2   4   17.06    3.51
  -1  -2  -4   18.91    3.37
   1   2   5    3.63    1.78
  -1  -2  -5    4.29    2.03
   1   2   6   52.97    7.37
  -1  -2  -7 1025.30   28.57
  -1  -2  -7  966.27   26.68
  -1  -2  -8  333.63   16.16
  -1  -2  -8  319.35   16.73
  -1  -2  -9    5.50    2.57
  -1  -2  -9    5.91    2.68
  -1  -2 -10    1.57    1.20
  -1  -2 -10    0.69    1.76
  -1  -2 -11    6.43    1.92
  -1  -2 -11    4.98    1.58
  -1  -3  13    7.51    1.95
  -1  -3  12    4.51    1.90
  -1  -3  11   10.37    3.13
  -1  -3  11    8.08    2.58
  -1  -3  10    7.17    2.57
  -1  -3  10    4.27    1.88
  -1  -3   9   52.45    6.26
  -1  -3   9   46.83    5.79
  -1  -3   8    0.74    1.52
  -1  -3   8    1.33    1.19
   1   3  -7  156.05   11.18
  -1  -3   6   79.39    6.92
   1   3  -6   80.93    7.52
  -1  -3   5  464.86   16.10
   1   3  -5  462.94   16.44
   1   3  -4  115.71    7.68
  -1  -3   4  114.06    7.57
   1   3  -3   90.53    6.03
   1   3  -3   91.87    6.35
   1   3  -2   49.29    4.46
   1   3  -2   60.93    4.64
   1   3  -1  130.63    8.47
   1   3  -1  128.75    6.29
   1   3   0   60.26    4.39
   1   3   0   54.69    5.41
   1   3   1   10.21    2.05
   1   3   1   10.88    2.68
   1   3   2 1102.52   26.45
   1   3   3    0.96    1.24
   1   3   4  141.20   10.97
   1   3   5   96.63    9.54
  -1  -3  -6  281.95   15.32
  -1  -3  -6  313.05   15.21
  -1  -3  -7   53.22    6.64
  -1  -3  -7   47.99    6.75
  -1  -3  -8  112.49    8.54
  -1  -3  -8   99.80    9.48
  -1  -3  -8  108.55    9.31
  -1  -3  -9   -3.43    1.62
  -1  -3  -9   -1.63    2.04
  -1  -3 -10   25.34    3.82
  -1  -3 -10   21.38    3.04
  -1  -4  12    3.73    1.65
  -1  -4  11    2.60    1.36
  -1  -4  10  114.66    9.00
  -1  -4   9  632.09   21.81
  -1  -4   8  225.48   12.85
  -1  -4   8  225.30   12.75
  -1  -4   7  112.46    8.76
   1   4  -6    0.36    1.47
   1   4  -5   64.30    6.92
  -1  -4   5   60.49    6.54
  -1  -4   4   50.80    5.88
   1   4  -4   59.42    6.22
   1   4  -3  111.43    8.07
   1   4  -2    0.74    1.15
   1   4  -1   90.05    8.09
   1   4   0   21.37    3.91
   1   4   1   83.64    7.97
   1   4   2   10.98    3.06
   1   4   3   23.05    4.66
   1   4   4   -0.44    1.25
  -1  -4  -5   35.42    5.40
  -1  -4  -6   33.62    5.44
  -1  -4  -7   38.02    5.72
  -1  -4  -8    2.03    1.82
  -1  -4  -9   17.73    3.48
  -1  -4 -10   -0.51    1.62
  -1  -5  12   -1.00    0.97
  -1  -5  11    0.95    0.90
  -1  -5  10   48.50    5.74
  -1  -5   9   53.18    6.39
  -1  -5   8    0.60    1.60
  -1  -5   8    0.50    1.23
  -1  -5   7    4.30    2.32
  -1  -5   6   13.59    2.94
  -1  -5   6    8.22    2.62
  -1  -5   5    4.02    2.38
  -1  -5   5    1.24    1.21
   1   5  -5   -0.99    1.59
  -1  -5   4    2.94    1.91
   1   5  -3   12.65    3.64
   1   5  -2    6.28    2.39
   1   5  -1    3.28    1.86
   1   5   0    0.87    1.25
   1   5   1    6.16    2.58
   1   5   2  215.22   14.73
  -1  -5  -3    0.07    2.30
  -1  -5  -3    1.65    1.45
  -1  -5  -4   43.47    5.99
  -1  -5  -5   38.07    5.66
  -1  -5  -6    2.26    1.93
  -1  -5  -7    2.34    2.03
  -1  -5  -8    0.74    1.61
  -1  -5  -9    3.75    1.85
  -1  -6  11    8.73    1.98
  -1  -6  10    0.15    1.11
  -1  -6   9   61.86    6.61
  -1  -6   8   35.12    5.22
  -1  -6   8   38.18    5.40
  -1  -6   7   15.57    3.63
  -1  -6   7   11.69    3.11
  -1  -6   6    5.70    2.14
  -1  -6   6    2.53    1.78
  -1  -6   5    9.32    2.77
  -1  -6   5    4.43    2.32
  -1  -6   4    3.56    2.03
  -1  -6   4    6.26    2.29
  -1  -6   3   25.39    4.40
  -1  -6   3   28.01    4.53
  -1  -6   2   43.03    5.35
  -1  -6   2   50.94    6.01
  -1  -6   1    0.78    1.60
  -1  -6   1    0.44    1.30
  -1  -6   0   26.97    4.40
  -1  -6   0   24.97    4.47
  -1  -6  -1  126.25    9.34
  -1  -6  -1  136.34   10.00
  -1  -6  -2   11.94    3.30
  -1  -6  -2    6.64    2.40
  -1  -6  -3    7.78    2.74
  -1  -6  -4  100.50    8.99
  -1  -6  -5   57.49    6.69
  -1  -6  -6    2.67    2.05
  -1  -6  -7    2.59    1.73
  -1  -6  -8    0.23    1.17
  -1  -7  10   27.44    3.47
  -1  -7   9    0.67    0.94
  -1  -7   8    0.30    1.02
  -1  -7   8    1.03    1.53
  -1  -7   7    0.79    1.75
  -1  -7   7    0.38    1.10
  -1  -7   6   48.28    6.02
  -1  -7   6   48.36    5.84
  -1  -7   5   25.91    4.59
  -1  -7   5   28.72    4.60
  -1  -7   4    5.11    2.22
  -1  -7   4    6.91    2.48
  -1  -7   3   22.18    4.16
  -1  -7   3   24.02    4.38
  -1  -7   2   17.51    3.96
  -1  -7   2   17.33    3.75
  -1  -7   1  119.11    9.18
  -1  -7   1  120.62    9.43
  -1  -7   0   81.11    7.56
  -1  -7   0   78.61    7.74
  -1  -7  -1   -0.05    2.06
  -1  -7  -1    0.89    1.25
  -1  -7  -2   10.64    3.15
  -1  -7  -3    6.57    2.49
  -1  -7  -4    8.05    2.68
  -1  -7  -5    5.12    2.10
  -1  -7  -6    0.14    1.09
  -1  -8   9    4.82    1.32
  -1  -8   8   37.52    4.01
  -1  -8   7    7.47    2.22
  -1  -8   7    6.98    2.02
  -1  -8   6   -0.01    1.22
  -1  -8   6   -0.85    1.06
  -1  -8   5    7.39    2.47
  -1  -8   4    0.54    1.44
  -1  -8   4    0.41    1.62
  -1  -8   3    2.63    1.96
  -1  -8   3   -0.86    1.58
  -1  -8   2    1.79    1.55
  -1  -8   2    0.90    1.67
  -1  -8   1    0.07    1.42
  -1  -8   1    1.76    1.32
  -1  -8   0   -0.33    1.59
  -1  -8   0   -1.77    1.33
  -1  -8  -1    6.42    2.36
  -1  -8  -2    1.39    1.52
  -1  -8  -3    2.82    1.61
  -1  -8  -4    1.92    1.49
  -1  -8  -5    4.40    1.43
  -1  -9   6    7.12    1.66
  -1  -9   5   -0.17    0.84
  -1  -9   4    1.10    0.90
  -1  -9   3   -2.72    1.35
  -1  -9   2    1.12    1.02
  -1  -9   2    3.28    1.72
  -1  -9   1   10.73    2.56
  -1  -9   0    1.20    1.46
  -1  -9  -1   11.30    2.31
  -1  -9  -2    6.51    1.62
   2 -10  -3   -1.04    1.20
  -2  10   3   -0.52    0.71
   2 -10  -2    0.43    1.03
   2 -10  -2    2.07    1.22
  -2  10   2   -1.41    0.89
   2 -10  -1    0.31    1.11
   2 -10  -1    1.29    1.33
   2 -10   0   38.50    4.34
   2 -10   1   -1.48    1.68
   2 -10   2    2.49    1.42
   2 -10   2    1.74    1.27
   2 -10   3   33.48    3.95
   2 -10   3   34.46    3.95
   2 -10   4    5.46    1.73
   2 -10   4    5.43    1.76
   2 -10   4    4.39    1.37
  -2   9   6   -0.08    0.72
  -2   9   5   17.45    3.04
   2  -9  -4   10.60    2.41
  -2   9   4    8.01    2.27
   2  -9  -3    1.86    1.24
  -2   9   3    3.57    1.54
   2  -9  -2   23.09    3.85
  -2   9   2   26.56    4.04
  -2   9   1   23.90    3.80
   2  -9  -1   27.19    4.33
   2  -9   0    1.08    1.43
   2  -9   0    0.57    1.76
   2  -9   1    1.58    1.53
   2  -9   1    1.95    1.51
   2  -9   2   -0.46    1.50
   2  -9   3   10.17    2.89
   2  -9   4   -0.36    1.23
   2  -9   4   -0.43    1.48
   2  -9   5    3.07    1.65
   2  -9   5    2.04    1.63
   2  -9   6    0.78    1.39
   2  -9   7    5.86    1.70
   2  -9   7    6.40    1.76
  -2   8   8    0.90    0.88
  -2   8   7    0.01    1.00
  -2   8   6    1.59    1.28
  -2   8   5   -0.86    1.35
  -2   8   4   17.02    3.64
   2  -8  -4   12.80    3.07
   2  -8  -3   68.75    6.79
   2  -8  -2    2.18    1.96
   2  -8  -1   22.13    4.25
   2  -8   0  273.62   13.97
   2  -8   1   -4.90    2.32
   2  -8   2   -0.40    1.76
   2  -8   2    0.10    1.43
   2  -8   3   61.93    6.91
   2  -8   4  124.19    9.56
   2  -8   5   -1.86    2.20
   2  -8   5   -0.30    1.35
   2  -8   6    1.36    1.52
   2  -8   6    0.27    1.27
   2  -8   7    2.45    1.68
   2  -8   8    3.73    1.69
   2  -8   8    4.28    1.62
   2  -7  -9    1.66    1.44
  -2   7   8    3.51    1.60
   2  -7  -8    2.87    1.50
  -2   7   8    4.06    1.79
  -2   7   7   13.23    3.36
   2  -7  -7   16.84    3.31
  -2   7   7   17.77    3.60
  -2   7   6    4.05    2.10
  -2   7   6    2.44    1.89
  -2   7   5    7.19    2.84
  -2   7   4   38.34    5.75
   2  -7  -4   36.12    5.07
   2  -7  -3   36.62    4.92
   2  -7  -2  590.35   19.73
   2  -7  -1  679.90   20.91
   2  -7   0   15.11    3.12
   2  -7   1    0.48    1.32
   2  -7   2    2.22    1.69
   2  -7   2    2.26    1.58
   2  -7   3    3.26    1.88
   2  -7   4    6.32    2.55
   2  -7   4    4.17    1.99
   2  -7   5  113.85    9.25
   2  -7   5  114.54    9.96
   2  -7   6   15.79    3.86
   2  -7   6   15.08    3.53
   2  -7   7   30.77    5.03
   2  -7   8   -1.59    1.61
   2  -7   9    0.03    1.01
   2  -7   9    2.50    1.23
   2  -7  10    8.55    1.89
  -2   6  10    0.90    0.92
   2  -6 -10   -1.31    1.56
  -2   6   9   44.82    5.50
   2  -6  -9   48.01    5.24
   2  -6  -8   -0.97    1.81
  -2   6   8    1.41    1.23
  -2   6   8    0.35    1.17
   2  -6  -7   56.33    6.26
  -2   6   7   54.89    6.93
  -2   6   7   55.65    6.40
  -2   6   6    2.99    1.91
   2  -6  -6    4.65    1.95
  -2   6   5    1.87    0.85
  -2   6   4    0.61    0.91
  -2   6   3    6.71    2.73
  -2   6   2   10.87    3.31
  -2   6   1  108.77    9.98
  -2   6   0    5.80    2.55
  -2   6  -1   -0.06    1.44
  -2   6  -2   49.26    7.05
  -2   6  -3  103.49   10.67
   2  -6   4  141.85    9.92
   2  -6   4  147.30    9.55
   2  -6   5    5.55    2.48
   2  -6   5    0.36    1.25
   2  -6   6  108.01    8.98
   2  -6   6  120.31   10.14
   2  -6   7    0.84    1.32
   2  -6   8   15.25    3.58
   2  -6   9    3.27    1.99
   2  -6   9    6.39    1.94
   2  -6  10   -1.03    1.59
  -2   5  11    1.49    1.06
   2  -5 -11   -1.13    1.19
  -2   5  10    2.30    1.25
   2  -5 -10    4.68    2.01
  -2   5   9    0.83    1.27
   2  -5  -9   -0.43    1.99
  -2   5   8    6.05    2.51
   2  -5  -8   10.70    3.06
  -2   5   7   18.25    4.00
   2  -5  -7   18.93    3.81
  -2   5   7   24.76    4.24
   2  -5  -6   13.68    3.29
  -2   5   6   11.75    3.25
   2  -5  -5    4.00    2.49
  -2   5   4   36.98    5.79
  -2   5   3   -1.03    1.34
  -2   5   2    3.78    1.86
  -2   5   1   72.18    7.35
  -2   5   0   66.00    7.13
  -2   5  -1  574.48   21.12
  -2   5  -2    2.11    1.66
  -2   5  -3    9.41    3.24
  -2   5  -4   23.54    4.85
   2  -5   5    6.00    2.14
   2  -5   5    6.38    2.35
   2  -5   6  251.13   13.33
   2  -5   6  277.21   14.89
   2  -5   7  167.56   11.80
   2  -5   8   49.92    6.53
   2  -5   9   11.40    3.27
   2  -5  10   11.58    2.93
   2  -5  11    9.20    2.03
  -2   4  12   -1.54    1.05
   2  -4 -12   -0.20    1.37
  -2   4  11   28.93    4.43
   2  -4 -11   29.55    4.32
  -2   4  10    8.89    2.74
   2  -4 -10    8.39    2.86
  -2   4   9    4.14    2.24
  -2   4   8    5.85    2.47
  -2   4   7   19.69    3.86
   2  -4  -6    6.26    2.69
   2  -4  -5  127.76   10.21
  -2   4   4  198.41   12.06
  -2   4   3  163.28   10.33
  -2   4   2  463.23   16.80
  -2   4   1  139.56    9.17
  -2   4   0   -0.54    1.67
  -2   4   0    2.26    1.13
  -2   4  -1 3381.33   46.35
  -2   4  -2  446.91   16.96
  -2   4  -3   88.68    6.60
  -2   4  -3   74.07    7.22
  -2   4  -4  273.96   14.36
  -2   4  -4  309.00   13.90
  -2   4  -5   27.27    4.89
  -2   4  -5   29.71    4.84
  -2   4  -6   17.91    4.09
  -2   4  -6   18.95    4.51
   2  -4   6   23.82    4.33
   2  -4   7    8.99    2.88
   2  -4   8   14.23    3.70
   2  -4   9    0.51    1.45
   2  -4  10    1.79    1.59
   2  -4  11    1.38    1.07
   2  -3 -12   -0.36    1.53
  -2   3  12    0.90    1.06
  -2   3  11    2.37    1.71
  -2   3  10   44.78    6.29
  -2   3   9    6.26    2.78
  -2   3   8    1.21    1.31
   2  -3  -7   61.02    7.60
   2  -3  -6   22.11    4.28
   2  -3  -5  409.56   16.78
  -2   3   4  520.47   17.46
  -2   3   3  149.85    8.83
  -2   3   2    0.77    1.11
  -2   3   2    0.97    0.52
  -2   3   1  278.10   11.33
  -2   3   1  314.39    6.67
  -2   3   0   18.96    3.13
  -2   3  -1   50.00    3.74
  -2   3  -1   48.43    4.82
  -2   3  -2   62.53    4.95
  -2   3  -2   67.99    4.20
  -2   3  -3  188.31    9.81
  -2   3  -3  210.23    8.00
  -2   3  -3  181.90    9.86
  -2   3  -4    6.69    2.43
  -2   3  -4    6.35    2.07
  -2   3  -5   38.37    5.16
  -2   3  -5   37.73    5.58
  -2   3  -6    8.29    2.95
  -2   3  -6   -1.71    1.59
   2  -3   7   -0.71    1.04
   2  -3   8    1.83    1.66
   2  -3   9    0.22    1.42
  -2   3 -10    1.52    1.15
   2  -3  10    1.21    1.55
   2  -3  11   -0.73    1.13
  -2   3 -11    0.30    0.87
  -2   2  13    2.91    1.32
   2  -2 -13    2.91    1.75
  -2   2  12    1.43    1.40
  -2   2  11   35.28    5.51
  -2   2  10   55.57    7.14
  -2   2   9  140.51   10.90
   2  -2  -8  179.15   13.30
  -2   2   8  204.33   12.42
   2  -2  -7   38.55    5.66
   2  -2  -7   42.86    6.03
   2  -2  -6  232.05   12.91
   2  -2  -5    4.07    1.81
  -2   2   4  110.45    7.05
  -2   2   3   64.12    5.02
  -2   2   2  189.49    7.97
  -2   2   1  699.27   12.01
  -2   2   1  628.96   14.38
  -2   2   0   12.34    2.21
  -2   2  -1  900.56   16.83
  -2   2  -1  952.82   15.49
  -2   2  -2  220.46    8.77
  -2   2  -2  200.86    8.97
  -2   2  -3    2.65    1.43
  -2   2  -3    3.46    1.72
  -2   2  -4  804.69   22.44
  -2   2  -4  903.62   20.73
  -2   2  -5   77.17    7.74
  -2   2  -5   83.19    6.99
  -2   2  -6   16.56    4.23
  -2   2  -7   12.75    2.81
   2  -2   7   10.38    2.88
   2  -2   8    1.48    1.66
   2  -2   9    6.99    2.62
  -2   2 -10    1.17    1.16
   2  -2  10    2.10    1.65
  -2   2 -11    0.57    1.18
  -2   2 -11   -0.58    0.95
  -2   1  13    3.76    1.59
  -2   1  12   48.15    5.99
  -2   1  11  125.30   10.33
  -2   1  10   11.66    3.38
  -2   1   9  136.28   10.53
   2  -1  -8    4.98    2.26
   2  -1  -7   15.19    3.72
   2  -1  -6   16.72    3.46
   2  -1  -6   10.24    2.74
   2  -1  -5   49.61    5.17
  -2   1   4    8.80    1.40
   2  -1  -4    6.49    2.00
  -2   1   3   53.22    3.85
  -2   1   3   55.00    4.35
  -2   1   3   53.54    3.49
  -2   1   2 3667.18   27.72
   2  -1  -1 6638.56   19.72
  -2   1   1 6682.12   35.98
  -2   1   1 6676.45   40.69
   2  -1   0 2420.59   17.81
  -2   1   0 2383.97   22.14
   2  -1   1  304.56    8.67
  -2   1  -1  293.51   10.07
  -2   1  -2   41.73    3.17
   2  -1   2   40.61    3.89
  -2   1  -2   42.92    3.16
  -2   1  -2   42.81    4.38
  -2   1  -3 1080.97   23.96
  -2   1  -3 1082.66   15.22
  -2   1  -4  359.50   15.14
  -2   1  -5   47.84    6.20
  -2   1  -6    9.23    3.23
   2  -1   7   16.26    3.64
  -2   1  -7   15.02    3.10
   2  -1   8   18.40    3.98
   2  -1   9   40.64    5.92
  -2   1 -10   13.94    3.48
  -2   1 -10   10.02    2.73
  -2   1 -11    0.38    1.40
  -2   1 -11    2.16    1.37
  -2   0  13    1.03    1.18
  -2   0  12    1.74    1.56
  -2   0  11    7.67    2.68
  -2   0  10    7.57    2.83
  -2   0   9    0.03    1.10
  -2   0   9    1.60    1.35
   2   0  -8   95.53    9.30
   2   0  -8  100.59    9.64
   2   0  -7    0.51    1.40
   2   0  -6  248.46   12.31
  -2   0   6  235.53   11.35
  -2   0   5  181.21    9.15
   2   0  -5  176.88    9.09
   2   0  -5  184.08    9.50
   2   0  -4   34.89    3.81
   2   0  -4   30.29    3.37
  -2   0   4   35.09    3.73
  -2   0   3  847.27   16.55
  -2   0   3  814.48   13.54
   2   0  -3  846.86   15.34
  -2   0   2 9999.00   47.21
  -2   0   2 9897.19   51.49
   2   0  -1 7769.10   39.28
  -2   0   1 7707.22   43.64
  -2   0   0  447.18    9.94
   2   0   0  453.87   10.65
  -2   0   0  451.11   11.14
   2   0   1  548.90   13.32
  -2   0  -1  562.16   11.24
   2   0   2    1.27    1.04
  -2   0  -2    2.36    1.45
   2   0   3   35.62    4.34
  -2   0  -3   32.79    4.38
   2   0   4   52.64    5.99
  -2   0  -4   39.05    5.25
  -2   0  -5  252.24   14.14
  -2   0  -6   -0.49    1.77
   2   0   7   29.31    4.81
   2   0   8    0.19    1.15
  -2   0  -8    3.11    1.55
  -2   0  -9   -0.23    1.72
  -2   0 -10    2.30    1.91
  -2   0 -10    1.38    1.56
  -2   0 -11    1.31    1.23
  -2   0 -11    0.48    0.92
  -2  -1  13    5.15    1.87
  -2  -1  12   -0.04    1.07
  -2  -1  11    4.67    2.23
  -2  -1  10   17.68    4.14
  -2  -1   9  326.27   14.50
   2   1  -8   57.36    7.08
   2   1  -8   56.27    7.28
  -2  -1   7  416.14   16.51
   2   1  -7  454.39   18.17
   2   1  -7  427.79   18.26
   2   1  -6   49.32    5.41
   2   1  -6   51.91    5.83
  -2  -1   6   44.36    5.16
   2   1  -5  146.14    8.61
   2   1  -5  158.86    8.34
  -2  -1   5  136.60    8.28
   2   1  -4  283.02   10.56
  -2  -1   4  277.01   10.97
   2   1  -3  134.66    6.31
  -2  -1   3  116.46    6.81
   2   1  -2 3155.55   17.31
  -2  -1   2 3252.84   32.79
  -2  -1   2 3219.23   29.19
  -2  -1   1   41.45    3.91
   2   1  -1   36.50    1.92
  -2  -1   1   40.84    3.71
   2   1  -1   42.22    3.94
  -2  -1   1   43.93    3.54
   2   1   0  176.80    8.16
  -2  -1   0  172.72    7.86
   2   1   1   30.10    3.69
   2   1   2  105.14    7.53
   2   1   3  110.20    8.23
  -2  -1  -3   96.26    7.44
  -2  -1  -4  470.81   18.10
   2   1   4  486.29   18.67
  -2  -1  -5   12.04    3.25
   2   1   5   18.44    4.33
  -2  -1  -6   55.62    6.69
  -2  -1  -6   45.38    6.70
  -2  -1  -7    1.38    1.93
  -2  -1  -8   -1.50    1.59
  -2  -1  -8    1.13    1.54
  -2  -1  -9    1.45    1.68
  -2  -1  -9   -0.58    1.20
  -2  -1 -10    1.40    1.57
  -2  -1 -10    0.53    1.09
  -2  -1 -11   20.89    2.75
  -2  -2  13   11.00    2.58
  -2  -2  12    2.74    1.80
  -2  -2  11   20.58    4.38
  -2  -2  10   19.54    3.91
  -2  -2   9   49.62    5.87
   2   2  -8    1.77    1.39
  -2  -2   7  229.26   12.90
   2   2  -7  262.33   13.35
  -2  -2   6   21.33    3.92
   2   2  -6   24.87    3.69
  -2  -2   5    1.12    1.27
   2   2  -5    2.44    1.29
  -2  -2   4    5.45    2.10
  -2  -2   3  281.56   11.65
   2   2  -3  289.40    9.72
   2   2  -2   83.43    4.70
   2   2  -2   82.66    6.60
  -2  -2   2   88.63    5.04
   2   2  -1 1069.24   23.17
  -2  -2   1 1028.30   18.13
  -2  -2   0  328.71   11.62
   2   2   0  297.34   12.48
   2   2   1  640.02   19.55
  -2  -2  -1  697.56   17.24
   2   2   2  138.87    9.56
   2   2   3  191.10   12.22
   2   2   4    2.13    1.63
  -2  -2  -5   87.28    8.19
   2   2   5   89.20    9.56
  -2  -2  -6   47.85    6.62
  -2  -2  -6   49.71    6.26
  -2  -2  -6   53.86    6.13
  -2  -2  -7    0.11    1.63
  -2  -2  -7    1.51    1.68
  -2  -2  -7    0.00    1.33
  -2  -2  -8   14.48    3.94
  -2  -2  -8   12.26    3.03
  -2  -2  -9    1.45    1.24
  -2  -2  -9   -1.18    1.75
  -2  -2  -9   -0.21    0.86
  -2  -2 -10   11.76    2.30
  -2  -3  13    2.95    1.29
  -2  -3  12    5.32    2.18
  -2  -3  11   37.48    4.92
  -2  -3  10   14.79    3.39
  -2  -3   9    5.84    2.28
  -2  -3   8  189.73   11.09
  -2  -3   8  191.04   11.65
  -2  -3   7   41.46    5.90
   2   3  -7   46.71    6.23
   2   3  -6   91.83    8.13
  -2  -3   6   89.67    8.37
   2   3  -5    0.79    1.23
  -2  -3   5    0.44    1.39
   2   3  -4  807.80   20.38
  -2  -3   4  724.88   21.64
   2   3  -3  728.75   17.90
  -2  -3   3  665.27   20.14
   2   3  -2   13.43    3.26
   2   3  -1    2.87    1.62
   2   3   0    1.96    1.56
  -2  -3   0    3.00    1.41
   2   3   1 1009.10   27.73
   2   3   2  103.67    9.31
   2   3   3    5.38    2.53
  -2  -3  -4   14.13    3.54
  -2  -3  -5   19.11    4.31
  -2  -3  -5   14.27    3.32
  -2  -3  -5   22.57    3.88
  -2  -3  -6   77.21    8.54
  -2  -3  -6   80.98    7.38
  -2  -3  -6   78.61    7.97
  -2  -3  -7   44.90    6.05
  -2  -3  -7   44.01    5.41
  -2  -3  -8   34.86    4.80
  -2  -3  -8   28.81    4.04
  -2  -3  -9    8.86    2.27
  -2  -3  -9    2.80    1.22
  -2  -4  12   -0.43    0.98
  -2  -4  12    1.17    0.95
  -2  -4  11    0.28    1.01
  -2  -4  10    1.10    1.41
  -2  -4   9  135.09    9.84
  -2  -4   9  119.98    9.64
  -2  -4   8   62.24    6.85
  -2  -4   8   57.34    6.71
  -2  -4   7   59.05    6.58
  -2  -4   7   52.81    6.22
   2   4  -6  152.27   11.51
  -2  -4   6  132.72   11.21
  -2  -4   6  138.73    9.71
  -2  -4   6  144.69    9.82
  -2  -4   5  279.14   15.62
  -2  -4   4    1.71    1.80
   2   4  -3    0.21    1.30
  -2  -4   3    1.10    1.37
   2   4  -2    5.25    2.32
   2   4  -1    0.87    1.32
   2   4   0   27.83    5.04
   2   4   1   59.77    7.56
   2   4   2    8.75    3.12
  -2  -4  -3  109.45    8.92
  -2  -4  -4   18.15    3.71
  -2  -4  -5    1.32    1.68
  -2  -4  -6   14.03    3.51
  -2  -4  -7    4.34    2.17
  -2  -4  -8   17.26    3.22
  -2  -4  -9    2.81    1.56
  -2  -5  12    2.15    1.27
  -2  -5  12    1.61    0.89
  -2  -5  11   -0.53    1.14
  -2  -5  10   22.29    3.92
  -2  -5   9   22.26    4.07
  -2  -5   9   21.56    4.12
  -2  -5   8   14.97    3.63
  -2  -5   8   17.90    3.83
  -2  -5   7    5.00    2.33
  -2  -5   7    6.05    2.35
  -2  -5   6    1.51    1.66
  -2  -5   6    1.31    1.19
  -2  -5   5   -1.63    1.38
  -2  -5   5    2.05    1.35
  -2  -5   4   11.02    3.11
  -2  -5   3   13.98    3.37
  -2  -5   2   13.96    3.45
  -2  -5   1    0.96    1.84
  -2  -5   0    4.21    1.80
  -2  -5   0    3.26    1.91
  -2  -5  -1    7.01    2.71
  -2  -5  -1    3.87    2.04
  -2  -5  -2    3.83    2.45
  -2  -5  -2    4.31    2.20
  -2  -5  -3    7.26    2.62
  -2  -5  -3   10.62    3.11
  -2  -5  -4    3.77    2.23
  -2  -5  -4    3.12    2.30
  -2  -5  -5    0.79    1.84
  -2  -5  -5   -0.16    1.20
  -2  -5  -6    3.08    2.11
  -2  -5  -7   -0.93    1.49
  -2  -5  -8    8.27    1.95
  -2  -6  11    3.22    1.17
  -2  -6  10   -0.55    1.23
  -2  -6   9    3.56    1.97
  -2  -6   9    3.84    2.01
  -2  -6   8    2.46    1.99
  -2  -6   8    0.04    1.04
  -2  -6   7   39.00    5.56
  -2  -6   7   36.88    5.19
  -2  -6   6   -0.60    1.60
  -2  -6   6    0.46    1.25
  -2  -6   5    1.64    2.04
  -2  -6   5    2.18    1.42
  -2  -6   4    5.25    2.38
  -2  -6   3   25.72    4.70
  -2  -6   2  257.03   14.14
  -2  -6   2  281.84   13.87
  -2  -6   1  181.08   11.31
  -2  -6   1  176.89   11.59
  -2  -6   0   42.03    5.70
  -2  -6  -1   -1.36    1.71
  -2  -6  -1    2.74    2.25
  -2  -6  -2    1.25    1.62
  -2  -6  -2    0.08    1.55
  -2  -6  -3   25.90    4.66
  -2  -6  -3   24.33    4.21
  -2  -6  -4    4.57    2.42
  -2  -6  -4    3.01    1.50
  -2  -6  -5   22.38    3.97
  -2  -6  -6   10.61    2.54
  -2  -7  10    5.02    1.48
  -2  -7   9   11.83    2.41
  -2  -7   8    6.98    2.37
  -2  -7   8    6.76    2.10
  -2  -7   7   59.05    6.15
  -2  -7   7   61.46    6.00
  -2  -7   6   14.55    3.15
  -2  -7   6   15.73    3.62
  -2  -7   5    6.41    2.64
  -2  -7   4    6.97    2.67
  -2  -7   3   74.63    7.14
  -2  -7   3   59.21    6.75
  -2  -7   2  141.38    9.69
  -2  -7   2  138.77   10.12
  -2  -7   1   49.07    6.01
  -2  -7   1   44.84    5.72
  -2  -7   0    1.28    1.57
  -2  -7   0    0.40    1.29
  -2  -7  -1    1.18    1.52
  -2  -7  -1   -0.51    1.55
  -2  -7  -2    1.06    1.90
  -2  -7  -2    2.13    1.40
  -2  -7  -3    0.12    1.51
  -2  -7  -3    2.49    1.53
  -2  -7  -4    0.91    1.32
  -2  -7  -5    1.15    1.14
  -2  -8   7    4.80    1.59
  -2  -8   6   12.61    2.63
  -2  -8   5   -0.39    1.21
  -2  -8   4    1.76    1.30
  -2  -8   3    0.93    1.39
  -2  -8   2   21.91    3.84
  -2  -8   2   19.96    3.54
  -2  -8   1    3.83    2.01
  -2  -8   1    5.22    1.88
  -2  -8   0   -0.37    1.45
  -2  -8   0   -0.55    0.99
  -2  -8  -1   -0.92    1.44
  -2  -8  -1   -0.24    0.85
  -2  -8  -2    0.65    1.17
  -2  -8  -3    0.87    0.98
  -3  10   4    5.52    1.50
   3 -10  -3    6.96    2.00
  -3  10   3    6.01    1.58
   3 -10  -2    7.18    2.11
  -3  10   2    7.35    1.80
   3 -10  -1    1.15    1.23
   3 -10   0   -0.76    1.27
   3 -10   1    0.92    1.17
   3 -10   2    2.96    1.45
   3 -10   2    3.16    1.64
   3 -10   3    2.36    1.28
   3 -10   3    0.69    1.16
   3 -10   4   -0.97    0.96
   3 -10   4    1.47    1.18
  -3   9   7    7.25    1.65
  -3   9   6    0.86    0.84
  -3   9   5    0.47    0.80
  -3   9   4    0.69    0.92
  -3   9   3    1.88    1.34
   3  -9  -2    5.16    2.03
  -3   9   2    8.27    2.11
  -3   9   2    8.25    2.33
   3  -9  -1    0.11    1.02
  -3   9   1    1.81    1.28
   3  -9   0   13.41    3.16
   3  -9   1   26.36    4.25
   3  -9   2    5.48    2.29
   3  -9   3   22.13    3.87
   3  -9   4   34.94    5.05
   3  -9   4   35.56    4.60
   3  -9   5    0.67    1.32
   3  -9   5    0.38    1.13
   3  -9   6   -1.20    1.28
   3  -9   7   -1.24    0.99
  -3   8   8    1.03    1.12
  -3   8   7    1.02    1.01
  -3   8   6    7.83    2.46
  -3   8   5   25.82    4.32
  -3   8   4   48.18    5.94
  -3   8   3  183.75   11.55
   3  -8  -2  144.58    9.73
  -3   8   2  143.83   10.08
   3  -8  -1    1.51    1.39
  -3   8   1    6.09    2.36
   3  -8   0   39.86    5.38
   3  -8   1   -0.98    1.69
   3  -8   2   24.65    4.38
   3  -8   3   25.83    4.48
   3  -8   4    3.13    1.65
   3  -8   4    4.81    2.25
   3  -8   5    0.80    1.41
   3  -8   5    3.45    2.22
   3  -8   6   -1.62    1.87
   3  -8   7   21.85    3.69
   3  -8   8   46.25    4.43
   3  -8   8   41.60    3.76
  -3   7   9   -0.39    0.94
  -3   7   8   70.37    6.96
  -3   7   8   75.03    6.57
  -3   7   7   85.72    8.12
  -3   7   7   83.83    7.54
  -3   7   6   45.03    6.08
  -3   7   6   50.41    6.10
  -3   7   5   36.32    5.50
  -3   7   5   32.11    4.99
  -3   7   4   14.91    3.67
  -3   7   4   19.83    3.93
  -3   7   3    0.54    1.19
  -3   7   2  232.17   12.65
   3  -7  -1    1.39    1.62
  -3   7   1    1.87    1.42
   3  -7   0    5.66    2.52
  -3   7   0    5.73    1.97
   3  -7   1   81.08    7.20
   3  -7   2   87.37    7.99
   3  -7   3   73.60    7.48
   3  -7   4    7.82    2.86
   3  -7   4    6.99    2.65
   3  -7   5   75.81    8.14
   3  -7   5   69.15    7.07
   3  -7   6    1.45    1.42
   3  -7   7    8.58    2.74
   3  -7   8    0.03    1.13
   3  -7   9   -1.04    1.11
  -3   6  11    5.25    1.53
  -3   6  10    0.94    0.88
  -3   6   9   -0.47    1.56
  -3   6   8    4.55    2.08
  -3   6   8    6.20    2.29
  -3   6   7   46.74    6.26
  -3   6   7   49.26    6.06
  -3   6   6    1.46    1.24
  -3   6   6    0.61    1.00
  -3   6   5    2.09    1.40
  -3   6   5    2.11    1.70
  -3   6   4   -0.22    0.80
  -3   6   4    0.00    0.98
  -3   6   3   29.87    5.58
  -3   6   2   26.67    5.22
  -3   6   1   36.45    5.96
  -3   6   0   15.61    3.94
  -3   6  -1    8.92    3.07
  -3   6  -2    9.66    3.23
   3  -6   3    1.83    2.15
   3  -6   4    9.30    3.04
   3  -6   4   11.85    3.17
   3  -6   5   47.73    5.95
   3  -6   5   48.55    6.51
   3  -6   6   34.75    5.56
   3  -6   7   15.47    3.68
   3  -6   8   11.89    3.13
   3  -6   9    0.73    1.33
   3  -6  10   23.21    2.99
  -3   5  12    2.54    1.14
  -3   5  11    6.86    2.05
   3  -5 -11    5.83    1.86
   3  -5 -10   -0.56    1.75
  -3   5  10   -0.20    1.40
  -3   5   9    1.38    1.41
   3  -5  -9    0.96    1.62
   3  -5  -8  153.12   10.16
  -3   5   8  162.59   10.56
  -3   5   8  134.65   10.67
  -3   5   7    0.43    1.49
  -3   5   7   -0.39    0.86
  -3   5   6   46.02    6.06
  -3   5   6   48.98    5.80
  -3   5   5   16.91    4.11
  -3   5   4   22.04    4.51
  -3   5   3    1.00    1.28
  -3   5   2    6.11    2.30
  -3   5   1  226.44   13.48
  -3   5   0   58.33    6.97
  -3   5  -1    1.04    1.34
  -3   5  -2    1.07    1.36
  -3   5  -3   34.87    5.94
   3  -5   4   81.16    7.77
   3  -5   5 1141.56   26.82
   3  -5   5 1083.35   29.61
   3  -5   6  632.44   22.78
   3  -5   7    7.99    2.78
   3  -5   8    6.24    2.36
   3  -5   9    1.08    1.17
   3  -5  10   15.40    2.76
  -3   4  12    6.09    1.91
   3  -4 -12    7.29    1.97
  -3   4  11    4.80    2.17
   3  -4 -11    9.01    2.88
  -3   4  10   75.92    7.97
  -3   4   9  175.81   12.26
  -3   4   8   13.44    3.42
  -3   4   7   -1.72    1.35
  -3   4   7    3.09    1.47
   3  -4  -6  109.53   10.28
  -3   4   5  327.07   16.35
  -3   4   4   44.68    5.88
  -3   4   3  132.20    9.50
  -3   4   2  164.22   10.35
  -3   4   1  174.98   10.75
  -3   4   0  161.00   10.48
  -3   4  -1  462.16   18.39
  -3   4  -2   86.24    8.17
  -3   4  -3    5.49    1.83
  -3   4  -3    3.79    1.85
  -3   4  -4   -1.86    1.45
  -3   4  -5  217.56   14.12
   3  -4   5  243.96   13.25
   3  -4   6  151.23   10.90
   3  -4   7   12.39    3.48
   3  -4   8   17.39    3.88
   3  -4   9    3.20    1.92
   3  -4  10    1.66    1.16
  -3   3  13    2.81    1.35
   3  -3 -13    4.95    1.67
  -3   3  12    2.65    1.57
  -3   3  11   70.81    7.58
  -3   3  10  670.19   23.92
  -3   3   9  175.52   12.20
  -3   3   8    7.69    2.62
   3  -3  -7    1.30    1.42
   3  -3  -6   -0.23    1.48
  -3   3   4  218.16   11.50
  -3   3   3    6.64    2.07
  -3   3   2   31.31    4.02
  -3   3   1  132.44    6.70
  -3   3   1  111.13    7.62
  -3   3   0   94.30    5.97
  -3   3   0   97.83    7.30
  -3   3   0   95.30    6.19
  -3   3  -1  226.94   11.26
  -3   3  -1  229.42    9.61
  -3   3  -2  274.79   12.40
  -3   3  -2  272.48   12.88
  -3   3  -2  287.96   11.26
  -3   3  -3   71.09    6.97
  -3   3  -3   87.73    6.63
  -3   3  -4    2.72    1.99
  -3   3  -5   74.22    8.27
   3  -3   6   27.47    4.60
  -3   3  -6   23.94    3.82
   3  -3   7   22.84    4.47
  -3   3  -7   20.96    3.73
  -3   3  -7   21.63    3.78
   3  -3   8   -1.44    2.03
  -3   3  -8   -0.79    1.03
   3  -3   9    1.45    1.26
  -3   3  -9   -0.32    1.37
   3  -3  10    0.34    0.99
  -3   3 -10   -0.01    0.99
  -3   2  13    4.56    1.65
  -3   2  12    7.89    2.53
  -3   2  11    0.51    1.32
  -3   2  10   38.99    5.86
  -3   2   9    1.82    1.44
  -3   2   8    1.79    1.34
   3  -2  -7   63.13    7.27
   3  -2  -7   52.97    6.85
   3  -2  -6    0.36    1.20
   3  -2  -5   41.32    5.13
  -3   2   5   40.48    3.95
  -3   2   4    3.75    1.44
  -3   2   4    2.55    1.18
  -3   2   3   27.10    3.39
  -3   2   2  407.01   12.07
  -3   2   1    0.49    1.35
  -3   2   1   -0.22    0.81
  -3   2   1    0.47    0.96
  -3   2   0  314.24   11.37
  -3   2   0  329.85   11.23
  -3   2  -1   26.30    3.48
  -3   2  -1   27.89    3.55
  -3   2  -2   -0.58    1.21
  -3   2  -2    0.86    1.10
  -3   2  -2    0.02    0.83
  -3   2  -3   27.20    4.40
  -3   2  -3   38.05    4.58
  -3   2  -4  260.86   14.48
  -3   2  -5   -3.42    2.12
  -3   2  -6    2.42    1.83
   3  -2   6    0.75    1.45
   3  -2   7    0.38    1.21
  -3   2  -7   -2.53    1.60
  -3   2  -7    0.83    1.04
   3  -2   8   26.70    4.73
  -3   2  -8   19.77    3.80
   3  -2   9   41.12    5.41
  -3   2  -9   37.73    4.93
  -3   2 -10    4.82    2.14
  -3   2 -10    3.60    1.54
  -3   1  13    5.37    1.98
  -3   1  12    2.31    1.82
  -3   1  11    9.38    3.03
  -3   1  10  122.25   10.28
  -3   1   9   -0.12    1.69
   3  -1  -8  212.70   14.40
   3  -1  -7  131.04   10.45
   3  -1  -7  122.05    9.66
   3  -1  -6   23.83    4.05
   3  -1  -6   19.06    3.71
  -3   1   5  455.11   16.15
   3  -1  -5  470.34   16.14
  -3   1   5  472.36   12.99
   3  -1  -4   19.83    3.16
  -3   1   4   15.74    2.91
  -3   1   4   15.60    2.42
  -3   1   3  489.10   14.42
  -3   1   3  460.16   12.77
  -3   1   2    1.55    0.76
  -3   1   2    1.15    0.89
  -3   1   2    2.31    1.18
  -3   1   2    1.31    1.02
  -3   1   2    4.56    1.75
  -3   1   1  144.78    8.00
   3  -1  -1  150.72    5.02
  -3   1   1  146.68    6.77
  -3   1   1  148.56    7.24
  -3   1   1  153.81    7.80
  -3   1   1  151.99    5.85
  -3   1   0  263.84    8.29
   3  -1   0  254.63    7.85
  -3   1   0  244.50    8.39
  -3   1   0  252.91    9.42
  -3   1   0  250.23   10.25
   3  -1   1   66.79    4.87
  -3   1  -1   62.74    4.82
  -3   1  -1   66.83    5.51
   3  -1   2  236.25   10.67
  -3   1  -2  225.98    9.02
  -3   1  -3  982.68   26.27
  -3   1  -4  160.06   11.46
  -3   1  -5  152.22   11.99
  -3   1  -6   78.27    6.96
  -3   1  -6   69.35    7.03
   3  -1   7   21.58    4.09
  -3   1  -7   18.09    3.51
  -3   1  -7   16.25    3.49
   3  -1   8   -0.20    1.48
  -3   1  -8    0.43    1.06
  -3   1  -9    7.61    2.72
  -3   1  -9    9.78    2.65
  -3   1 -10    5.63    2.19
  -3   1 -10    3.57    1.44
  -3   0  13    2.06    1.39
  -3   0  12   51.39    6.37
  -3   0  11  117.77   10.06
  -3   0  10  129.21   10.51
  -3   0   9   11.26    3.09
  -3   0   9   15.99    3.45
   3   0  -8  621.54   24.14
   3   0  -8  651.67   23.99
   3   0  -7  324.99   15.99
   3   0  -6  154.63   10.10
  -3   0   6  144.48    9.90
   3   0  -5   72.88    6.24
  -3   0   5   72.43    6.48
   3   0  -5   81.44    6.23
   3   0  -4  269.17   10.51
   3   0  -4  285.17   10.02
   3   0  -3   18.75    2.42
  -3   0   3   17.64    2.98
   3   0  -3   22.28    2.55
   3   0  -3   14.39    2.32
  -3   0   3   18.14    2.74
  -3   0   2  613.62   16.99
   3   0  -2  593.56   13.41
  -3   0   2  571.62   15.45
  -3   0   2  606.61   14.91
  -3   0   2  583.99   15.53
  -3   0   1    1.56    1.12
  -3   0   1    1.81    1.30
  -3   0   1    2.21    1.27
  -3   0   1    1.28    1.54
  -3   0   0  205.86   10.26
   3   0   0  217.03    9.16
  -3   0   0  221.25    8.47
  -3   0   0  193.76    8.61
  -3   0   0  187.21    9.20
   3   0   1   15.72    2.80
  -3   0  -1   10.81    2.54
   3   0   2  118.77    8.19
   3   0   3  151.47   10.19
   3   0   4    0.09    0.96
  -3   0  -5   59.15    5.92
  -3   0  -5   71.73    6.86
  -3   0  -6    1.02    1.22
  -3   0  -6    1.54    1.39
  -3   0  -7    4.75    2.47
  -3   0  -7    4.73    2.16
  -3   0  -8    1.47    2.11
  -3   0  -8    2.31    1.63
  -3   0  -9    0.31    1.44
  -3   0  -9    1.46    1.42
  -3   0 -10    1.79    0.95
  -3   0 -10    1.74    1.28
  -3  -1  13    5.13    1.87
  -3  -1  12   -0.55    1.27
  -3  -1  11   32.04    5.29
  -3  -1  10    2.50    1.84
  -3  -1  10    3.40    1.88
  -3  -1   9    0.80    1.32
   3   1  -8    4.98    2.84
  -3  -1   8    1.62    1.60
  -3  -1   8    3.77    1.83
   3   1  -7    4.00    2.02
  -3  -1   7    5.98    2.66
   3   1  -6   10.93    2.87
  -3  -1   6   11.94    3.29
  -3  -1   5   62.28    6.36
   3   1  -5   72.38    6.32
  -3  -1   4   19.55    3.46
   3   1  -4   22.85    3.20
  -3  -1   3    0.45    0.99
   3   1  -3    1.49    1.29
   3   1  -2   98.64    6.70
  -3  -1   2   99.66    7.25
  -3  -1   2  100.05    6.70
  -3  -1   1   12.71    2.96
   3   1  -1   14.84    2.87
  -3  -1   1   10.55    2.43
  -3  -1   1   10.87    2.31
  -3  -1   0   22.29    3.97
   3   1   0   28.83    4.04
  -3  -1   0   21.44    3.15
  -3  -1   0   21.46    3.42
  -3  -1  -1    1.02    1.38
  -3  -1  -1    0.68    1.38
   3   1   2  188.61   11.67
   3   1   3    0.92    0.94
   3   1   4   10.15    3.31
  -3  -1  -5   69.96    7.59
  -3  -1  -5   73.95    7.14
  -3  -1  -6   28.74    5.18
  -3  -1  -6   28.95    4.65
  -3  -1  -7   14.47    3.98
  -3  -1  -7   14.28    3.29
  -3  -1  -8   14.13    3.80
  -3  -1  -8    8.17    2.51
  -3  -1  -9    5.41    2.35
  -3  -1  -9    4.36    1.61
  -3  -1 -10   10.35    1.90
  -3  -2  13    9.02    2.37
  -3  -2  12    1.18    1.45
  -3  -2  11    2.22    1.58
  -3  -2  11    0.36    1.10
  -3  -2  10    0.25    1.03
  -3  -2   9   28.73    4.77
  -3  -2   8  247.28   13.29
   3   2  -7    1.70    1.39
  -3  -2   7    2.18    2.35
   3   2  -6    0.64    1.07
  -3  -2   6   -0.20    1.40
  -3  -2   5    4.03    1.93
  -3  -2   4   72.87    7.14
   3   2  -3  234.80   12.70
  -3  -2   3  232.59   12.32
   3   2  -2   27.22    4.16
  -3  -2   2   19.78    3.72
  -3  -2   2   20.31    3.17
   3   2  -1  605.99   19.91
  -3  -2   1  606.42   18.54
  -3  -2   1  552.53   16.84
  -3  -2   0   12.96    3.03
  -3  -2   0   10.67    2.76
   3   2   0   12.79    3.12
  -3  -2   0   10.38    2.61
  -3  -2  -1    2.55    2.05
   3   2   1    0.37    1.21
  -3  -2  -1    1.81    1.46
  -3  -2  -2   26.93    4.87
   3   2   2   36.12    5.81
   3   2   3    9.98    3.26
  -3  -2  -4    8.36    2.80
  -3  -2  -4    7.56    2.44
  -3  -2  -5  688.08   24.75
  -3  -2  -5  720.24   22.39
  -3  -2  -6  205.64   13.80
  -3  -2  -6  218.09   12.39
  -3  -2  -7   12.44    3.69
  -3  -2  -7   16.24    3.35
  -3  -2  -8   -0.43    1.01
  -3  -2  -9   12.43    2.26
  -3  -3  13    0.37    0.82
  -3  -3  12    1.02    1.40
  -3  -3  11   42.44    5.83
  -3  -3  11   46.56    5.56
  -3  -3  10  121.35    9.55
  -3  -3   9   71.02    7.50
  -3  -3   8  113.14    9.41
  -3  -3   7    9.81    3.13
  -3  -3   7    3.07    1.86
  -3  -3   6  274.69   16.06
  -3  -3   5    3.44    2.20
   3   3  -4   79.16    8.48
  -3  -3   4   67.81    7.55
   3   3  -3   31.66    5.31
  -3  -3   3   35.21    5.44
   3   3  -2  271.04   14.87
  -3  -3   2  240.75   13.71
  -3  -3   1    0.63    1.39
   3   3  -1    1.70    1.72
   3   3   0  414.31   19.59
  -3  -3   0  375.86   16.67
   3   3   1   50.02    6.95
  -3  -3  -2    4.34    2.26
  -3  -3  -2    1.55    1.43
  -3  -3  -3    1.59    1.32
  -3  -3  -3   -0.27    1.83
  -3  -3  -4   73.63    7.59
  -3  -3  -4   68.08    6.80
  -3  -3  -5   13.15    3.33
  -3  -3  -5    8.19    2.44
  -3  -3  -6    3.67    1.93
  -3  -3  -6    3.33    1.49
  -3  -3  -7   14.30    2.83
  -3  -3  -8   -0.53    0.70
  -3  -4  12   30.15    3.94
  -3  -4  11   64.60    6.65
  -3  -4  11   80.02    6.88
  -3  -4  10  237.55   11.17
  -3  -4  10  267.89   13.65
  -3  -4   9   11.04    2.90
  -3  -4   9    7.60    2.67
  -3  -4   8    1.64    1.36
  -3  -4   8    1.59    1.66
  -3  -4   7   75.16    7.45
  -3  -4   7   71.19    7.37
  -3  -4   6   68.46    6.54
  -3  -4   6   54.71    6.38
  -3  -4   6   56.12    6.37
  -3  -4   5    1.70    1.89
  -3  -4   5    6.89    2.50
  -3  -4   5    5.65    1.95
  -3  -4   4   25.69    4.48
  -3  -4   3    9.83    2.90
   3   4  -3    9.01    3.32
  -3  -4   2    0.62    1.16
   3   4  -2    2.37    2.07
  -3  -4   1    2.60    1.75
  -3  -4   0    2.69    1.51
  -3  -4   0    2.50    1.84
  -3  -4  -1   10.91    2.97
  -3  -4  -1    6.75    2.72
  -3  -4  -2   16.41    4.06
  -3  -4  -2   16.16    3.72
  -3  -4  -3    3.03    2.46
  -3  -4  -4    4.14    2.22
  -3  -4  -5    4.00    2.09
  -3  -4  -6   28.99    4.23
  -3  -4  -6   38.58    4.88
  -3  -4  -7    8.10    2.17
  -3  -4  -7    7.57    1.85
  -3  -5  11    1.06    1.05
  -3  -5  11    1.15    1.00
  -3  -5  10   -2.32    1.21
  -3  -5  10    0.38    1.44
  -3  -5   9    5.44    2.20
  -3  -5   9    8.31    2.64
  -3  -5   8    2.21    1.80
  -3  -5   8    2.48    1.54
  -3  -5   7    0.41    1.24
  -3  -5   7    1.53    1.05
  -3  -5   6    6.43    2.25
  -3  -5   6    2.65    1.48
  -3  -5   5    0.72    1.45
  -3  -5   4    2.48    1.70
  -3  -5   3   36.48    5.44
  -3  -5   2    3.36    2.08
  -3  -5   1    2.40    2.00
  -3  -5   0    4.23    2.38
  -3  -5  -1   11.60    3.42
  -3  -5  -2    3.28    1.93
  -3  -5  -2    0.55    1.59
  -3  -5  -3   12.42    3.35
  -3  -5  -3   11.17    3.19
  -3  -5  -4   35.54    4.86
  -3  -5  -4   45.41    5.76
  -3  -5  -5   -0.84    1.52
  -3  -5  -5    1.36    1.32
  -3  -5  -6   -1.03    0.82
  -3  -6  10    1.09    0.75
  -3  -6  10    4.57    1.53
  -3  -6   9    0.16    1.15
  -3  -6   9    1.77    1.42
  -3  -6   8    6.77    2.45
  -3  -6   8    4.86    1.94
  -3  -6   7    1.06    1.44
  -3  -6   7    2.24    1.56
  -3  -6   6    6.80    2.63
  -3  -6   5   -0.37    1.97
  -3  -6   4    2.31    1.81
  -3  -6   3   20.80    4.21
  -3  -6   2   66.22    7.29
  -3  -6   1   25.26    4.58
  -3  -6   0   11.61    2.96
  -3  -6   0   12.25    3.34
  -3  -6  -1    3.16    2.00
  -3  -6  -2   52.49    5.83
  -3  -6  -3   10.60    2.57
  -3  -6  -4    1.70    1.31
  -3  -7   8    4.44    1.69
  -3  -7   7    1.27    1.27
  -3  -7   6    9.93    2.73
  -3  -7   5    8.79    2.62
  -3  -7   4    2.02    1.60
  -3  -7   3   23.21    4.06
  -3  -7   2   18.36    3.64
  -3  -7   1   -0.48    1.19
  -3  -7   0   -0.56    1.51
  -3  -7   0    0.31    1.33
  -3  -7  -1    0.59    1.30
  -3  -7  -1    1.52    1.29
  -3  -7  -2    0.20    1.09
  -3  -7  -2    0.44    0.80
  -3  -8   6    3.08    1.14
  -3  -8   5   -0.25    1.02
  -3  -8   4    0.17    0.97
  -3  -8   3    3.98    1.52
  -3  -8   2    2.20    1.24
  -3  -8   1    1.51    1.13
   4 -10  -4    1.69    0.92
  -4  10   4    1.09    0.74
  -4  10   4    0.39    0.65
   4 -10  -3    2.75    1.15
  -4  10   3    0.97    0.74
  -4  10   3    2.33    1.02
   4 -10  -2    0.80    1.11
   4 -10  -1    1.87    1.28
   4 -10   0   -0.44    1.13
   4 -10   1    1.92    1.30
   4 -10   2   24.74    3.64
   4 -10   2   23.47    3.15
   4 -10   3    1.77    1.27
   4 -10   3    0.68    0.88
   4 -10   4    2.06    1.23
  -4   9   7    6.29    1.54
  -4   9   7    6.51    1.62
  -4   9   6    0.70    0.99
  -4   9   5    1.17    1.04
  -4   9   4   -1.20    1.10
  -4   9   4    0.46    0.82
  -4   9   3    4.94    1.55
  -4   9   3    3.17    1.53
  -4   9   2    7.76    1.93
  -4   9   2   10.75    2.50
   4  -9  -1   17.38    3.48
  -4   9   1   22.19    3.38
   4  -9   0   -1.17    1.55
   4  -9   1   30.31    4.36
   4  -9   2    8.29    2.36
   4  -9   3   24.75    4.14
   4  -9   3   28.02    3.94
   4  -9   4    3.74    1.52
   4  -9   4    4.80    2.00
   4  -9   5   -0.01    1.18
   4  -9   6    1.05    1.01
  -4   8   8   -0.93    0.79
  -4   8   7   16.39    3.07
  -4   8   6   25.72    4.10
  -4   8   5    0.48    1.17
  -4   8   4   68.54    6.98
  -4   8   3  217.96   12.31
  -4   8   2  196.45   11.14
  -4   8   2  206.09   11.85
  -4   8   1   48.98    5.50
  -4   8   1   49.83    5.74
   4  -8   0    3.08    1.88
  -4   8   0    1.62    1.42
   4  -8   1    0.25    1.28
  -4   8  -1    4.65    1.97
   4  -8   2  126.65    9.14
   4  -8   3    8.89    2.94
   4  -8   3    8.81    2.67
   4  -8   4    7.70    2.60
   4  -8   4    9.37    2.44
   4  -8   5   20.56    3.74
   4  -8   6    2.60    1.42
   4  -8   7    1.21    1.06
  -4   7  10    0.72    0.83
  -4   7   9    5.23    1.89
  -4   7   9    7.97    2.04
  -4   7   8   17.38    3.52
  -4   7   8   17.27    3.24
  -4   7   7    0.34    1.00
  -4   7   7    0.25    0.88
  -4   7   6    0.44    1.23
  -4   7   6    0.44    0.94
  -4   7   5   40.06    5.68
  -4   7   5   38.88    5.43
  -4   7   4  167.27   11.53
  -4   7   4  152.49   10.63
  -4   7   3  549.97   19.85
  -4   7   2   14.30    3.27
  -4   7   1   -0.36    1.22
  -4   7   1    1.06    1.03
  -4   7   0    9.49    2.63
   4  -7   1    4.89    2.06
  -4   7  -1    6.91    2.19
   4  -7   2    4.01    2.03
  -4   7  -2    4.13    1.69
   4  -7   3   16.98    3.67
   4  -7   4    5.03    2.36
   4  -7   4    3.44    2.03
   4  -7   5   -3.46    1.97
   4  -7   6    5.98    2.26
   4  -7   7    5.54    1.86
   4  -7   8   12.81    2.42
  -4   6  11    0.67    0.84
  -4   6  10   36.19    4.64
  -4   6   9   66.25    6.85
  -4   6   9   67.96    6.23
  -4   6   8   34.68    5.29
  -4   6   8   34.09    4.75
  -4   6   7    1.67    1.37
  -4   6   7    4.98    1.93
  -4   6   6   11.53    3.14
  -4   6   6   10.38    3.09
  -4   6   5    4.15    1.65
  -4   6   5    3.48    1.76
  -4   6   4  177.05   11.46
  -4   6   4  178.63   10.35
  -4   6   3    2.57    2.10
  -4   6   3    0.62    1.03
  -4   6   2   54.03    5.90
  -4   6   1   63.87    6.07
  -4   6   0    0.27    1.00
  -4   6  -1    0.60    1.61
  -4   6  -2   35.95    4.65
   4  -6   3  251.97   14.22
  -4   6  -3  266.84   12.43
   4  -6   4  113.88    9.73
  -4   6  -4  131.29    8.65
   4  -6   5  122.73   10.07
   4  -6   6    5.21    2.33
   4  -6   7    1.56    1.29
   4  -6   8   13.51    2.92
  -4   5  12   -2.72    1.20
  -4   5  11   39.09    4.81
  -4   5  10    4.49    2.14
  -4   5   9    0.83    1.25
  -4   5   8    5.90    2.29
  -4   5   8    6.55    2.25
  -4   5   7    7.65    2.58
  -4   5   7    5.28    2.13
  -4   5   6   14.85    3.43
  -4   5   6   14.03    2.95
  -4   5   6   15.33    3.20
  -4   5   5   22.35    3.51
  -4   5   5   28.52    4.40
  -4   5   4   28.95    5.32
  -4   5   3   60.38    7.40
  -4   5   2    8.93    2.91
  -4   5   1  205.79   13.54
  -4   5   0  176.37   12.96
  -4   5  -1  214.91   14.55
  -4   5  -2   10.94    3.49
   4  -5   3   40.31    5.46
  -4   5  -3   35.86    4.59
   4  -5   4   19.76    4.05
  -4   5  -4   29.49    4.23
   4  -5   5   63.75    7.21
  -4   5  -5   66.90    6.39
   4  -5   6   23.73    4.48
  -4   5  -6   27.03    4.01
   4  -5   7   21.63    3.99
   4  -5   8   -1.11    1.33
   4  -5   9    5.90    1.68
  -4   4  12    3.61    1.58
   4  -4 -12    4.84    1.66
  -4   4  11   18.17    3.70
   4  -4 -11   19.95    3.42
  -4   4  10    0.29    1.38
  -4   4   9    1.67    1.82
  -4   4   9    3.25    1.83
  -4   4   8   27.42    4.87
  -4   4   8   33.39    4.65
  -4   4   7   37.91    4.78
  -4   4   7   30.64    4.88
  -4   4   7   39.67    5.24
   4  -4  -6  236.59   15.68
  -4   4   5  379.47   17.83
  -4   4   4    5.04    2.09
  -4   4   3   18.29    3.70
  -4   4   2   31.43    4.74
  -4   4   1  115.47    9.25
  -4   4   0  684.22   23.12
  -4   4  -1   52.40    6.79
  -4   4  -2    2.30    1.19
  -4   4  -3   55.70    7.44
   4  -4   4    2.26    1.56
  -4   4  -4    0.92    1.18
   4  -4   5  280.43   14.45
  -4   4  -5  262.06   12.58
   4  -4   6  120.24    9.56
  -4   4  -6  116.00    8.53
   4  -4   7   27.15    4.57
  -4   4  -7   30.48    4.31
   4  -4   8   29.72    4.32
   4  -4   9   -0.48    0.80
  -4   3  13    3.96    1.43
  -4   3  12    3.93    1.64
  -4   3  11    8.59    2.72
  -4   3  11    6.90    2.03
  -4   3  10   48.47    6.39
  -4   3  10   52.90    5.75
  -4   3   9    1.91    1.53
  -4   3   9    1.43    1.37
  -4   3   8   43.14    5.92
  -4   3   8   50.33    5.71
  -4   3   8   54.88    5.44
  -4   3   7    2.47    1.41
   4  -3  -6   76.85    8.42
  -4   3   5   15.49    3.04
  -4   3   4   82.77    6.86
  -4   3   4   87.21    7.48
  -4   3   3    3.13    1.56
  -4   3   2   88.31    6.98
  -4   3   1  402.97   14.81
  -4   3   1  350.60   14.24
  -4   3   0  147.78    9.27
  -4   3   0  141.51    9.12
  -4   3   0  138.87    9.43
  -4   3  -1  145.45   10.29
  -4   3  -1  143.88    9.17
  -4   3  -1  137.46    8.81
  -4   3  -2  133.85    9.27
  -4   3  -2  122.81    8.41
  -4   3  -3   91.41    8.06
  -4   3  -4    2.17    1.48
  -4   3  -5   41.41    5.13
  -4   3  -5   37.26    4.82
  -4   3  -6    0.25    1.25
  -4   3  -6   -2.92    1.48
   4  -3   7    0.30    1.23
  -4   3  -7   -0.94    1.45
  -4   3  -7    0.61    0.99
   4  -3   8    1.84    1.26
  -4   3  -8    1.80    1.17
  -4   3  -9    4.01    2.06
  -4   3  -9    5.00    1.50
  -4   2  13   -1.49    1.27
  -4   2  12    2.81    1.66
  -4   2  12    2.15    1.06
  -4   2  11    9.99    2.91
  -4   2  11    6.72    1.94
  -4   2  10   36.92    5.59
  -4   2   9   65.68    7.43
  -4   2   8    2.60    1.84
  -4   2   8   -0.26    2.20
   4  -2  -7   68.87    8.00
   4  -2  -7   71.73    8.03
   4  -2  -6   -0.96    1.54
  -4   2   5   13.59    2.78
   4  -2  -5   10.92    2.93
  -4   2   4    0.18    1.04
  -4   2   3   10.44    2.35
  -4   2   2  220.30   11.21
  -4   2   2  211.26   10.42
  -4   2   1   93.37    7.62
  -4   2   1   96.73    7.37
  -4   2   1   91.54    7.02
  -4   2   0   87.71    7.46
  -4   2   0   89.67    6.93
  -4   2   0   94.12    7.42
  -4   2  -1  149.23    8.85
  -4   2  -1  147.97    9.51
  -4   2  -2   19.99    3.39
  -4   2  -2   18.60    3.84
  -4   2  -3  123.38    9.90
  -4   2  -4    7.38    2.15
  -4   2  -4    9.44    2.56
  -4   2  -5    0.99    1.30
  -4   2  -5    2.20    1.40
  -4   2  -6    3.28    2.14
  -4   2  -6    0.38    1.04
  -4   2  -7   12.33    2.99
  -4   2  -7   10.00    2.77
  -4   2  -8    2.31    2.02
  -4   2  -8    0.16    1.07
  -4   2  -9    3.97    1.72
  -4   2  -9    2.88    1.26
  -4   1  13    3.52    1.70
  -4   1  13    0.85    0.80
  -4   1  12    8.07    2.56
  -4   1  12    8.25    2.31
  -4   1  11    1.87    1.44
  -4   1  10   80.79    8.32
  -4   1   9    0.03    0.73
  -4   1   9    0.39    1.75
  -4   1   8    1.03    1.10
  -4   1   8    1.14    0.98
   4  -1  -7    2.65    1.96
   4  -1  -6  201.43   12.17
  -4   1   5   -0.17    1.42
   4  -1  -5    1.94    1.43
  -4   1   5    0.74    1.18
  -4   1   4 1569.81   31.35
  -4   1   4 1653.93   29.03
  -4   1   3 2753.58   39.14
  -4   1   3 2580.83   36.00
  -4   1   2 1403.51   29.14
  -4   1   2 1431.97   26.65
  -4   1   2 1415.68   26.45
  -4   1   2 1476.59   29.48
  -4   1   1  511.89   17.94
  -4   1   1  475.35   15.61
  -4   1   1  481.39   16.80
  -4   1   0   74.84    7.15
  -4   1   0   66.33    5.90
  -4   1   0   69.02    6.53
  -4   1  -1  287.36   14.39
  -4   1  -1  258.15   11.63
  -4   1  -1  267.07   13.30
  -4   1  -2    0.46    1.29
  -4   1  -3    2.19    2.12
  -4   1  -4    1.89    1.26
  -4   1  -4   -2.56    1.48
  -4   1  -5   21.53    3.86
  -4   1  -5   20.11    4.02
  -4   1  -6    0.74    1.25
  -4   1  -6    0.23    1.12
  -4   1  -7    4.39    2.52
  -4   1  -7    5.25    2.03
  -4   1  -8    2.45    1.86
  -4   1  -8    0.88    1.11
  -4   1  -9    2.54    1.75
  -4   1  -9    1.14    1.06
  -4   0  13    9.87    2.42
  -4   0  13   11.82    2.29
  -4   0  12   -0.17    1.19
  -4   0  11   36.74    5.50
  -4   0  10   -2.06    1.62
  -4   0   9  106.28    9.29
  -4   0   9  104.83    7.89
  -4   0   8  109.38    8.08
  -4   0   8   94.40    7.42
  -4   0   8  114.04    8.88
   4   0  -7   -4.51    2.31
  -4   0   7    1.15    1.69
  -4   0   6  216.07   13.24
  -4   0   5   54.04    6.41
  -4   0   4  723.38   21.72
  -4   0   3  413.27   15.74
  -4   0   2   85.06    6.86
  -4   0   2   71.47    6.70
  -4   0   1   19.28    3.92
  -4   0   1   19.25    3.22
  -4   0   1   15.00    3.20
  -4   0   0    6.36    2.36
  -4   0   0    5.34    2.10
  -4   0  -1    2.09    1.58
  -4   0  -1    2.01    1.51
  -4   0  -2    6.59    2.86
  -4   0  -2    8.45    2.83
  -4   0  -3    7.36    2.15
  -4   0  -3    3.84    1.87
  -4   0  -4   15.27    3.54
  -4   0  -4   16.23    3.40
  -4   0  -4   16.01    3.53
  -4   0  -5    4.28    2.32
  -4   0  -5    2.60    1.69
  -4   0  -5    6.45    2.33
  -4   0  -6   37.35    6.08
  -4   0  -6   37.81    5.35
  -4   0  -7   16.36    3.97
  -4   0  -7   16.40    3.48
  -4   0  -8    4.27    2.11
  -4   0  -8    3.95    1.81
  -4   0  -9    4.44    1.55
  -4  -1  13    4.48    1.68
  -4  -1  12    9.32    2.61
  -4  -1  11    3.01    2.07
  -4  -1  10   51.50    6.60
  -4  -1  10   47.58    5.36
  -4  -1   9   90.37    8.55
  -4  -1   9   85.03    7.35
  -4  -1   9   97.37    8.72
  -4  -1   8   45.37    5.91
  -4  -1   8   37.87    4.87
  -4  -1   8   45.90    5.90
  -4  -1   7   17.38    3.73
  -4  -1   7   23.04    4.14
  -4  -1   6    5.46    2.55
  -4  -1   5   10.26    3.26
  -4  -1   4  142.75   10.43
  -4  -1   3  308.45   14.91
  -4  -1   2   10.30    2.71
  -4  -1   2   11.83    2.99
  -4  -1   1   83.05    7.93
  -4  -1   1   88.38    7.53
  -4  -1   1   72.27    7.07
  -4  -1   0    3.51    2.42
   4   1   0    6.20    2.12
  -4  -1   0    2.98    1.86
  -4  -1  -1   33.02    5.45
   4   1   1   32.18    5.26
  -4  -1  -1   26.10    4.71
  -4  -1  -2    8.41    3.13
  -4  -1  -2    8.23    2.66
   4   1   2   12.64    3.50
  -4  -1  -3   51.62    6.46
  -4  -1  -3   42.41    5.15
  -4  -1  -3   47.39    5.83
  -4  -1  -4   18.58    4.12
  -4  -1  -4   23.37    4.31
  -4  -1  -5    6.87    2.89
  -4  -1  -5    4.35    2.36
  -4  -1  -6   13.37    3.73
  -4  -1  -6   14.53    3.45
  -4  -1  -7   -0.15    1.32
  -4  -1  -8   -0.96    0.99
  -4  -2  13    0.98    0.92
  -4  -2  12   -0.70    1.05
  -4  -2  11   40.16    5.48
  -4  -2  10    3.99    1.91
  -4  -2  10    2.97    1.51
  -4  -2  10    1.78    1.67
  -4  -2   9    2.15    1.50
  -4  -2   9    4.58    2.10
  -4  -2   8   19.08    4.45
  -4  -2   8   10.92    2.99
  -4  -2   7    1.31    1.99
  -4  -2   7    1.60    1.35
  -4  -2   6   -2.76    2.05
  -4  -2   6    1.71    1.22
  -4  -2   5  123.98   10.76
  -4  -2   4   84.13    8.68
  -4  -2   3   31.97    5.30
  -4  -2   2   19.08    4.07
   4   2  -2   17.61    4.02
   4   2  -1  152.16   11.36
  -4  -2   1  128.39   10.39
  -4  -2   1  134.03    9.99
  -4  -2   0  172.73   12.08
   4   2   0  181.94   12.82
  -4  -2   0  159.62   11.26
  -4  -2  -1   22.30    3.72
  -4  -2  -1   26.79    4.29
  -4  -2  -2   20.42    3.70
  -4  -2  -2   21.91    4.07
  -4  -2  -3   -1.25    1.38
  -4  -2  -3    2.98    1.68
  -4  -2  -4    1.26    1.53
  -4  -2  -4    0.88    1.46
  -4  -2  -5   23.89    4.20
  -4  -2  -6    2.49    1.71
  -4  -2  -7   -1.49    1.09
  -4  -3  12    1.42    0.83
  -4  -3  11    8.60    2.57
  -4  -3  11    5.14    1.51
  -4  -3  10   38.83    5.32
  -4  -3  10   37.55    4.64
  -4  -3  10   36.04    5.11
  -4  -3   9   41.72    5.66
  -4  -3   8   34.20    5.19
  -4  -3   7    9.96    3.42
  -4  -3   7    6.47    2.43
  -4  -3   6  171.55   10.24
  -4  -3   6  136.55    9.88
  -4  -3   5   67.90    6.55
  -4  -3   5   71.72    7.06
  -4  -3   5   53.26    6.04
  -4  -3   4   11.27    2.96
  -4  -3   4   10.51    2.95
  -4  -3   3  101.49    7.64
  -4  -3   3   97.43    8.41
  -4  -3   2   -0.85    1.63
  -4  -3   2    1.63    1.77
  -4  -3   1    3.27    1.61
  -4  -3   1    2.65    1.59
  -4  -3   0   91.38    7.58
  -4  -3   0   87.46    8.32
  -4  -3  -1    2.59    1.30
  -4  -3  -1    4.61    2.22
  -4  -3  -2    9.21    2.78
  -4  -3  -3   -0.69    1.47
  -4  -3  -4    3.90    2.06
  -4  -3  -5   13.94    2.92
  -4  -3  -6    5.34    1.68
  -4  -3  -6    6.36    2.09
  -4  -3  -7    0.61    1.01
  -4  -4  11   31.88    3.36
  -4  -4  10    8.28    2.12
  -4  -4  10   13.23    3.08
  -4  -4   9   22.34    4.10
  -4  -4   8    0.83    1.05
  -4  -4   7   33.25    4.97
  -4  -4   7   35.42    5.16
  -4  -4   6   15.38    3.83
  -4  -4   6   11.64    2.94
  -4  -4   6   16.78    3.50
  -4  -4   5   19.01    3.71
  -4  -4   5   30.39    5.07
  -4  -4   4   10.60    2.98
  -4  -4   4    4.91    2.26
  -4  -4   3   14.72    3.43
  -4  -4   3   13.41    3.57
  -4  -4   2    1.69    1.67
  -4  -4   1   58.44    7.07
  -4  -4   0    2.54    2.07
  -4  -4  -1   15.16    3.74
  -4  -4  -2    0.89    1.75
  -4  -4  -3    0.53    1.92
  -4  -4  -4    1.92    1.82
  -4  -4  -5    3.01    1.71
  -4  -4  -6    0.27    0.69
  -4  -5  10   -1.42    0.94
  -4  -5   9    8.28    2.30
  -4  -5   8   23.44    3.77
  -4  -5   8   23.39    3.86
  -4  -5   7   16.01    3.44
  -4  -5   7   14.35    3.15
  -4  -5   6   15.41    3.66
  -4  -5   5   24.15    4.05
  -4  -5   5   19.54    3.96
  -4  -5   4    6.27    2.53
  -4  -5   3   37.38    5.48
  -4  -5   2    8.95    2.92
  -4  -5   1   17.66    3.84
  -4  -5   0    3.51    2.39
  -4  -5  -1   13.11    3.33
  -4  -5  -2   -1.11    1.74
  -4  -5  -3   -0.39    1.16
  -4  -5  -4    2.32    1.24
  -4  -6   9    2.35    1.04
  -4  -6   8   13.24    2.47
  -4  -6   7    6.76    2.27
  -4  -6   6    0.88    1.41
  -4  -6   5   19.82    3.73
  -4  -6   4   95.05    7.82
  -4  -6   3   89.35    7.69
  -4  -6   2   52.85    6.08
  -4  -6   1    1.43    1.69
  -4  -6   0    0.04    1.18
  -4  -6  -1    1.07    1.30
  -4  -6  -2   -0.44    0.92
  -4  -7   6   -0.02    0.96
  -4  -7   5   11.41    2.44
  -4  -7   4   15.66    2.83
  -4  -7   3   -0.31    1.13
  -4  -7   2    1.06    1.07
  -4  -7   1   -0.47    1.06
  -4  -7   0    0.78    0.89
  -5  10   3    1.92    0.84
   5 -10  -2   10.26    2.04
  -5  10   2   14.98    2.12
   5 -10  -1   -1.64    0.95
   5 -10   0    3.89    1.46
   5 -10   0    7.05    1.65
   5 -10   1   -1.40    1.08
   5 -10   2    4.09    1.37
  -5   9   7    5.29    1.41
  -5   9   6    7.36    1.82
  -5   9   5    1.95    0.99
  -5   9   5    1.31    1.04
  -5   9   4    6.10    1.81
  -5   9   4    8.02    2.12
   5  -9  -3    3.44    1.54
  -5   9   3    4.41    1.62
  -5   9   3    2.31    1.33
  -5   9   2    0.71    1.05
   5  -9  -2   -0.51    0.96
   5  -9  -1   -0.47    0.96
  -5   9   1   -0.01    0.83
   5  -9   0   -0.44    0.91
  -5   9   0    2.17    1.49
  -5   9  -1    3.95    1.41
   5  -9   2   -1.23    1.06
   5  -9   3   37.50    4.47
   5  -9   4    3.28    1.41
  -5   8   8    2.30    1.11
  -5   8   7   10.61    2.47
  -5   8   6    4.48    1.92
  -5   8   5   33.79    4.49
  -5   8   5   34.76    4.80
  -5   8   4   80.05    7.00
  -5   8   4   89.94    7.71
  -5   8   3   74.03    6.72
  -5   8   3   78.67    7.19
  -5   8   2    2.07    1.35
  -5   8   2    3.13    1.82
  -5   8   1   15.30    3.09
  -5   8   0   27.03    3.99
  -5   8  -1   23.54    3.66
   5  -8   2   -0.48    0.98
  -5   8  -2   -4.32    1.65
   5  -8   3    3.61    1.80
   5  -8   4    3.52    1.65
   5  -8   5    8.21    2.04
   5  -8   6   -2.01    0.98
  -5   7   9   63.39    5.45
  -5   7   8   44.45    5.08
  -5   7   7    3.90    1.78
  -5   7   7    4.26    2.05
  -5   7   6   55.61    6.20
  -5   7   6   44.29    5.59
  -5   7   5    1.23    1.13
  -5   7   4    2.00    1.83
  -5   7   3   12.16    2.84
  -5   7   3   11.73    3.10
  -5   7   2   33.40    4.70
  -5   7   2   34.73    4.98
  -5   7   1   -0.75    1.11
  -5   7   0   21.63    3.76
  -5   7  -1    8.49    2.42
   5  -7   2   11.06    3.05
  -5   7  -2   12.79    2.90
   5  -7   3    8.94    2.83
  -5   7  -3    9.30    2.33
   5  -7   4    4.64    1.76
  -5   7  -4    9.62    2.16
   5  -7   5   -2.71    1.50
   5  -7   6   13.35    2.61
  -5   6  10    0.23    0.86
  -5   6   9    0.34    1.04
  -5   6   8   -0.25    1.78
  -5   6   7  119.51    9.33
  -5   6   7  120.95    8.60
  -5   6   7  105.44    8.66
  -5   6   6   21.70    4.07
  -5   6   6   18.94    3.81
  -5   6   5    8.87    2.97
  -5   6   5    5.88    2.26
  -5   6   4  170.20   10.88
  -5   6   4  167.64   11.09
  -5   6   3    2.55    1.22
  -5   6   3    2.47    1.56
  -5   6   2   39.13    5.00
  -5   6   2   39.28    5.24
  -5   6   1   10.70    2.70
  -5   6   0   -0.97    1.56
  -5   6  -1   16.25    3.34
   5  -6   2    0.69    1.40
  -5   6  -2    4.47    1.89
   5  -6   3   18.35    3.81
  -5   6  -3   19.86    3.54
   5  -6   4   39.55    5.47
  -5   6  -4   39.00    4.83
   5  -6   5  123.05    8.95
  -5   6  -5  125.81    7.36
  -5   6  -5  132.55    8.38
   5  -6   6    0.79    0.87
  -5   6  -6   -0.25    0.85
  -5   5  11    9.77    2.28
  -5   5  10    2.97    1.62
  -5   5   9   70.98    7.12
  -5   5   9   68.23    6.21
  -5   5   8    0.33    0.89
  -5   5   8   -2.45    2.50
  -5   5   7   -1.65    2.38
  -5   5   7    0.47    1.02
  -5   5   6   43.87    5.33
  -5   5   6   40.71    5.51
  -5   5   5   13.72    3.11
  -5   5   5   20.27    3.87
  -5   5   4    9.64    2.56
  -5   5   4    9.75    2.76
  -5   5   3  124.52    8.94
  -5   5   3  109.22    8.12
  -5   5   3  135.52    9.48
  -5   5   2    9.37    2.74
  -5   5   2    9.47    2.45
  -5   5   1   12.21    2.72
  -5   5   0   53.11    5.65
  -5   5  -1    0.44    1.30
  -5   5  -2   10.14    2.59
  -5   5  -3   44.12    5.30
  -5   5  -4  810.39   20.27
  -5   5  -4  791.51   22.16
  -5   5  -5   75.45    6.73
  -5   5  -6   -1.13    1.18
  -5   5  -7    1.41    0.80
  -5   5  -8   11.41    2.27
  -5   4  12   44.89    4.38
  -5   4  11   92.70    7.42
  -5   4  11   84.91    6.18
  -5   4  10  332.16   15.29
  -5   4  10  340.92   13.83
  -5   4   9    2.00    1.45
  -5   4   9    1.12    1.36
  -5   4   8   63.46    6.56
  -5   4   8   74.84    6.65
  -5   4   7   38.04    5.01
  -5   4   7   40.18    5.24
  -5   4   6   21.12    3.76
  -5   4   6   22.53    3.89
  -5   4   5    0.35    1.37
  -5   4   5    3.15    1.82
  -5   4   4   44.05    6.03
  -5   4   3  101.02    8.86
  -5   4   2   64.90    7.18
  -5   4   1  104.18    8.98
  -5   4   0    1.59    1.83
  -5   4  -1    0.57    0.78
  -5   4  -2   51.06    5.62
  -5   4  -3   25.86    3.83
  -5   4  -3   33.92    4.67
  -5   4  -4    1.29    1.45
  -5   4  -5   34.51    4.81
  -5   4  -6    0.74    1.16
  -5   4  -7    0.85    0.86
  -5   4  -8   -0.43    0.92
  -5   3  12  117.83    7.74
  -5   3  12  112.99    6.68
  -5   3  11   63.11    6.48
  -5   3  11   62.59    5.84
  -5   3  10   36.23    5.21
  -5   3  10   32.38    4.63
  -5   3   9   15.64    3.54
  -5   3   9   17.01    3.38
  -5   3   8   -0.90    1.24
  -5   3   8   -0.71    1.92
  -5   3   7   79.14    7.36
  -5   3   7   61.65    6.08
  -5   3   6   41.65    5.09
  -5   3   6   32.90    4.26
  -5   3   5   15.40    3.45
  -5   3   4    0.34    1.38
  -5   3   3   90.47    8.05
  -5   3   2   24.61    4.42
  -5   3   1    3.09    2.42
  -5   3   1   -0.47    1.31
  -5   3   0   25.97    4.86
  -5   3   0   23.44    4.61
  -5   3   0   21.27    4.26
  -5   3  -1    6.89    2.59
  -5   3  -1    5.06    1.89
  -5   3  -1    4.55    1.99
  -5   3  -1    5.79    2.52
  -5   3  -1    3.10    1.33
  -5   3  -2   -0.34    1.05
  -5   3  -2    1.98    1.20
  -5   3  -3   -2.94    1.41
  -5   3  -3    0.11    1.01
  -5   3  -3   -0.77    0.98
  -5   3  -4   47.75    5.61
  -5   3  -4   51.27    5.82
  -5   3  -5   14.72    3.24
  -5   3  -5   11.78    2.91
  -5   3  -6   85.70    7.23
  -5   3  -6  103.98    7.78
  -5   3  -7    6.14    2.38
  -5   3  -7    2.88    1.47
  -5   3  -8   -1.02    1.11
  -5   2  12    9.24    2.43
  -5   2  12    8.75    2.18
  -5   2  11    3.09    1.80
  -5   2  11    4.43    1.79
  -5   2  10    0.71    0.97
  -5   2  10    1.18    1.17
  -5   2   9    2.66    1.67
  -5   2   9    0.32    1.92
  -5   2   8    0.78    1.03
  -5   2   8   -2.83    2.47
  -5   2   7    7.36    2.31
  -5   2   7    1.17    1.95
  -5   2   6  122.53    8.66
  -5   2   6  124.98    8.31
  -5   2   5   15.56    3.54
  -5   2   4   16.60    3.50
  -5   2   3   63.82    6.73
  -5   2   2    1.15    1.38
  -5   2   1   63.99    7.35
  -5   2   1   73.95    7.14
  -5   2   1   74.79    7.80
  -5   2   0   17.18    4.28
  -5   2   0   13.40    3.27
  -5   2   0   10.95    3.25
  -5   2  -1   15.29    3.39
  -5   2  -2  254.59   11.16
  -5   2  -2  251.42   12.07
  -5   2  -2  242.14   12.59
  -5   2  -3   77.49    7.04
  -5   2  -3   69.63    7.04
  -5   2  -4    3.13    1.86
  -5   2  -4    3.18    1.66
  -5   2  -5    1.92    1.58
  -5   2  -5    1.40    1.38
  -5   2  -6   40.98    5.73
  -5   2  -6   30.18    4.40
  -5   2  -6   30.56    4.45
  -5   2  -7   22.12    3.93
  -5   2  -7   19.62    3.29
  -5   2  -8    9.53    2.26
  -5   2  -8    8.75    1.88
  -5   1  13    7.46    1.74
  -5   1  12   11.95    2.66
  -5   1  12   11.55    2.57
  -5   1  11    9.75    2.64
  -5   1  10   -1.26    2.29
  -5   1   9  118.95    8.45
  -5   1   8    8.74    2.49
  -5   1   7   10.46    2.49
  -5   1   7   10.13    2.58
  -5   1   7   12.10    2.90
  -5   1   6    6.17    1.82
  -5   1   6   10.74    2.51
  -5   1   6    6.56    2.04
  -5   1   5   99.37    9.39
  -5   1   4   16.93    4.00
  -5   1   4   23.85    4.24
  -5   1   3   44.98    5.92
  -5   1   3   44.24    5.71
  -5   1   2  150.83   10.23
  -5   1   1   13.22    3.68
  -5   1   1   11.54    3.03
  -5   1   1   11.28    3.14
  -5   1   0  112.81   10.29
  -5   1   0  106.79    9.65
  -5   1  -1   48.26    5.13
  -5   1  -1   47.54    5.68
  -5   1  -1   50.24    5.30
  -5   1  -1   50.70    4.92
  -5   1  -2   11.59    2.42
  -5   1  -2   16.42    3.24
  -5   1  -2   13.96    3.31
  -5   1  -3    6.42    2.28
  -5   1  -3    9.90    2.78
  -5   1  -4    7.96    2.68
  -5   1  -4    3.45    1.88
  -5   1  -4    3.59    1.82
  -5   1  -5    3.73    2.17
  -5   1  -5    3.84    1.91
  -5   1  -5    5.86    2.25
  -5   1  -6    0.13    1.18
  -5   1  -6    0.05    1.13
  -5   1  -7    1.90    1.36
  -5   1  -7    2.39    1.45
  -5   1  -8   13.86    2.48
  -5   1  -8   11.01    1.96
  -5   0  13   17.11    2.52
  -5   0  12   14.78    2.87
  -5   0  10    0.44    1.20
  -5   0   9  205.34   11.29
  -5   0   8   35.08    5.73
  -5   0   8   20.78    3.74
  -5   0   7   -2.90    3.33
  -5   0   7   -0.10    0.90
  -5   0   6   31.48    4.58
  -5   0   6   32.17    4.42
  -5   0   5    7.14    2.12
  -5   0   5   11.26    2.54
  -5   0   4   97.12    9.03
  -5   0   3    8.22    3.00
  -5   0   2    1.87    1.58
  -5   0   1    0.39    2.21
  -5   0   1   -0.65    1.31
  -5   0   0    2.06    1.27
  -5   0   0    1.24    1.41
  -5   0   0    3.97    1.80
  -5   0   0    0.69    1.26
  -5   0  -1    3.13    1.64
  -5   0  -1    4.64    1.70
  -5   0  -1    4.85    2.24
  -5   0  -2    8.25    2.57
  -5   0  -2    5.54    2.31
  -5   0  -3   -0.04    1.37
  -5   0  -3    3.35    1.98
  -5   0  -4   -0.86    1.23
  -5   0  -4   -0.26    1.09
  -5   0  -4    0.55    1.39
  -5   0  -5    3.94    1.90
  -5   0  -5    1.75    1.37
  -5   0  -6    0.13    1.11
  -5   0  -6    0.85    1.18
  -5   0  -7    0.01    0.84
  -5   0  -7    0.61    0.94
  -5  -1  13    4.53    1.36
  -5  -1  12   19.39    3.09
  -5  -1  11    3.28    1.24
  -5  -1  10   46.80    5.26
  -5  -1   9   10.27    2.81
  -5  -1   8   11.50    4.29
  -5  -1   8    1.61    1.32
  -5  -1   7   13.10    3.20
  -5  -1   7   16.24    3.39
  -5  -1   6   14.68    3.52
  -5  -1   6   10.27    2.52
  -5  -1   5    9.05    2.64
  -5  -1   5    8.95    2.37
  -5  -1   4   -1.13    1.47
  -5  -1   4   -0.75    0.89
  -5  -1   4   -0.87    1.03
  -5  -1   3    2.99    1.63
  -5  -1   3    1.47    1.33
  -5  -1   2   21.74    3.85
  -5  -1   2   22.24    3.43
  -5  -1   1    5.12    2.03
  -5  -1   0    1.33    1.75
  -5  -1   0    0.60    1.08
  -5  -1  -1    7.76    2.52
  -5  -1  -1   10.31    3.19
  -5  -1  -2   -0.67    1.53
  -5  -1  -2   -2.78    1.79
  -5  -1  -3   67.25    6.66
  -5  -1  -3   60.80    6.81
  -5  -1  -4  150.65    9.41
  -5  -1  -4  136.53    9.80
  -5  -1  -5   45.14    4.90
  -5  -1  -5   43.97    5.29
  -5  -1  -6    4.31    1.55
  -5  -1  -6    4.41    1.69
  -5  -1  -7    1.73    0.97
  -5  -2  12    4.90    1.56
  -5  -2  11   29.02    3.58
  -5  -2  10    2.91    1.52
  -5  -2   9   15.18    3.13
  -5  -2   8   10.37    4.13
  -5  -2   8    1.63    1.21
  -5  -2   7    1.26    2.58
  -5  -2   7    0.84    1.27
  -5  -2   6   10.97    3.04
  -5  -2   5   11.84    3.33
  -5  -2   4   21.12    3.85
  -5  -2   3   -2.89    1.89
  -5  -2   2   69.18    6.89
  -5  -2   2   80.21    7.75
  -5  -2   1   37.52    5.13
  -5  -2   1   37.63    5.48
  -5  -2   0    4.52    2.11
  -5  -2   0    1.84    1.36
  -5  -2  -1    8.37    2.77
  -5  -2  -1    9.93    3.04
  -5  -2  -2    1.34    1.28
  -5  -2  -2    2.47    1.69
  -5  -2  -3   97.54    7.43
  -5  -2  -3   89.29    7.77
  -5  -2  -4  109.50    7.23
  -5  -2  -4  113.17    8.15
  -5  -2  -5   13.02    2.67
  -5  -2  -6   -1.55    1.26
  -5  -3  11   64.44    4.89
  -5  -3  11   52.86    4.40
  -5  -3  10   77.72    6.18
  -5  -3   9    0.57    1.09
  -5  -3   8   31.82    5.08
  -5  -3   8   10.52    2.63
  -5  -3   7   13.88    3.66
  -5  -3   6   -4.39    3.04
  -5  -3   5   32.57    4.90
  -5  -3   4   13.53    3.38
  -5  -3   4   17.49    3.63
  -5  -3   3   15.65    3.40
  -5  -3   3   18.39    4.00
  -5  -3   2    6.21    2.25
  -5  -3   2    9.57    2.88
  -5  -3   1   36.83    5.06
  -5  -3   1   44.53    6.05
  -5  -3   0   -0.29    1.80
  -5  -3   0    4.13    2.38
  -5  -3  -1    1.50    1.35
  -5  -3  -1    0.09    1.26
  -5  -3  -2    1.49    1.15
  -5  -3  -2    1.97    1.62
  -5  -3  -3    1.92    1.74
  -5  -3  -4    0.39    1.40
  -5  -3  -5   -0.57    0.93
  -5  -4  10    0.89    0.80
  -5  -4   9    0.62    0.85
  -5  -4   8    2.80    1.45
  -5  -4   7   21.33    4.47
  -5  -4   6    4.85    2.67
  -5  -4   5   -2.59    2.36
  -5  -4   5    0.15    1.18
  -5  -4   4   -2.15    2.60
  -5  -4   4    6.62    2.49
  -5  -4   3    5.88    2.45
  -5  -4   3    4.84    2.35
  -5  -4   2   21.77    3.75
  -5  -4   2   23.53    4.24
  -5  -4   1    1.09    1.33
  -5  -4   0    1.58    1.71
  -5  -4  -1    1.84    1.64
  -5  -4  -2    1.73    1.46
  -5  -4  -3   -0.92    1.48
  -5  -4  -4    1.06    0.73
  -5  -5   9    3.12    1.12
  -5  -5   8    3.13    1.36
  -5  -5   7   -0.13    1.05
  -5  -5   6    0.12    0.85
  -5  -5   6   -1.29    1.32
  -5  -5   5   -0.53    1.55
  -5  -5   4   21.62    3.83
  -5  -5   3   28.50    4.34
  -5  -5   2   -1.94    1.91
  -5  -5   1    0.42    1.39
  -5  -5   0   -3.23    1.68
  -5  -5  -1   13.53    2.63
  -5  -5  -2   13.96    2.30
  -5  -6   5    1.79    1.26
  -5  -6   4   33.92    3.75
  -5  -6   3   21.86    3.05
  -5  -6   2    3.83    1.49
  -5  -6   1    1.71    1.24
  -6   9   6    1.28    0.90
  -6   9   5    1.49    1.03
  -6   9   4   22.72    3.01
  -6   9   3   24.71    3.20
  -6   9   2    0.50    0.73
  -6   9   2    1.79    1.36
  -6   9   1    1.24    1.07
   6  -9  -1    0.64    0.85
  -6   9   1    0.11    0.83
   6  -9   0   24.93    3.37
  -6   9   0   25.70    3.05
   6  -9   1   37.90    3.96
  -6   9  -1   44.25    3.73
  -6   9  -2   -0.13    0.62
  -6   9  -3    0.37    0.60
  -6   8   8    0.53    0.59
  -6   8   8    0.92    0.84
  -6   8   7    0.22    0.61
  -6   8   7   -1.25    1.14
  -6   8   6    0.83    0.63
  -6   8   6   -0.03    1.34
  -6   8   5  191.62    9.73
  -6   8   4  213.56   10.60
  -6   8   3   37.90    4.58
  -6   8   2    7.86    2.09
  -6   8   1    0.67    1.04
  -6   8   0   11.21    2.44
  -6   8  -1    7.93    1.98
  -6   8  -2    6.91    1.79
  -6   8  -3    7.37    1.66
  -6   8  -3    9.01    1.91
  -6   8  -4    4.62    1.18
  -6   7   9   18.90    2.43
  -6   7   8    2.85    1.29
  -6   7   7   -0.06    0.97
  -6   7   6    0.69    1.06
  -6   7   6   -0.25    1.09
  -6   7   5   43.25    5.12
  -6   7   5   42.58    4.48
  -6   7   4   29.57    4.27
  -6   7   4   32.68    3.95
  -6   7   3    9.49    2.18
  -6   7   3    7.14    2.30
  -6   7   2   17.51    3.40
  -6   7   1    1.32    1.18
  -6   7   0    0.46    1.12
  -6   7  -1    2.71    1.52
  -6   7  -2    1.27    1.10
  -6   7  -3   -1.41    1.10
  -6   7  -3    0.66    0.89
  -6   7  -4    0.40    0.75
  -6   7  -4    1.53    1.22
  -6   7  -5    3.50    1.19
  -6   6  10    3.62    1.25
  -6   6   9   14.38    2.74
  -6   6   8    7.60    2.52
  -6   6   8    3.64    1.64
  -6   6   7    8.90    2.85
  -6   6   7    6.52    2.18
  -6   6   6    4.66    2.56
  -6   6   6    0.03    0.85
  -6   6   5   65.17    6.77
  -6   6   5   45.60    5.41
  -6   6   5   52.59    5.41
  -6   6   4    2.42    1.53
  -6   6   4    1.45    1.14
  -6   6   3   15.16    2.90
  -6   6   3   15.16    2.78
  -6   6   3   16.36    3.39
  -6   6   2    2.20    1.63
  -6   6   1    2.06    1.41
  -6   6   0   14.25    3.08
  -6   6  -1   27.44    4.17
  -6   6  -2   33.84    4.29
  -6   6  -2   38.10    4.80
  -6   6  -3   53.00    5.39
  -6   6  -3   39.04    4.40
  -6   6  -4   11.11    2.15
  -6   6  -4   14.42    2.75
  -6   6  -5    0.93    0.91
  -6   5  11    4.73    1.33
  -6   5  10    0.67    0.85
  -6   5  10    0.28    1.02
  -6   5   9   -1.37    1.82
  -6   5   8   -1.20    1.86
  -6   5   7    3.16    1.76
  -6   5   6  307.89   14.53
  -6   5   6  306.26   13.58
  -6   5   5   29.17    4.92
  -6   5   5   22.65    3.65
  -6   5   5   20.87    3.56
  -6   5   4   45.85    5.76
  -6   5   4   47.90    4.96
  -6   5   4   43.19    5.26
  -6   5   4   43.60    4.90
  -6   5   3  157.05    9.22
  -6   5   3  156.10   10.58
  -6   5   3  149.33    9.74
  -6   5   3  156.68    9.15
  -6   5   2  100.82    7.52
  -6   5   2  117.22    8.63
  -6   5   2  121.81    8.01
  -6   5   1   77.05    6.63
  -6   5   1   88.65    7.56
  -6   5   0   20.08    3.49
  -6   5   0   24.03    3.95
  -6   5  -1   28.14    4.19
  -6   5  -1   34.53    4.78
  -6   5  -2    4.17    1.70
  -6   5  -2    6.44    2.31
  -6   5  -3    3.54    1.69
  -6   5  -3    5.67    2.15
  -6   5  -4   -0.15    1.11
  -6   5  -4    1.15    0.90
  -6   5  -5   -1.11    1.07
  -6   5  -6    8.12    1.87
  -6   4  11   11.04    1.97
  -6   4  11   12.57    2.32
  -6   4  10    5.89    1.65
  -6   4  10    6.00    1.80
  -6   4   9   16.99    3.50
  -6   4   8    2.46    1.89
  -6   4   8   13.47    3.89
  -6   4   7   40.88    5.49
  -6   4   7   59.08    6.09
  -6   4   6   60.19    6.50
  -6   4   6   74.88    6.77
  -6   4   6   56.17    5.71
  -6   4   5    1.97    1.44
  -6   4   5    1.56    1.71
  -6   4   4    3.34    1.74
  -6   4   4    0.54    1.76
  -6   4   4    1.70    1.41
  -6   4   4    0.85    0.89
  -6   4   3    0.78    1.16
  -6   4   3    2.19    2.07
  -6   4   3    3.73    1.68
  -6   4   3    0.45    1.05
  -6   4   2   76.34    6.53
  -6   4   2   66.34    6.76
  -6   4   2   73.95    6.76
  -6   4   2   75.17    6.42
  -6   4   1    4.78    1.80
  -6   4   1    3.57    1.57
  -6   4   1    5.38    1.75
  -6   4   0   11.06    2.55
  -6   4   0   11.43    2.89
  -6   4   0   12.89    2.85
  -6   4  -1    1.39    1.27
  -6   4  -1    0.80    1.21
  -6   4  -2   14.69    3.04
  -6   4  -2   14.29    3.21
  -6   4  -3   42.61    4.61
  -6   4  -3   40.45    5.09
  -6   4  -4    9.17    2.65
  -6   4  -5   29.98    4.03
  -6   4  -6   -1.10    1.04
  -6   3  12   -2.01    1.46
  -6   3  11    7.64    1.73
  -6   3  11    7.54    2.26
  -6   3  10   10.84    2.31
  -6   3  10    9.40    2.55
  -6   3   9   73.57    7.11
  -6   3   9   77.59    6.58
  -6   3   9   68.29    6.01
  -6   3   8    2.66    1.47
  -6   3   8    4.63    2.16
  -6   3   8    5.25    2.23
  -6   3   7    1.61    1.20
  -6   3   7    2.62    1.75
  -6   3   7   -0.01    1.66
  -6   3   6    1.03    0.88
  -6   3   6    1.76    1.50
  -6   3   5    8.57    2.25
  -6   3   5   10.51    2.89
  -6   3   5    2.68    1.29
  -6   3   4   21.58    3.40
  -6   3   4   17.25    3.66
  -6   3   4   15.52    3.10
  -6   3   4   18.77    3.32
  -6   3   3   36.70    4.45
  -6   3   3   31.41    4.80
  -6   3   3   31.94    4.40
  -6   3   3   31.39    4.18
  -6   3   2   84.19    6.76
  -6   3   2   76.93    7.04
  -6   3   2   84.16    6.84
  -6   3   2   86.57    6.94
  -6   3   1    1.83    1.26
  -6   3   1    0.34    1.06
  -6   3   1    0.60    1.20
  -6   3   0    0.72    1.11
  -6   3   0    0.88    1.15
  -6   3   0   -0.71    1.04
  -6   3   0    1.30    1.56
  -6   3  -1    2.20    1.43
  -6   3  -1    0.45    1.32
  -6   3  -1    2.73    1.91
  -6   3  -2    2.17    1.64
  -6   3  -2    3.23    1.65
  -6   3  -2    2.56    1.71
  -6   3  -3   20.32    3.15
  -6   3  -3   22.24    3.91
  -6   3  -3   24.91    4.05
  -6   3  -4   29.81    4.38
  -6   3  -4   30.45    4.27
  -6   3  -5    1.77    1.50
  -6   3  -5    2.26    1.27
  -6   2  12    1.51    0.95
  -6   2  11    0.19    1.08
  -6   2  11    8.96    2.38
  -6   2  10   15.68    3.23
  -6   2  10   11.30    2.70
  -6   2   9    0.55    1.00
  -6   2   9   -0.04    1.02
  -6   2   8    0.53    1.00
  -6   2   8    0.30    0.90
  -6   2   7   -0.01    1.16
  -6   2   7   -0.36    1.36
  -6   2   7   -2.72    2.44
  -6   2   6   -0.37    1.31
  -6   2   6    0.04    1.02
  -6   2   5  198.87   10.12
  -6   2   5  190.60   11.27
  -6   2   5  176.16   10.32
  -6   2   5  190.47   10.24
  -6   2   4  137.43    8.54
  -6   2   4  132.90    9.20
  -6   2   4  140.01    8.95
  -6   2   4  140.61    8.77
  -6   2   3  134.94    8.99
  -6   2   3  137.32    8.65
  -6   2   3  146.46    8.94
  -6   2   3  150.54    9.12
  -6   2   2   44.04    5.26
  -6   2   2   49.65    5.23
  -6   2   2   55.06    5.57
  -6   2   1  136.56    8.63
  -6   2   1  122.36    8.88
  -6   2   1  139.30    8.73
  -6   2   1  133.10    8.71
  -6   2   0   63.76    6.08
  -6   2   0   56.24    6.13
  -6   2   0   70.38    6.47
  -6   2   0   65.14    6.34
  -6   2  -1    0.04    1.04
  -6   2  -1    1.05    1.32
  -6   2  -1    2.02    1.25
  -6   2  -1   -2.62    1.57
  -6   2  -2    1.01    1.12
  -6   2  -2    0.27    0.99
  -6   2  -2    0.54    1.02
  -6   2  -3    3.42    1.85
  -6   2  -3    3.11    1.88
  -6   2  -4   10.28    2.81
  -6   2  -4    8.29    2.48
  -6   2  -5    7.91    2.34
  -6   2  -5    8.42    2.35
  -6   2  -6   14.59    2.51
  -6   2  -6   11.62    2.26
  -6   1  12    4.14    1.54
  -6   1  11    4.72    1.78
  -6   1  11    4.52    1.59
  -6   1  10    9.43    2.63
  -6   1  10    5.76    1.86
  -6   1   9    8.01    2.57
  -6   1   9    2.75    1.58
  -6   1   8   21.71    3.91
  -6   1   8   20.12    3.51
  -6   1   8   23.53    3.43
  -6   1   7    2.16    1.40
  -6   1   7    1.71    1.26
  -6   1   7    2.14    1.26
  -6   1   6   46.97    5.49
  -6   1   6   42.13    5.46
  -6   1   6   45.19    5.37
  -6   1   6   49.77    5.27
  -6   1   5  696.13   20.53
  -6   1   5  711.40   19.45
  -6   1   5  687.20   20.53
  -6   1   5  697.90   19.52
  -6   1   4  315.45   14.00
  -6   1   4  315.70   13.13
  -6   1   4  350.13   14.18
  -6   1   4  327.14   13.34
  -6   1   3   67.78    6.63
  -6   1   3   58.71    5.71
  -6   1   3   62.54    6.04
  -6   1   2   42.94    5.04
  -6   1   2   43.46    5.42
  -6   1   2   45.87    5.21
  -6   1   1    9.21    2.41
  -6   1   1    7.75    2.64
  -6   1   1   10.37    2.80
  -6   1   0   42.22    4.93
  -6   1   0   43.94    5.61
  -6   1  -1    4.68    1.89
  -6   1  -1    7.28    2.50
  -6   1  -1    5.90    2.12
  -6   1  -1    5.48    2.31
  -6   1  -2    3.50    1.43
  -6   1  -2    5.40    2.34
  -6   1  -2    2.91    1.88
  -6   1  -2    2.70    1.78
  -6   1  -3   10.28    2.68
  -6   1  -3    7.37    2.26
  -6   1  -3    7.73    2.58
  -6   1  -4   -1.11    1.40
  -6   1  -4    0.18    1.07
  -6   1  -5   -0.06    1.08
  -6   1  -5   -0.46    1.11
  -6   1  -6    1.38    1.09
  -6   1  -6    2.87    1.30
  -6   0  12   17.01    2.59
  -6   0  11    3.96    1.53
  -6   0  11   -0.92    1.60
  -6   0  10   31.25    4.33
  -6   0  10   28.76    3.85
  -6   0   9   25.29    4.06
  -6   0   9   29.18    4.24
  -6   0   8   -1.71    1.26
  -6   0   8    0.52    1.13
  -6   0   7   -2.63    1.49
  -6   0   7    0.31    1.00
  -6   0   6    1.21    1.18
  -6   0   6    0.19    1.33
  -6   0   5   27.41    4.42
  -6   0   5   27.08    4.18
  -6   0   5   22.73    3.62
  -6   0   4   -0.14    1.90
  -6   0   4    3.57    1.69
  -6   0   4    1.73    1.33
  -6   0   3   -1.79    2.14
  -6   0   3   -1.32    1.49
  -6   0   2    1.78    1.67
  -6   0   2    0.89    1.26
  -6   0   1    0.03    1.34
  -6   0   0    1.26    1.53
  -6   0  -1    1.71    1.83
  -6   0  -1    0.10    1.48
  -6   0  -2    1.85    1.77
  -6   0  -2    0.87    1.20
  -6   0  -2    1.86    1.44
  -6   0  -3   -1.83    1.51
  -6   0  -3   -0.36    1.26
  -6   0  -4   -0.31    1.04
  -6   0  -4   -0.45    1.23
  -6   0  -5    0.15    0.96
  -6   0  -5    1.75    1.24
  -6  -1  11    1.31    1.18
  -6  -1  10    0.12    0.90
  -6  -1  10    0.36    0.95
  -6  -1   9    8.64    2.35
  -6  -1   9    7.93    2.34
  -6  -1   8   31.70    5.19
  -6  -1   8   13.01    2.85
  -6  -1   7   -3.89    3.23
  -6  -1   7    0.46    0.93
  -6  -1   6   12.56    3.43
  -6  -1   6    1.30    1.27
  -6  -1   5   25.20    4.30
  -6  -1   5   23.67    3.96
  -6  -1   5   25.12    3.88
  -6  -1   4   13.33    3.36
  -6  -1   4   19.12    3.43
  -6  -1   4   18.30    3.32
  -6  -1   3    4.82    1.79
  -6  -1   2    1.34    1.59
  -6  -1   1    4.55    2.26
  -6  -1   0    4.99    2.37
  -6  -1   0    7.05    2.59
  -6  -1  -1    0.23    1.51
  -6  -1  -1   -0.99    1.24
  -6  -1  -2    3.05    1.91
  -6  -1  -2    1.62    1.31
  -6  -1  -3    0.77    1.21
  -6  -1  -3    1.76    1.67
  -6  -1  -4    2.10    1.33
  -6  -1  -4   -0.89    1.56
  -6  -1  -5    3.95    1.46
  -6  -2  10   10.12    2.18
  -6  -2   9    0.18    0.82
  -6  -2   8   36.42    5.63
  -6  -2   8    6.44    2.05
  -6  -2   7   48.04    5.58
  -6  -2   7   32.59    4.48
  -6  -2   6   44.46    5.50
  -6  -2   6   40.60    4.97
  -6  -2   5    5.64    2.72
  -6  -2   5   -0.68    1.17
  -6  -2   4    4.29    2.25
  -6  -2   3    6.80    2.47
  -6  -2   2    9.84    2.74
  -6  -2   1   38.08    4.88
  -6  -2   1   47.10    5.82
  -6  -2   0   -5.16    2.11
  -6  -2   0    1.34    1.54
  -6  -2  -1   10.53    2.52
  -6  -2  -1   11.63    3.07
  -6  -2  -2    0.15    0.98
  -6  -2  -2    1.98    1.62
  -6  -2  -3    9.20    1.90
  -6  -2  -3   12.32    2.67
  -6  -2  -4    4.15    1.42
  -6  -3  10    1.38    0.87
  -6  -3   9    6.79    1.80
  -6  -3   8   13.39    2.63
  -6  -3   7   19.10    3.90
  -6  -3   7    8.30    2.20
  -6  -3   6    1.77    2.32
  -6  -3   6    1.35    1.24
  -6  -3   5   -6.44    3.29
  -6  -3   5   -0.07    0.75
  -6  -3   4   26.45    4.16
  -6  -3   3    0.82    1.51
  -6  -3   2    1.36    1.51
  -6  -3   2    5.33    2.09
  -6  -3   1    5.07    1.78
  -6  -3   1    5.99    2.42
  -6  -3   0   -0.69    1.40
  -6  -3   0    3.61    1.89
  -6  -3  -1    0.59    0.90
  -6  -3  -1    1.77    1.69
  -6  -3  -2    1.35    1.41
  -6  -4   9    1.33    0.85
  -6  -4   8    1.50    0.88
  -6  -4   7    0.72    0.82
  -6  -4   6   14.43    3.14
  -6  -4   6    0.97    0.87
  -6  -4   5    4.05    2.13
  -6  -4   4    6.55    2.16
  -6  -4   3   -4.83    2.06
  -6  -4   3    1.50    1.66
  -6  -4   2    2.93    1.52
  -6  -4   1   -1.42    1.23
  -6  -4   0   -3.55    1.46
  -7   9   4    3.94    1.25
  -7   9   3    4.70    1.22
  -7   9   2   10.34    1.74
  -7   9   1    0.31    0.69
  -7   8   6   47.70    3.91
  -7   8   5   10.21    2.15
  -7   8   4    1.50    1.29
  -7   8   3    5.95    1.40
  -7   8   3    4.88    1.65
  -7   8   2    0.11    0.72
  -7   8   2   -0.01    0.89
  -7   8   1   -0.11    0.88
  -7   8   1   -0.34    0.88
  -7   8   0   13.85    2.27
  -7   8   0   17.25    2.59
  -7   8  -1   -0.25    0.62
  -7   8  -1   -0.58    1.03
  -7   8  -2    2.86    0.98
  -7   8  -2    2.48    0.91
  -7   7   8    1.33    0.78
  -7   7   7   -0.84    1.17
  -7   7   7    0.78    0.76
  -7   7   6    0.02    0.94
  -7   7   6   -1.59    0.95
  -7   7   5   34.43    4.05
  -7   7   5   41.47    3.97
  -7   7   4   13.04    2.69
  -7   7   3    1.79    0.96
  -7   7   3    4.76    1.76
  -7   7   2    5.81    1.70
  -7   7   2    9.02    2.34
  -7   7   1   -0.60    1.14
  -7   7   1    0.03    1.12
  -7   7   0    0.17    0.98
  -7   7   0    0.67    1.16
  -7   7  -1    0.38    0.82
  -7   7  -1    1.18    0.97
  -7   7  -2    0.75    0.72
  -7   7  -2   -0.26    0.95
  -7   7  -3   -0.03    0.50
  -7   7  -3   -0.48    0.95
  -7   6   9    0.57    0.77
  -7   6   8    6.41    1.71
  -7   6   8   11.40    2.64
  -7   6   7    4.21    1.45
  -7   6   7   13.85    3.34
  -7   6   6   -0.53    0.83
  -7   6   6   -1.43    1.25
  -7   6   5   30.36    4.02
  -7   6   5   27.11    3.60
  -7   6   4    1.53    1.18
  -7   6   4    0.03    1.43
  -7   6   4    0.78    0.77
  -7   6   3    0.73    1.02
  -7   6   3    0.67    1.00
  -7   6   3   -1.27    1.44
  -7   6   2    0.68    0.98
  -7   6   2    0.22    1.03
  -7   6   1   17.43    3.18
  -7   6   1   15.10    3.02
  -7   6   0    2.28    1.35
  -7   6   0    1.09    1.03
  -7   6  -1    5.94    1.84
  -7   6  -1    8.84    2.31
  -7   6  -2   59.41    4.78
  -7   6  -2   55.35    5.11
  -7   6  -3   83.89    5.01
  -7   6  -3   84.24    5.79
  -7   6  -4   34.86    3.32
  -7   5  10    3.67    1.58
  -7   5  10   -0.09    0.66
  -7   5   9   37.06    4.29
  -7   5   9   27.96    3.29
  -7   5   8    0.33    1.00
  -7   5   8    1.55    1.52
  -7   5   7    2.90    1.39
  -7   5   7    5.35    2.58
  -7   5   6   12.86    2.61
  -7   5   6   17.49    3.77
  -7   5   5    4.40    1.63
  -7   5   5    3.52    1.56
  -7   5   4    1.74    1.12
  -7   5   4    3.69    1.61
  -7   5   4    4.69    1.95
  -7   5   3    9.27    2.45
  -7   5   3    8.30    2.43
  -7   5   3   10.48    2.61
  -7   5   2    0.76    0.91
  -7   5   2    0.44    1.04
  -7   5   2    0.08    1.06
  -7   5   1    7.23    2.16
  -7   5   1    6.04    2.15
  -7   5   1    6.26    2.11
  -7   5   0   14.72    2.99
  -7   5   0   19.25    3.50
  -7   5  -1   13.09    2.72
  -7   5  -1   13.33    3.04
  -7   5  -2   93.53    6.23
  -7   5  -2   97.55    7.08
  -7   5  -3   31.39    3.27
  -7   5  -3   38.24    4.25
  -7   5  -4   10.52    2.06
  -7   4  11   59.49    4.35
  -7   4  10   -0.87    1.35
  -7   4  10    0.31    0.78
  -7   4   9   32.43    4.21
  -7   4   9   34.83    3.81
  -7   4   8    6.18    2.25
  -7   4   8    7.68    2.02
  -7   4   7    2.85    1.56
  -7   4   7    2.98    1.58
  -7   4   6    1.37    1.54
  -7   4   6    2.22    1.31
  -7   4   5  129.40    7.96
  -7   4   5  112.03    8.71
  -7   4   5  135.24    8.84
  -7   4   5  118.56    8.24
  -7   4   4   14.92    2.94
  -7   4   4   17.25    3.93
  -7   4   4   17.26    3.38
  -7   4   3   58.07    5.79
  -7   4   3   60.90    5.92
  -7   4   3   50.60    5.49
  -7   4   2    3.23    1.57
  -7   4   2    3.48    1.60
  -7   4   2    2.62    1.65
  -7   4   1    1.19    1.12
  -7   4   1    1.20    0.93
  -7   4   1    4.17    2.01
  -7   4   0    3.72    1.63
  -7   4   0    2.72    1.74
  -7   4  -1   -0.01    0.79
  -7   4  -1    0.47    1.13
  -7   4  -2   10.85    2.31
  -7   4  -2   15.00    2.97
  -7   4  -3   -0.23    0.62
  -7   4  -3   -1.60    1.17
  -7   4  -3    1.14    1.29
  -7   4  -4   -1.14    1.01
  -7   4  -4    1.28    1.28
  -7   3  11   10.01    2.03
  -7   3  10    9.96    2.27
  -7   3  10   12.79    2.16
  -7   3   9    5.18    1.91
  -7   3   9   12.93    2.48
  -7   3   8   -2.24    2.53
  -7   3   8    3.28    1.55
  -7   3   7    9.27    2.70
  -7   3   7    4.97    1.84
  -7   3   6    7.25    2.40
  -7   3   6   12.25    3.12
  -7   3   6   13.36    2.92
  -7   3   5   -0.38    1.04
  -7   3   5    1.94    1.83
  -7   3   5    3.54    2.15
  -7   3   5    1.24    1.53
  -7   3   4   -0.64    1.25
  -7   3   4    2.61    1.94
  -7   3   4   -1.87    2.13
  -7   3   3   -0.10    1.01
  -7   3   3    0.05    1.24
  -7   3   2   -0.48    1.27
  -7   3   2    0.96    1.62
  -7   3   1   -0.14    1.33
  -7   3   1    1.90    1.34
  -7   3   1    0.81    1.10
  -7   3   1    2.70    1.94
  -7   3   0    1.58    1.38
  -7   3   0    1.79    1.44
  -7   3   0    0.58    0.92
  -7   3  -1   23.80    3.66
  -7   3  -1   22.60    3.63
  -7   3  -1   22.54    3.77
  -7   3  -2    0.23    0.82
  -7   3  -2    0.69    1.26
  -7   3  -3   15.83    2.74
  -7   3  -3   18.32    3.13
  -7   3  -4    4.03    1.38
  -7   3  -4    7.80    1.93
  -7   2  11   -2.87    1.61
  -7   2  10    8.57    2.22
  -7   2  10   13.76    2.79
  -7   2   9   25.33    3.91
  -7   2   9   28.59    3.90
  -7   2   9   31.94    3.64
  -7   2   8    9.00    2.60
  -7   2   8    1.92    1.38
  -7   2   8    6.40    1.96
  -7   2   7    0.43    0.98
  -7   2   6   -1.23    1.73
  -7   2   6   -1.28    2.23
  -7   2   6   -0.02    1.13
  -7   2   5   -1.47    1.94
  -7   2   5   -0.59    1.60
  -7   2   4   32.10    4.46
  -7   2   4   28.47    4.02
  -7   2   4   38.62    4.76
  -7   2   4   33.04    4.55
  -7   2   3    7.36    2.41
  -7   2   3    4.21    1.53
  -7   2   3    8.08    2.60
  -7   2   2   -0.88    1.45
  -7   2   2    1.25    1.35
  -7   2   2    0.54    1.69
  -7   2   1    2.38    1.63
  -7   2   1    5.27    2.13
  -7   2   0   54.53    5.34
  -7   2   0   58.41    5.94
  -7   2   0   53.52    5.40
  -7   2  -1   10.24    2.41
  -7   2  -1   17.08    3.25
  -7   2  -1   13.75    2.95
  -7   2  -2    8.49    2.36
  -7   2  -2    9.80    2.51
  -7   2  -3   -1.46    1.52
  -7   2  -3    0.75    1.00
  -7   2  -4    1.84    1.16
  -7   1  11    6.87    1.72
  -7   1  11   15.09    2.37
  -7   1  10   11.16    2.41
  -7   1  10   14.26    2.63
  -7   1   9   31.16    4.14
  -7   1   9   31.02    3.96
  -7   1   8    3.65    1.74
  -7   1   8   -0.01    1.26
  -7   1   7    9.16    2.85
  -7   1   7    6.11    1.78
  -7   1   7   10.27    2.40
  -7   1   6   -3.47    2.66
  -7   1   6   -0.81    1.43
  -7   1   5    6.47    1.92
  -7   1   5   11.24    2.83
  -7   1   4    2.77    1.61
  -7   1   4    3.02    1.82
  -7   1   3    0.92    1.80
  -7   1   3    5.05    2.13
  -7   1   2    2.45    1.65
  -7   1   1   36.97    4.87
  -7   1   0    2.91    1.96
  -7   1  -1   -1.39    1.53
  -7   1  -2    1.19    1.39
  -7   1  -3    4.22    1.71
  -7   1  -4    1.12    0.98
  -7   0  11    2.33    1.15
  -7   0  10    5.06    1.52
  -7   0  10    1.32    1.16
  -7   0   9   -4.16    1.84
  -7   0   8   27.49    4.35
  -7   0   7   -4.28    2.71
  -7   0   6    6.90    2.22
  -7   0   6    6.72    2.32
  -7   0   5   15.70    3.39
  -7   0   5    9.86    2.54
  -7   0   4   10.14    2.71
  -7   0   3   -0.97    2.21
  -7   0   2    6.83    2.15
  -7   0   1    3.26    1.94
  -7   0   0    3.96    2.01
  -7   0  -1    3.96    1.76
  -7   0  -2   13.79    2.59
  -7   0  -3   10.30    1.92
  -7  -1  10   -1.56    1.34
  -7  -1   8   25.02    4.40
  -7  -1   7    5.59    2.96
  -7  -1   7   -0.38    1.75
  -7  -1   5    7.69    2.80
  -7  -1   4    1.44    1.98
  -7  -1   3   10.94    2.81
  -7  -1   2    2.65    1.46
  -7  -1   1   -3.15    1.79
  -7  -1   0   -4.11    1.78
  -7  -1  -1   10.57    2.16
  -7  -1  -2   36.26    3.36
  -7  -2   9   -0.90    1.28
  -7  -2   7   14.97    3.29
  -7  -2   6    0.10    1.90
  -7  -2   5   -6.33    2.85
  -7  -2   4    7.35    2.41
  -7  -2   3   18.16    3.10
  -7  -2   2    4.60    1.85
  -7  -2   1    4.97    1.54
  -7  -2   0   -1.44    1.20
  -7  -3   6   12.91    2.45
  -7  -3   5    4.28    1.78
  -7  -3   4   -1.64    1.53
  -7  -3   3   -4.40    1.75
  -8   7   5   -0.37    0.70
  -8   7   4   -0.01    0.88
  -8   7   3    1.35    0.76
  -8   7   3    1.35    0.84
  -8   7   2    2.75    1.22
  -8   7   2    2.68    1.23
  -8   7   1    3.75    1.18
  -8   7   1    4.55    1.36
  -8   7   0    0.58    0.75
  -8   7   0    0.91    0.88
  -8   6   7   -1.96    1.31
  -8   6   6    6.16    1.49
  -8   6   5    1.05    0.85
  -8   6   4   34.73    3.36
  -8   6   4   37.13    3.68
  -8   6   4   38.95    3.64
  -8   6   3    2.39    1.17
  -8   6   3    1.68    1.13
  -8   6   3    4.38    1.46
  -8   6   2    2.89    1.23
  -8   6   2    3.99    1.63
  -8   6   1    9.45    1.88
  -8   6   1    7.56    1.86
  -8   6   0    4.41    1.33
  -8   6   0    6.25    1.62
  -8   6  -1   18.91    2.20
  -8   6  -1   20.39    2.52
  -8   5   8   17.15    2.30
  -8   5   7   17.12    2.46
  -8   5   6   -1.92    1.63
  -8   5   5    0.05    1.14
  -8   5   4   57.27    4.71
  -8   5   4   51.54    4.69
  -8   5   3   39.98    4.08
  -8   5   3   45.48    4.31
  -8   5   3   36.01    3.96
  -8   5   2   10.17    2.17
  -8   5   2    8.37    1.96
  -8   5   2   10.83    2.39
  -8   5   1    0.62    0.82
  -8   5   1    0.33    0.91
  -8   5   0    1.26    0.90
  -8   5   0    0.00    1.05
  -8   5  -1    1.08    0.88
  -8   5  -1    1.77    1.12
  -8   4   9   10.23    2.13
  -8   4   9    5.23    1.27
  -8   4   8    5.68    2.05
  -8   4   8   -1.32    1.47
  -8   4   7   18.74    3.14
  -8   4   7    9.64    2.08
  -8   4   6    4.66    1.62
  -8   4   5   -0.59    1.37
  -8   4   4    1.79    1.30
  -8   4   4    2.34    1.40
  -8   4   3   -0.38    1.05
  -8   4   3    0.45    1.52
  -8   4   2   13.93    2.65
  -8   4   1    1.02    0.96
  -8   4   1    0.94    0.93
  -8   4   0   -0.32    0.70
  -8   4   0    0.87    1.00
  -8   4  -1    3.82    1.10
  -8   4  -1    6.90    1.63
  -8   3   9    3.04    1.42
  -8   3   9   -2.02    1.07
  -8   3   8    8.72    2.26
  -8   3   8    5.10    1.52
  -8   3   7    3.20    1.83
  -8   3   7   -3.88    1.61
  -8   3   6   19.30    3.04
  -8   3   5   21.63    3.38
  -8   3   4   24.03    3.66
  -8   3   3   -0.48    1.10
  -8   3   3    3.64    1.81
  -8   3   2   -0.09    0.85
  -8   3   1   14.20    2.56
  -8   3   1   10.19    2.17
  -8   3   0   -4.68    1.65
  -8   3  -1    0.66    0.91
  -8   3  -1    2.53    1.19
  -8   2   9   15.11    2.51
  -8   2   8   14.40    2.56
  -8   2   8    0.37    1.05
  -8   2   7   46.21    4.34
  -8   2   7   34.38    3.71
  -8   2   6  104.09    6.38
  -8   2   6   98.00    6.46
  -8   2   5  134.11    7.93
  -8   2   4   24.28    3.33
  -8   2   4   27.12    3.90
  -8   2   3   -1.09    1.50
  -8   2   2   12.10    2.38
  -8   2   1    3.54    1.62
  -8   2   0   -2.08    1.31
  -8   2  -1   -2.57    1.35
  -8   1   9    8.28    1.79
  -8   1   8   19.94    2.80
  -8   1   7   43.45    4.05
  -8   1   7   31.14    3.40
  -8   1   6   51.02    4.54
  -8   1   6   60.71    4.71
  -8   1   5   15.30    2.68
  -8   1   4    7.01    2.14
  -8   1   3    7.33    2.18
  -8   1   2    7.29    2.00
  -8   1   1   -4.09    1.77
  -8   1   0   -2.59    1.40
  -8   0   8    5.54    1.44
  -8   0   7   17.38    2.91
  -8   0   7    3.33    1.30
  -8   0   6    7.09    2.29
  -8   0   4    4.59    1.95
  -8   0   3    1.29    1.35
  -8   0   2    3.72    1.51
  -8   0   1   -0.23    0.95
  -8  -1   6   11.90    2.36
  -8  -1   5   -1.90    1.72
  -8  -1   4   -4.08    1.97
  -8  -1   3    0.53    1.29
   0   0   0    0.00    0.00
TITL Ouzidan-YFA-07 in P-1
REM P-1 (#2 in standard setting)
CELL 1.54184   7.306969   8.776259  11.292709  91.0587 107.8672 109.8142
ZERR    2.00   0.001129   0.001253   0.001345   0.0106   0.0121   0.0136
LATT  1
SFAC C H N O Cl
UNIT 30.00 24.00 2.00 6.00 2.00
TREF
HKLF 4
END
_computing_structure_solution     'SHELXT 2014/5 (Sheldrick, 2014)'
_computing_structure_solution     'SHELXT 2014/5 (Sheldrick, 2014)'
;
_shelx_hkl_checksum              73681
_shelx_res_file
;
TITL ouzidan-yfa-07_a.res in P-1
REM Old TITL Ouzidan-YFA-07 in P-1 #2
REM SHELXT solution in P-1
REM R1 0.179, Rweak 0.011, Alpha 0.025, Orientation as input
REM Formula found by SHELXT: C15 N3 O3
CELL 1.54184 7.307 8.7763 11.2927 91.059 107.867 109.814
ZERR 2 0.0011 0.0013 0.0013 0.011 0.012 0.014
LATT 1
SFAC C H N O
UNIT 32 22 2 6
EQIV $1 -X,-Y,1-Z
EQIV $2 +X,+Y,-1+Z
EQIV $3 1-X,-Y,1-Z
L.S. 10
PLAN  20
TEMP 20(2)
HTAB C11 O1_$1
HTAB C16 O2_$2
HTAB C13 O1_$3
BOND $H
list 4
fmap 2
acta
OMIT -7 0 8
OMIT -8 2 9
OMIT -7 -1 8
OMIT -7 -3 6
REM <olex2.extras>
REM <HklSrc "%.\\Ouzidan-YFA-07.hkl">
REM </olex2.extras>
WGHT    0.062100
FVAR       1.10556
O1    4    0.017418    0.064321    0.293146    11.00000    0.09671    0.05523 =
         0.05399    0.00022    0.01571    0.03187
O2    4    0.318643    0.402780    0.798340    11.00000    0.08227    0.07961 =
         0.04271    0.01330    0.02783    0.04502
O3    4    0.429971    0.214057    0.741093    11.00000    0.07634    0.06984 =
         0.04104    0.01883    0.02347    0.04297
N1    3    0.082226    0.336730    0.327123    11.00000    0.05364    0.05344 =
         0.03628    0.00995    0.01660    0.02614
C1    1    0.093605    0.191698    0.366775    11.00000    0.06097    0.05054 =
         0.04565    0.00912    0.02174    0.02541
C2    1    0.193480    0.199035    0.500420    11.00000    0.06523    0.05027 =
         0.04530    0.01605    0.02406    0.02979
AFIX  43
H2    2    0.204546    0.104073    0.531696    11.00000   -1.20000
AFIX   0
C3    1    0.270681    0.337990    0.580805    11.00000    0.04761    0.05413 =
         0.03949    0.01142    0.02118    0.02595
C4    1    0.270042    0.490606    0.536173    11.00000    0.04291    0.05020 =
         0.04131    0.00861    0.02079    0.02167
C5    1    0.360446    0.641733    0.612730    11.00000    0.05687    0.05458 =
         0.04647    0.00541    0.02115    0.02159
AFIX  43
H5    2    0.425245    0.646628    0.698363    11.00000   -1.20000
AFIX   0
C6    1    0.355433    0.783425    0.563850    11.00000    0.06891    0.04778 =
         0.06497    0.00534    0.03230    0.01966
AFIX  43
H6    2    0.414489    0.882659    0.616307    11.00000   -1.20000
AFIX   0
C7    1    0.261792    0.777261    0.435928    11.00000    0.06882    0.04936 =
         0.06834    0.01898    0.03474    0.02882
AFIX  43
H7    2    0.257609    0.872814    0.402941    11.00000   -1.20000
AFIX   0
C8    1    0.175342    0.631870    0.357590    11.00000    0.05603    0.05805 =
         0.04793    0.01655    0.02156    0.02858
AFIX  43
H8    2    0.116260    0.630049    0.271716    11.00000   -1.20000
AFIX   0
C9    1    0.175316    0.486835    0.405632    11.00000    0.04486    0.04945 =
         0.04281    0.01072    0.02109    0.02320
C10   1    0.342359    0.326401    0.718374    11.00000    0.05511    0.05516 =
         0.04049    0.01314    0.01988    0.02542
C11   1    0.482475    0.177730    0.868715    11.00000    0.09015    0.07006 =
         0.03871    0.01884    0.01979    0.04406
AFIX  23
H11A  2    0.358452    0.121598    0.888619    11.00000   -1.20000
H11B  2    0.562291    0.277737    0.927107    11.00000   -1.20000
AFIX   0
C12   1    0.603108    0.073886    0.877079    11.00000    0.08611    0.06911 =
         0.04124    0.01268    0.01243    0.03912
C13   1    0.704433   -0.003662    0.881212    11.00000    0.11373    0.10125 =
         0.06328    0.00963    0.01425    0.07258
AFIX 163
H13   2    0.785985   -0.066078    0.884540    11.00000   -1.20000
AFIX   0
C14   1   -0.038439    0.326987    0.194277    11.00000    0.05765    0.06043 =
         0.04034    0.00633    0.00955    0.02538
AFIX  23
H14A  2   -0.145547    0.219320    0.166449    11.00000   -1.20000
H14B  2   -0.105176    0.406602    0.186675    11.00000   -1.20000
AFIX   0
C15   1    0.087775    0.357030    0.112339    11.00000    0.07491    0.05832 =
         0.03745    0.00878    0.01610    0.03461
C16   1    0.182591    0.375223    0.044510    11.00000    0.10496    0.07839 =
         0.05215    0.01664    0.03557    0.04810
AFIX 163
H16   2    0.258558    0.389799   -0.009834    11.00000   -1.20000
AFIX   0
HKLF 4
REM  ouzidan-yfa-07_a.res in P-1
REM R1 =  0.0487 for    1624 Fo > 4sig(Fo)  and  0.0738 for all    2418 data
REM    181 parameters refined using      0 restraints
END
WGHT      0.0621      0.0000
REM Highest difference peak  0.139,  deepest hole -0.197,  1-sigma level  0.043
Q1    1  -0.0313  0.5080  0.4179  11.00000  0.05    0.14
Q2    1   0.1210  0.3955  0.7553  11.00000  0.05    0.14
Q3    1   0.7008  0.3199  0.9417  11.00000  0.05    0.13
Q4    1   0.5427 -0.0454  0.8599  11.00000  0.05    0.12
Q5    1  -0.0477  0.7544  0.2692  11.00000  0.05    0.12
Q6    1   0.4373  0.4575  0.4364  11.00000  0.05    0.12
Q7    1   0.2947  0.0072  0.8135  11.00000  0.05    0.12
Q8    1  -0.0890  0.3446  0.4240  11.00000  0.05    0.12
Q9    1  -0.1479  0.2023  0.3759  11.00000  0.05    0.12
Q10   1   0.3274  0.3278  0.3379  11.00000  0.05    0.12
Q11   1  -0.1217  0.1050  0.2656  11.00000  0.05    0.11
Q12   1   0.2882  0.5497  0.1296  11.00000  0.05    0.11
Q13   1   0.6439  0.7152  0.7395  11.00000  0.05    0.11
Q14   1   0.0396  0.7572  0.4421  11.00000  0.05    0.11
Q15   1   0.6389  0.8618  0.7223  11.00000  0.05    0.11
Q16   1   0.1523  0.0796  0.5113  11.00000  0.05    0.11
Q17   1   0.5563  0.6289  0.6991  11.00000  0.05    0.11
Q18   1   0.8842 -0.1670  0.8767  11.00000  0.05    0.11
Q19   1   0.2967  0.0340  0.6867  11.00000  0.05    0.11
Q20   1   0.7352  0.1003  0.9253  11.00000  0.05    0.11
;
_shelx_res_checksum              52533
_shelxl_version_number           2014/6
loop_
_space_group_symop_operation_xyz
'x, y, z'
'-x, -y, -z'
loop_
_atom_site_type_symbol
_atom_site_label
_atom_site_fract_x
_atom_site_fract_y
_atom_site_fract_z
_atom_site_U_iso_or_equiv
_atom_site_adp_type
_atom_site_calc_flag
_atom_site_occupancy
O O1 0.0174(3) 0.0643(2) 0.29315(16) 0.0698(5) Uani d 1
O O2 0.3186(3) 0.4028(2) 0.79834(14) 0.0621(5) Uani d 1
O O3 0.4300(2) 0.2141(2) 0.74109(13) 0.0568(4) Uani d 1
N N1 0.0822(3) 0.3367(2) 0.32712(15) 0.0455(4) Uani d 1
C C1 0.0936(3) 0.1917(3) 0.3668(2) 0.0499(5) Uani d 1
C C2 0.1935(3) 0.1990(3) 0.5004(2) 0.0497(5) Uani d 1
H H2 0.2045 0.1041 0.5317 0.060 Uiso calc 1
C C3 0.2707(3) 0.3380(3) 0.58080(18) 0.0433(5) Uani d 1
C C4 0.2700(3) 0.4906(3) 0.53617(18) 0.0418(5) Uani d 1
C C5 0.3604(3) 0.6417(3) 0.6127(2) 0.0513(5) Uani d 1
H H5 0.4252 0.6466 0.6984 0.062 Uiso calc 1
C C6 0.3554(4) 0.7834(3) 0.5639(2) 0.0585(6) Uani d 1
H H6 0.4145 0.8827 0.6163 0.070 Uiso calc 1
C C7 0.2618(4) 0.7773(3) 0.4359(2) 0.0571(6) Uani d 1
H H7 0.2576 0.8728 0.4029 0.068 Uiso calc 1
C C8 0.1753(3) 0.6319(3) 0.3576(2) 0.0507(5) Uani d 1
H H8 0.1163 0.6300 0.2717 0.061 Uiso calc 1
C C9 0.1753(3) 0.4868(3) 0.40563(19) 0.0424(5) Uani d 1
C C10 0.3424(3) 0.3264(3) 0.71837(19) 0.0477(5) Uani d 1
C C11 0.4825(4) 0.1777(3) 0.8687(2) 0.0624(6) Uani d 1
H H11A 0.3585 0.1216 0.8886 0.075 Uiso calc 1
H H11B 0.5623 0.2777 0.9271 0.075 Uiso calc 1
C C12 0.6031(4) 0.0739(3) 0.8771(2) 0.0645(7) Uani d 1
C C13 0.7044(5) -0.0037(4) 0.8812(3) 0.0873(10) Uani d 1
H H13 0.7860 -0.0661 0.8845 0.105 Uiso calc 1
C C14 -0.0384(3) 0.3270(3) 0.19428(19) 0.0534(6) Uani d 1
H H14A -0.1455 0.2193 0.1664 0.064 Uiso calc 1
H H14B -0.1052 0.4066 0.1867 0.064 Uiso calc 1
C C15 0.0878(4) 0.3570(3) 0.1123(2) 0.0546(6) Uani d 1
C C16 0.1826(5) 0.3752(4) 0.0445(2) 0.0720(7) Uani d 1
H H16 0.2586 0.3898 -0.0098 0.086 Uiso calc 1
loop_
_atom_site_aniso_label
_atom_site_aniso_U_11
_atom_site_aniso_U_22
_atom_site_aniso_U_33
_atom_site_aniso_U_12
_atom_site_aniso_U_13
_atom_site_aniso_U_23
O1 0.0967(13) 0.0552(10) 0.0540(10) 0.0319(10) 0.0157(9) 0.0002(8)
O2 0.0823(11) 0.0796(12) 0.0427(9) 0.0450(10) 0.0278(8) 0.0133(8)
O3 0.0763(10) 0.0698(11) 0.0410(8) 0.0430(9) 0.0235(7) 0.0188(7)
N1 0.0536(10) 0.0534(11) 0.0363(9) 0.0261(9) 0.0166(7) 0.0099(8)
C1 0.0610(13) 0.0505(13) 0.0457(12) 0.0254(11) 0.0217(10) 0.0091(10)
C2 0.0652(13) 0.0503(12) 0.0453(12) 0.0298(11) 0.0241(10) 0.0160(9)
C3 0.0476(11) 0.0541(12) 0.0395(11) 0.0259(10) 0.0212(9) 0.0114(9)
C4 0.0429(10) 0.0502(12) 0.0413(11) 0.0217(9) 0.0208(8) 0.0086(9)
C5 0.0569(12) 0.0546(13) 0.0465(12) 0.0216(11) 0.0211(10) 0.0054(10)
C6 0.0689(14) 0.0478(13) 0.0650(15) 0.0197(12) 0.0323(12) 0.0053(11)
C7 0.0688(14) 0.0494(13) 0.0683(15) 0.0288(12) 0.0347(12) 0.0190(11)
C8 0.0560(12) 0.0581(14) 0.0479(12) 0.0286(11) 0.0216(10) 0.0166(10)
C9 0.0449(10) 0.0494(12) 0.0428(11) 0.0232(9) 0.0211(8) 0.0107(9)
C10 0.0551(12) 0.0552(13) 0.0405(11) 0.0254(11) 0.0199(9) 0.0131(9)
C11 0.0902(17) 0.0701(16) 0.0387(12) 0.0441(14) 0.0198(12) 0.0188(11)
C12 0.0861(17) 0.0691(16) 0.0412(12) 0.0391(15) 0.0124(12) 0.0127(11)
C13 0.114(2) 0.101(2) 0.0633(18) 0.073(2) 0.0142(16) 0.0096(16)
C14 0.0577(13) 0.0604(14) 0.0403(11) 0.0254(11) 0.0095(10) 0.0063(10)
C15 0.0749(14) 0.0583(14) 0.0374(11) 0.0346(12) 0.0161(10) 0.0088(10)
C16 0.105(2) 0.0784(19) 0.0522(15) 0.0481(17) 0.0356(15) 0.0166(13)
loop_
_atom_type_symbol
_atom_type_description
_atom_type_scat_dispersion_real
_atom_type_scat_dispersion_imag
_atom_type_scat_source
C C 0.0181 0.0091 'International Tables Vol C Tables 4.2.6.8 and 6.1.1.4'
H H 0.0000 0.0000 'International Tables Vol C Tables 4.2.6.8 and 6.1.1.4'
N N 0.0311 0.0180 'International Tables Vol C Tables 4.2.6.8 and 6.1.1.4'
O O 0.0492 0.0322 'International Tables Vol C Tables 4.2.6.8 and 6.1.1.4'
loop_
_geom_angle_atom_site_label_1
_geom_angle_atom_site_label_2
_geom_angle_atom_site_label_3
_geom_angle
C10 O3 C11 115.86(16)
C1 N1 C9 123.77(18)
C1 N1 C14 116.01(19)
C9 N1 C14 120.21(18)
O1 C1 N1 121.4(2)
O1 C1 C2 122.9(2)
N1 C1 C2 115.6(2)
C1 C2 H2 118.8
C3 C2 C1 122.5(2)
C3 C2 H2 118.8
C2 C3 C4 120.96(19)
C2 C3 C10 117.7(2)
C4 C3 C10 121.16(19)
C5 C4 C3 124.25(19)
C5 C4 C9 118.2(2)
C9 C4 C3 117.50(19)
C4 C5 H5 119.3
C6 C5 C4 121.3(2)
C6 C5 H5 119.3
C5 C6 H6 120.2
C5 C6 C7 119.6(2)
C7 C6 H6 120.2
C6 C7 H7 119.6
C8 C7 C6 120.7(2)
C8 C7 H7 119.6
C7 C8 H8 119.8
C7 C8 C9 120.5(2)
C9 C8 H8 119.8
N1 C9 C4 119.30(19)
C8 C9 N1 121.09(19)
C8 C9 C4 119.6(2)
O2 C10 O3 123.80(19)
O2 C10 C3 125.2(2)
O3 C10 C3 110.91(17)
O3 C11 H11A 110.4
O3 C11 H11B 110.4
O3 C11 C12 106.68(18)
H11A C11 H11B 108.6
C12 C11 H11A 110.4
C12 C11 H11B 110.4
C13 C12 C11 176.9(3)
C12 C13 H13 180.0
N1 C14 H14A 109.0
N1 C14 H14B 109.0
H14A C14 H14B 107.8
C15 C14 N1 112.87(18)
C15 C14 H14A 109.0
C15 C14 H14B 109.0
C16 C15 C14 177.4(3)
C15 C16 H16 180.0
loop_
_geom_bond_atom_site_label_1
_geom_bond_atom_site_label_2
_geom_bond_distance
O1 C1 1.229(3)
O2 C10 1.203(2)
O3 C10 1.336(3)
O3 C11 1.444(2)
N1 C1 1.378(3)
N1 C9 1.401(3)
N1 C14 1.472(3)
C1 C2 1.450(3)
C2 H2 0.9300
C2 C3 1.345(3)
C3 C4 1.441(3)
C3 C10 1.497(3)
C4 C5 1.399(3)
C4 C9 1.418(3)
C5 H5 0.9300
C5 C6 1.377(3)
C6 H6 0.9300
C6 C7 1.387(3)
C7 H7 0.9300
C7 C8 1.371(3)
C8 H8 0.9300
C8 C9 1.393(3)
C11 H11A 0.9700
C11 H11B 0.9700
C11 C12 1.454(3)
C12 C13 1.155(4)
C13 H13 0.9300
C14 H14A 0.9700
C14 H14B 0.9700
C14 C15 1.464(3)
C15 C16 1.161(3)
C16 H16 0.9300
loop_
_geom_hbond_atom_site_label_D
_geom_hbond_atom_site_label_H
_geom_hbond_atom_site_label_A
_geom_hbond_site_symmetry_A
_geom_hbond_distance_DH
_geom_hbond_distance_HA
_geom_hbond_distance_DA
_geom_hbond_angle_DHA
C16 H16 O2 1_554 0.93 2.34 3.214(3) 157.4

_cod_database_fobs_code 1546641
