#------------------------------------------------------------------------------
#$Date: 2017-08-01 04:44:08 +0300 (Tue, 01 Aug 2017) $
#$Revision: 199417 $
#$URL: file:///home/coder/svn-repositories/cod/cif/1/54/67/1546746.cif $
#------------------------------------------------------------------------------
#
# This file is available in the Crystallography Open Database (COD),
# http://www.crystallography.net/
#
# All data on this site have been placed in the public domain by the
# contributors.
#
data_1546746
loop_
_publ_author_name
'Ma, Wangyang'
'yu, chao'
'Chi, Yue'
'Chen, Tianyang'
'Wang, Lianjun'
'Yin, Jianhao'
'Wei, Baosheng'
'Xu, Ling'
'Zhang, Wen-Xiong'
'Xi, Zhenfeng'
_publ_section_title
;
 Formation and Ligand-Based Reductivity of Bridged Bis-alkylidene
 Scandium(III) Complexes
;
_journal_name_full               'Chem. Sci.'
_journal_paper_doi               10.1039/C7SC02018J
_journal_year                    2017
_chemical_formula_moiety         'C12 H18 Cl O2 Sc'
_chemical_formula_sum            'C12 H18 Cl O2 Sc'
_chemical_formula_weight         274.67
_chemical_name_systematic
;
 ?
;
_space_group_crystal_system      monoclinic
_space_group_IT_number           7
_space_group_name_Hall           'P -2yac'
_space_group_name_H-M_alt        'P 1 n 1'
_symmetry_space_group_name_Hall  'P -2yac'
_symmetry_space_group_name_H-M   'P 1 n 1'
_atom_sites_solution_hydrogens   geom
_audit_block_doi                 10.5517/ccdc.csd.cc1np08m
_audit_creation_date             2017-03-10
_audit_creation_method
;
Olex2 1.2
(compiled 2017.03.02 svn.r3394 for OlexSys, GUI svn.r5324)
;
_audit_update_record
;
2017-03-22 deposited with the CCDC.
2017-07-31 downloaded from the CCDC.
;
_cell_angle_alpha                90
_cell_angle_beta                 101.433(4)
_cell_angle_gamma                90
_cell_formula_units_Z            2
_cell_length_a                   7.0301(3)
_cell_length_b                   10.1171(5)
_cell_length_c                   9.2007(4)
_cell_measurement_reflns_used    8456
_cell_measurement_temperature    100.00(10)
_cell_measurement_theta_max      30.3630
_cell_measurement_theta_min      4.0280
_cell_volume                     641.41(5)
_computing_cell_refinement       'CrysAlisPro 1.171.39.7e (Rigaku OD, 2015)'
_computing_data_collection       'CrysAlisPro 1.171.39.7e (Rigaku OD, 2015)'
_computing_data_reduction        'CrysAlisPro 1.171.39.7e (Rigaku OD, 2015)'
_computing_molecular_graphics    'Olex2 (Dolomanov et al., 2009)'
_computing_publication_material  'Olex2 (Dolomanov et al., 2009)'
_computing_structure_refinement  'ShelXL (Sheldrick, 2015)'
_diffrn_ambient_environment      N~2~
_diffrn_ambient_temperature      100.00(10)
_diffrn_detector                 'CCD plate'
_diffrn_measured_fraction_theta_full 0.996
_diffrn_measured_fraction_theta_max 0.997
_diffrn_measurement_details
;
List of Runs (angles in degrees, time in seconds):

  # Type    Start    End  Width  t~exp~   \w     \q     \k     \f   Frames
#--------------------------------------------------------------------------
  1  \w    -34.00  25.00   0.50    0.71    --    1.40 -38.00 -60.00  118
  2  \w      1.00  35.00   0.50    0.71    --    1.40 -82.00  30.00   68
  3  \w      3.00  35.00   0.50    0.71    --    1.40 -80.00 155.76   64
  4  \w    -33.00  -8.00   0.50    0.71    --    1.40 -80.00 155.76   50
  5  \w    -85.00  31.00   0.50    0.71    --    1.40 -24.00  25.20  232
  6  \w    -18.00  33.00   0.50    0.71    --    1.40 -77.00-180.00  102
  7  \w    -43.00  27.00   0.50    0.71    --    1.40 -57.00 -90.00  140
  8  \w    -87.00  25.00   0.50    0.71    --    1.40 -41.00-156.74  224
  9  \w    -87.00 -53.00   0.50    0.71    --    1.40 -38.00 -60.00   68
 10  \w    -88.00  31.00   0.50    0.71    --    1.40 -23.00 114.37  238
;
_diffrn_measurement_device       'four-circle diffractometer'
_diffrn_measurement_device_type  'XtaLAB Pro: Kappa single'
_diffrn_measurement_method       '\w scans'
_diffrn_orient_matrix_type
'CrysAlisPro convention (1999,Acta A55,543-557)'
_diffrn_orient_matrix_UB_11      -0.0616897000
_diffrn_orient_matrix_UB_12      -0.0408376000
_diffrn_orient_matrix_UB_13      -0.0516225000
_diffrn_orient_matrix_UB_21      0.0539472000
_diffrn_orient_matrix_UB_22      -0.0563409000
_diffrn_orient_matrix_UB_23      0.0298298000
_diffrn_orient_matrix_UB_31      -0.0622701000
_diffrn_orient_matrix_UB_32      -0.0085889000
_diffrn_orient_matrix_UB_33      0.0512923000
_diffrn_radiation_monochromator  graphite
_diffrn_radiation_probe          x-ray
_diffrn_radiation_type           MoK\a
_diffrn_radiation_wavelength     0.71073
_diffrn_reflns_av_R_equivalents  0.0430
_diffrn_reflns_av_unetI/netI     0.0288
_diffrn_reflns_Laue_measured_fraction_full 0.996
_diffrn_reflns_Laue_measured_fraction_max 0.997
_diffrn_reflns_limit_h_max       8
_diffrn_reflns_limit_h_min       -8
_diffrn_reflns_limit_k_max       12
_diffrn_reflns_limit_k_min       -12
_diffrn_reflns_limit_l_max       11
_diffrn_reflns_limit_l_min       -11
_diffrn_reflns_number            14657
_diffrn_reflns_point_group_measured_fraction_full 0.989
_diffrn_reflns_point_group_measured_fraction_max 0.989
_diffrn_reflns_theta_full        26.000
_diffrn_reflns_theta_max         26.017
_diffrn_reflns_theta_min         3.906
_diffrn_source                   'fine-focus sealed X-ray tube'
_diffrn_source_type              'Enhance (Mo) X-ray Source'
_exptl_absorpt_coefficient_mu    0.765
_exptl_absorpt_correction_T_max  1.00000
_exptl_absorpt_correction_T_min  0.88786
_exptl_absorpt_correction_type   multi-scan
_exptl_absorpt_process_details
;
CrysAlisPro 1.171.39.7e (Rigaku Oxford Diffraction, 2015)
Empirical absorption correction using spherical harmonics,
 implemented in SCALE3 ABSPACK scaling algorithm.
;
_exptl_crystal_colour            'clear light colourless'
_exptl_crystal_colour_lustre     clear
_exptl_crystal_colour_modifier   light
_exptl_crystal_colour_primary    colourless
_exptl_crystal_density_diffrn    1.422
_exptl_crystal_description       block
_exptl_crystal_F_000             288
_exptl_crystal_size_max          0.15
_exptl_crystal_size_mid          0.14
_exptl_crystal_size_min          0.12
_refine_diff_density_max         0.718
_refine_diff_density_min         -0.614
_refine_diff_density_rms         0.086
_refine_ls_abs_structure_details
;
 Flack x determined using 1189 quotients [(I+)-(I-)]/[(I+)+(I-)]
 (Parsons and Flack (2004), Acta Cryst. A60, s61).
;
_refine_ls_abs_structure_Flack   0.037(15)
_refine_ls_extinction_method     none
_refine_ls_goodness_of_fit_ref   1.080
_refine_ls_hydrogen_treatment    constr
_refine_ls_matrix_type           full
_refine_ls_number_parameters     147
_refine_ls_number_reflns         2510
_refine_ls_number_restraints     2
_refine_ls_restrained_S_all      1.079
_refine_ls_R_factor_all          0.0407
_refine_ls_R_factor_gt           0.0400
_refine_ls_shift/su_max          0.000
_refine_ls_shift/su_mean         0.000
_refine_ls_structure_factor_coef Fsqd
_refine_ls_weighting_details
;
 w=1/[\s^2^(Fo^2^)+(0.0655P)^2^+0.9477P]
 where P=(Fo^2^+2Fc^2^)/3
;
_refine_ls_weighting_scheme      calc
_refine_ls_wR_factor_gt          0.1167
_refine_ls_wR_factor_ref         0.1173
_reflns_Friedel_coverage         0.975
_reflns_Friedel_fraction_full    0.981
_reflns_Friedel_fraction_max     0.981
_reflns_number_gt                2462
_reflns_number_total             2510
_reflns_threshold_expression     'I > 2\s(I)'
_iucr_refine_instructions_details
;
TITL exp_276_a.res in Pn
REM Old TITL exp_276 in Pn #7
REM SHELXT solution in Pn
REM R1 0.059, Rweak 0.019, Alpha 0.003, Orientation as input
REM Flack x = 0.123 ( 0.016 ) from Parsons' quotients
REM Formula found by SHELXT: H9b H12b Cl1
CELL 0.71073 7.0301 10.1171 9.2007 90 101.433 90
ZERR 2 0.0003 0.0005 0.0004 0 0.004 0
LATT -1
SYMM 0.5+X,-Y,0.5+Z
SFAC C H Cl O Sc
UNIT 24 36 2 4 2
 
L.S. 20
PLAN  1
SIZE 0.12 0.14 0.15
TEMP -173
BOND $H
LIST 6
MORE -1
CONF
fmap 2
acta 52
SHEL 999 0.81
REM <olex2.extras>
REM <HklSrc "%.\\exp_276.hkl">
REM </olex2.extras>
 
WGHT    0.065500    0.947700
FVAR       1.06952
SC1   5    0.469152    0.251391    0.450910    11.00000    0.01831    0.02012 =
         0.01914    0.00087    0.00486    0.00233
CL1   3    0.354616    0.018152    0.507940    11.00000    0.01143    0.02690 =
         0.01593    0.00037    0.00393   -0.00007
O1    4    0.608116    0.249107    0.690840    11.00000    0.02561    0.04554 =
         0.02157   -0.00500    0.00468    0.00437
O2    4    0.764698    0.152956    0.479711    11.00000    0.02029    0.02734 =
         0.02077   -0.00030    0.00454    0.00227
C1    1    0.557182    0.336289    0.225011    11.00000    0.02849    0.02193 =
         0.02544    0.00620    0.00929    0.00212
AFIX  13
H1    2    0.668473    0.284753    0.201189    11.00000   -1.20000
AFIX   0
C2    1    0.382810    0.263848    0.183598    11.00000    0.03440    0.02296 =
         0.01733    0.00314    0.00222    0.00008
AFIX  13
H2    2    0.410180    0.177243    0.139538    11.00000   -1.20000
AFIX   0
C3    1    0.205730    0.256526    0.232560    11.00000    0.02939    0.02358 =
         0.03312    0.00834   -0.00102   -0.00126
AFIX  13
H3    2    0.150008    0.165791    0.213306    11.00000   -1.20000
AFIX   0
C4    1    0.134092    0.314773    0.350789    11.00000    0.01750    0.03059 =
         0.04139    0.01182    0.00661    0.00079
AFIX  13
H4    2    0.045211    0.250796    0.386652    11.00000   -1.20000
AFIX   0
C5    1    0.208512    0.402909    0.466107    11.00000    0.02850    0.03005 =
         0.03892    0.00616    0.01784    0.00844
AFIX  13
H5    2    0.152912    0.381583    0.555303    11.00000   -1.20000
AFIX   0
C6    1    0.383202    0.475616    0.509997    11.00000    0.03496    0.03061 =
         0.02970    0.00188    0.01038    0.00619
AFIX  13
H6    2    0.411523    0.489563    0.619775    11.00000   -1.20000
AFIX   0
C7    1    0.556180    0.488022    0.452647    11.00000    0.02704    0.01819 =
         0.03221   -0.00138   -0.00057   -0.00053
AFIX  13
H7    2    0.667490    0.504618    0.536815    11.00000   -1.20000
AFIX   0
C8    1    0.625654    0.431190    0.337885    11.00000    0.01949    0.02285 =
         0.03380    0.00478    0.00506   -0.00078
AFIX  13
H8    2    0.769507    0.421200    0.368926    11.00000   -1.20000
AFIX   0
C9    1    0.524243    0.278976    0.816447    11.00000    0.03953    0.03973 =
         0.02461   -0.00373    0.01259   -0.00425
AFIX 137
H9A   2    0.554249    0.370621    0.847163    11.00000   -1.50000
H9B   2    0.577808    0.219307    0.898255    11.00000   -1.50000
H9C   2    0.383190    0.267470    0.790007    11.00000   -1.50000
AFIX   0
C10   1    0.819528    0.241483    0.722684    11.00000    0.02673    0.04160 =
         0.02510   -0.00194    0.00385   -0.00589
AFIX  23
H10A  2    0.869345    0.224376    0.829385    11.00000   -1.20000
H10B  2    0.876951    0.324812    0.694875    11.00000   -1.20000
AFIX   0
C11   1    0.866930    0.128218    0.629963    11.00000    0.02251    0.03370 =
         0.02930    0.00522    0.00092    0.00081
AFIX  23
H11A  2    1.008541    0.123646    0.633949    11.00000   -1.20000
H11B  2    0.824016    0.043524    0.666728    11.00000   -1.20000
AFIX   0
C12   1    0.795919    0.047253    0.381523    11.00000    0.02522    0.02657 =
         0.03581   -0.00244    0.00840    0.00533
AFIX 137
H12A  2    0.731908   -0.033220    0.406711    11.00000   -1.50000
H12B  2    0.935456    0.030974    0.392454    11.00000   -1.50000
H12C  2    0.741576    0.072292    0.278790    11.00000   -1.50000
AFIX   0
HKLF 4
 
REM  exp_276_a.res in Pn
REM R1 =  0.0400 for    2462 Fo > 4sig(Fo)  and  0.0407 for all    2510 data
REM    147 parameters refined using      2 restraints
 
END  
     
WGHT      0.0655      0.9477 

REM Highest difference peak  0.718,  deepest hole -0.614,  1-sigma level  0.086
Q1    1   0.3440 -0.0311  0.5247  11.00000  0.05    0.72

  REM The information below was added by Olex2.
  REM
  REM R1 = 0.0400 for 2462 Fo > 4sig(Fo) and 0.0407 for all 17812 data
  REM n/a parameters refined using n/a restraints
  REM Highest difference peak 0.72, deepest hole -0.61
  REM Mean Shift 0, Max Shift 0.000.

  REM +++ Tabular Listing of Refinement Information +++
  REM R1_all = 0.0407
  REM R1_gt = 0.0400
  REM wR_ref = 0.1173
  REM GOOF = 1.080
  REM Shift_max = 0.000
  REM Shift_mean = 0
  REM Reflections_all = 17812
  REM Reflections_gt = 2462
  REM Parameters = n/a
  REM Hole = -0.61
  REM Peak = 0.72
  REM Flack = 0.037(15)

  
;
_cod_data_source_file            c7sc02018j2.cif
_cod_data_source_block           7
_cod_database_code               1546746
_shelxl_version_number           2013-2
_chemical_oxdiff_formula         'c H O Sc Si Li Cl'
_shelx_space_group_comment
;
The symmetry employed for this shelxl refinement is uniquely defined
by the following loop, which should always be used as a source of
symmetry information in preference to the above space-group names.
They are only intended as comments.
;
_shelx_estimated_absorpt_t_max   0.914
_shelx_estimated_absorpt_t_min   0.894
_reflns_odcompleteness_completeness 99.61
_reflns_odcompleteness_iscentric 1
_reflns_odcompleteness_theta     27.42
_olex2_refinement_description
;
1. Fixed Uiso
 At 1.2 times of:
  All C(H) groups, All C(H,H) groups
 At 1.5 times of:
  All C(H,H,H) groups
2.a Ternary CH refined with riding coordinates:
 C1(H1), C2(H2), C3(H3), C4(H4), C5(H5), C6(H6), C7(H7), C8(H8)
2.b Secondary CH2 refined with riding coordinates:
 C10(H10a,H10b), C11(H11a,H11b)
2.c Idealised Me refined as rotating group:
 C9(H9a,H9b,H9c), C12(H12a,H12b,H12c)
;
_olex2_submission_special_instructions 'No special instructions were received'
_oxdiff_exptl_absorpt_empirical_details
;
Empirical correction (ABSPACK) includes:
- Absorption correction using spherical harmonics
- Frame scaling
- Detector area scaling
;
_oxdiff_exptl_absorpt_empirical_full_max 1.311
_oxdiff_exptl_absorpt_empirical_full_min 0.719
loop_
_space_group_symop_operation_xyz
'x, y, z'
'x+1/2, -y, z+1/2'
loop_
_atom_site_label
_atom_site_type_symbol
_atom_site_fract_x
_atom_site_fract_y
_atom_site_fract_z
_atom_site_U_iso_or_equiv
_atom_site_adp_type
_atom_site_occupancy
_atom_site_site_symmetry_order
_atom_site_calc_flag
_atom_site_refinement_flags_posn
Sc1 Sc 0.46915(14) 0.25139(9) 0.45091(12) 0.0190(3) Uani 1 1 d .
Cl1 Cl 0.3546(2) 0.01815(12) 0.50794(16) 0.0179(3) Uani 1 1 d .
O1 O 0.6081(7) 0.2491(4) 0.6908(5) 0.0309(11) Uani 1 1 d .
O2 O 0.7647(6) 0.1530(4) 0.4797(4) 0.0227(8) Uani 1 1 d .
C1 C 0.5572(9) 0.3363(6) 0.2250(6) 0.0247(11) Uani 1 1 d .
H1 H 0.6685 0.2848 0.2012 0.030 Uiso 1 1 calc R
C2 C 0.3828(10) 0.2638(5) 0.1836(7) 0.0253(12) Uani 1 1 d .
H2 H 0.4102 0.1772 0.1395 0.030 Uiso 1 1 calc R
C3 C 0.2057(10) 0.2565(6) 0.2326(8) 0.0297(14) Uani 1 1 d .
H3 H 0.1500 0.1658 0.2133 0.036 Uiso 1 1 calc R
C4 C 0.1341(8) 0.3148(6) 0.3508(7) 0.0297(13) Uani 1 1 d .
H4 H 0.0452 0.2508 0.3867 0.036 Uiso 1 1 calc R
C5 C 0.2085(9) 0.4029(6) 0.4661(8) 0.0310(13) Uani 1 1 d .
H5 H 0.1529 0.3816 0.5553 0.037 Uiso 1 1 calc R
C6 C 0.3832(11) 0.4756(6) 0.5100(11) 0.0312(17) Uani 1 1 d .
H6 H 0.4115 0.4896 0.6198 0.037 Uiso 1 1 calc R
C7 C 0.5562(9) 0.4880(5) 0.4526(7) 0.0267(12) Uani 1 1 d .
H7 H 0.6675 0.5046 0.5368 0.032 Uiso 1 1 calc R
C8 C 0.6257(8) 0.4312(6) 0.3379(7) 0.0254(11) Uani 1 1 d .
H8 H 0.7695 0.4212 0.3689 0.030 Uiso 1 1 calc R
C9 C 0.5242(10) 0.2790(7) 0.8164(7) 0.0338(14) Uani 1 1 d .
H9A H 0.5542 0.3706 0.8472 0.051 Uiso 1 1 calc GR
H9B H 0.5778 0.2193 0.8983 0.051 Uiso 1 1 calc GR
H9C H 0.3832 0.2675 0.7900 0.051 Uiso 1 1 calc GR
C10 C 0.8195(10) 0.2415(6) 0.7227(8) 0.0313(14) Uani 1 1 d .
H10A H 0.8693 0.2244 0.8294 0.038 Uiso 1 1 calc R
H10B H 0.8770 0.3248 0.6949 0.038 Uiso 1 1 calc R
C11 C 0.8669(9) 0.1282(6) 0.6300(7) 0.0291(12) Uani 1 1 d .
H11A H 1.0085 0.1236 0.6339 0.035 Uiso 1 1 calc R
H11B H 0.8240 0.0435 0.6667 0.035 Uiso 1 1 calc R
C12 C 0.7959(9) 0.0473(6) 0.3815(7) 0.0289(12) Uani 1 1 d .
H12A H 0.7319 -0.0332 0.4067 0.043 Uiso 1 1 calc GR
H12B H 0.9355 0.0310 0.3925 0.043 Uiso 1 1 calc GR
H12C H 0.7416 0.0723 0.2788 0.043 Uiso 1 1 calc GR
loop_
_atom_site_aniso_label
_atom_site_aniso_U_11
_atom_site_aniso_U_22
_atom_site_aniso_U_33
_atom_site_aniso_U_23
_atom_site_aniso_U_13
_atom_site_aniso_U_12
Sc1 0.0183(5) 0.0201(5) 0.0191(5) 0.0009(3) 0.0049(4) 0.0023(3)
Cl1 0.0114(5) 0.0269(6) 0.0159(5) 0.0004(5) 0.0039(4) -0.0001(5)
O1 0.026(2) 0.046(3) 0.022(2) -0.0050(17) 0.0047(18) 0.0044(18)
O2 0.0203(18) 0.0273(19) 0.0208(17) -0.0003(15) 0.0045(14) 0.0023(15)
C1 0.028(3) 0.022(3) 0.025(3) 0.006(2) 0.009(2) 0.002(2)
C2 0.034(3) 0.023(3) 0.017(3) 0.003(2) 0.002(2) 0.000(2)
C3 0.029(3) 0.024(3) 0.033(3) 0.008(2) -0.001(3) -0.001(2)
C4 0.018(3) 0.031(3) 0.041(3) 0.012(3) 0.007(2) 0.001(2)
C5 0.028(3) 0.030(3) 0.039(3) 0.006(2) 0.018(3) 0.008(2)
C6 0.035(5) 0.031(3) 0.030(3) 0.002(3) 0.010(3) 0.006(2)
C7 0.027(3) 0.018(3) 0.032(3) -0.001(2) -0.001(2) -0.001(2)
C8 0.019(3) 0.023(3) 0.034(3) 0.005(2) 0.005(2) -0.001(2)
C9 0.040(4) 0.040(3) 0.025(3) -0.004(3) 0.013(3) -0.004(3)
C10 0.027(3) 0.042(4) 0.025(3) -0.002(2) 0.004(3) -0.006(2)
C11 0.023(3) 0.034(3) 0.029(3) 0.005(2) 0.001(2) 0.001(2)
C12 0.025(3) 0.027(3) 0.036(3) -0.002(2) 0.008(2) 0.005(2)
loop_
_atom_type_symbol
_atom_type_description
_atom_type_scat_dispersion_real
_atom_type_scat_dispersion_imag
_atom_type_scat_source
C C 0.0033 0.0016 'International Tables Vol C Tables 4.2.6.8 and 6.1.1.4'
H H 0.0000 0.0000 'International Tables Vol C Tables 4.2.6.8 and 6.1.1.4'
Cl Cl 0.1484 0.1585 'International Tables Vol C Tables 4.2.6.8 and 6.1.1.4'
O O 0.0106 0.0060 'International Tables Vol C Tables 4.2.6.8 and 6.1.1.4'
Sc Sc 0.2519 0.3716 'International Tables Vol C Tables 4.2.6.8 and 6.1.1.4'
loop_
_geom_angle_atom_site_label_1
_geom_angle_atom_site_label_2
_geom_angle_atom_site_label_3
_geom_angle
O1 Sc1 Cl1 83.24(13)
O1 Sc1 O2 70.67(16)
O1 Sc1 C1 135.38(19)
O1 Sc1 C2 168.6(2)
O1 Sc1 C3 157.6(2)
O1 Sc1 C4 125.3(2)
O1 Sc1 C5 97.9(2)
O1 Sc1 C6 82.4(2)
O1 Sc1 C7 86.81(19)
O1 Sc1 C8 106.33(19)
O2 Sc1 Cl1 83.71(11)
O2 Sc1 C1 82.71(18)
O2 Sc1 C2 100.43(19)
O2 Sc1 C3 129.1(2)
O2 Sc1 C4 162.2(2)
O2 Sc1 C5 163.5(2)
O2 Sc1 C6 130.06(19)
O2 Sc1 C7 101.80(19)
O2 Sc1 C8 84.15(18)
C1 Sc1 Cl1 129.59(15)
C1 Sc1 C3 64.6(2)
C1 Sc1 C7 63.9(2)
C1 Sc1 C8 33.84(19)
C2 Sc1 Cl1 103.24(14)
C2 Sc1 C1 33.9(2)
C2 Sc1 C3 33.6(2)
C2 Sc1 C4 64.7(2)
C2 Sc1 C6 98.9(2)
C2 Sc1 C7 88.2(2)
C2 Sc1 C8 64.8(2)
C3 Sc1 Cl1 88.31(15)
C3 Sc1 C7 97.5(2)
C3 Sc1 C8 88.1(2)
C4 Sc1 Cl1 90.02(16)
C4 Sc1 C1 88.6(2)
C4 Sc1 C3 33.7(2)
C4 Sc1 C7 88.1(2)
C4 Sc1 C8 97.2(2)
C5 Sc1 Cl1 107.33(16)
C5 Sc1 C1 98.6(2)
C5 Sc1 C2 89.2(2)
C5 Sc1 C3 64.8(2)
C5 Sc1 C4 33.7(2)
C5 Sc1 C6 34.0(2)
C5 Sc1 C7 64.8(2)
C5 Sc1 C8 87.9(2)
C6 Sc1 Cl1 134.81(18)
C6 Sc1 C1 88.8(3)
C6 Sc1 C3 89.0(2)
C6 Sc1 C4 64.9(2)
C6 Sc1 C7 33.7(3)
C6 Sc1 C8 63.7(3)
C7 Sc1 Cl1 166.35(18)
C8 Sc1 Cl1 161.02(16)
C8 Sc1 C7 32.4(2)
C9 O1 Sc1 128.9(4)
C9 O1 C10 114.6(6)
C10 O1 Sc1 115.4(4)
C11 O2 Sc1 117.2(3)
C12 O2 Sc1 120.0(3)
C12 O2 C11 111.2(4)
Sc1 C1 H1 110.2
C2 C1 Sc1 72.2(3)
C2 C1 H1 110.2
C2 C1 C8 134.0(5)
C8 C1 Sc1 73.9(3)
C8 C1 H1 110.2
Sc1 C2 H2 109.7
C1 C2 Sc1 73.9(3)
C1 C2 H2 109.7
C3 C2 Sc1 74.4(4)
C3 C2 C1 135.7(6)
C3 C2 H2 109.7
Sc1 C3 H3 109.4
C2 C3 Sc1 72.0(4)
C2 C3 H3 109.4
C2 C3 C4 134.1(6)
C4 C3 Sc1 72.8(4)
C4 C3 H3 109.4
Sc1 C4 H4 109.0
C3 C4 Sc1 73.5(4)
C3 C4 H4 109.0
C5 C4 Sc1 72.2(3)
C5 C4 C3 135.1(6)
C5 C4 H4 109.0
Sc1 C5 H5 109.6
C4 C5 Sc1 74.1(3)
C4 C5 H5 109.6
C4 C5 C6 135.7(6)
C6 C5 Sc1 73.8(4)
C6 C5 H5 109.6
Sc1 C6 H6 110.4
C5 C6 Sc1 72.1(4)
C5 C6 H6 110.4
C5 C6 C7 134.0(8)
C7 C6 Sc1 74.4(4)
C7 C6 H6 110.4
Sc1 C7 H7 108.8
C6 C7 Sc1 71.8(4)
C6 C7 H7 108.8
C8 C7 Sc1 73.4(3)
C8 C7 C6 135.0(6)
C8 C7 H7 108.8
Sc1 C8 H8 108.4
C1 C8 Sc1 72.3(3)
C1 C8 H8 108.4
C7 C8 Sc1 74.2(3)
C7 C8 C1 136.1(5)
C7 C8 H8 108.4
O1 C9 H9A 109.5
O1 C9 H9B 109.5
O1 C9 H9C 109.5
H9A C9 H9B 109.5
H9A C9 H9C 109.5
H9B C9 H9C 109.5
O1 C10 H10A 110.8
O1 C10 H10B 110.8
O1 C10 C11 104.9(5)
H10A C10 H10B 108.8
C11 C10 H10A 110.8
C11 C10 H10B 110.8
O2 C11 C10 106.6(5)
O2 C11 H11A 110.4
O2 C11 H11B 110.4
C10 C11 H11A 110.4
C10 C11 H11B 110.4
H11A C11 H11B 108.6
O2 C12 H12A 109.5
O2 C12 H12B 109.5
O2 C12 H12C 109.5
H12A C12 H12B 109.5
H12A C12 H12C 109.5
H12B C12 H12C 109.5
loop_
_geom_bond_atom_site_label_1
_geom_bond_atom_site_label_2
_geom_bond_distance
Sc1 Cl1 2.5806(16)
Sc1 O1 2.230(5)
Sc1 O2 2.272(4)
Sc1 C1 2.439(6)
Sc1 C2 2.417(6)
Sc1 C3 2.448(7)
Sc1 C4 2.439(6)
Sc1 C5 2.414(6)
Sc1 C6 2.437(7)
Sc1 C7 2.470(6)
Sc1 C8 2.461(6)
O1 C9 1.430(7)
O1 C10 1.459(9)
O2 C11 1.448(7)
O2 C12 1.444(7)
C1 H1 1.0000
C1 C2 1.414(9)
C1 C8 1.426(8)
C2 H2 1.0000
C2 C3 1.407(10)
C3 H3 1.0000
C3 C4 1.415(10)
C4 H4 1.0000
C4 C5 1.405(10)
C5 H5 1.0000
C5 C6 1.420(10)
C6 H6 1.0000
C6 C7 1.424(11)
C7 H7 1.0000
C7 C8 1.374(9)
C8 H8 1.0000
C9 H9A 0.9800
C9 H9B 0.9800
C9 H9C 0.9800
C10 H10A 0.9900
C10 H10B 0.9900
C10 C11 1.505(9)
C11 H11A 0.9900
C11 H11B 0.9900
C12 H12A 0.9800
C12 H12B 0.9800
C12 H12C 0.9800
loop_
_geom_torsion_atom_site_label_1
_geom_torsion_atom_site_label_2
_geom_torsion_atom_site_label_3
_geom_torsion_atom_site_label_4
_geom_torsion
Sc1 O1 C10 C11 -50.0(6)
Sc1 O2 C11 C10 -35.0(6)
Sc1 C1 C2 C3 45.9(7)
Sc1 C1 C8 C7 -41.8(7)
Sc1 C2 C3 C4 41.5(7)
Sc1 C3 C4 C5 41.5(7)
Sc1 C4 C5 C6 45.2(8)
Sc1 C5 C6 C7 45.3(8)
Sc1 C6 C7 C8 41.1(8)
Sc1 C7 C8 C1 41.3(7)
O1 C10 C11 O2 52.2(6)
C1 C2 C3 Sc1 -45.8(7)
C1 C2 C3 C4 -4.3(12)
C2 C1 C8 Sc1 43.9(6)
C2 C1 C8 C7 2.1(12)
C2 C3 C4 Sc1 -41.3(7)
C2 C3 C4 C5 0.2(12)
C3 C4 C5 Sc1 -41.9(7)
C3 C4 C5 C6 3.3(13)
C4 C5 C6 Sc1 -45.3(7)
C4 C5 C6 C7 0.0(14)
C5 C6 C7 Sc1 -44.6(8)
C5 C6 C7 C8 -3.5(14)
C6 C7 C8 Sc1 -40.7(8)
C6 C7 C8 C1 0.6(13)
C8 C1 C2 Sc1 -44.4(6)
C8 C1 C2 C3 1.6(12)
C9 O1 C10 C11 141.2(5)
C12 O2 C11 C10 -178.3(5)
loop_
_refln_index_h
_refln_index_k
_refln_index_l
_refln_F_squared_meas
_refln_F_squared_sigma
-9 0 0 0.76 7.18
-9 0 1 461.38 29.16
-9 0 2 -1.37 6.7
-9 0 3 119.83 13.03
-9 0 4 2.54 5.98
-9 0 5 263.25 19.07
-9 -1 0 56.04 11.18
-9 1 0 69.53 11.42
-9 -1 1 59.36 10.7
-9 1 1 45.73 9.91
-9 1 1 63.27 10.28
-9 -1 2 104.5 13.01
-9 1 2 96.18 12.18
-9 1 2 137.88 13.53
-9 1 3 27.02 7.87
-9 -1 3 41.27 9.42
-9 1 4 42.69 8.97
-9 -1 4 53.64 9.83
-9 -1 5 55.43 9.76
-9 2 0 0.76 6.92
-9 -2 0 6.04 6.95
-9 -2 0 2.37 7.43
-9 -2 1 58.42 10.88
-9 -2 1 69.09 9.33
-9 2 1 57.36 10.28
-9 -2 2 5.91 7.26
-9 2 2 2.71 6.66
-9 -2 2 5.52 5.24
-9 2 2 2.13 5.55
-9 -2 3 174.64 16.06
-9 2 3 165.65 14.99
-9 -2 3 161.53 13.91
-9 2 3 178.12 15.55
-9 2 4 0.6 5.89
-9 -2 4 2.79 6.76
-9 2 4 3.37 5.76
-9 -2 4 -1.06 5.29
-9 2 5 127.26 13.25
-9 -2 5 140.04 14.52
-9 -3 0 74.56 11.06
-9 3 0 80.28 11.69
-9 -3 1 130.86 15.25
-9 3 1 175.12 15.94
-9 -3 1 134.92 14.34
-9 -3 2 84.48 11.13
-9 3 2 105.5 12.32
-9 -3 2 95.29 13.2
-9 -3 3 -0.76 7.27
-9 3 3 6.39 6.41
-9 -3 3 4.86 6.17
-9 3 4 140.82 13.97
-9 -3 4 125.79 14.78
-9 3 4 143.25 13.35
-9 -3 4 125.31 12.94
-9 3 5 25.84 7.5
-9 -3 5 28.37 7.43
-9 3 6 187.17 16.06
-9 -4 0 48.66 10.35
-9 -4 1 451.04 28.73
-9 4 1 450.05 29
-9 4 2 48.71 10.07
-9 -4 2 56.32 11.25
-9 -4 2 46.16 10.01
-9 4 3 177.75 15.2
-9 -4 3 141.72 14.96
-9 -4 3 168.49 16.71
-9 -4 4 0.66 7.1
-9 -4 5 151.73 14.95
-9 -5 0 191.83 18.09
-9 -5 1 43.08 9.86
-9 5 1 35.21 9.85
-9 -5 2 283.35 21.69
-9 5 2 283.67 21.41
-9 -5 3 95.14 12.31
-9 -5 4 164.78 15.7
-9 6 2 9.57 7.67
-8 0 -4 144.53 13.85
-8 0 -4 144.74 13.51
-8 0 -3 -1.53 5.49
-8 0 -3 -2.4 7.29
-8 0 -2 178.07 16.52
-8 0 -2 178.79 13.5
-8 0 -1 2.1 6.04
-8 0 -1 -2.7 4.21
-8 0 0 423.28 21.94
-8 0 0 394.55 23.16
-8 0 0 420.78 26.39
-8 0 1 -2.82 4.86
-8 0 1 -0.32 4.11
-8 0 1 0.62 5.53
-8 0 1 2 3.39
-8 0 2 345.16 22.34
-8 0 2 336.78 19.26
-8 0 2 324.99 16.56
-8 0 3 0.36 4.17
-8 0 3 -1.68 5.12
-8 0 4 569.03 31.21
-8 0 5 -0.5 5.2
-8 0 6 485.02 26.76
-8 -1 -4 148.59 13.62
-8 1 -4 156.71 13.94
-8 1 -4 154.95 14.56
-8 1 -3 85.89 9.82
-8 -1 -3 54.94 8.58
-8 1 -3 80.9 11.68
-8 1 -3 71.16 10.56
-8 -1 -3 66.93 11.04
-8 -1 -3 73.78 9.63
-8 -1 -2 69.34 8.07
-8 1 -2 61.37 8.02
-8 -1 -2 76.44 11.22
-8 1 -2 63.92 9.6
-8 1 -2 78.72 10.95
-8 1 -1 116.72 10.15
-8 -1 -1 111.53 12.91
-8 1 -1 112.08 12.7
-8 -1 -1 113.16 9.78
-8 1 -1 134.96 12.95
-8 -1 0 100.45 11.87
-8 1 0 74.93 7.87
-8 -1 0 104.32 8.47
-8 1 0 67.36 10.24
-8 -1 0 111.61 10.36
-8 1 0 79.92 8.44
-8 -1 1 171.92 12.25
-8 1 1 188.32 15.38
-8 -1 1 148.64 12.97
-8 -1 1 181.9 15.48
-8 -1 1 171.31 10.86
-8 1 1 169.68 14.69
-8 1 1 178.08 11
-8 1 1 173.07 11.69
-8 1 2 119.64 8.02
-8 -1 2 134.53 8.99
-8 1 2 135.98 9.76
-8 -1 2 159.03 12.23
-8 1 2 124.71 12.57
-8 1 2 122.37 12.35
-8 -1 2 138.85 13.47
-8 -1 2 135.15 8.02
-8 -1 3 55.77 7.74
-8 1 3 49.24 8.4
-8 -1 3 56.42 9.04
-8 1 3 59.05 8.66
-8 -1 4 37.84 6.68
-8 -1 4 45.9 8.19
-8 1 4 37.51 7.59
-8 1 4 36.94 7.11
-8 -1 5 269.14 18.3
-8 1 5 242.73 17.17
-8 1 6 30.17 6.81
-8 -2 -4 379.19 23.16
-8 -2 -4 351.16 22.93
-8 2 -4 358.61 24.05
-8 2 -4 324.5 22.48
-8 2 -3 37.25 9.46
-8 -2 -3 58.12 10.73
-8 -2 -3 48.63 7.96
-8 2 -3 57.01 9.65
-8 2 -3 44.91 8.14
-8 -2 -3 39.81 7.45
-8 -2 -2 52.55 7.8
-8 -2 -2 50.13 10.07
-8 -2 -2 60.6 7.99
-8 2 -2 63.23 9.8
-8 -2 -2 59.62 9.68
-8 2 -2 58.47 10.41
-8 2 -2 57.27 7.95
-8 2 -1 8.78 6.15
-8 2 -1 18.46 7.06
-8 -2 -1 8.01 6.89
-8 2 -1 13.69 5.07
-8 -2 -1 21.48 5.48
-8 -2 -1 22.21 5.1
-8 -2 -1 16.31 6.66
-8 -2 0 31.4 7.13
-8 -2 0 28.16 5.16
-8 2 0 27.86 7.28
-8 2 0 22.37 5.17
-8 -2 0 26.98 8.15
-8 2 0 27.73 4.64
-8 -2 1 -0.54 3.13
-8 -2 1 7.34 5.46
-8 2 1 0.42 2.78
-8 2 1 -0.62 5.61
-8 2 1 0.83 3.54
-8 -2 1 11.92 6.9
-8 2 1 0.64 4.61
-8 -2 1 5.98 5.53
-8 -2 2 14.52 3.24
-8 2 2 13.86 5.67
-8 2 2 17.16 3.43
-8 -2 2 13.08 5.99
-8 2 2 15.61 5.87
-8 -2 2 17.54 4.53
-8 -2 2 14.13 7.34
-8 2 3 6.07 5.29
-8 -2 3 18.72 6.9
-8 2 3 13.56 5.97
-8 -2 3 13.64 5.63
-8 -2 4 101.15 10.24
-8 2 4 104.36 11.35
-8 -2 4 101.74 11.64
-8 2 4 107.48 10.97
-8 -2 5 65.19 9.69
-8 2 5 73.26 8.85
-8 2 5 63.07 9.09
-8 2 6 304.48 20.09
-8 -3 -4 68.56 9.66
-8 3 -4 66.23 9.92
-8 -3 -4 65.38 9.37
-8 -3 -4 48.61 10.81
-8 -3 -3 65.93 8.72
-8 3 -3 55.09 8.78
-8 -3 -3 66.66 8.59
-8 -3 -3 59.52 10.56
-8 3 -3 50.01 9.49
-8 3 -3 51.14 10.49
-8 3 -2 180.54 15.86
-8 3 -2 175.06 16.51
-8 -3 -2 165.7 15.34
-8 -3 -2 176.93 16.8
-8 3 -2 185.01 14.18
-8 -3 -2 174.73 13.43
-8 -3 -1 139.41 13.96
-8 -3 -1 109.37 11.7
-8 3 -1 96.36 11.71
-8 -3 -1 128.59 10.43
-8 3 -1 104.58 12.61
-8 3 -1 89.47 9.77
-8 -3 0 59.11 6.96
-8 -3 0 52.2 9.82
-8 3 0 73.82 7.79
-8 -3 0 62.63 9.07
-8 3 0 71.34 10.28
-8 3 1 49.56 8.53
-8 3 1 56.6 6.55
-8 -3 1 62.57 10.09
-8 -3 1 59.61 8.34
-8 -3 1 59.47 9.45
-8 3 1 48.17 9.09
-8 3 2 118.41 11.66
-8 -3 2 99 9.07
-8 -3 2 112.87 7.86
-8 -3 2 94.73 12.26
-8 -3 2 106.17 11.51
-8 3 2 108.89 11.73
-8 3 3 98.48 10.65
-8 -3 3 82.67 10.39
-8 -3 3 86.09 11.29
-8 3 3 108.5 11.42
-8 3 4 180.68 14.68
-8 -3 4 183.31 15.15
-8 -3 4 174.97 15.6
-8 3 5 63.16 8.09
-8 -3 5 38.57 7.61
-8 3 5 63.59 9.1
-8 3 6 78.72 9.83
-8 3 7 56.55 8.7
-8 -4 -4 120.37 14.7
-8 4 -3 43.62 8.36
-8 -4 -3 39.47 10.19
-8 -4 -2 93.95 9.75
-8 -4 -2 95.57 12.36
-8 4 -2 119.69 13.86
-8 -4 -2 111.17 14.06
-8 4 -2 88.64 11.81
-8 4 -2 106.12 11.26
-8 4 -1 2.86 5.32
-8 -4 -1 -1.21 6.84
-8 -4 -1 1.98 4.05
-8 4 -1 3.57 6.2
-8 -4 -1 3.21 7.49
-8 4 -1 7.46 6.76
-8 -4 0 327.79 20.9
-8 4 0 287.54 18.29
-8 4 0 282.61 21.56
-8 -4 0 306.88 22.86
-8 -4 1 22.26 7.51
-8 4 1 38.25 8.18
-8 4 1 43.26 8.52
-8 -4 1 23.97 7.72
-8 -4 1 26.86 8.88
-8 -4 2 264.75 20.51
-8 4 2 278.94 20.16
-8 -4 2 248.1 19.26
-8 4 2 252.34 18.83
-8 -4 2 278.01 16.77
-8 -4 3 15.6 7.8
-8 4 3 11.77 6.32
-8 -4 3 5.71 6.67
-8 4 3 17.31 6.5
-8 -4 4 465.52 26.97
-8 4 4 419.72 24.71
-8 4 4 407.64 26.23
-8 4 5 49.67 7.56
-8 4 5 49.95 8.62
-8 -4 5 40.77 8.35
-8 4 6 149.41 13.95
-8 4 7 2.93 5.6
-8 -5 -3 35.78 9.86
-8 -5 -2 42.42 10.3
-8 5 -2 31.65 9.31
-8 -5 -1 241.21 19.39
-8 -5 -1 252.39 21.45
-8 5 -1 241.11 19.96
-8 5 -1 289.21 20.89
-8 -5 0 82.73 12.79
-8 -5 0 98.17 11.3
-8 5 0 66.42 10.92
-8 5 1 201.68 16.57
-8 5 1 183.14 16.14
-8 -5 1 167.16 14.53
-8 -5 1 158.04 16.54
-8 -5 1 165.72 16.37
-8 5 2 49.12 9.09
-8 5 2 49.32 8.86
-8 -5 2 69.84 11.58
-8 -5 2 61.33 10.26
-8 5 3 288.84 19.8
-8 -5 3 295.73 21.58
-8 5 3 283.9 21.11
-8 5 4 77.76 9.51
-8 -5 4 94.22 11.92
-8 5 4 67.6 10.25
-8 5 5 299.77 21.45
-8 -5 5 316.25 21.99
-8 5 6 76.02 10.54
-8 -5 6 62.26 10.59
-8 5 7 70.04 10.15
-8 -6 -3 25.11 9.91
-8 -6 -2 113.67 14.31
-8 -6 -1 4.9 7.48
-8 6 -1 11.07 7.88
-8 6 0 107.47 13.19
-8 -6 0 106.53 14.47
-8 -6 0 115.47 13.05
-8 -6 1 47.43 10.91
-8 6 1 40.01 9.17
-8 -6 1 46.72 10.58
-8 6 1 46.69 9.1
-8 -6 2 13.17 7.5
-8 6 2 20.8 7.44
-8 6 2 22.94 7.19
-8 6 3 73.26 10.91
-8 -6 3 98.85 12.69
-8 6 3 65.72 10
-8 -6 4 86.65 11.96
-8 6 4 72.54 10.7
-8 -6 5 37.87 9.53
-8 6 5 29.54 8.16
-8 6 6 126.82 13.19
-8 6 7 52.68 9.12
-8 -7 -2 39.17 10.76
-8 -7 -1 123.56 14.61
-8 7 1 52.57 9.92
-8 -7 2 12.56 8.84
-8 7 2 14.97 6.71
-8 7 3 35.67 7.98
-8 -7 3 35.07 9.94
-7 0 -5 24.02 7.15
-7 0 -5 20.02 8.04
-7 0 -5 31.08 7.58
-7 0 -4 0.55 5.04
-7 0 -4 -0.52 5.12
-7 0 -3 78.56 9.04
-7 0 -3 108.87 11.25
-7 0 -3 93.32 9.92
-7 0 -3 94.14 11.66
-7 0 -2 0.45 4.33
-7 0 -2 4.58 4.8
-7 0 -2 1.22 3.88
-7 0 -2 6.53 5.36
-7 0 -1 537.32 30.79
-7 0 -1 539.91 27.38
-7 0 -1 539.2 30.27
-7 0 0 1.45 3.31
-7 0 0 2.82 5.24
-7 0 1 572.04 29.35
-7 0 1 558.98 31.33
-7 0 1 596.75 31.96
-7 0 1 591.92 27.25
-7 0 2 -0.19 2.58
-7 0 2 1.18 1.95
-7 0 2 0.68 4.11
-7 0 2 5.98 4.96
-7 0 2 1.56 4.24
-7 0 3 828.74 41.31
-7 0 3 829.48 40.96
-7 0 3 820.67 38.78
-7 0 4 4.44 4.82
-7 0 5 1033.89 48.59
-7 1 -5 24.11 7.08
-7 -1 -5 12.9 6.65
-7 -1 -5 14.42 7.75
-7 1 -5 18.35 6.25
-7 1 -5 20.99 8.02
-7 1 -5 25.57 7.31
-7 -1 -5 14.02 6.42
-7 1 -4 76 9.68
-7 1 -4 96.22 10.86
-7 -1 -4 85.02 9.59
-7 -1 -4 87.87 9.83
-7 1 -4 71.52 9.36
-7 1 -3 196.12 15.5
-7 -1 -3 188.6 14.3
-7 1 -3 178.28 16.31
-7 1 -3 187.34 14.02
-7 -1 -3 167.94 13.61
-7 1 -3 188.95 14.65
-7 1 -2 273.15 16.27
-7 -1 -2 206.17 17.62
-7 1 -2 268.78 19.06
-7 -1 -2 241.19 16.05
-7 1 -2 271.87 18.44
-7 -1 -2 216.96 15.27
-7 1 -1 201.14 16.2
-7 -1 -1 233.37 14.21
-7 1 -1 207.95 13.87
-7 -1 -1 232.58 14.71
-7 -1 -1 225.25 17.23
-7 1 -1 200.86 16.44
-7 -1 0 169.2 11.9
-7 1 0 227.63 12.93
-7 -1 0 178.03 15.2
-7 1 0 234.41 16.55
-7 -1 1 146.56 11.8
-7 1 1 122.84 11.78
-7 -1 1 136.81 10.4
-7 1 1 125.06 12.01
-7 -1 1 148.35 12.63
-7 1 1 123.95 8.73
-7 -1 1 143.08 9.01
-7 1 1 124.35 9.53
-7 -1 2 275.67 15.07
-7 1 2 300.7 14.65
-7 1 2 309.24 16.07
-7 1 2 311.52 19.41
-7 -1 2 279.94 17.8
-7 -1 2 276.67 14.1
-7 1 2 306.58 19.12
-7 1 2 276.13 13.96
-7 -1 2 263.89 18.91
-7 1 3 161.81 13.12
-7 -1 3 185.84 12.92
-7 1 3 153.12 13.24
-7 1 3 161.24 10.81
-7 -1 4 461.58 25.04
-7 1 4 453.56 25.26
-7 -1 4 471.14 26.2
-7 1 4 480.53 26.47
-7 1 5 137.64 11.98
-7 1 5 155.32 11.83
-7 -1 5 169.7 12.79
-7 1 6 248.52 15.19
-7 2 -6 6.66 5.71
-7 -2 -5 589.88 32.62
-7 2 -5 580.94 32.71
-7 -2 -5 577.39 35.34
-7 -2 -5 587.27 32.54
-7 2 -5 590.48 32.92
-7 -2 -4 0.76 6.4
-7 2 -4 11.04 6.31
-7 -2 -4 9.04 5.01
-7 -2 -4 2.59 5.06
-7 2 -4 11.57 5.99
-7 -2 -3 227.37 15.62
-7 2 -3 222.63 15.89
-7 2 -3 204.23 16.54
-7 2 -3 215.12 17.88
-7 -2 -2 20.24 7.08
-7 -2 -2 20.51 5.37
-7 2 -2 34.95 6.14
-7 2 -2 33.46 7.78
-7 2 -2 34.36 6.92
-7 -2 -1 404.85 25.7
-7 2 -1 399.31 25.47
-7 2 -1 415.59 22.45
-7 -2 -1 406.19 22.36
-7 2 -1 392.18 24.82
-7 -2 -1 440.29 24.3
-7 -2 0 15.66 4.33
-7 -2 0 25.83 7.23
-7 2 0 21.2 6.41
-7 -2 0 18.64 5.52
-7 2 0 20.28 4.07
-7 2 0 24.45 4.81
-7 -2 1 377.04 23.26
-7 2 1 368.87 18.89
-7 -2 1 382.43 20.69
-7 2 1 355.14 22.65
-7 2 1 342.98 22.14
-7 -2 1 397.96 22.77
-7 2 1 354.95 17.97
-7 2 2 0.54 4.52
-7 2 2 -0.98 4.56
-7 2 2 -0.17 2.32
-7 -2 2 -0.55 5.07
-7 -2 2 0.94 2.34
-7 -2 2 4.82 5.05
-7 -2 2 4.71 3.7
-7 -2 3 44.13 3.38
-7 -2 3 41.68 7.84
-7 2 3 44.95 6.89
-7 -2 3 40.37 3.74
-7 2 3 32.95 6.67
-7 -2 3 44.6 7.31
-7 -2 4 41.39 6.98
-7 2 4 23.81 6.27
-7 -2 4 42.53 7.45
-7 2 4 25.59 5.92
-7 2 5 75.14 8.66
-7 -2 5 70.87 8.65
-7 2 5 75.19 7.99
-7 2 6 66.14 7.15
-7 2 6 83.85 9.02
-7 3 -6 133.64 13.36
-7 3 -5 30.57 7.5
-7 -3 -5 45.11 10.42
-7 3 -5 40.64 8.13
-7 -3 -5 45.6 8.06
-7 -3 -4 206.51 18.12
-7 3 -4 178.65 15.57
-7 3 -4 190.25 15.38
-7 3 -4 184.07 17.21
-7 3 -3 67.41 10.39
-7 -3 -3 65.42 8.15
-7 3 -3 73.19 9.94
-7 3 -3 69.58 8.83
-7 3 -2 144.11 12.17
-7 3 -2 147.75 13.77
-7 3 -2 170.78 15.22
-7 -3 -2 164.37 14.29
-7 -3 -2 141.89 14.46
-7 -3 -2 174.32 12.38
-7 3 -1 136.77 13.16
-7 3 -1 134.44 11.14
-7 3 -1 137.82 13.59
-7 -3 -1 147.06 10.97
-7 -3 -1 154.15 14.46
-7 -3 -1 155.48 13.1
-7 -3 0 94.45 7.66
-7 3 0 71.3 7.64
-7 3 0 71.95 9.63
-7 -3 0 74.27 9.88
-7 3 0 61.44 4.57
-7 -3 0 81.02 9.26
-7 3 1 138.27 12.47
-7 -3 1 121.02 8.65
-7 3 1 134.32 12.13
-7 -3 1 121.84 12.36
-7 -3 1 122.21 10.62
-7 3 1 118.41 9.2
-7 -3 2 281.42 19.14
-7 3 2 251.93 18
-7 3 2 235.03 13.62
-7 -3 2 290.29 15.96
-7 -3 2 288.2 18.82
-7 3 2 230.56 17.13
-7 3 3 140.21 12.16
-7 -3 3 107.79 7.93
-7 -3 3 106.86 11.45
-7 -3 3 108.55 11.24
-7 3 3 138.5 11.18
-7 3 4 161.94 11.9
-7 3 4 157.85 13.05
-7 -3 4 158.47 13.11
-7 -3 4 138.78 7.36
-7 -3 4 136.12 12.99
-7 3 5 52.2 7.71
-7 3 5 53.11 6.83
-7 -3 5 55.94 8.27
-7 3 6 94.64 8.05
-7 3 6 101.07 10.02
-7 3 7 17.65 5.23
-7 4 -6 3.97 6.46
-7 4 -5 33.92 8.31
-7 -4 -5 49.69 8.78
-7 -4 -5 44.64 11.06
-7 4 -5 42.79 9.39
-7 4 -4 13.95 6.36
-7 4 -4 8.52 6.39
-7 -4 -4 4.83 6.88
-7 -4 -4 2.97 7.56
-7 4 -4 14.4 7.31
-7 -4 -4 9.21 5.99
-7 4 -3 5.24 6.56
-7 4 -3 5.52 5.4
-7 4 -3 7.24 6.11
-7 -4 -3 -0.67 7.01
-7 -4 -3 4.09 4.65
-7 -4 -2 44.47 6.42
-7 -4 -2 47.78 9.51
-7 -4 -2 39.26 8.29
-7 4 -2 39.89 8.99
-7 4 -2 50.49 8.77
-7 4 -2 42.28 7.27
-7 4 -1 108.53 11.92
-7 4 -1 115.63 12.18
-7 -4 -1 103.9 12.37
-7 -4 -1 115.46 9.47
-7 4 -1 110.57 10.46
-7 -4 -1 106.54 11.6
-7 -4 0 29.44 7.27
-7 4 0 10.84 5.24
-7 4 0 14.61 6.24
-7 -4 0 23.45 4.55
-7 -4 0 30.66 7.84
-7 4 1 234.78 14.6
-7 -4 1 230.54 13.26
-7 -4 1 245.78 16.53
-7 4 1 230.98 17.48
-7 4 1 246.2 17.43
-7 -4 1 259.98 19.24
-7 4 2 33.65 7.11
-7 -4 2 20.45 6.9
-7 -4 2 18.87 5.64
-7 4 2 37.58 6.93
-7 4 2 33.49 4.92
-7 -4 2 16.91 6.89
-7 -4 3 257.25 18.76
-7 4 3 245.95 18.07
-7 -4 3 265.02 19.07
-7 4 3 259.42 17.27
-7 -4 3 263.07 15.19
-7 4 4 19.87 5.63
-7 4 4 18.97 6.08
-7 -4 4 11.65 3.17
-7 -4 4 7.57 5.42
-7 -4 5 251.95 17.61
-7 4 5 250.64 14.83
-7 4 5 237.22 16.6
-7 -4 5 211.28 10.76
-7 4 6 4.21 4.72
-7 -4 6 3.02 5.11
-7 4 6 0.83 3.68
-7 4 7 161.86 13.21
-7 4 8 50.53 7.21
-7 -5 -5 40.03 11.44
-7 5 -5 48.31 9.15
-7 -5 -4 37.79 7.06
-7 5 -4 28.05 8.03
-7 -5 -4 34.64 10.35
-7 5 -4 18.27 7.99
-7 -5 -4 20.09 9.72
-7 5 -3 34.59 7.91
-7 -5 -3 19.13 8.35
-7 -5 -3 30.77 6.02
-7 5 -3 22.9 7.41
-7 -5 -3 37.45 9.48
-7 5 -2 64.89 8.96
-7 -5 -2 56.27 9.87
-7 -5 -2 60.07 7.4
-7 5 -2 51.04 8.86
-7 -5 -1 164.56 15.59
-7 -5 -1 146.21 11.02
-7 5 -1 136.06 12.29
-7 -5 -1 163.46 14.69
-7 5 -1 148.3 13.92
-7 -5 0 297.92 20.33
-7 5 0 309.59 18.82
-7 -5 0 290.45 16.46
-7 -5 0 290.23 21.82
-7 5 1 198.59 16.77
-7 5 1 212.76 17.24
-7 -5 1 259.76 19.58
-7 -5 1 265.15 17.57
-7 5 1 223.67 15.02
-7 -5 1 242.73 13.2
-7 5 2 76.35 9.39
-7 -5 2 62.66 8.54
-7 5 2 72.82 7.51
-7 5 2 69.41 9.41
-7 -5 2 71.61 10.16
-7 -5 2 77.3 10.63
-7 -5 3 57.81 7.46
-7 5 3 57.83 8.2
-7 -5 3 66.95 10
-7 5 3 66.33 9.03
-7 -5 4 188.57 15.7
-7 -5 4 163.91 11.03
-7 5 4 172.09 13.19
-7 5 4 162.38 14.16
-7 -5 5 62.04 9.31
-7 -5 5 76.48 6.02
-7 5 5 51.29 8.53
-7 5 5 60.69 7.48
-7 -5 6 143.5 13.78
-7 5 6 119.87 11.88
-7 5 7 98.79 10.53
-7 5 8 218 15.79
-7 6 -4 2.22 6.21
-7 6 -4 3.49 7.01
-7 -6 -4 1.06 5.06
-7 -6 -4 2.46 8.29
-7 6 -3 147.81 14.81
-7 -6 -3 168.74 16.16
-7 -6 -3 133.84 15.68
-7 6 -3 161.54 15.02
-7 -6 -3 139.89 12.45
-7 -6 -2 19.8 8.24
-7 6 -2 36.31 8.37
-7 -6 -2 26.71 5.97
-7 6 -1 325.67 21.9
-7 -6 -1 350.48 23.87
-7 -6 -1 393.94 20.3
-7 -6 -1 360.57 25.4
-7 6 -1 338.82 23.68
-7 6 0 44.55 7.9
-7 -6 0 60.94 9.92
-7 -6 0 55.64 6.09
-7 -6 0 45.52 10.15
-7 -6 1 20.54 8.29
-7 6 1 19.56 6.91
-7 -6 1 35.58 8.1
-7 -6 1 36.9 9.22
-7 -6 1 30.1 4.3
-7 6 1 28.8 6.59
-7 6 2 39.47 6.77
-7 -6 2 49.24 9.65
-7 6 2 42.54 8.31
-7 -6 2 41.13 7.68
-7 6 3 1.8 4.16
-7 -6 3 3.54 6.26
-7 6 3 0.65 5.32
-7 6 3 0.52 4.91
-7 -6 3 2.12 5.24
-7 6 4 6.42 5.43
-7 6 4 12.62 5.56
-7 -6 4 1.77 4.39
-7 -6 4 2.09 5.95
-7 6 5 25.33 5.97
-7 -6 5 25.04 7.68
-7 6 5 16.36 6.33
-7 6 6 29.19 7.3
-7 -6 6 39.61 8.75
-7 6 7 116 11.81
-7 -7 -4 148.36 13.29
-7 -7 -3 54.4 11.85
-7 7 -3 59.81 10.39
-7 -7 -3 55.31 7.85
-7 7 -2 239.63 18.79
-7 -7 -2 264.93 16.6
-7 7 -2 221.11 19.13
-7 -7 -2 280.98 21.36
-7 -7 -1 125.63 14.97
-7 -7 -1 113.02 9.43
-7 -7 -1 111.57 14.09
-7 7 -1 106.93 12.4
-7 7 -1 103.13 11.72
-7 -7 0 146.59 14.66
-7 7 0 129.45 12.87
-7 7 1 116.27 12.72
-7 7 1 116.14 11.31
-7 -7 1 104.84 13.78
-7 -7 1 124.78 13
-7 7 2 34.53 6.96
-7 7 2 27.61 8.14
-7 -7 2 48.2 8.35
-7 7 3 133.04 13.62
-7 -7 3 115.34 13.77
-7 -7 3 116.21 11.38
-7 -7 4 73.93 11.34
-7 7 4 74.95 10.59
-7 -7 4 74.19 8.64
-7 7 4 81.57 9.44
-7 -7 5 53.47 10.05
-7 7 5 81.2 10.97
-7 7 6 34.66 8.01
-7 -7 6 20.54 8.19
-7 7 7 65 9.53
-7 7 7 55.65 9.81
-7 -8 -2 68.12 12.25
-7 8 -2 73.45 11.98
-7 -8 -1 145.86 16.05
-7 8 -1 154.28 14.88
-7 8 0 205 16.42
-7 -8 0 203.33 18.26
-7 8 1 87.24 11.77
-7 -8 1 89.51 13.63
-7 -8 1 97.64 12.27
-7 8 2 52.18 9.75
-7 -8 2 37.56 10.56
-7 -8 2 31.65 9.06
-7 8 3 219.18 18.74
-7 -8 3 243.75 17.46
-7 -8 3 222 19.85
-7 8 4 127.13 13.84
-7 -8 4 103.23 13.37
-7 8 5 223.59 18.28
-7 8 6 44.51 9.05
-7 8 7 49.33 9.6
-7 -9 -1 2.48 8.98
-7 -9 0 156.21 17.18
-7 -9 1 0.74 8.14
-7 -9 2 139.43 14.52
-7 -10 1 68.92 12.34
-6 0 -7 -2.36 7
-6 0 -6 37.99 7.93
-6 0 -6 41.78 8.95
-6 0 -6 43.36 8.17
-6 0 -5 -2.15 5.18
-6 0 -5 -1.6 4.9
-6 0 -5 1.41 5.42
-6 0 -4 167.57 12.99
-6 0 -4 169.59 13.04
-6 0 -4 125.51 13.62
-6 0 -4 145.99 12.42
-6 0 -3 -0.42 3.75
-6 0 -3 1.32 4.11
-6 0 -3 0.98 4.6
-6 0 -2 48.42 7.72
-6 0 -2 48.42 6.52
-6 0 -2 41.78 6.88
-6 0 -2 42.72 6.11
-6 0 -1 0.48 4.15
-6 0 -1 -3.11 4.34
-6 0 -1 4.21 3.99
-6 0 -1 0.61 3.23
-6 0 0 164.66 12.97
-6 0 0 160.91 10.28
-6 0 1 3.63 4.08
-6 0 1 4.25 2.45
-6 0 1 0.97 3.87
-6 0 1 3.09 4.34
-6 0 2 789.84 38.09
-6 0 2 763.58 33.31
-6 0 2 770.47 38.23
-6 0 2 785.72 33.99
-6 0 2 762.12 36.2
-6 0 3 2.71 3.6
-6 0 3 1.71 3.71
-6 0 3 2.69 4.13
-6 0 4 471.23 24.67
-6 0 4 471.12 25.37
-6 0 5 5.55 4.24
-6 1 -7 130.18 14.9
-6 -1 -7 154.56 15.51
-6 -1 -6 102.56 11.38
-6 -1 -6 99.56 11.3
-6 1 -6 119.72 13.51
-6 1 -6 95.47 10.24
-6 -1 -6 110.1 12.85
-6 1 -6 117.96 12.02
-6 1 -6 109.74 11.54
-6 1 -5 96.4 12.03
-6 -1 -5 112.44 10.98
-6 1 -5 99.72 10.46
-6 -1 -5 112.94 11.04
-6 1 -5 103.61 11.14
-6 1 -5 101.55 10.64
-6 -1 -5 120.72 12.78
-6 1 -4 5.62 4.86
-6 -1 -4 7.85 5.79
-6 1 -4 10.14 4.82
-6 -1 -4 9.88 5.06
-6 1 -4 10.64 5.26
-6 -1 -4 4.75 4.68
-6 1 -3 281.51 17.71
-6 1 -3 251.55 19.42
-6 1 -3 262.34 17.82
-6 -1 -3 312.13 18.32
-6 1 -3 284.31 18.72
-6 -1 -3 305.21 17.99
-6 -1 -2 42.98 7.95
-6 -1 -2 48.92 6.86
-6 1 -2 58.62 8.05
-6 1 -2 61.6 7.72
-6 1 -2 71.69 9.17
-6 1 -2 75.31 7.54
-6 1 -1 275.78 15.89
-6 -1 -1 254.74 15.88
-6 -1 -1 249.3 17.96
-6 1 -1 278.16 18.44
-6 1 0 152.22 9.8
-6 -1 0 145.54 12.54
-6 -1 0 136.45 9.95
-6 1 0 147.55 12.16
-6 1 1 416.9 19.34
-6 1 1 407.5 20.22
-6 1 1 431.45 23.35
-6 -1 1 386.42 20.28
-6 1 1 436.6 23.13
-6 -1 1 386.29 22.84
-6 -1 1 348.61 18.99
-6 1 2 160.78 10.51
-6 -1 2 204.16 13.17
-6 -1 2 185.78 13.31
-6 1 2 164.71 12.95
-6 1 2 163.18 12.52
-6 -1 2 186.13 9.41
-6 1 2 158.25 9
-6 -1 2 194.7 10.38
-6 1 3 554.1 28.51
-6 -1 3 551.81 28.37
-6 1 3 591.88 26.82
-6 1 3 536.81 29.08
-6 -1 3 548.9 29.09
-6 1 4 322.74 19.69
-6 1 4 326.42 18.84
-6 -1 4 382.17 20.31
-6 -1 4 338.03 19.39
-6 1 5 90.16 7.76
-6 -1 5 70.03 7.81
-6 1 5 80.62 8.26
-6 1 6 113.66 8.21
-6 2 -7 6.53 6.72
-6 -2 -7 3.9 7.88
-6 2 -7 16.13 5.88
-6 2 -6 385.75 23.99
-6 2 -6 413.67 25.62
-6 -2 -6 425.44 25.38
-6 -2 -6 414.52 25.21
-6 2 -6 389.02 25.26
-6 2 -6 409.46 27.07
-6 -2 -6 439.77 27.6
-6 2 -5 18.86 6.79
-6 2 -5 19.04 6.32
-6 -2 -5 26.05 7.4
-6 2 -5 28.86 7
-6 2 -5 20.18 5.84
-6 -2 -5 31.94 6.59
-6 -2 -4 594.19 32.19
-6 2 -4 638.71 33.12
-6 2 -4 636.56 33.47
-6 -2 -4 638.49 35.2
-6 2 -4 609.35 33.1
-6 2 -3 31.59 6.63
-6 2 -3 20.81 5.74
-6 -2 -3 34.42 6.16
-6 2 -3 16.93 6.42
-6 -2 -2 1169.18 57.31
-6 -2 -2 1183.9 54.12
-6 2 -2 1234.53 56.69
-6 2 -2 1147.55 56.96
-6 2 -2 1198.9 54.4
-6 2 -1 5.32 4.78
-6 2 -1 3.66 3.79
-6 -2 -1 6.55 5.11
-6 -2 -1 7.25 3.62
-6 2 -1 4.05 4.24
-6 2 0 593.11 28.09
-6 -2 0 588.69 31.4
-6 -2 0 572.94 29.38
-6 -2 0 578.25 27.94
-6 2 0 569.79 30.92
-6 -2 1 1.86 3.92
-6 2 1 3.57 2.99
-6 -2 1 2.83 2.74
-6 2 1 3.11 4.25
-6 -2 1 -0.49 4.2
-6 2 1 0.47 4.19
-6 2 1 2.61 2.29
-6 2 2 492.72 26.32
-6 -2 2 504.01 26.6
-6 -2 2 456.62 25.82
-6 2 2 475.69 21.9
-6 -2 2 491.05 23.14
-6 2 2 463.27 25.29
-6 2 2 455.35 21.69
-6 -2 3 146.71 11.94
-6 2 3 177.66 11.81
-6 -2 3 173.09 13.07
-6 -2 3 142.76 8.49
-6 2 3 173 12.61
-6 -2 4 296.67 18.29
-6 2 4 263.48 17.53
-6 2 4 295.13 16.84
-6 -2 4 310.85 18.37
-6 2 5 15.81 4.09
-6 2 5 21.86 5.17
-6 -2 5 21.14 5.74
-6 2 6 7.56 3.98
-6 2 6 10.27 3.15
-6 2 7 7.22 4.18
-6 3 -7 142.3 12.59
-6 3 -7 141.73 15.43
-6 -3 -7 108.99 14.29
-6 3 -6 37.77 7.27
-6 -3 -6 52.76 8.24
-6 3 -6 45.7 8.43
-6 3 -6 52.15 9.17
-6 3 -6 43.3 9.8
-6 -3 -6 46.5 9.93
-6 -3 -5 299.49 20.57
-6 -3 -5 302.64 22.66
-6 3 -5 339.5 21.37
-6 3 -5 339.65 21.83
-6 3 -5 386.02 24.47
-6 3 -4 203.46 15.57
-6 -3 -4 223.24 15.25
-6 -3 -4 230.2 17.82
-6 3 -4 190.4 15.58
-6 3 -3 290.03 19.87
-6 3 -3 282.01 18.65
-6 3 -3 285.58 17.66
-6 -3 -3 223.39 15.83
-6 3 -2 118.54 11.15
-6 -3 -2 127.88 9.98
-6 3 -2 105.58 9.86
-6 3 -2 99.64 11.13
-6 -3 -1 534.45 28.63
-6 3 -1 502.97 26.91
-6 -3 -1 573.62 26.72
-6 -3 -1 530.7 30.11
-6 3 -1 520 29.26
-6 3 -1 508.09 29.39
-6 3 0 212.23 11.13
-6 3 0 245.45 14.37
-6 -3 0 245.68 17.31
-6 -3 0 249.69 13.61
-6 3 0 237.41 16.4
-6 -3 0 261.67 16.15
-6 -3 1 393.42 19.43
-6 -3 1 390.98 23.83
-6 3 1 365.63 22.98
-6 -3 1 430.29 22.03
-6 3 1 394.96 22.94
-6 3 1 393.49 20.17
-6 3 2 399.4 23.21
-6 -3 2 419.39 23.99
-6 3 2 413.47 22.44
-6 3 2 378.18 19.16
-6 -3 2 406.95 23.49
-6 -3 2 383.44 20.54
-6 3 3 243.46 12.68
-6 -3 3 311.29 14.98
-6 3 3 265.38 17.65
-6 -3 3 327.92 19.09
-6 3 3 278.91 16.69
-6 -3 3 337.51 19.41
-6 3 4 334.78 19.59
-6 3 4 333.7 17.93
-6 -3 4 290.11 14.71
-6 -3 4 335.67 20.02
-6 3 5 227.01 15.16
-6 -3 5 215.82 10.17
-6 -3 5 258.49 16.66
-6 3 5 229.13 13.39
-6 3 6 260.01 13.76
-6 3 6 268.76 16.93
-6 3 7 213.46 14.29
-6 3 8 49.18 6.45
-6 4 -7 13.85 6.09
-6 -4 -7 3.19 7.06
-6 4 -6 96.79 12.06
-6 -4 -6 102.59 10.9
-6 -4 -6 108.83 13.35
-6 4 -6 87.91 10.71
-6 4 -5 17.19 6.93
-6 -4 -5 22.78 8.36
-6 -4 -5 15.1 5.67
-6 4 -5 24.84 6.95
-6 4 -4 22.29 6.77
-6 -4 -4 34.41 8.21
-6 4 -4 21.89 7.34
-6 -4 -4 43.62 8.88
-6 -4 -4 34.78 6.56
-6 4 -3 10.59 5.49
-6 -4 -3 10.07 5.95
-6 -4 -3 12.25 4.72
-6 4 -3 11.07 5.78
-6 -4 -3 12.38 6.06
-6 4 -2 44.36 7.86
-6 4 -2 56.24 7.72
-6 -4 -2 64.85 9.3
-6 -4 -2 61.13 6.77
-6 4 -1 71.19 7.8
-6 -4 -1 38.76 7.54
-6 -4 -1 32 7.55
-6 -4 -1 45.35 5.79
-6 4 -1 62.52 8.43
-6 -4 0 211.21 12.35
-6 -4 0 196.49 16.03
-6 4 0 198.16 13.5
-6 -4 0 214.1 15.22
-6 -4 1 57.24 5.39
-6 -4 1 57.43 8.83
-6 4 1 77.89 7.33
-6 4 1 72.64 8.74
-6 -4 1 64.53 8.06
-6 -4 2 294.34 13.81
-6 -4 2 296.39 17.21
-6 4 2 279.19 18.03
-6 -4 2 297.89 19.73
-6 4 2 280.5 18.75
-6 4 2 269.21 15.62
-6 -4 2 302.24 19.93
-6 4 3 190.08 10.35
-6 -4 3 166.81 14.19
-6 4 3 230.9 14.1
-6 -4 3 160.65 11.28
-6 4 3 193.25 14.44
-6 -4 3 141.52 13.57
-6 -4 4 1012.96 49.12
-6 -4 4 1001.75 44.24
-6 4 4 1018.01 48.43
-6 4 4 990.43 46.22
-6 4 5 30.77 4.91
-6 -4 5 22.01 3.26
-6 4 5 36.4 6.55
-6 -4 5 32.31 6.82
-6 4 6 486.43 23.33
-6 -4 6 497.49 22.52
-6 4 6 538.15 27.46
-6 4 7 19.44 5.49
-6 4 7 22.11 5.47
-6 4 8 411.91 22.63
-6 4 8 410.82 23.65
-6 4 9 31.82 6.52
-6 5 -7 53.48 9.01
-6 5 -6 43.95 8.65
-6 -5 -6 42.98 10.17
-6 -5 -6 35.21 10.7
-6 -5 -5 30.69 9.05
-6 5 -5 11.85 6.84
-6 5 -5 26.54 7.37
-6 -5 -5 30.89 6.86
-6 -5 -5 19.99 8.63
-6 5 -4 41.48 8.7
-6 5 -4 53.06 8.64
-6 -5 -4 49.9 9.76
-6 -5 -4 50.83 7.21
-6 -5 -4 51.75 9.82
-6 5 -4 48.77 5.57
-6 -5 -3 25.72 7.76
-6 5 -3 22.27 3.24
-6 5 -3 12.94 6.07
-6 5 -3 10.44 6.25
-6 -5 -3 29.76 5.85
-6 -5 -3 30.18 8.24
-6 -5 -2 164.09 11.48
-6 -5 -2 153.13 14.17
-6 5 -2 140.86 12.82
-6 5 -2 161.55 13.96
-6 5 -1 181.12 14.8
-6 -5 -1 170.25 14.64
-6 -5 -1 174.33 11.75
-6 -5 -1 193 16.27
-6 5 -1 200.21 14.23
-6 -5 0 57.96 9.32
-6 -5 0 45.79 5.25
-6 -5 0 44.98 7.87
-6 5 0 42.93 7.1
-6 -5 1 143.99 9.28
-6 -5 1 137.53 13.78
-6 5 1 173.11 13.93
-6 -5 1 154.9 12.91
-6 5 1 188.12 12.44
-6 5 2 87.56 10.05
-6 -5 2 96.53 11.2
-6 -5 2 108.22 10.03
-6 5 2 84.45 8.15
-6 -5 2 98.66 6.02
-6 -5 2 107.28 11.73
-6 -5 3 744.18 38.86
-6 -5 3 756.54 35.23
-6 5 3 690.3 33.43
-6 5 3 734.06 37.78
-6 -5 4 154.41 13.37
-6 -5 4 154.09 10.15
-6 5 4 130.09 10.39
-6 5 4 124.59 8.22
-6 5 4 107.66 11.07
-6 5 5 315.2 19.78
-6 5 5 331.42 17.52
-6 5 5 312.08 19.8
-6 -5 5 302.5 16.53
-6 -5 5 288.39 20.54
-6 5 6 47.91 7.58
-6 -5 6 48.67 5.01
-6 -5 6 47.6 8.57
-6 5 6 42.46 4.66
-6 5 6 48.03 7.31
-6 -5 7 286.79 14.76
-6 5 7 277.51 17.87
-6 5 7 265.23 18.41
-6 5 8 41.62 7.4
-6 5 8 41.36 6.77
-6 5 9 233.49 16.68
-6 5 10 -0.53 5.18
-6 6 -7 8.6 6.6
-6 6 -6 146.72 14.16
-6 -6 -5 57.23 8.63
-6 6 -5 92.68 12.21
-6 -6 -5 69.32 11.88
-6 -6 -5 86.1 13.41
-6 6 -5 78.78 10.97
-6 -6 -4 220.77 19.05
-6 -6 -4 239.84 19.98
-6 6 -4 214.3 17.67
-6 -6 -4 209.05 15.82
-6 6 -4 251.39 18.91
-6 6 -3 47.23 8.44
-6 -6 -3 26.53 5.92
-6 6 -3 48.74 8.72
-6 -6 -3 34.97 9.1
-6 -6 -3 17.06 7.91
-6 6 -2 288.05 20.63
-6 6 -2 302.56 20.24
-6 -6 -2 302.15 17.93
-6 -6 -2 328.34 22.33
-6 -6 -1 70.87 7.21
-6 6 -1 95.18 10.12
-6 6 -1 87.42 10.42
-6 -6 -1 72.15 10.73
-6 6 0 309.91 20.03
-6 -6 0 312.17 21.26
-6 -6 0 343.38 17.78
-6 -6 0 337.75 23.38
-6 -6 1 34.11 4.34
-6 6 1 40.47 7.02
-6 6 1 34.48 6.9
-6 -6 1 35.87 7.75
-6 -6 2 112.54 10.92
-6 -6 2 108.29 6.64
-6 6 2 93.73 10.72
-6 -6 2 116.71 12.57
-6 6 2 101.15 9.53
-6 6 3 42.6 7.83
-6 6 3 42.57 6.3
-6 -6 3 61.11 7.9
-6 -6 3 65.92 9.74
-6 6 4 106.71 11.09
-6 6 4 121.46 9.03
-6 6 4 117.9 11.8
-6 -6 4 130.18 10.25
-6 -6 4 120.82 12.48
-6 -6 5 138.8 13.36
-6 6 5 109.03 11.49
-6 6 5 112.25 11.52
-6 6 5 112.93 9.44
-6 -6 5 139.98 9.95
-6 6 6 32.5 6.93
-6 -6 6 40.53 5.46
-6 6 6 22.41 6.35
-6 -6 6 40.18 8.45
-6 6 6 34.68 4.69
-6 6 7 2.27 5.39
-6 -6 7 9.97 3.67
-6 6 7 4.08 5.05
-6 6 8 128.14 11.48
-6 6 8 140.92 12.86
-6 6 9 34.4 8.11
-6 6 10 132.2 12.9
-6 7 -6 3.6 6.63
-6 7 -5 265.28 21.03
-6 -7 -5 282.59 23.53
-6 -7 -5 271.23 22.6
-6 -7 -5 322.1 20.13
-6 7 -4 12.09 7.52
-6 -7 -4 18.16 9.07
-6 7 -4 15.01 7.33
-6 -7 -4 12.46 7.96
-6 -7 -4 12.76 5.72
-6 7 -3 228.19 18.28
-6 -7 -3 241.17 20.04
-6 -7 -3 227.44 15.71
-6 -7 -3 210.38 18.88
-6 7 -3 234.19 18.57
-6 -7 -2 -3.57 7.15
-6 7 -2 3.45 6.09
-6 7 -2 -0.62 5.93
-6 -7 -2 2.38 6.76
-6 -7 -2 6.79 4.21
-6 -7 -1 218.67 17.8
-6 7 -1 199 16.23
-6 7 -1 205.64 17.01
-6 -7 -1 215.16 13.74
-6 7 0 52.25 8.28
-6 -7 0 50.68 5.84
-6 -7 0 38.27 8.91
-6 7 1 150.03 13.01
-6 -7 1 170.08 10.25
-6 -7 1 161.06 14.37
-6 7 1 154.17 14.34
-6 -7 2 46.37 4.45
-6 7 2 55.93 8.04
-6 -7 2 59.58 10.13
-6 -7 2 57.51 8.8
-6 7 2 51.84 8.58
-6 -7 3 137.32 11.81
-6 7 3 123.55 11.99
-6 7 3 111.15 12.07
-6 -7 3 144.28 14.13
-6 7 3 102.15 10.3
-6 7 4 24.86 7.23
-6 7 4 24.49 5.34
-6 -7 4 10.84 5.55
-6 7 4 22.03 6.51
-6 -7 4 23 7.52
-6 -7 5 59.92 9.65
-6 7 5 45.92 8.06
-6 -7 5 67.33 7.62
-6 7 5 38.8 8.05
-6 7 6 24.56 6.84
-6 -7 6 20.53 7.81
-6 -7 6 15.58 4.62
-6 7 6 26.99 7.17
-6 7 7 115.2 12.11
-6 7 7 121.26 11.84
-6 7 8 48.14 8.68
-6 7 8 28.51 6.93
-6 7 9 88.02 11.16
-6 -8 -4 50.18 8.31
-6 -8 -4 45.79 11.36
-6 8 -4 49.19 10
-6 -8 -3 30.7 6.43
-6 8 -3 40.05 9.03
-6 8 -3 35.03 9.64
-6 -8 -3 48.43 11.11
-6 8 -2 33.31 8.53
-6 8 -2 35.57 9.2
-6 -8 -2 30.62 5.99
-6 -8 -2 29.25 9.37
-6 -8 -1 0.74 3.77
-6 8 -1 5.07 5.66
-6 -8 -1 5.11 7.51
-6 8 -1 2.52 6.49
-6 -8 0 42.84 5.54
-6 8 0 54.67 8.79
-6 -8 1 51.35 9.85
-6 -8 1 48.57 5.32
-6 8 1 58.1 9.39
-6 8 1 46.53 8.3
-6 -8 1 39.62 9.42
-6 -8 2 69.94 5.64
-6 -8 2 70.62 10.25
-6 8 2 54.46 8.91
-6 -8 2 66.25 11.15
-6 8 2 73.21 10.07
-6 8 3 48.69 8.47
-6 8 3 34.02 8.57
-6 -8 3 46.64 8.22
-6 -8 3 27.6 8.54
-6 8 3 55.14 8.25
-6 8 4 301.73 20.64
-6 8 4 274.79 17.7
-6 8 4 314.21 21.22
-6 -8 4 266.28 18.38
-6 -8 4 288.51 21.57
-6 8 5 10.45 6.27
-6 8 5 22.29 7.3
-6 -8 5 11.24 7.34
-6 -8 5 14.71 5.58
-6 -8 6 210.56 14.42
-6 8 6 198.28 16.28
-6 8 6 184.27 16.27
-6 -8 6 196.97 17.63
-6 8 7 16.21 7.23
-6 8 7 10.87 6.7
-6 -9 -3 52.67 12.83
-6 -9 -3 61.34 8.7
-6 9 -2 26.26 8.67
-6 -9 -2 20.84 9.53
-6 -9 -2 20.85 5.53
-6 9 -2 12.67 8.04
-6 -9 -1 50.31 6.85
-6 -9 -1 46.59 10.95
-6 9 -1 69.49 11.01
-6 9 -1 67.8 10.92
-6 -9 0 5.98 7.79
-6 9 0 8.44 6.79
-6 9 0 4.53 6.99
-6 9 1 33.19 8.42
-6 -9 1 18.41 7.74
-6 -9 1 27.2 8.68
-6 9 1 17.6 7.32
-6 -9 2 66.45 11.54
-6 -9 2 55.88 10.01
-6 9 2 51.28 9.54
-6 9 2 59.44 9.27
-6 -9 3 314.64 21.48
-6 -9 3 304.67 23.49
-6 9 3 315.81 22.59
-6 9 3 302.28 20.18
-6 -9 4 11.28 6.27
-6 9 4 9.01 6.49
-6 9 4 10.03 6.81
-6 -9 4 8.08 6.58
-6 -9 5 202.48 15.44
-6 -9 5 179.93 17.51
-6 9 5 203.89 17.09
-6 9 5 210.13 17.29
-6 9 6 48.64 9.34
-6 9 7 226.66 17.74
-6 -10 -1 17.86 9.65
-6 10 -1 4.91 8.23
-6 10 -1 18.95 8.91
-6 10 0 145.53 15.2
-6 10 0 136.01 14.92
-6 -10 0 137.01 15.57
-6 10 1 64.71 10.58
-6 -10 1 65.65 11.93
-6 10 1 60.9 11.14
-6 10 2 173.25 16.84
-6 10 2 177.29 15.8
-6 10 2 165.34 15.37
-6 -10 2 217.76 18.09
-6 10 3 34.44 9.36
-6 -10 3 45.37 9.8
-6 -10 4 79.35 10.48
-6 10 4 63.59 11.07
-6 10 5 3.72 6.12
-6 10 6 25.12 8.24
-6 11 1 261.79 21.06
-6 -11 1 306.16 23.41
-6 11 2 8.6 7.23
-6 -11 2 3.97 8.27
-6 -11 3 60.81 11.45
-5 0 -9 266.69 20.93
-5 0 -8 4.34 6.65
-5 0 -7 348.12 23.04
-5 0 -7 373.58 23.5
-5 0 -7 380.92 24.91
-5 0 -6 0.53 4.34
-5 0 -6 3.25 5.98
-5 0 -6 -1.08 4.9
-5 0 -5 355.56 21.43
-5 0 -5 366.63 23.26
-5 0 -5 354.45 20.78
-5 0 -5 361.06 21.76
-5 0 -4 1.24 3.61
-5 0 -4 0.85 3.98
-5 0 -4 -0.43 4.18
-5 0 -4 2.83 4.65
-5 0 -3 359.4 20.26
-5 0 -3 322.56 19.26
-5 0 -3 355.17 19.87
-5 0 -2 -0.63 3.09
-5 0 -2 -1.21 3.99
-5 0 -2 -1.43 4.46
-5 0 -2 0.67 3.28
-5 0 -1 82.03 8.29
-5 0 -1 82.62 6.87
-5 0 -1 87.23 8.73
-5 0 -1 77.06 7.09
-5 0 0 0.5 2.85
-5 0 0 -0.4 3.49
-5 0 0 1.06 2.17
-5 0 1 118.57 9.87
-5 0 1 116.77 9.81
-5 0 1 132.71 7.57
-5 0 2 2.98 3.39
-5 0 2 1.97 1.31
-5 0 2 1.56 1.66
-5 0 2 1.57 2.57
-5 0 2 2.17 3.25
-5 0 3 919.51 42.65
-5 0 3 950.83 44.07
-5 0 3 981.01 43.57
-5 0 4 2.03 3.33
-5 0 4 2.21 3.18
-5 0 5 465.8 22.91
-5 1 -9 73.39 11.25
-5 -1 -9 74.45 11.72
-5 1 -8 114.69 13.36
-5 -1 -8 98.74 12.49
-5 -1 -7 29.39 7.03
-5 -1 -7 27.07 7.52
-5 1 -7 32.43 7.14
-5 1 -7 34.5 8.26
-5 -1 -7 43.72 7.69
-5 1 -7 22.51 5.41
-5 1 -7 23.34 6.84
-5 1 -6 159.61 13.71
-5 1 -6 141.34 11.95
-5 1 -6 142.54 14.03
-5 -1 -6 182.4 14.15
-5 1 -6 154.49 13.65
-5 -1 -6 188.14 15.17
-5 -1 -6 187.66 14.29
-5 1 -5 197.07 15.66
-5 1 -5 186.66 13.38
-5 1 -5 183.06 14.12
-5 -1 -5 173.73 14.98
-5 -1 -5 169.33 13.34
-5 -1 -5 165.17 13.44
-5 1 -5 186.01 14.09
-5 1 -4 332.54 19.6
-5 1 -4 326.58 19.72
-5 -1 -4 332.58 21.33
-5 -1 -4 339.53 19.67
-5 1 -4 333.65 19.75
-5 1 -4 299.87 20.85
-5 1 -3 270.43 16.57
-5 1 -3 275.29 16.95
-5 1 -3 263.27 16.99
-5 -1 -3 271.77 16.48
-5 1 -2 397.44 22.45
-5 -1 -2 419.43 23.2
-5 -1 -2 469.97 22.72
-5 1 -2 419.12 22.12
-5 1 -2 420.54 24.25
-5 1 -2 418.39 23.45
-5 1 -1 243.11 15.21
-5 -1 -1 215.94 15.07
-5 1 -1 212.78 14.99
-5 -1 -1 214 13.32
-5 1 -1 236.55 13.32
-5 1 -1 241.94 14.27
-5 -1 -1 217.06 14.54
-5 -1 0 125.72 9.92
-5 -1 0 118.25 7.79
-5 1 0 81.79 8.49
-5 1 0 83.17 6.74
-5 1 1 317.64 18.28
-5 -1 1 303.39 16.07
-5 1 1 287.15 17.54
-5 1 1 307.98 15.9
-5 -1 1 315.33 18.01
-5 -1 1 297.92 18.08
-5 1 1 325.01 15.26
-5 -1 2 280.82 14.63
-5 1 2 301.69 13.91
-5 -1 2 275.68 17.26
-5 1 2 325.39 17.45
-5 1 2 338.01 18.13
-5 1 2 327.05 15.63
-5 -1 2 297.81 17.08
-5 -1 3 189.72 12.01
-5 1 3 174.03 12.15
-5 1 3 163.37 11.41
-5 -1 3 186.98 12.32
-5 -1 4 122.73 10
-5 1 4 156.36 10.68
-5 -1 4 120.62 9.8
-5 1 4 155.88 9.7
-5 1 5 518.92 24.55
-5 1 5 522.95 26.26
-5 1 6 706.95 33.67
-5 -2 -9 10.38 6.89
-5 -2 -8 -4.97 6.78
-5 2 -8 5.21 4.52
-5 2 -8 0.76 6.82
-5 2 -7 18.53 6.47
-5 2 -7 15.78 6.57
-5 2 -7 7.18 6.53
-5 2 -7 16.93 5.31
-5 -2 -7 17.8 6.54
-5 -2 -7 16.89 6.24
-5 -2 -7 17.54 7.23
-5 2 -6 10.22 5.78
-5 2 -6 17.54 6.25
-5 2 -6 9.47 6.18
-5 -2 -6 -1.28 6.41
-5 2 -6 18.07 5.36
-5 -2 -6 6.19 5.09
-5 2 -5 451.43 25.92
-5 2 -5 476.59 28.45
-5 -2 -5 500.87 28.5
-5 2 -5 482.97 27.07
-5 -2 -5 486.02 26.41
-5 2 -5 471.12 27.07
-5 -2 -4 27.13 6.63
-5 2 -4 42.08 6.62
-5 -2 -4 29.29 5.68
-5 2 -4 53.8 7.04
-5 2 -4 51.06 7.46
-5 2 -3 759.49 39.23
-5 2 -3 831.1 39.7
-5 -2 -3 755.98 40.34
-5 2 -3 824.86 38.85
-5 -2 -3 823.1 38.28
-5 2 -2 177.67 12.55
-5 2 -2 171.65 11.24
-5 -2 -1 1821.65 78.19
-5 2 -1 1806.05 78.62
-5 2 -1 1868.15 81.04
-5 -2 -1 1815.7 81.38
-5 2 0 6.73 3.04
-5 2 0 6.05 4.15
-5 -2 0 2.16 4.45
-5 -2 0 -2.55 3.72
-5 -2 0 0.22 2.36
-5 2 1 1056.43 46.28
-5 2 1 1072.37 50.36
-5 -2 1 1096.11 50.69
-5 -2 1 1115.75 46.96
-5 -2 1 1131.94 48.55
-5 2 1 1083.69 49.93
-5 2 1 1081.09 47.17
-5 2 2 87.02 8.37
-5 -2 2 89.31 8.62
-5 2 2 90.44 5.75
-5 -2 2 92.3 6.69
-5 -2 2 86.46 8.51
-5 2 2 90.85 8.23
-5 -2 3 787.98 36.33
-5 -2 3 722.27 32.35
-5 -2 3 809.46 36.48
-5 2 3 753.06 35.98
-5 2 3 708.49 34.66
-5 -2 4 71.66 7.67
-5 -2 4 76.07 7.83
-5 2 4 70.81 7.34
-5 2 4 73.04 6.34
-5 2 5 249.38 15.35
-5 2 5 267.19 13.67
-5 2 6 62.57 6.68
-5 2 7 76.83 7.53
-5 2 7 84.97 7.49
-5 2 8 2.96 3.58
-5 2 9 31.73 5.17
-5 2 10 24.29 4.85
-5 -3 -9 29.01 9.52
-5 3 -8 52.46 7.1
-5 -3 -8 39.13 8.86
-5 3 -8 39.73 9.58
-5 -3 -7 99.7 12.21
-5 3 -7 111.55 10.5
-5 -3 -7 121.38 11.91
-5 3 -7 108.65 12.38
-5 3 -7 108.83 13.13
-5 3 -7 125.87 12.79
-5 -3 -6 73.36 9.2
-5 3 -6 101.64 9.77
-5 3 -6 103 11
-5 3 -6 94.82 10.62
-5 3 -5 31.32 6.38
-5 -3 -5 26.95 6.88
-5 3 -5 36.13 7.04
-5 3 -5 29.54 6.16
-5 -3 -5 37.6 6.73
-5 3 -4 387.11 22.33
-5 3 -4 398.57 22.23
-5 -3 -4 320.64 20.11
-5 -3 -4 319.35 22.3
-5 3 -4 397.88 22.13
-5 -3 -3 26.29 6.5
-5 3 -3 32.27 6.24
-5 -3 -3 30.39 5.46
-5 3 -3 26.84 5.85
-5 3 -2 1319.7 58.35
-5 3 -2 1295.96 59.74
-5 -3 -2 1260.65 57.28
-5 -3 -1 140.8 11.41
-5 -3 -1 148.69 9.54
-5 -3 -1 135.22 11.75
-5 3 -1 122.6 9.84
-5 3 -1 118.65 10.78
-5 3 0 423.74 21.58
-5 -3 0 414.1 24.01
-5 -3 0 410.03 22.56
-5 -3 0 437.21 20.67
-5 -3 1 76.76 8.48
-5 3 1 81.8 8.34
-5 -3 1 86.1 7.79
-5 3 1 71.35 6.54
-5 -3 1 81.59 5.69
-5 -3 2 759.5 35.59
-5 -3 2 702.63 30.07
-5 3 2 651.71 31.23
-5 3 2 666.98 34.4
-5 -3 2 740.61 35.5
-5 -3 2 734.08 32.81
-5 3 3 172.61 9.05
-5 -3 3 162.6 10.14
-5 3 3 188.5 11.75
-5 3 3 190.17 12.78
-5 -3 3 167.4 12.93
-5 -3 3 177.15 13.05
-5 3 4 533.43 28.71
-5 3 4 549.28 27.08
-5 -3 4 586.02 25.8
-5 -3 4 627.26 30.37
-5 -3 5 125.65 7.47
-5 3 5 149.95 10.9
-5 3 5 150.49 10.85
-5 3 5 150.43 8.67
-5 -3 5 116 10.91
-5 3 6 348.99 16.21
-5 3 6 395.03 20.23
-5 3 6 389.08 20.74
-5 3 7 329.4 18.07
-5 3 7 315.43 18.8
-5 3 8 65.91 6.6
-5 3 8 67.12 7.49
-5 3 9 109.26 9.52
-5 3 10 82.96 8.47
-5 4 -8 -2.46 4.16
-5 -4 -8 10.87 7.5
-5 4 -7 146.53 14.69
-5 -4 -7 147.62 13.71
-5 4 -7 140.14 12.25
-5 -4 -7 170.35 15.41
-5 -4 -6 3.71 4.99
-5 4 -6 3.73 5.49
-5 -4 -6 -0.66 5.69
-5 4 -6 2.07 4.26
-5 4 -5 180.61 14.63
-5 -4 -5 170.12 15.13
-5 -4 -5 187.21 13.94
-5 4 -5 164.91 13.77
-5 -4 -4 12.68 6.29
-5 4 -4 20.6 5.63
-5 -4 -4 14.69 4.68
-5 4 -4 18.77 6.05
-5 4 -3 21.94 5.4
-5 4 -3 22.29 5.74
-5 -4 -3 22.73 7.32
-5 -4 -3 32.9 6.91
-5 -4 -3 25.27 4.83
-5 4 -2 62.43 7.59
-5 -4 -2 42.51 7.45
-5 -4 -2 41.61 5.69
-5 4 -2 60.34 7.93
-5 4 -1 9.62 4.9
-5 4 -1 7.35 4.39
-5 -4 -1 9.53 5.51
-5 -4 -1 8.48 3.29
-5 4 0 128.17 10.08
-5 -4 0 143.57 11.69
-5 -4 0 130.32 8.64
-5 -4 0 150.65 12.56
-5 4 1 156.9 10.78
-5 -4 1 165.16 9.28
-5 -4 1 166.31 13.37
-5 -4 1 170.97 12.1
-5 4 1 157.32 12.45
-5 -4 2 5.4 4.79
-5 -4 2 11.54 5.7
-5 -4 2 3.17 3.89
-5 4 2 1.71 3.16
-5 -4 2 6.28 1.68
-5 4 2 3.53 4.16
-5 4 3 720.65 35.02
-5 4 3 706.15 31.71
-5 4 3 698.38 35.15
-5 -4 3 685.57 35.86
-5 -4 3 701.45 32.99
-5 4 4 92.71 7.04
-5 4 4 94.47 8.71
-5 -4 4 47.62 7.82
-5 4 4 78.25 8.01
-5 -4 4 50.65 5.55
-5 4 5 461.81 25.42
-5 4 5 483.06 22.91
-5 4 5 517.08 26.43
-5 -4 5 510.87 27.37
-5 -4 5 473.2 22.87
-5 4 6 260.34 15.76
-5 4 6 218.56 10.62
-5 4 6 247.62 14.95
-5 -4 6 200.28 11.88
-5 4 7 698.34 33.46
-5 -4 7 683.29 31.16
-5 4 7 678.52 34.43
-5 4 8 69.88 7
-5 4 8 64.21 7.89
-5 4 9 450.5 22.06
-5 4 9 420.95 24.31
-5 4 10 13.67 5.55
-5 5 -8 267.85 18.26
-5 -5 -8 268.01 21.25
-5 5 -7 53.07 8.33
-5 -5 -7 66.09 12.42
-5 -5 -7 61.16 10.73
-5 5 -6 121.76 13.03
-5 -5 -6 152.11 15.86
-5 -5 -6 141.2 14.09
-5 -5 -6 151.33 12.79
-5 5 -6 98.44 11.07
-5 5 -5 65.13 8.8
-5 5 -5 71.7 9.93
-5 -5 -5 63.88 8.63
-5 -5 -5 70 10.21
-5 -5 -5 77.95 11.48
-5 -5 -4 138.32 13.78
-5 -5 -4 132.66 10.8
-5 5 -4 109.55 8.41
-5 -5 -4 123.77 12.69
-5 5 -4 105.73 11.23
-5 5 -4 108.25 11.39
-5 5 -3 159.88 12.92
-5 -5 -3 137.71 13.51
-5 5 -3 145.01 8.8
-5 5 -3 145.36 12.72
-5 -5 -3 133.01 10.92
-5 -5 -3 138.12 13.36
-5 5 -2 66.71 8.69
-5 -5 -2 80.24 10.09
-5 -5 -2 78.56 7.38
-5 5 -2 58.61 8.4
-5 5 -1 117.77 11.28
-5 5 -1 129.35 10.79
-5 -5 -1 105.45 8.43
-5 -5 -1 110.64 11.15
-5 -5 0 191.6 14.92
-5 5 0 149.91 12.06
-5 -5 0 179.97 10.63
-5 -5 0 180.71 13.94
-5 -5 1 80.44 9.21
-5 5 1 89.48 8.31
-5 -5 1 78.57 9.8
-5 -5 1 75.46 5.94
-5 -5 2 652.88 28.97
-5 -5 2 646.67 35.18
-5 5 2 692.43 32.12
-5 5 2 708.31 34.87
-5 5 2 699.93 34.13
-5 -5 2 635.33 32.78
-5 -5 3 62.78 8.52
-5 5 3 36.93 5.53
-5 5 3 48.94 7.05
-5 5 3 51.38 7.03
-5 -5 3 49.21 6.51
-5 -5 4 388.99 23.83
-5 5 4 400.63 23.06
-5 5 4 441.18 20.33
-5 -5 4 358.63 20.53
-5 5 4 410.03 23.16
-5 5 5 63.22 5.91
-5 -5 5 65.76 8.58
-5 -5 5 63.63 6.23
-5 5 5 57.75 7.43
-5 5 6 637.67 32.23
-5 -5 6 651.46 29.96
-5 5 6 614.05 32.81
-5 5 6 605.4 27.75
-5 5 7 32.18 5.79
-5 5 7 23.79 5.74
-5 -5 7 33.43 4.94
-5 5 8 280.62 16.23
-5 5 8 241.73 17.19
-5 5 9 56.46 7.94
-5 5 10 186.87 14.49
-5 -6 -8 42.14 9.9
-5 -6 -7 119.07 14.14
-5 6 -7 123.38 12.63
-5 -6 -6 13.64 8.68
-5 6 -6 10.71 7.18
-5 -6 -6 10.95 7.58
-5 6 -6 14.85 4.81
-5 6 -6 21.32 6.6
-5 -6 -6 7.31 5.92
-5 -6 -5 359.24 25.11
-5 6 -5 391.61 24.16
-5 -6 -5 376.12 22.67
-5 6 -5 393.46 25.06
-5 -6 -5 377.03 26.24
-5 6 -5 360.81 20.04
-5 6 -4 19.26 6.17
-5 -6 -4 3.43 6.07
-5 -6 -4 10 5.09
-5 6 -4 11.5 6.17
-5 6 -4 16 3.77
-5 -6 -4 4.3 6.52
-5 -6 -3 345.74 22.97
-5 6 -3 337.24 21.42
-5 6 -3 299.28 15.81
-5 -6 -3 357.08 19.69
-5 -6 -3 366.61 23.36
-5 6 -3 310.05 21.14
-5 -6 -2 65.42 9.96
-5 6 -2 93.45 10.49
-5 -6 -2 80.82 10.75
-5 6 -2 101.19 10.56
-5 -6 -2 75.1 7.87
-5 -6 -1 802.3 37.82
-5 6 -1 817.22 41.49
-5 -6 -1 862.15 42.25
-5 6 -1 763.11 40.99
-5 6 -1 820.73 40.6
-5 6 0 47.92 7.54
-5 6 0 39.47 7
-5 -6 0 51.17 8.28
-5 -6 0 40.83 4.93
-5 -6 0 38.6 7.94
-5 6 1 1056.7 51.46
-5 6 1 1073.52 50.51
-5 -6 1 1103.95 47.43
-5 6 1 1052.79 52.25
-5 -6 1 1127.18 52.16
-5 6 2 23.74 5.75
-5 -6 2 18.07 5.89
-5 6 2 21.37 5.85
-5 -6 2 15.06 6.61
-5 -6 2 14.96 2.67
-5 6 2 25.84 6.35
-5 -6 3 707.13 34.11
-5 6 3 711.74 35.42
-5 6 3 702.13 33.07
-5 -6 3 719.69 36.82
-5 -6 3 661.48 28.83
-5 6 3 671.26 35.53
-5 -6 4 23.32 6.38
-5 6 4 25.34 5
-5 6 4 32.32 6.55
-5 -6 4 27.52 5.68
-5 6 4 22.31 5.9
-5 -6 5 160.66 11.47
-5 6 5 169.04 13.57
-5 -6 5 157.01 13.89
-5 6 5 155.79 12.73
-5 6 6 11.2 2.8
-5 -6 6 12.11 4.15
-5 -6 6 18.32 6.14
-5 6 6 4.76 5.04
-5 6 6 11.76 4.77
-5 -6 7 70.63 6.96
-5 6 7 56.9 8.56
-5 6 7 53.27 7.37
-5 6 8 27.28 6.8
-5 6 8 37.86 6.57
-5 -6 8 45.37 5.95
-5 6 9 28.49 7.12
-5 6 10 11.59 6.23
-5 7 -7 31.98 7.93
-5 -7 -7 42.01 10.17
-5 -7 -6 131.7 15.68
-5 -7 -6 122.19 12.22
-5 7 -6 149.09 13.7
-5 -7 -6 106.56 13.59
-5 -7 -5 55.72 10.43
-5 -7 -5 54.24 8.32
-5 -7 -5 62.02 11.71
-5 7 -5 53.6 9.51
-5 7 -5 60.22 10.62
-5 7 -4 251.88 18.68
-5 7 -4 252.42 18.31
-5 7 -4 236.7 12.95
-5 -7 -4 201.95 18.65
-5 -7 -4 186.34 17.75
-5 -7 -4 186.65 14.9
-5 -7 -3 77.6 10.94
-5 7 -3 47.42 9.13
-5 7 -3 44.13 8.7
-5 7 -3 60.17 9.15
-5 -7 -3 64.14 7.39
-5 -7 -3 63.51 10.27
-5 7 -2 554.73 31.62
-5 -7 -2 576.04 29.07
-5 7 -2 601.7 33.13
-5 -7 -2 534.98 32.9
-5 -7 -2 536.23 32.54
-5 7 -2 589.05 32.48
-5 7 -1 75.1 9.81
-5 -7 -1 97.1 11.53
-5 -7 -1 94.04 8.17
-5 7 -1 70.77 9.75
-5 7 -1 69.46 9.82
-5 -7 0 783.86 36.08
-5 7 0 733.9 38.97
-5 -7 0 794.2 40.88
-5 7 0 778.62 40.08
-5 7 1 18.16 5.89
-5 7 1 9.86 5.26
-5 7 1 14.94 5.48
-5 -7 1 4.35 5.89
-5 7 1 16.85 6.11
-5 -7 1 7.32 2.88
-5 -7 2 545.23 30.84
-5 7 2 468.95 26.97
-5 -7 2 528.81 28.53
-5 7 2 520.31 29.3
-5 -7 2 512.42 23.62
-5 7 2 487.59 27.53
-5 7 3 162.83 13.49
-5 -7 3 160.86 12.93
-5 -7 3 161.95 14.4
-5 -7 3 149.06 8.23
-5 7 3 153.22 13.61
-5 7 3 166.1 12.48
-5 7 3 164.33 12.43
-5 7 4 286.43 17.84
-5 -7 4 340.26 19.29
-5 -7 4 311.77 21.3
-5 7 4 291.49 19.79
-5 7 4 289.75 19.83
-5 7 5 73.92 9.49
-5 -7 5 74.58 9.93
-5 -7 5 73.27 8.16
-5 7 5 71.04 9.41
-5 7 6 32.72 7.37
-5 -7 6 55 7
-5 7 6 37.08 7.11
-5 -7 6 57.1 8.99
-5 7 7 4.8 5.94
-5 7 7 5.89 4.56
-5 -7 7 1.54 3.79
-5 7 8 78.8 10.45
-5 -7 8 92.95 8.79
-5 7 8 67.63 8.64
-5 7 9 77.42 10.51
-5 7 10 44.93 9.05
-5 8 -7 29.75 8.28
-5 8 -6 35.84 8.69
-5 -8 -5 136.1 12.52
-5 -8 -5 114.22 14.85
-5 8 -5 115.82 13.08
-5 8 -5 109.39 14.39
-5 -8 -4 54.57 7.88
-5 8 -4 60.13 10.48
-5 8 -4 54.38 10.26
-5 8 -4 67.92 10.03
-5 -8 -4 74.42 12.56
-5 8 -3 26.34 7.95
-5 -8 -3 20.23 7.91
-5 8 -3 24.02 8.02
-5 -8 -3 24.98 6.14
-5 8 -3 21.53 7.3
-5 8 -2 79.92 10.92
-5 8 -2 66.62 10.26
-5 -8 -2 71.18 7.9
-5 8 -2 63.13 9.45
-5 -8 -2 74.88 11.7
-5 -8 -1 57.12 6.87
-5 -8 -1 43.32 9.64
-5 8 -1 45.67 8.88
-5 8 -1 64.68 9.36
-5 8 0 34.63 7.54
-5 8 0 37.07 8.41
-5 -8 0 53.1 9.44
-5 -8 0 48.83 5.92
-5 8 0 41.45 8.47
-5 -8 1 48.82 5.59
-5 8 1 59.1 8.26
-5 8 1 39.56 8.06
-5 -8 1 57.63 9.7
-5 8 1 55.59 8.69
-5 8 1 43.48 7.81
-5 8 2 45.22 8.33
-5 8 2 45.65 7.98
-5 -8 2 42.59 4.72
-5 -8 2 43.07 9.36
-5 -8 2 42.88 8.27
-5 8 2 43.33 7.59
-5 8 3 152.47 12.23
-5 8 3 141.1 11.74
-5 8 3 139.66 12.66
-5 8 3 132.33 12.89
-5 -8 3 103.1 12.55
-5 -8 3 113.67 7.6
-5 -8 3 136.86 12.26
-5 -8 4 18.61 2.28
-5 8 4 32.14 6.19
-5 8 4 15.12 5.8
-5 -8 4 26.08 7.78
-5 -8 4 20.3 2.43
-5 8 4 28.58 6.49
-5 -8 4 16.44 6.36
-5 8 4 28.55 6.86
-5 -8 5 173.71 15.61
-5 -8 5 158.63 13.02
-5 8 5 167.32 14.66
-5 8 5 179.45 14.77
-5 -8 6 65.31 10.28
-5 8 6 71.87 10.25
-5 -8 6 76.79 8.67
-5 8 6 82.7 10
-5 8 7 196.45 14.67
-5 -8 7 156.13 12.72
-5 8 7 176.51 15.56
-5 8 8 13.99 5.75
-5 8 8 14.88 7.44
-5 8 9 100.16 12.23
-5 9 -5 13.11 7.9
-5 -9 -4 131.15 11.98
-5 -9 -4 117.85 15.59
-5 9 -4 112.13 14.45
-5 9 -4 111.7 13.41
-5 9 -4 110.67 14.1
-5 -9 -3 10.92 5.24
-5 9 -3 8.4 7.71
-5 9 -3 2.26 6.25
-5 9 -3 7.25 6.81
-5 -9 -3 8.37 8.72
-5 9 -2 18.86 7.43
-5 -9 -2 7.14 8.28
-5 -9 -2 5.81 4.65
-5 9 -2 12.93 8.23
-5 9 -2 22.88 7.51
-5 9 -1 28.24 8.66
-5 -9 -1 20.33 5.48
-5 -9 -1 26.25 9.34
-5 9 -1 21.17 7.71
-5 9 0 -2.64 5.93
-5 9 0 5.67 5.93
-5 9 0 0.64 6.21
-5 -9 0 3.55 7.31
-5 -9 0 6.72 3.96
-5 9 1 13.21 6.25
-5 -9 1 23.4 4.68
-5 9 1 22.15 7.09
-5 -9 1 18.88 7.91
-5 9 1 25.91 8.12
-5 9 1 17.95 6.32
-5 9 2 193.61 15.61
-5 9 2 212.42 17.25
-5 9 2 188.28 15.25
-5 9 2 189.46 15.53
-5 -9 2 207.31 16.61
-5 -9 2 177.95 11.49
-5 9 3 14.65 5.62
-5 -9 3 21.46 6.85
-5 9 3 20.13 6.65
-5 -9 3 25.79 3.83
-5 9 3 21.84 6.73
-5 9 4 126.13 12.82
-5 -9 4 125.35 12.41
-5 9 4 123.08 12
-5 9 4 120.64 11.11
-5 9 4 140.77 13.69
-5 9 5 9.47 4.86
-5 9 5 1.28 5.52
-5 -9 5 15.55 6.18
-5 9 5 6.78 6
-5 9 6 486.76 30.22
-5 9 6 491.1 29.22
-5 -9 6 528.18 28.44
-5 9 7 57.3 10.07
-5 9 7 49.13 8.53
-5 -9 7 59.17 8.41
-5 10 -3 39.85 10.08
-5 -10 -3 40.73 11.34
-5 -10 -3 42.67 7.68
-5 10 -2 73.79 11.81
-5 -10 -2 39.28 7.26
-5 -10 -2 35.08 10.5
-5 10 -2 47.93 9.96
-5 10 -2 65 11.8
-5 -10 -1 106.01 10.06
-5 10 -1 110.03 13.18
-5 -10 -1 126.92 14.98
-5 10 -1 98.25 13.33
-5 10 0 3.1 5.57
-5 -10 0 6.25 4.36
-5 -10 0 9.3 7.97
-5 10 0 10.02 6.46
-5 10 0 8.48 7.89
-5 10 0 -0.72 6.76
-5 -10 1 149.35 16.79
-5 -10 1 167.53 11.6
-5 10 1 159.52 14.69
-5 10 1 155.69 15.55
-5 10 1 154.33 14.86
-5 -10 1 169.16 16.19
-5 10 2 8.11 5.88
-5 10 2 4.49 7.5
-5 -10 2 11.99 7.57
-5 -10 2 10 7.73
-5 10 2 1.48 6.22
-5 10 2 5.95 5.49
-5 10 3 175.56 14.76
-5 10 3 188.15 15.82
-5 10 3 155.26 15.93
-5 -10 3 182.05 17.39
-5 -10 3 219.28 17.08
-5 -10 4 67.27 10.44
-5 10 4 44.57 9.13
-5 10 4 46.81 9.19
-5 10 4 53.91 8.02
-5 -10 4 54.99 9.42
-5 -10 5 85.06 10.24
-5 10 5 78.54 11.57
-5 10 5 73.86 11.26
-5 -10 5 86.66 11.92
-5 10 6 15.9 7.03
-5 -10 6 25.5 7.59
-5 10 7 124.21 13.16
-5 -11 -2 223.91 16.08
-5 -11 -1 3.51 8.67
-5 11 -1 0.82 8.5
-5 11 -1 -0.82 7.46
-5 11 0 213.8 18.72
-5 -11 0 176.28 18.41
-5 11 0 180.26 17.22
-5 11 0 215.27 17.02
-5 11 1 37.7 9.22
-5 -11 1 36.48 10.46
-5 11 1 34.23 8.73
-5 11 1 53.2 10.7
-5 11 1 35.34 8.46
-5 11 2 326.06 23.35
-5 11 2 348.73 24.48
-5 -11 2 394.87 25.62
-5 11 2 344.55 24.95
-5 11 2 333.7 23.51
-5 11 3 58.85 10.29
-5 -11 3 34.84 9.02
-5 11 3 55.26 10.74
-5 11 3 37.56 8.16
-5 11 4 74.83 11.66
-5 -11 4 70.49 10.98
-5 -11 5 0.66 6.65
-5 11 5 0.74 6.65
-5 11 6 12.07 7.29
-5 -11 6 21.19 7.53
-5 12 1 29.89 9.53
-5 12 2 66.06 11.39
-4 0 -10 278.68 20.94
-4 0 -9 -3.96 6.13
-4 0 -8 217.35 16.93
-4 0 -8 221.7 17.17
-4 0 -7 5.93 5.24
-4 0 -7 -1.56 4.76
-4 0 -7 1.1 4.65
-4 0 -6 1278.73 59.3
-4 0 -6 1231.27 57.05
-4 0 -6 1338.94 60.93
-4 0 -6 1282.61 59.5
-4 0 -5 2.5 3.65
-4 0 -5 5.69 4.41
-4 0 -5 -0.86 3.76
-4 0 -5 -0.33 3.49
-4 0 -4 157.7 11.47
-4 0 -4 158.97 11.08
-4 0 -4 163.66 12.86
-4 0 -4 155.42 11.5
-4 0 -3 1.64 3.17
-4 0 -3 -0.97 3
-4 0 -3 -0.32 2.85
-4 0 -2 824.24 38.41
-4 0 -2 856.17 39.2
-4 0 -1 0.35 2.72
-4 0 -1 0.94 2.68
-4 0 -1 -0.24 2.43
-4 0 0 360.15 17.85
-4 0 0 363.88 19.44
-4 0 1 4.41 3.01
-4 0 1 1.06 1.4
-4 0 1 0.84 2.65
-4 0 2 542.69 26.39
-4 0 2 546.4 26.02
-4 0 2 533.93 25.38
-4 0 3 1.92 2.52
-4 0 3 2.91 2.35
-4 0 3 1.14 2.57
-4 0 4 532.29 25.96
-4 0 4 538.18 25.03
-4 0 10 617.53 33.22
-4 0 11 1.8 6.37
-4 0 12 507.62 30.33
-4 1 -10 13.51 7.52
-4 -1 -10 14.26 7.59
-4 -1 -9 81.3 10.89
-4 1 -9 106.26 12.21
-4 -1 -8 88.95 10.91
-4 -1 -8 88.22 10.53
-4 1 -8 95.64 11.26
-4 1 -8 97.3 10.86
-4 1 -7 223.26 16.44
-4 -1 -7 181.15 15.08
-4 -1 -7 184.19 14.33
-4 -1 -7 181.43 14.6
-4 1 -7 204.1 15.49
-4 1 -7 188.99 12.77
-4 1 -6 142.1 12.96
-4 1 -6 122.06 10.3
-4 1 -6 135.5 12.05
-4 -1 -6 153.92 12.1
-4 -1 -6 170.6 13.71
-4 1 -6 140.77 12.21
-4 -1 -5 427.93 23.96
-4 1 -5 390.14 22.61
-4 1 -5 398.99 23.79
-4 1 -5 385.09 21.44
-4 1 -5 381.79 22.52
-4 -1 -5 421.18 22.69
-4 1 -4 217.71 14.23
-4 -1 -4 208.53 13.73
-4 1 -4 193.44 14.77
-4 1 -4 219.6 14.28
-4 1 -4 216.22 13.67
-4 -1 -4 227.62 15.44
-4 -1 -3 583.64 29.42
-4 1 -3 508.87 27.47
-4 -1 -3 622.85 27.82
-4 1 -3 528.64 27.61
-4 1 -3 520.66 27.39
-4 -1 -3 578.02 27.72
-4 -1 -2 169.78 11.41
-4 1 -2 176.95 11.55
-4 -1 -2 159.84 10.75
-4 1 -2 181.31 11.29
-4 1 -2 195.63 12.22
-4 -1 -1 406.01 19.79
-4 1 -1 327 18.45
-4 1 -1 310.2 19.41
-4 1 -1 334.71 19.23
-4 -1 -1 393.4 20.37
-4 -1 -1 407.13 18.48
-4 1 -1 356.39 18.17
-4 1 0 263.4 13.53
-4 -1 0 264.86 13.62
-4 1 0 272.96 15.51
-4 -1 0 260.28 15.54
-4 1 1 1008.53 42.05
-4 1 1 1000.92 44.91
-4 1 1 992.52 42.59
-4 -1 1 951.42 44.76
-4 -1 1 916.26 42.13
-4 -1 1 973.65 44.6
-4 1 1 1034.95 44.58
-4 -1 1 1031.63 42.97
-4 1 2 800.89 35.95
-4 1 2 793.24 33.81
-4 -1 2 758.41 35.55
-4 -1 2 731.68 32.93
-4 -1 2 755.32 35.43
-4 1 2 813.18 35.22
-4 1 3 1043.8 47.01
-4 1 3 1108.67 46.1
-4 -1 3 1034.53 46.79
-4 -1 3 1006.93 46.94
-4 1 4 147.92 9.87
-4 -1 4 127.8 9.76
-4 -1 4 129.38 9.24
-4 1 5 812.09 37.36
-4 1 5 830.74 37.59
-4 1 6 82.89 6.73
-4 1 6 87.38 7.04
-4 1 7 240.08 13.6
-4 1 8 225.71 12.93
-4 1 9 384.15 19.68
-4 1 9 403.92 23.84
-4 1 10 123.87 8.87
-4 -1 10 157.11 10.66
-4 1 10 146.41 13.14
-4 1 11 190.61 16.22
-4 1 12 17.18 7.57
-4 2 -10 182.42 16.77
-4 -2 -10 159.23 15.61
-4 -2 -9 3.85 5.72
-4 2 -9 0.7 6.7
-4 -2 -8 23.82 6.43
-4 -2 -8 17.23 5.95
-4 2 -8 10.63 6.33
-4 2 -8 17.95 6.79
-4 -2 -8 6.08 5.76
-4 2 -8 20.05 6.88
-4 2 -8 18.03 4.83
-4 2 -7 5.19 4.93
-4 -2 -7 4.58 5.1
-4 2 -7 1.11 3.75
-4 -2 -7 5.18 4.77
-4 -2 -6 125.35 10.88
-4 -2 -6 110.82 11.33
-4 2 -6 125.08 10.18
-4 2 -6 128.83 11.69
-4 2 -5 97.99 9.64
-4 2 -5 108.7 9.96
-4 -2 -5 70.11 8.8
-4 -2 -5 61.37 7.72
-4 2 -5 103.02 8.79
-4 2 -4 182.46 12.62
-4 -2 -4 157.82 11.53
-4 2 -4 155.76 11.73
-4 2 -4 162.56 12.27
-4 -2 -4 160.63 12.83
-4 -2 -3 27.65 5.57
-4 2 -3 6.58 3.74
-4 -2 -3 21.61 4.04
-4 2 -3 2.42 3.5
-4 2 -3 5.57 3.77
-4 2 -2 1832.28 79.61
-4 2 -2 1822.09 78.98
-4 2 -2 1880.69 80.22
-4 -2 -2 1805.09 78.4
-4 2 -1 11.88 3.34
-4 -2 -1 1.94 2.34
-4 2 -1 11.56 3.77
-4 -2 0 1287.15 55.98
-4 2 0 1297.32 56.47
-4 -2 0 1319.66 59.04
-4 -2 0 1376.04 57.82
-4 -2 1 402.3 21.27
-4 -2 1 403.51 19.92
-4 -2 1 398.63 22.63
-4 2 1 488.35 23.44
-4 2 1 482.81 20.86
-4 2 1 486.56 19.72
-4 2 2 2916.52 122.85
-4 2 2 2869.63 119.65
-4 -2 2 2915.18 123.22
-4 2 2 3002.01 121.95
-4 -2 2 2979.94 123.18
-4 -2 2 2868.03 120.53
-4 2 3 135.8 9.47
-4 -2 3 132.41 9.82
-4 2 3 152.83 9.86
-4 -2 3 124.76 7.35
-4 -2 3 130.68 9.91
-4 2 3 152.84 8.86
-4 -2 4 1657.56 72.45
-4 -2 4 1607.88 68.42
-4 2 4 1716.88 69.57
-4 2 4 1619.38 71.4
-4 2 4 1689.89 71.58
-4 2 5 26.49 2.61
-4 2 5 27.02 4.39
-4 -2 5 19.01 2.3
-4 2 5 30.43 4.32
-4 2 6 571.84 27.22
-4 2 6 538.67 26.5
-4 2 7 30.02 4.85
-4 2 7 31.8 4.14
-4 2 8 78.41 7.36
-4 2 9 48.94 8.33
-4 2 9 50.14 6.49
-4 -2 10 1.52 3.78
-4 2 10 10.42 6.23
-4 2 10 1.26 3.74
-4 2 11 11.99 7.56
-4 -3 -10 101.53 12.29
-4 3 -10 91.93 12.36
-4 3 -9 112.58 13.13
-4 -3 -9 105.87 12.34
-4 -3 -8 104.95 11.32
-4 3 -8 102.39 11.97
-4 -3 -8 89.57 11.12
-4 3 -8 94.51 8.97
-4 3 -8 118.59 12.01
-4 -3 -7 41.54 7.49
-4 -3 -7 38.12 7.51
-4 3 -7 45.88 6.68
-4 3 -7 45.25 7.98
-4 -3 -6 292.89 19.03
-4 3 -6 322.33 20.27
-4 3 -6 299.51 18.29
-4 -3 -6 294.45 20.16
-4 3 -5 171.67 13.02
-4 3 -5 159.68 11.98
-4 3 -5 135.48 12.22
-4 -3 -5 155.17 11.76
-4 -3 -5 147.07 12.9
-4 3 -4 356.09 20.08
-4 -3 -4 339.44 20.98
-4 3 -4 337.06 20.15
-4 3 -4 324.13 20.18
-4 -3 -4 340.41 19.26
-4 -3 -3 187.25 14.89
-4 -3 -3 207.42 13.66
-4 3 -3 277.86 15.6
-4 3 -3 278.46 15.97
-4 3 -2 343.66 19.8
-4 3 -2 341.2 19
-4 -3 -2 354.57 18.35
-4 -3 -1 431.82 22.22
-4 -3 -1 448.87 24.43
-4 3 -1 501.75 25.1
-4 3 -1 524.53 24
-4 -3 0 258.24 13.01
-4 3 0 232.77 13.85
-4 -3 0 259.82 15.88
-4 -3 0 258.02 15.14
-4 -3 1 1412.82 59.48
-4 3 1 1414.23 63.04
-4 3 1 1408.32 60.83
-4 -3 1 1461.29 63.71
-4 -3 1 1410.33 61.8
-4 -3 2 216.55 13.73
-4 3 2 190.01 12.5
-4 3 2 185.14 12.72
-4 -3 2 212.87 11.89
-4 -3 2 214.95 9.49
-4 -3 2 239.82 14.28
-4 3 2 175.22 10.72
-4 3 3 362.77 19.5
-4 -3 3 374.26 20.39
-4 3 3 347.97 19.34
-4 3 3 351.95 16.78
-4 -3 3 372.99 17.83
-4 3 4 124.59 9.77
-4 -3 4 149.2 8.34
-4 -3 4 151.93 11.07
-4 3 4 137.26 8.23
-4 3 4 122.38 9.55
-4 -3 5 450.42 19.07
-4 3 5 375.55 20.25
-4 -3 5 438.19 22.71
-4 3 5 367.31 17.67
-4 3 5 395.3 21.2
-4 3 6 90.95 7.33
-4 3 6 102.86 8.58
-4 -3 6 77.09 5.97
-4 3 7 77.15 7.82
-4 3 7 78.97 6.64
-4 3 8 74.65 7.62
-4 3 8 69.31 5.46
-4 3 9 94.79 8.72
-4 -3 9 78.31 5.85
-4 3 9 101.91 10.98
-4 -3 10 16.91 6.58
-4 3 10 29.04 5.52
-4 3 10 14.81 6.93
-4 -3 11 32.3 8.3
-4 3 11 34.21 8.68
-4 -4 -9 15.04 7.32
-4 4 -8 174.84 15.59
-4 4 -8 150.82 14.02
-4 4 -8 147.76 11.92
-4 -4 -8 158.11 14.31
-4 -4 -8 178.3 14.62
-4 4 -7 103.59 11.29
-4 4 -7 96.55 9.33
-4 -4 -7 68.07 9.47
-4 -4 -7 80.05 9.34
-4 4 -7 103.15 10.97
-4 -4 -6 651.38 33.1
-4 4 -6 627.19 33.92
-4 -4 -6 659.36 34.3
-4 4 -6 575.72 31.71
-4 4 -5 37.01 6.46
-4 -4 -5 24.86 5.57
-4 -4 -5 27.94 6.46
-4 4 -5 39.46 6.89
-4 4 -4 507.2 27.68
-4 -4 -4 544.22 29.12
-4 4 -4 494.05 27.72
-4 -4 -4 533.31 27.08
-4 -4 -3 71.94 8.82
-4 4 -3 93.4 8.97
-4 -4 -3 62.11 6.92
-4 4 -3 80.13 8.53
-4 -4 -3 79.65 9.39
-4 4 -2 252.07 16.47
-4 -4 -2 267.09 17.26
-4 4 -2 250.23 15.83
-4 -4 -2 259.56 17.25
-4 -4 -2 267.11 14.88
-4 4 -1 68.82 6.8
-4 -4 -1 55.7 7.15
-4 4 -1 56.37 7.08
-4 -4 -1 51.72 5.21
-4 4 -1 57.75 7.24
-4 -4 0 62.46 7.76
-4 -4 0 64.94 5.43
-4 4 0 72.56 7.51
-4 4 0 70.64 6.57
-4 -4 0 76.62 7.71
-4 -4 1 149.81 11.36
-4 4 1 111.18 9.09
-4 -4 1 143 10.56
-4 4 1 114.84 9.99
-4 -4 1 154.34 7.92
-4 4 2 193.94 11.16
-4 -4 2 181.8 13.21
-4 -4 2 174.56 8.72
-4 4 2 200.93 12.73
-4 -4 2 169.75 11.49
-4 4 2 193.32 12.74
-4 -4 3 67.45 7.85
-4 -4 3 68.75 6.25
-4 4 3 54.16 5.29
-4 4 3 54.77 6.54
-4 4 3 61.48 6.81
-4 4 4 96.56 8.45
-4 4 4 102.82 8.78
-4 -4 4 85.72 6.91
-4 -4 4 95.77 9.22
-4 -4 5 71.5 5.6
-4 4 5 39.32 3.64
-4 -4 5 82.1 8.27
-4 4 5 28.77 5.7
-4 4 5 32.54 5.38
-4 -4 6 807.72 38.48
-4 4 6 889.92 39.76
-4 4 6 895.14 41.23
-4 4 7 9.46 4.58
-4 4 7 13.86 3.69
-4 -4 7 8.46 3.16
-4 4 8 281.93 17.03
-4 4 8 246.75 14.12
-4 4 9 16.17 6.1
-4 4 9 7.92 5.02
-4 -4 9 15.08 2.47
-4 4 10 337.78 23.3
-4 4 10 362.89 20.91
-4 -4 10 331.69 21.18
-4 4 11 2.91 7.01
-4 -4 11 7.94 6.46
-4 -5 -9 189.59 17
-4 -5 -8 36.53 8.29
-4 5 -8 38.9 7.81
-4 5 -8 35.56 6.37
-4 -5 -7 239.22 17.26
-4 5 -7 248.54 16.76
-4 -5 -7 250.28 18.63
-4 5 -7 237.9 18.61
-4 5 -6 103.57 11.68
-4 -5 -6 114.78 10.62
-4 -5 -6 107.74 12.87
-4 5 -6 90.2 10.04
-4 -5 -6 106.74 11.39
-4 5 -5 782.7 39.9
-4 -5 -5 782.3 39.08
-4 5 -5 760.12 40.4
-4 -5 -5 800.69 41.23
-4 -5 -5 861.63 43.2
-4 5 -4 169.44 13.79
-4 -5 -4 171.94 14.3
-4 -5 -4 177.97 15.11
-4 5 -4 169.74 13.37
-4 5 -4 160.63 10.76
-4 -5 -4 180.33 12.56
-4 5 -3 211.83 15.87
-4 -5 -3 278.83 15.68
-4 5 -3 229.97 16.27
-4 5 -3 207.81 16.57
-4 -5 -3 302.63 18.74
-4 5 -3 225.06 12.8
-4 -5 -3 294.8 18.46
-4 5 -2 108.44 10.76
-4 -5 -2 115.85 11.3
-4 5 -2 127.45 10.78
-4 5 -2 123.12 10.85
-4 -5 -2 118.86 9.06
-4 -5 -2 121.47 11.35
-4 5 -2 117.47 6.94
-4 -5 -1 247.01 13.31
-4 -5 -1 256.9 16.54
-4 5 -1 179.59 14.51
-4 5 -1 215.1 15.12
-4 5 -1 211.11 14.64
-4 5 0 65.02 7.67
-4 -5 0 79.88 8.79
-4 -5 0 64.48 8.58
-4 5 0 81.07 7.81
-4 -5 0 76.53 6.03
-4 -5 1 159.29 12.04
-4 5 1 173.96 11.76
-4 5 1 172.77 12.7
-4 5 1 168.24 12.08
-4 -5 1 166.72 9.42
-4 -5 2 18.31 5.21
-4 5 2 23.17 4.82
-4 5 2 19.82 4.89
-4 -5 2 15.48 2.31
-4 5 2 30.58 4.95
-4 -5 2 16.38 5.46
-4 5 2 27.64 5.53
-4 5 3 22.95 4.61
-4 5 3 25.77 4.98
-4 -5 3 41.86 6.76
-4 -5 3 47.07 6.02
-4 5 3 22.51 5.21
-4 5 3 23.73 5.25
-4 -5 3 40.23 2.58
-4 5 4 157.22 11.83
-4 5 4 156.34 11.54
-4 -5 4 139.38 10.21
-4 5 4 147.22 10.13
-4 -5 4 144.38 12.07
-4 -5 5 393.74 21.2
-4 5 5 431.3 23.55
-4 -5 5 388.01 23.68
-4 5 5 455.14 23.15
-4 5 6 33.43 6.22
-4 5 6 33.86 5.55
-4 -5 6 42.11 5.38
-4 -5 7 69.26 6.94
-4 5 7 82.51 7.66
-4 5 7 77.3 8.96
-4 5 8 69.16 8.6
-4 5 8 68.94 6.61
-4 -5 8 77.38 7.39
-4 5 9 376.94 18.32
-4 5 9 341.06 23.7
-4 5 9 361.96 22.14
-4 5 10 80.29 11.35
-4 5 10 80.71 9.76
-4 -6 -9 36.74 9.56
-4 6 -8 7.9 5.19
-4 -6 -8 10.25 7.54
-4 6 -8 7.62 5.58
-4 -6 -7 8.09 5.46
-4 6 -7 9 5.38
-4 6 -7 9.79 5.51
-4 -6 -7 14.49 6.96
-4 -6 -7 6.86 7.52
-4 6 -7 13.75 7.13
-4 -6 -6 111.62 11.25
-4 6 -6 116.45 12.6
-4 -6 -6 110.56 13.48
-4 -6 -6 119.72 12.76
-4 6 -6 118.37 10.24
-4 6 -6 112.43 11.46
-4 -6 -5 123.92 13.86
-4 6 -5 130.04 12.96
-4 -6 -5 119.02 12.82
-4 -6 -5 139.72 11.72
-4 6 -5 122.8 11.94
-4 6 -5 134.91 10.07
-4 6 -5 141.62 13.97
-4 6 -4 226.25 16.79
-4 -6 -4 223.5 17.87
-4 6 -4 221.83 13.32
-4 -6 -4 226.48 15.38
-4 6 -4 238.11 16.9
-4 -6 -4 222.53 17.27
-4 6 -3 199.69 15.21
-4 -6 -3 166.39 14.59
-4 -6 -3 178.23 15.25
-4 -6 -3 156.2 11.91
-4 6 -3 169.88 10.23
-4 6 -3 169.39 13.9
-4 6 -3 184.24 14.28
-4 -6 -2 755.43 39.33
-4 -6 -2 761.68 35.98
-4 6 -2 767.79 38.23
-4 -6 -2 782.68 39.58
-4 6 -2 711.33 38.05
-4 6 -2 728.6 38.55
-4 6 -1 2.49 4.51
-4 6 -1 4.99 5.27
-4 -6 -1 4.68 5.55
-4 -6 -1 4.33 3.27
-4 6 0 735.1 37.91
-4 6 0 770.63 37.73
-4 -6 0 773.52 35.03
-4 6 0 790.25 37.6
-4 -6 0 735.63 38.33
-4 -6 1 103.68 10.47
-4 6 1 121.61 10.21
-4 6 1 110.94 10.53
-4 -6 1 97.76 7.31
-4 6 1 121.02 10.51
-4 -6 2 907.28 43.37
-4 6 2 869.87 42.52
-4 6 2 901.87 43.98
-4 -6 2 887.21 44.88
-4 -6 2 928.27 39.32
-4 6 2 887.01 42.43
-4 -6 3 168.08 8.43
-4 -6 3 167.48 13.69
-4 6 3 136.8 11.05
-4 6 3 146.03 12.03
-4 -6 3 167.98 12.25
-4 6 3 136.72 11.9
-4 6 3 153.76 11.06
-4 6 4 794.57 38.71
-4 -6 4 809.33 37.19
-4 -6 4 750.84 32.49
-4 6 4 738.55 35.77
-4 -6 4 767.32 32.56
-4 6 4 813.6 38.55
-4 -6 4 758.94 39.19
-4 6 4 805.25 36.7
-4 6 5 3.89 4.23
-4 6 5 9.28 5.25
-4 -6 5 2.69 4.46
-4 -6 5 10.27 4.65
-4 -6 6 262.84 15.07
-4 6 6 248.73 15.68
-4 6 6 215.59 11.57
-4 6 7 64.87 8.65
-4 -6 7 61.94 7.13
-4 6 7 66.94 7.42
-4 -6 8 164.87 11.91
-4 6 8 149.77 13.35
-4 6 8 174.41 11.71
-4 6 9 3.4 6.12
-4 6 10 40.6 7.84
-4 6 11 0.59 5.76
-4 7 -8 32.69 7.58
-4 -7 -8 38.2 9.45
-4 -7 -7 28.02 9.66
-4 -7 -7 29.47 8.67
-4 7 -7 31.8 7.5
-4 7 -6 20.16 8.32
-4 7 -6 16.37 6.13
-4 -7 -6 17.76 7.78
-4 -7 -6 21.05 9.17
-4 7 -6 21.86 7.92
-4 -7 -6 21.51 6.39
-4 7 -6 20.5 5.69
-4 7 -5 62.27 7.1
-4 -7 -5 38.59 9.12
-4 -7 -5 48.92 7.61
-4 7 -5 47 9.27
-4 -7 -5 46.22 9.79
-4 7 -5 50.06 8.49
-4 -7 -4 8.71 7.09
-4 7 -4 11.88 7.1
-4 -7 -4 9.15 4.75
-4 -7 -4 11.02 6.47
-4 7 -4 10.55 4.25
-4 7 -4 12.47 5.93
-4 7 -3 485.8 27.96
-4 7 -3 489.08 28.35
-4 7 -3 495.04 27.82
-4 -7 -3 428.57 24.84
-4 -7 -3 436.94 27.64
-4 -7 -3 460.07 28.61
-4 -7 -2 16.76 4.6
-4 7 -2 12.75 5.98
-4 7 -2 17.13 6.11
-4 7 -2 15.27 5.52
-4 -7 -2 18.05 7.33
-4 7 -1 638.28 32.41
-4 7 -1 600.14 31.67
-4 -7 -1 567.72 32.26
-4 -7 -1 539.74 28.38
-4 7 0 32.75 6.09
-4 -7 0 37.86 5.15
-4 7 0 40.33 7.86
-4 -7 0 48.57 8.45
-4 7 0 36.84 6.75
-4 7 1 1062.7 52.1
-4 7 1 1116.22 52.39
-4 -7 1 1140.23 53.37
-4 -7 1 1124.22 49.08
-4 7 1 1104.77 52.41
-4 7 1 1100.63 53.28
-4 -7 2 72.13 6.02
-4 -7 2 66.55 8.72
-4 7 2 73.48 8.97
-4 7 2 76.6 8.85
-4 7 2 82.14 8.7
-4 -7 3 569.03 25.25
-4 7 3 551.46 29.82
-4 -7 3 557.91 29.46
-4 7 3 526.39 28.71
-4 7 3 556.98 30.06
-4 7 3 516.27 27.95
-4 -7 4 67.59 5.03
-4 7 4 83.64 9.24
-4 7 4 87.88 7.85
-4 7 4 81.06 9.06
-4 -7 4 66.72 8.21
-4 -7 4 67.34 5.09
-4 7 4 92.09 8.85
-4 7 5 496.41 28.67
-4 7 5 524.44 28.36
-4 7 5 466.02 25.26
-4 -7 5 531.73 22.77
-4 -7 5 552.33 27.76
-4 -7 6 153.26 11.89
-4 7 6 169.69 9.76
-4 7 6 196.93 14.74
-4 -7 6 141.5 7.52
-4 7 6 183.54 13.26
-4 7 7 96.49 11.13
-4 -7 7 101.79 5.37
-4 -7 7 127.39 10.35
-4 7 7 103.5 9.96
-4 7 8 44.98 8.34
-4 -7 8 21.41 5.61
-4 7 8 36.99 6.34
-4 7 9 82.7 10.81
-4 -7 9 83.89 9.14
-4 7 10 56.01 9.89
-4 8 -7 39.48 8.71
-4 -8 -6 118.26 11.86
-4 -8 -6 136.54 15.85
-4 8 -6 102.43 13.94
-4 8 -6 113.97 13.93
-4 8 -6 109.68 12.59
-4 8 -5 28.43 7.89
-4 8 -5 32.31 6.1
-4 8 -5 34.65 9.13
-4 -8 -5 47.39 10.17
-4 -8 -5 39.6 7.32
-4 8 -4 92.93 12.03
-4 -8 -4 90.49 9.72
-4 -8 -4 95.17 12.88
-4 8 -4 78.23 10.58
-4 8 -4 90.67 11.54
-4 8 -3 5.94 6.62
-4 -8 -3 0.73 6.52
-4 -8 -3 6.61 4.37
-4 8 -3 5.11 5.74
-4 8 -3 6.92 6.06
-4 -8 -2 304.82 18.01
-4 8 -2 283.7 20.4
-4 -8 -2 309.84 21.58
-4 8 -2 282.29 20.38
-4 8 -2 265.39 19.79
-4 8 -1 39.88 8.27
-4 8 -1 47.36 7.07
-4 8 -1 37.93 7.69
-4 -8 -1 36.82 8.52
-4 -8 -1 34.66 5.68
-4 -8 0 42.05 5.68
-4 -8 0 32.9 7.98
-4 8 0 34.01 7.42
-4 8 0 33.6 7.19
-4 8 0 41.5 8.09
-4 8 0 37.56 6.73
-4 8 1 11.1 5.64
-4 -8 1 5.19 6.13
-4 -8 1 4.94 3.4
-4 8 1 12.29 5.41
-4 8 1 14.79 7.07
-4 8 1 23.32 6.29
-4 -8 2 171.11 14.51
-4 -8 2 171.54 11.09
-4 8 2 171.91 14.2
-4 8 2 212.58 14.55
-4 8 2 195.08 15.13
-4 8 3 66 8.68
-4 -8 3 54.13 8.41
-4 8 3 68.92 7.99
-4 -8 3 56.87 5.54
-4 8 4 59.89 7.24
-4 8 4 56.26 8.32
-4 8 4 48.23 7.88
-4 -8 4 44.73 7.6
-4 -8 4 47.77 4.89
-4 -8 4 51.17 4.9
-4 8 4 59.35 8.55
-4 8 5 74.89 9.37
-4 -8 5 54.03 4.6
-4 -8 5 55.87 8.02
-4 -8 5 48.25 4.63
-4 8 5 66 7.02
-4 8 5 68.97 8.6
-4 8 6 199.23 12.63
-4 8 6 221.69 17.07
-4 8 6 259.16 16.72
-4 -8 6 236.52 15.78
-4 -8 6 208.18 10.84
-4 8 6 220.4 12.98
-4 -8 7 7.62 5.13
-4 8 7 11.65 6.25
-4 8 7 17.94 6
-4 -8 8 240.61 16.4
-4 8 8 229.88 18.35
-4 8 8 241.11 16.1
-4 -8 9 145.7 12.46
-4 8 9 144.41 14.39
-4 9 -7 103 12.41
-4 9 -6 34.69 8.67
-4 9 -5 172.25 16.85
-4 -9 -5 155.44 13.51
-4 -9 -5 167.95 17.52
-4 9 -5 134.38 14.35
-4 9 -4 19.31 9.04
-4 -9 -4 24.51 9.04
-4 9 -4 12.79 7.2
-4 9 -4 19.86 7.45
-4 -9 -4 9.83 5.26
-4 9 -3 127.17 14.59
-4 -9 -3 146.18 11.98
-4 9 -3 113.75 13.43
-4 -9 -3 143.52 15.65
-4 9 -3 118.8 13.4
-4 9 -2 94.61 11.67
-4 9 -2 104.98 12.36
-4 -9 -2 111.07 13.36
-4 9 -2 97.56 12.75
-4 -9 -2 94.47 9.55
-4 9 -1 92.97 10.09
-4 9 -1 68.77 10.22
-4 9 -1 83.27 11.41
-4 -9 -1 93.46 9.11
-4 -9 -1 102.38 12.82
-4 9 0 128.09 13.49
-4 9 0 134.58 12.25
-4 9 0 127.65 13.17
-4 -9 0 146.57 10.86
-4 9 0 124.72 12.76
-4 -9 0 140.5 14.1
-4 9 1 135.43 13.05
-4 -9 1 130.04 13.43
-4 9 1 121.91 11.81
-4 -9 1 109.34 12.63
-4 9 1 128.04 12.31
-4 -9 1 111.51 9.48
-4 9 1 127.59 12.71
-4 -9 2 47.22 6.04
-4 -9 2 39.36 8.31
-4 9 2 46.14 7.88
-4 9 2 38.48 8.12
-4 9 2 42.55 7.67
-4 -9 2 34.84 8.24
-4 9 2 49.9 8.77
-4 -9 3 34.67 7.82
-4 -9 3 32.15 5.14
-4 9 3 44.49 8.22
-4 -9 3 27.31 7.12
-4 9 3 51.62 8.68
-4 9 3 53.31 7.62
-4 -9 4 92.53 7.54
-4 9 4 113.21 11.39
-4 -9 4 96.1 11.77
-4 9 4 116.28 11.79
-4 -9 4 99.21 10.91
-4 9 4 109.57 10.35
-4 9 4 92.3 10.97
-4 -9 4 102.24 7.66
-4 9 5 183.61 14.83
-4 -9 5 180.67 14.22
-4 -9 5 157.06 10.01
-4 9 5 176.74 12.56
-4 9 5 166.29 14.84
-4 -9 5 160.87 14.98
-4 -9 5 172.66 10.44
-4 9 6 12.29 4.61
-4 9 6 10.88 6.62
-4 9 6 15.52 4.9
-4 9 6 15.2 5.86
-4 -9 6 13.93 6.63
-4 -9 6 20.75 6.36
-4 9 7 207.42 15.76
-4 -9 7 215.82 16.06
-4 9 7 227.45 18.62
-4 -9 8 22.24 6.5
-4 9 8 28.37 8.95
-4 10 -5 28 9.24
-4 -10 -4 52 8.46
-4 10 -4 51.11 10.46
-4 10 -4 55.55 10.61
-4 -10 -4 59.21 12.28
-4 -10 -3 18.51 6.02
-4 10 -3 19.05 8.11
-4 10 -3 7.2 8.37
-4 10 -3 25.05 7.97
-4 -10 -3 16.38 9.17
-4 10 -2 266.95 21.46
-4 -10 -2 283.96 22.32
-4 -10 -2 262.4 17.68
-4 10 -2 248.36 20.34
-4 10 -2 294.12 21.5
-4 10 -1 62.87 8.77
-4 -10 -1 49.8 7.45
-4 -10 -1 65.14 11.34
-4 10 -1 45.45 9.34
-4 10 -1 70 11.14
-4 10 0 108.38 12.54
-4 10 0 108.88 13.59
-4 -10 0 124.16 10.47
-4 10 0 117.15 13.06
-4 -10 0 134.98 14.39
-4 10 0 118.17 11.87
-4 10 1 111.37 12.67
-4 -10 1 106.6 13.07
-4 10 1 98.88 11.01
-4 10 1 121.08 12.89
-4 -10 1 92.99 8.91
-4 10 1 108.21 11.9
-4 -10 1 103.3 12.96
-4 -10 2 204.45 13.55
-4 10 2 205.43 16.9
-4 10 2 205.28 16.38
-4 -10 2 195.38 17.02
-4 10 2 209.37 17.4
-4 -10 2 195.47 17.55
-4 10 2 202.73 15.99
-4 10 3 9.78 6.46
-4 10 3 7.62 5.47
-4 10 3 13.78 6.99
-4 -10 3 1.94 5.95
-4 -10 3 1.46 6.51
-4 10 3 17.6 6.97
-4 -10 3 4.5 3.99
-4 -10 4 136.65 9.72
-4 -10 4 146.03 13.7
-4 10 4 113.18 12.75
-4 -10 4 137.11 9.77
-4 10 4 124.84 11.6
-4 10 4 108.82 12.79
-4 -10 4 151.53 14.87
-4 -10 5 19.89 6.68
-4 10 5 21.73 5.83
-4 10 5 31.18 8
-4 -10 5 25.96 7.67
-4 10 5 24.9 7.45
-4 -10 6 140.32 13.1
-4 10 6 126.35 14.12
-4 10 6 124.32 12.72
-4 -10 6 140.88 14.34
-4 10 7 22.04 7.1
-4 -10 7 29.07 7.55
-4 -10 8 125.21 12.8
-4 11 -3 149.69 16.4
-4 11 -3 150.51 16.24
-4 -11 -3 148.51 13.17
-4 11 -2 13.88 7.88
-4 -11 -2 11.93 5.53
-4 11 -2 15.73 7.93
-4 -11 -2 14.09 9.52
-4 11 -2 10.89 8.84
-4 -11 -1 209.73 19.86
-4 11 -1 228.16 17.2
-4 11 -1 261.13 20
-4 -11 -1 210.95 15.51
-4 11 -1 218.89 19.78
-4 11 0 9.9 6.09
-4 11 0 3.16 6.43
-4 11 0 4.61 8.34
-4 -11 0 7.3 7.87
-4 -11 0 4.54 4.53
-4 11 0 5.92 7.12
-4 -11 1 355.6 25.84
-4 -11 1 392.34 26.04
-4 -11 1 377.03 21.09
-4 11 1 349.62 25.04
-4 11 1 339.61 23.78
-4 11 1 347.46 24.5
-4 11 1 333.82 23.02
-4 11 2 20.93 8.59
-4 11 2 22.7 7.32
-4 11 2 24.97 8.12
-4 11 2 18.15 6.93
-4 -11 2 24.54 8.73
-4 -11 2 22.48 8.46
-4 -11 2 21.33 5.33
-4 11 3 343.11 24.4
-4 11 3 344.33 24.18
-4 -11 3 372.87 25.15
-4 11 3 381.58 25.39
-4 11 3 367.42 23.44
-4 -11 3 386.19 25.87
-4 11 4 1.37 7.17
-4 11 4 1.44 6.18
-4 -11 4 2.05 7.05
-4 -11 4 8.46 8.02
-4 11 4 5.52 5.89
-4 11 5 217.72 18.78
-4 -11 5 278.25 19.7
-4 -11 5 261.9 20.56
-4 11 6 23.28 8.14
-4 -11 6 32.64 8.2
-4 -11 7 116.55 12.83
-4 -12 -2 44.85 8.21
-4 12 -1 38.25 8.11
-4 12 -1 55.08 11.86
-4 -12 -1 39.15 7.34
-4 -12 0 67.15 8.79
-4 -12 0 67.77 12.82
-4 12 0 66.62 12.1
-4 12 0 54.89 9.69
-4 12 1 5.72 9.5
-4 12 1 15.19 7.42
-4 12 1 12.86 7.5
-4 -12 1 12.68 8.38
-4 12 2 189.8 16.61
-4 12 2 189.25 17.87
-4 -12 2 160.95 16.94
-4 12 3 29.72 8.01
-4 -12 3 30.17 9.27
-4 12 3 20.66 9.5
-4 12 3 27.24 9.05
-4 12 4 112.05 14.13
-4 12 4 146.28 15.39
-4 -12 4 121.14 14.1
-4 12 5 17.31 7.82
-4 13 2 3.07 7.35
-3 0 -10 2.4 5.55
-3 0 -9 401.01 25.48
-3 0 -9 408.9 25.21
-3 0 -9 442.84 25.5
-3 0 -8 3.22 5.05
-3 0 -8 -1.04 4.17
-3 0 -7 789.82 39.84
-3 0 -6 -0.88 3.86
-3 0 -6 2.31 2.86
-3 0 -6 3.72 4.72
-3 0 -5 1546.8 65.78
-3 0 -5 1405.64 64.04
-3 0 -5 1416.49 62.46
-3 0 -5 1422.38 64.48
-3 0 -4 4.26 3.51
-3 0 -4 1.88 2.82
-3 0 -4 0.76 2.58
-3 0 -3 2659.75 112.48
-3 0 -3 2663.5 113.77
-3 0 -3 2682.56 112.22
-3 0 -2 2.48 2.44
-3 0 -2 0.24 2.45
-3 0 -1 1086.31 51.23
-3 0 -1 1190.74 50.21
-3 0 -1 1199.67 51.05
-3 0 0 0.24 2.54
-3 0 0 0.3 1.76
-3 0 1 1087.8 48.4
-3 0 1 1146.34 48.78
-3 0 2 1.2 2.05
-3 0 2 2.98 2.36
-3 0 2 3.12 2.31
-3 0 3 109.55 6.73
-3 0 3 109.34 7.31
-3 0 4 0.75 2.12
-3 0 5 1597.35 67.3
-3 0 6 2.36 2.41
-3 0 6 2.43 1.98
-3 0 6 1.02 3.22
-3 0 6 3 3.54
-3 0 7 196.07 13.15
-3 0 7 195.25 13.17
-3 0 7 179.66 9.95
-3 0 7 165.3 10.85
-3 0 8 2.54 4.33
-3 0 8 4.86 4.6
-3 0 8 0.67 2.27
-3 0 8 3.16 3.49
-3 0 9 518.12 24.25
-3 0 9 536.7 27.03
-3 0 9 555.83 29.57
-3 0 9 553.22 29.14
-3 0 10 -0.93 1.93
-3 0 10 1.65 4.57
-3 0 10 -6.54 4.68
-3 0 10 1.58 5.27
-3 0 11 478.22 28.71
-3 0 11 492.2 26.54
-3 0 11 491.16 28.71
-3 0 12 2.55 6.43
-3 1 -11 39.63 9.08
-3 -1 -10 295.25 20.96
-3 1 -10 371.28 22.79
-3 -1 -9 66.59 9.06
-3 -1 -9 62.38 8.73
-3 1 -9 61.34 8.79
-3 -1 -9 68.71 9.44
-3 1 -9 54.91 8.64
-3 1 -9 49.63 8.91
-3 1 -8 145.74 12.36
-3 1 -8 139.64 12.5
-3 1 -7 108.44 10.74
-3 1 -7 125.59 8.91
-3 1 -7 132.02 11.72
-3 -1 -7 127.99 11.5
-3 1 -6 583.65 27.54
-3 1 -6 605.82 30.23
-3 -1 -6 509.75 29.34
-3 1 -5 347.7 19.77
-3 -1 -5 342 20.1
-3 -1 -5 336.66 19.21
-3 1 -5 341.8 18.1
-3 -1 -4 348.15 18.27
-3 1 -4 317.56 18.2
-3 1 -4 327.49 18.35
-3 1 -4 310.46 17.46
-3 -1 -4 347.35 19.21
-3 1 -3 1085.39 48.77
-3 -1 -3 1093.31 48.5
-3 -1 -3 1124.54 48.22
-3 1 -3 1032.1 48.4
-3 1 -3 1093.34 48.81
-3 -1 -3 1124.84 50.01
-3 -1 -2 2220.79 89.05
-3 1 -2 2040.88 89.02
-3 1 -2 2051.3 89.53
-3 1 -2 2041.57 89.27
-3 -1 -2 2176.87 89.32
-3 -1 -1 1204.8 51.36
-3 1 -1 1190.52 51.45
-3 1 -1 1172.14 51.89
-3 -1 -1 1222.14 52.28
-3 1 -1 1199.79 52.63
-3 1 0 1755.03 77.53
-3 -1 0 2012.08 79.79
-3 -1 0 1899.64 77.62
-3 1 1 415.88 18.59
-3 -1 1 425.54 18.63
-3 1 1 419.66 18.96
-3 -1 1 421.25 19.28
-3 -1 1 408.61 20.55
-3 1 1 456.79 20.99
-3 -1 1 431.45 20.73
-3 1 1 423.26 20.3
-3 -1 2 656.5 29.58
-3 1 2 617.72 29.26
-3 -1 2 673.18 29.33
-3 1 2 618.04 28.55
-3 1 3 570.76 25.49
-3 1 3 611.91 26.72
-3 -1 3 567.5 27.16
-3 1 3 576.22 26.7
-3 -1 3 563.79 26.51
-3 1 4 478.44 21.98
-3 1 4 447.11 20.15
-3 1 4 471.28 21.78
-3 1 5 255.3 12.52
-3 1 5 236.35 13.94
-3 1 5 243.19 11.94
-3 -1 6 238.99 15.37
-3 1 6 315.04 16.99
-3 1 6 321.02 14.86
-3 -1 6 251.76 13.34
-3 -1 6 257.87 15.47
-3 -1 7 43.6 4.76
-3 1 7 54.76 6.98
-3 -1 7 38.12 6.24
-3 1 7 42.64 5.68
-3 1 7 58.95 5.34
-3 -1 7 40.52 6
-3 1 7 56.69 7
-3 1 8 367.07 21.16
-3 1 8 347.28 21.04
-3 1 8 344.06 17.88
-3 -1 8 347 20.1
-3 -1 8 329.13 18.03
-3 1 8 364.95 19.53
-3 -1 8 354.44 20.51
-3 1 9 3.68 3.1
-3 1 9 5.15 4.67
-3 1 9 10.56 4.8
-3 -1 9 9.74 5.49
-3 -1 9 4.77 4.85
-3 -1 9 11.91 4.31
-3 1 9 7.54 5.12
-3 1 10 45.29 8.17
-3 1 10 39.48 7.83
-3 1 10 35.79 6.81
-3 -1 10 63.6 8.77
-3 -1 10 45.23 6.44
-3 1 10 39.59 5.1
-3 -1 10 51.91 7.52
-3 1 11 19.65 7.48
-3 1 11 20.94 6.43
-3 1 11 17.12 7.21
-3 -1 11 20.37 5.7
-3 -1 11 19.62 7.05
-3 -1 11 15.92 6.61
-3 -1 12 207.1 17.25
-3 -1 12 239.34 17.17
-3 2 -11 346.84 23.59
-3 -2 -10 -2.86 5.85
-3 2 -10 9.05 6.61
-3 2 -9 69.46 10.29
-3 2 -9 76.51 9.96
-3 2 -9 67.77 9.43
-3 -2 -9 68.93 9.1
-3 2 -9 64.41 6.21
-3 -2 -9 75.17 9.6
-3 -2 -9 81.28 10.29
-3 2 -8 26.72 6.54
-3 -2 -8 17.34 5.96
-3 2 -8 28.9 4.63
-3 -2 -7 243.35 15.9
-3 2 -7 200.44 15.06
-3 2 -7 201.3 12.84
-3 2 -6 20.04 5.45
-3 -2 -6 14.23 5.02
-3 2 -6 23.58 4.62
-3 -2 -6 20.18 4.9
-3 -2 -5 76.51 8.03
-3 2 -5 62.11 7.35
-3 2 -5 73.96 6.9
-3 -2 -5 65.56 7.29
-3 2 -4 303.62 16.94
-3 -2 -4 276.89 17.06
-3 2 -4 274.76 16.03
-3 -2 -4 277.15 16.04
-3 2 -3 328.29 18.41
-3 -2 -3 332.08 17.72
-3 2 -3 350.32 18.4
-3 -2 -3 341.34 19.13
-3 2 -3 340.69 18.32
-3 -2 -2 99.85 7.47
-3 2 -2 119.44 8.25
-3 2 -2 125.76 8.98
-3 2 -2 125.85 8.78
-3 -2 -1 688.53 31.34
-3 2 -1 699.26 33.01
-3 2 -1 729.24 32.01
-3 -2 0 423.9 20.63
-3 -2 0 442.19 20.04
-3 -2 0 407.5 18.23
-3 -2 1 3570.25 148.87
-3 2 1 3580.92 148.1
-3 -2 1 3629.7 147.25
-3 -2 1 3713.04 150.31
-3 2 1 3528.13 149.98
-3 -2 2 134.41 8.77
-3 -2 2 139.03 7.11
-3 -2 2 134.37 8.45
-3 2 2 89.99 7.27
-3 2 2 93.52 5.94
-3 2 2 95.7 7.48
-3 -2 3 2937.7 124.17
-3 2 3 3026.41 124.32
-3 2 3 3072.83 125.95
-3 2 3 3072.81 126.17
-3 -2 3 3066.28 126.89
-3 2 4 143.92 9.98
-3 -2 4 201.75 11.83
-3 2 4 129.72 9.38
-3 -2 4 198.65 9.05
-3 2 5 1124.52 50.53
-3 2 5 1104.96 49.06
-3 -2 5 1154.68 47.59
-3 2 5 1073.07 47.99
-3 -2 5 1083.88 49.09
-3 2 6 5.37 3.98
-3 -2 6 9.54 3.84
-3 -2 6 9.83 2
-3 2 6 5.21 2.25
-3 2 6 7.88 3.47
-3 2 7 1420.86 61.02
-3 -2 7 1410.42 62.13
-3 -2 7 1384.45 58.97
-3 -2 7 1359.33 61.28
-3 2 7 1357.45 62.99
-3 -2 8 51.79 6.68
-3 2 8 69.13 8.15
-3 -2 8 60.99 5.61
-3 2 8 52.3 8.14
-3 2 8 63.77 7.57
-3 2 8 68.69 6.9
-3 -2 8 66.84 7.79
-3 2 9 142.92 10.48
-3 2 9 132.22 12.49
-3 -2 9 143.98 11.68
-3 -2 9 156.67 12.44
-3 -2 9 154.5 10.06
-3 2 9 144.56 12.91
-3 2 9 146.29 11.75
-3 2 10 4.12 4.83
-3 -2 10 0.52 4.4
-3 -2 10 -1.84 5.12
-3 2 10 5.64 5.67
-3 -2 10 0.32 3.75
-3 2 10 1.64 3.78
-3 2 10 2.93 5.72
-3 -2 11 38.14 8.08
-3 -2 11 31.47 5.92
-3 2 11 32.39 7.81
-3 -2 11 30.86 7.07
-3 2 11 28.02 7.13
-3 2 11 29.48 8.47
-3 -2 12 2.28 5.8
-3 -2 12 3.21 6.74
-3 2 12 18.2 6.71
-3 3 -11 0.7 6.97
-3 -3 -10 273.91 19.17
-3 3 -9 64.95 6.79
-3 -3 -9 73.78 9.37
-3 3 -9 68.12 10.07
-3 3 -9 66.8 9.65
-3 3 -8 82.94 10
-3 3 -8 80.04 7.77
-3 -3 -7 52.27 7.4
-3 3 -7 52.22 7.73
-3 -3 -7 41.48 6.95
-3 3 -7 45.13 5.98
-3 3 -6 209.12 15.45
-3 -3 -6 256.61 16.09
-3 3 -6 192.7 13.48
-3 3 -6 201.5 15.02
-3 -3 -6 260.91 15.58
-3 -3 -5 72.16 7.5
-3 3 -5 74.69 7.29
-3 -3 -5 82.19 8.73
-3 3 -5 75.34 8.26
-3 -3 -4 30.77 5.67
-3 3 -4 51.67 6.17
-3 -3 -4 23.63 4.55
-3 3 -4 51.7 6.11
-3 -3 -3 420.96 21.14
-3 3 -3 421.83 21.85
-3 -3 -3 430.54 22.6
-3 3 -3 372.68 21.52
-3 3 -3 405.86 21.61
-3 3 -2 794.2 35.28
-3 -3 -2 689.1 35.21
-3 3 -2 781.56 34.63
-3 -3 -2 695.54 33.39
-3 3 -1 388 19.47
-3 3 -1 380.78 20.47
-3 3 -1 351.41 19.99
-3 -3 -1 410.73 20.7
-3 -3 -1 386.4 18.56
-3 3 0 838.69 35.06
-3 -3 0 759.1 35.66
-3 -3 0 706.96 35.98
-3 -3 0 742.08 33.5
-3 3 0 828.59 36.11
-3 3 1 313.35 17.09
-3 3 1 307.53 16.46
-3 3 1 320.61 17.8
-3 -3 1 349.66 15.27
-3 -3 1 348.75 17.47
-3 -3 1 363.88 18.57
-3 3 2 554.79 26.32
-3 3 2 541.7 25.22
-3 3 2 517.29 24.57
-3 -3 2 525.3 26.9
-3 3 2 588.69 26.54
-3 -3 2 537.03 25.2
-3 3 3 365.54 19.09
-3 -3 3 394.88 20.4
-3 3 3 367.97 19.49
-3 -3 3 403.32 18.4
-3 3 3 357.63 17.64
-3 3 4 822.97 39.06
-3 3 4 815.09 38.21
-3 -3 4 897.8 40.29
-3 -3 4 876.07 37.58
-3 -3 5 537.6 24.84
-3 -3 5 526.7 24.25
-3 3 5 498.42 24.35
-3 3 5 502.72 25.72
-3 -3 6 490.84 21.31
-3 3 6 487.51 25.91
-3 3 6 445.28 24.29
-3 -3 6 494.33 23.29
-3 3 6 446.81 22.5
-3 -3 6 540.95 24.67
-3 -3 7 63.56 4.68
-3 3 7 51.94 4.52
-3 3 7 48.79 7.48
-3 3 7 61.3 6.84
-3 -3 7 56.94 6.64
-3 -3 8 368.28 17.56
-3 -3 8 361.16 19.56
-3 -3 8 375.22 20.54
-3 3 8 314.65 19.47
-3 3 8 327.19 21.26
-3 3 9 222.22 13.74
-3 -3 9 163.58 13.12
-3 -3 9 167.29 12.61
-3 3 9 224.42 15.98
-3 -3 9 172.25 11.1
-3 -3 10 53.79 8.15
-3 3 10 70.02 9.67
-3 -3 10 44.93 6.03
-3 -3 10 56.36 7.78
-3 3 10 68.84 9.2
-3 3 10 74.14 7.89
-3 3 11 118.59 9.96
-3 -3 11 87.04 10.67
-3 3 11 95.11 11.8
-3 -3 11 85.64 9.82
-3 3 11 94.96 11.24
-3 -3 12 23.12 7.83
-3 -4 -10 14.01 6.7
-3 4 -9 124.03 9.89
-3 4 -9 152.9 13.9
-3 4 -9 130.45 13.81
-3 -4 -9 127.35 12.51
-3 4 -8 16.95 6.14
-3 -4 -8 3.28 4.51
-3 -4 -8 10.02 5.51
-3 4 -8 16.13 4.77
-3 -4 -7 771.81 37.61
-3 -4 -7 748.27 37.76
-3 4 -7 696.48 35.48
-3 4 -7 727.66 37.85
-3 -4 -6 4.41 3.88
-3 -4 -6 4.27 4.86
-3 4 -6 7.32 4.77
-3 4 -6 12.58 5.3
-3 4 -6 10.52 4.38
-3 4 -5 317.5 20.93
-3 4 -5 376.54 22.81
-3 -4 -5 394.74 21.21
-3 4 -5 395.04 22.16
-3 4 -5 363.78 20.73
-3 -4 -5 375.44 21.93
-3 -4 -4 153.66 12.56
-3 4 -4 186.42 13.86
-3 -4 -4 153.01 11.38
-3 4 -4 190.56 13.1
-3 4 -4 202.07 13.04
-3 4 -3 962.06 44.71
-3 -4 -3 945.76 45.2
-3 -4 -3 1047.41 46.76
-3 4 -3 901.49 44.36
-3 -4 -3 948.94 43.5
-3 4 -2 499.81 25.78
-3 -4 -2 463.94 23.6
-3 -4 -2 472.91 25.72
-3 4 -2 484.45 25.16
-3 -4 -2 463.84 25.44
-3 4 -2 493.33 22.02
-3 4 -2 510.01 25.09
-3 4 -1 598.54 29.85
-3 -4 -1 613.12 30.09
-3 4 -1 585.75 29.02
-3 -4 -1 601.63 27.74
-3 4 0 9.25 3.07
-3 -4 0 20.33 2.66
-3 -4 0 19.96 4.48
-3 4 0 13.55 3.75
-3 4 0 11.05 3.44
-3 4 1 104.45 8.18
-3 -4 1 115.35 6.59
-3 -4 1 112 8.74
-3 4 1 109 8.32
-3 4 1 104.88 8.56
-3 4 2 172.45 9.94
-3 4 2 169.37 10.69
-3 -4 2 130.5 9.62
-3 4 2 169.94 9.89
-3 4 2 181.58 11
-3 -4 2 139.79 10.9
-3 -4 2 126.1 7.37
-3 4 3 45.21 5.41
-3 4 3 49.76 5.84
-3 -4 3 50.63 5.24
-3 -4 3 52.57 6.43
-3 4 3 38.6 4.25
-3 4 3 40.64 4.7
-3 -4 4 276.68 15.97
-3 4 4 243.96 14.97
-3 4 4 238.38 12.32
-3 4 4 231.37 14.27
-3 -4 4 258.59 13.81
-3 4 5 549.12 27.01
-3 -4 5 497.42 25
-3 -4 5 520.31 24.67
-3 -4 5 512.96 22.29
-3 4 5 555.84 25.61
-3 -4 6 67.93 6.18
-3 -4 6 71.1 4.19
-3 4 6 35.76 6.43
-3 4 6 36.55 4.89
-3 -4 6 67.79 6.43
-3 -4 7 205.91 13.25
-3 -4 7 194.48 10.56
-3 4 7 224.22 11.81
-3 -4 7 197.13 12.67
-3 4 7 223.49 14.73
-3 4 8 44.92 7.72
-3 -4 8 28.71 3.9
-3 4 8 38.58 3.68
-3 4 8 44.47 6.78
-3 -4 8 34.73 6.05
-3 4 9 683.33 33.44
-3 4 9 667.92 35.24
-3 -4 9 619.17 32.68
-3 -4 9 634.27 29.92
-3 -4 10 5.56 3.54
-3 -4 10 8.77 5.61
-3 4 10 3.21 5.64
-3 4 10 5.57 4.78
-3 -4 10 9.31 4.71
-3 -4 11 352.21 20.8
-3 -4 11 332.54 22.05
-3 4 11 387.36 21.95
-3 4 11 340.39 23.87
-3 -4 12 19.53 7.54
-3 5 -9 5.55 6.06
-3 -5 -9 8.15 6.46
-3 5 -9 3.94 4.06
-3 -5 -8 97.38 10.57
-3 -5 -8 85.32 10.58
-3 5 -8 110.83 11.03
-3 5 -8 107.1 9.71
-3 5 -7 59.56 8.2
-3 -5 -7 69.66 8.56
-3 -5 -7 65.19 9.11
-3 5 -7 56.96 7.56
-3 -5 -6 351.25 21.91
-3 5 -6 406.16 23.98
-3 5 -6 380.73 24.11
-3 5 -6 413.15 21.93
-3 5 -6 404.4 22.18
-3 5 -5 111.66 10.87
-3 5 -5 126.51 12.02
-3 -5 -5 154.99 13.77
-3 5 -5 117.03 9.66
-3 -5 -5 119.81 11.23
-3 5 -5 109.7 10.23
-3 -5 -5 130.9 10.6
-3 5 -4 221.45 13.77
-3 -5 -4 266.59 18.17
-3 -5 -4 248.17 15.42
-3 -5 -4 261.66 17.02
-3 5 -4 233.57 16.29
-3 5 -4 262.58 16.5
-3 5 -3 91.54 9.07
-3 -5 -3 100.77 9.86
-3 5 -3 79.4 6.6
-3 -5 -3 112.77 10.65
-3 5 -3 81.86 8.62
-3 -5 -3 103.19 8.32
-3 5 -2 492.07 26.39
-3 -5 -2 512.15 26.99
-3 5 -2 480.69 25.59
-3 -5 -2 513.3 26.72
-3 5 -2 463.71 22.19
-3 -5 -2 508.47 24.33
-3 5 -2 460.01 25.62
-3 5 -1 142.73 10.91
-3 5 -1 132.07 10.46
-3 5 -1 134.3 9.78
-3 -5 -1 139.13 11.33
-3 -5 -1 139.85 9.25
-3 5 0 94.99 8.68
-3 5 0 92.97 8.12
-3 5 0 87.49 8.34
-3 -5 0 119.41 9.57
-3 -5 0 117.92 7.49
-3 5 1 331.73 18.36
-3 5 1 333.31 18.36
-3 -5 1 321.42 18.71
-3 5 1 339.79 19.06
-3 -5 1 328.63 16.19
-3 5 2 68.44 7.03
-3 5 2 73.58 6.65
-3 -5 2 36.97 5.9
-3 5 2 73.5 6.39
-3 -5 2 43.98 4.07
-3 5 3 88.4 7.64
-3 -5 3 85.27 5.66
-3 -5 3 87 8.02
-3 5 3 108.11 9.01
-3 5 3 110.33 8.87
-3 5 3 100.06 7.33
-3 -5 4 160.33 9.07
-3 5 4 211.1 10.72
-3 -5 4 163.05 8.69
-3 5 4 219.95 13.45
-3 -5 4 155.6 11.26
-3 5 4 202.56 12.46
-3 5 5 10.89 4.64
-3 5 5 13.61 2.52
-3 5 5 9.08 4.85
-3 5 5 18.52 4.66
-3 -5 5 12.28 3.93
-3 -5 5 17.26 2.18
-3 -5 6 439.17 20.79
-3 -5 6 459.15 23.78
-3 5 6 502.52 25.98
-3 5 6 509.13 26.33
-3 5 6 507.7 24.09
-3 -5 6 444.65 22.78
-3 -5 7 211.41 13.58
-3 -5 7 204.34 13.03
-3 5 7 196.32 14.68
-3 5 7 217.34 12.67
-3 -5 7 212.35 11
-3 5 8 272.56 14.53
-3 -5 8 282.7 14.36
-3 5 8 288.61 18.62
-3 -5 8 262.92 16.46
-3 -5 8 285 16.83
-3 -5 9 26.08 4.07
-3 5 9 23.95 6.37
-3 -5 9 20.29 5.52
-3 5 9 20.47 2.51
-3 5 10 256.67 19.76
-3 5 10 264.63 18.26
-3 -5 10 267.55 17.53
-3 5 11 28.69 7.25
-3 -5 11 36.21 7.59
-3 -5 12 215.34 16.71
-3 -6 -9 52.53 9.48
-3 -6 -8 1.71 8.11
-3 -6 -8 10.71 5.66
-3 6 -8 11.66 5.9
-3 -6 -8 11.83 6.85
-3 6 -8 15.27 5.14
-3 -6 -7 122.55 11.74
-3 6 -7 98.32 10.33
-3 6 -7 103.31 11.98
-3 -6 -7 95.95 11.22
-3 6 -7 86.26 11.6
-3 6 -7 100.57 10.28
-3 -6 -6 48.76 7.28
-3 6 -6 59.77 8.04
-3 6 -6 67.08 7.78
-3 6 -6 57.78 9.02
-3 -6 -6 53.54 8.2
-3 6 -6 52.85 9.03
-3 6 -5 3.41 5.51
-3 6 -5 1.24 4.77
-3 -6 -5 -1.61 5
-3 -6 -5 1.78 3.83
-3 6 -5 0.36 3.91
-3 6 -5 -3.95 4.72
-3 -6 -5 2.67 6.46
-3 -6 -4 14.02 5.89
-3 -6 -4 14.37 4.78
-3 6 -4 20.43 6.24
-3 6 -4 26.19 6.3
-3 6 -4 30.46 4.96
-3 -6 -4 26.37 7.58
-3 6 -3 410.76 23.5
-3 6 -3 391.53 20.05
-3 6 -3 389.36 23
-3 -6 -3 378.26 21.44
-3 -6 -3 412.22 24.49
-3 -6 -3 409.36 23.77
-3 6 -2 58.5 7.74
-3 -6 -2 48.45 6.11
-3 -6 -2 49.91 7.41
-3 6 -2 64.26 7.77
-3 6 -2 65.93 8.25
-3 -6 -2 46.29 7.81
-3 6 -1 297.23 18.62
-3 -6 -1 297.76 16.52
-3 6 -1 301.52 18.6
-3 -6 -1 300.46 19.18
-3 6 -1 307.5 17.58
-3 -6 0 76.8 6.59
-3 6 0 90.85 9.05
-3 6 0 95.22 8.86
-3 -6 0 74.59 8.9
-3 6 0 104.59 8.69
-3 6 1 941.51 43.57
-3 -6 1 951.72 41.39
-3 6 1 884.77 43.59
-3 6 1 922.08 44.34
-3 -6 1 932.75 44.41
-3 6 1 933.7 43.88
-3 -6 2 77.97 8.43
-3 -6 2 72.95 6.11
-3 6 2 106.39 9.06
-3 6 2 98.51 8.95
-3 6 2 98.76 8.34
-3 6 3 974.9 43.77
-3 6 3 883.86 41.58
-3 6 3 910.9 42.59
-3 -6 3 889.61 39.88
-3 -6 3 896.89 42.79
-3 6 3 953.07 44
-3 6 4 185.84 13.39
-3 6 4 194.61 12.7
-3 -6 4 163.68 9.7
-3 -6 4 158.31 11.96
-3 6 4 185.56 10.98
-3 6 4 188.7 12.67
-3 -6 4 155.54 9.21
-3 6 5 1041.8 45.42
-3 -6 5 1040.87 44.44
-3 -6 5 1009.16 47.81
-3 6 5 1068.99 48.33
-3 6 5 1007.78 49.34
-3 6 6 57.41 8.01
-3 -6 6 52.27 5.61
-3 6 6 55.02 4.39
-3 6 6 57.31 4.4
-3 6 6 60.84 8.21
-3 -6 6 62.84 4.79
-3 6 6 56.22 7
-3 -6 6 71.35 7.48
-3 -6 7 252.94 14.87
-3 6 7 258.02 17.72
-3 6 7 253.61 17.92
-3 -6 7 253.19 16.22
-3 6 7 260.75 15.42
-3 -6 7 265.52 13.39
-3 -6 8 38.59 4.36
-3 6 8 32.36 7.39
-3 -6 8 34.74 5.79
-3 6 8 36.66 7.6
-3 6 8 28.24 4.64
-3 -6 8 37.92 6.13
-3 6 9 86.61 10.54
-3 -6 9 101.83 9.27
-3 6 9 86.19 6.55
-3 -6 9 88.49 7.04
-3 6 10 25.92 7.48
-3 -6 10 49.28 7.65
-3 6 11 66.53 10.07
-3 -6 11 69.41 9.47
-3 7 -9 16.21 8.16
-3 7 -8 20.64 8.61
-3 7 -8 18.83 6.04
-3 7 -8 20.14 6.91
-3 -7 -8 43.92 11
-3 7 -7 32.62 7.16
-3 7 -7 40.5 7.52
-3 7 -7 24.92 8.4
-3 7 -7 28.63 8.39
-3 -7 -7 44.33 8.01
-3 7 -6 39.42 7.68
-3 7 -6 39.4 6.98
-3 7 -6 44.16 8.89
-3 -7 -6 44.76 8.03
-3 7 -6 34.58 8.22
-3 -7 -6 63.95 8.43
-3 7 -5 152.94 14.44
-3 7 -5 152.38 13.35
-3 -7 -5 166.02 16.01
-3 -7 -5 163.72 12.98
-3 7 -5 180.73 15.2
-3 7 -5 161.97 12.14
-3 -7 -4 90.74 9.45
-3 7 -4 116.6 9.14
-3 7 -4 120.94 12
-3 7 -4 108.44 11.07
-3 -7 -4 86.97 11.63
-3 -7 -3 110.58 12.07
-3 7 -3 111.6 11.47
-3 -7 -3 104.05 9.52
-3 7 -3 100.74 10.61
-3 7 -3 101.18 11.07
-3 7 -2 314.8 19.5
-3 7 -2 305.9 17.25
-3 7 -2 293.92 18.89
-3 -7 -2 239.84 18.68
-3 7 -2 314.27 19.79
-3 -7 -2 234.84 15.92
-3 7 -1 93.13 8.81
-3 7 -1 97.33 10.62
-3 7 -1 94.05 9.93
-3 -7 -1 108.54 11.03
-3 -7 -1 103 8.58
-3 7 0 451.72 25.93
-3 7 0 500.52 26.26
-3 7 0 408.97 25.45
-3 -7 0 452.37 26.36
-3 -7 0 469.86 23.51
-3 7 0 483.02 25.18
-3 -7 1 120.82 8.74
-3 7 1 106.65 10.01
-3 -7 1 123.09 11.53
-3 7 1 104.07 10.37
-3 7 1 120.89 11.21
-3 7 1 119.91 10.36
-3 -7 2 635.78 32.6
-3 7 2 623.69 31.24
-3 7 2 628.89 32.07
-3 7 2 589.51 32.25
-3 -7 2 627.58 29.32
-3 -7 2 617.06 33.03
-3 -7 3 120.09 10.66
-3 7 3 111.28 10.31
-3 7 3 107.74 9.31
-3 7 3 119.09 10.91
-3 -7 3 117.09 11.18
-3 -7 3 120.74 8.38
-3 -7 4 881.85 41.43
-3 7 4 834.35 39.29
-3 7 4 846.6 42.1
-3 7 4 825.76 40.99
-3 -7 4 837.73 42.28
-3 -7 4 834.03 38.29
-3 -7 4 877.25 37.85
-3 7 4 826.69 41.23
-3 7 5 34.31 4.78
-3 7 5 34.13 6.37
-3 7 5 29.71 6.78
-3 -7 5 28.4 5.94
-3 -7 5 24.51 6.32
-3 -7 5 24.03 3.63
-3 7 6 553.57 30.13
-3 7 6 498.64 25.28
-3 7 6 514.76 28.32
-3 7 6 574.46 30.86
-3 -7 6 585.93 25.59
-3 -7 6 608.29 29.45
-3 7 6 519.92 25.53
-3 -7 6 576.48 25.77
-3 7 7 5.76 4.13
-3 7 7 4.75 1.8
-3 -7 7 8.33 2.83
-3 7 7 5.07 5.54
-3 -7 7 7.77 3.67
-3 7 7 6.41 5.24
-3 -7 7 4 4.72
-3 -7 8 263.67 15.42
-3 -7 8 262.07 17.23
-3 7 8 237.79 18.36
-3 7 8 247.61 15.44
-3 -7 8 271.75 14.16
-3 7 8 240.48 18.5
-3 -7 9 10.83 5.57
-3 7 9 9.45 6.66
-3 7 9 24.77 7.56
-3 -7 9 9.83 4.81
-3 7 10 25.99 8.02
-3 7 11 9.33 7.67
-3 8 -8 34.17 7.86
-3 8 -7 333.81 24.26
-3 8 -7 331.98 21.08
-3 8 -7 300.05 21.28
-3 -8 -7 357.76 22.44
-3 8 -6 44.52 7.2
-3 8 -6 51.4 9.53
-3 -8 -6 40.32 7.46
-3 8 -6 43.69 8.32
-3 8 -6 61.04 10.23
-3 8 -5 272.93 19.7
-3 8 -5 264.1 20.39
-3 8 -5 281.13 17.48
-3 -8 -5 248.88 20.94
-3 -8 -5 288.58 18.67
-3 8 -5 274.06 20.44
-3 -8 -4 129.71 11.23
-3 8 -4 138.46 13.67
-3 8 -4 135.57 12.85
-3 -8 -4 121.81 13.78
-3 8 -3 343.14 23.19
-3 -8 -3 357.47 20.55
-3 8 -3 343.36 22.41
-3 -8 -3 384.08 24.48
-3 8 -3 321.29 22.52
-3 8 -2 66.91 9.39
-3 -8 -2 61.44 7.37
-3 8 -2 50.2 7.02
-3 8 -2 64.05 9.14
-3 -8 -2 50.09 9.2
-3 8 -2 59.52 8.84
-3 -8 -1 69.35 10.54
-3 8 -1 81.97 8.61
-3 8 -1 74.78 9.8
-3 8 -1 81.18 9.93
-3 -8 -1 82.77 8.17
-3 8 0 67.96 9.2
-3 -8 0 71.08 7.14
-3 8 0 67.48 8.13
-3 -8 0 70.97 9.65
-3 8 0 60.22 8.32
-3 8 0 57.42 8.52
-3 8 1 118.73 11.33
-3 -8 1 159.01 13.49
-3 8 1 133.99 12.33
-3 8 1 126.2 12.23
-3 8 1 120.3 11.09
-3 -8 1 162.24 10.79
-3 8 2 17.42 5.26
-3 -8 2 17.13 6.27
-3 8 2 19.18 6.39
-3 8 2 15.98 5.85
-3 8 2 14.95 5.26
-3 -8 2 14.42 4.09
-3 -8 2 18.45 6.1
-3 -8 3 47.58 5.75
-3 -8 3 49.63 7.84
-3 8 3 42.66 7.53
-3 -8 3 38.62 7.31
-3 8 3 37.31 6.2
-3 8 3 36.43 7.47
-3 8 4 19.44 6.36
-3 -8 4 26.33 6.51
-3 -8 4 31.57 4.53
-3 8 4 16.66 5.12
-3 8 4 18.58 6.36
-3 -8 4 25.35 4.74
-3 8 4 12.12 5.5
-3 -8 4 33.69 6.87
-3 -8 5 167.8 10.55
-3 8 5 171.21 13.55
-3 8 5 176.33 11.79
-3 -8 5 157.5 13.92
-3 -8 5 185.9 13.91
-3 -8 5 157.21 11.12
-3 8 5 197.76 15.26
-3 8 6 54.5 6.17
-3 8 6 59.39 7.95
-3 -8 6 56.47 8.19
-3 8 6 69.38 9.84
-3 8 6 63.57 6.26
-3 -8 6 55.2 5.5
-3 -8 7 176.66 13.84
-3 -8 7 156.45 10.36
-3 8 7 184.28 15.5
-3 -8 7 155.35 10.23
-3 8 7 178.37 14.86
-3 8 7 174.94 10.02
-3 8 7 190.96 13.56
-3 8 7 169.85 9.8
-3 8 8 2 6.23
-3 -8 8 10.1 4.26
-3 8 8 1.59 4.56
-3 -8 8 11.37 5.23
-3 8 8 5.8 6.67
-3 8 9 205.77 17.42
-3 8 9 196.24 17.19
-3 -8 9 202.49 15.3
-3 8 10 2.13 6.93
-3 9 -8 111.34 12.67
-3 9 -7 2.69 5.98
-3 -9 -6 407.41 25.8
-3 9 -6 462.48 29.63
-3 9 -6 455.49 27.75
-3 -9 -5 17.94 6.35
-3 9 -5 21.7 8.17
-3 9 -5 30.22 7.47
-3 -9 -5 23.76 9.1
-3 -9 -4 393.91 26.8
-3 9 -4 372.69 24.73
-3 -9 -4 382.39 22.77
-3 9 -4 372.01 25.68
-3 9 -3 79.24 10.35
-3 -9 -3 73.55 8.55
-3 9 -3 61.71 10.31
-3 -9 -3 62.9 11.23
-3 9 -3 69.92 10.21
-3 9 -2 437.96 25.01
-3 9 -2 428.59 27.8
-3 9 -2 434.11 27.45
-3 9 -2 440.27 27.64
-3 -9 -2 482.48 29.08
-3 -9 -2 485.64 25.56
-3 9 -1 44.45 8.27
-3 9 -1 26.1 5.65
-3 -9 -1 24.23 5.4
-3 9 -1 25.61 7.84
-3 -9 -1 25.64 7.96
-3 -9 0 160.81 14.57
-3 9 0 149.88 13.45
-3 -9 0 174.43 12.16
-3 9 0 137.19 12.32
-3 9 0 135.7 13.29
-3 9 0 150.61 14.35
-3 -9 1 177.35 14.97
-3 9 1 151.55 13.02
-3 -9 1 153.16 14.3
-3 9 1 139.75 13.73
-3 -9 1 163.71 11.86
-3 9 1 160.05 14.03
-3 9 1 165.43 14.18
-3 9 2 81.77 9.51
-3 -9 2 111.18 9.21
-3 9 2 90.92 10.86
-3 9 2 90.29 10.69
-3 9 2 81.03 10.02
-3 -9 2 113.2 11.77
-3 -9 2 109.07 11.38
-3 9 3 53.48 8.41
-3 -9 3 58.94 9.06
-3 9 3 42.92 8
-3 9 3 39.49 6.98
-3 -9 3 48.28 6.41
-3 -9 3 62.35 9.14
-3 9 4 13.33 5.28
-3 -9 4 11.4 3.68
-3 9 4 15.22 5.89
-3 -9 4 8.27 5.25
-3 -9 4 6.7 5.49
-3 -9 4 10.71 4.77
-3 9 4 13.98 6.55
-3 -9 5 29.7 4.76
-3 9 5 26.04 6.61
-3 -9 5 28.6 5.8
-3 -9 5 33.4 7.54
-3 9 5 26.95 6.92
-3 9 5 35.94 6.2
-3 9 5 33.49 6.17
-3 -9 5 41.24 7.18
-3 9 6 70.13 7.46
-3 9 6 76.92 7.57
-3 -9 6 57.71 8.71
-3 -9 6 67.5 6.46
-3 9 6 79.85 10.65
-3 9 6 89.45 9.57
-3 -9 6 60.68 7.16
-3 9 7 34.93 8.56
-3 -9 7 28.94 6.73
-3 9 7 39.49 7.1
-3 -9 7 42.51 5.22
-3 9 8 138.6 13.91
-3 9 8 129.62 14.35
-3 -9 8 143.1 12.96
-3 -9 9 10.06 6.29
-3 9 9 11.23 7.47
-3 -9 10 107.94 12.24
-3 10 -7 79.48 11.52
-3 10 -6 43.25 10.06
-3 10 -5 82.75 11.67
-3 -10 -5 60.48 9.25
-3 -10 -4 33.65 10.34
-3 10 -4 42.31 8.98
-3 -10 -4 37.65 7.54
-3 10 -4 48.6 10.98
-3 10 -4 36.67 9.17
-3 10 -3 194.78 17.99
-3 10 -3 197.47 17.4
-3 -10 -3 186.95 17.98
-3 -10 -3 204.69 15.1
-3 10 -3 186.36 16.67
-3 -10 -2 93.06 10.03
-3 10 -2 126.22 11.15
-3 10 -2 125.33 13.54
-3 10 -2 123.16 14.18
-3 -10 -2 85.24 12.54
-3 10 -2 118.76 12.88
-3 -10 -1 226.32 18.87
-3 10 -1 228.4 17.93
-3 10 -1 233.28 18.78
-3 -10 -1 198.81 14.86
-3 10 -1 230.15 16.36
-3 10 0 41.87 8.4
-3 -10 0 38.64 6.7
-3 -10 0 44.29 9.57
-3 10 0 46.95 7.75
-3 10 0 46.88 8.75
-3 10 0 43.5 9.72
-3 10 1 236.22 17.79
-3 -10 1 250.53 19.18
-3 -10 1 217.55 18.24
-3 10 1 198.16 17.51
-3 10 1 265.35 17.96
-3 10 1 235.32 18.29
-3 -10 1 223.72 15.26
-3 10 2 81.09 10.97
-3 10 2 79.34 10.17
-3 10 2 67 9.36
-3 10 2 77.15 11.09
-3 -10 2 79.5 10.73
-3 -10 2 89.47 11.36
-3 -10 2 77.84 8.43
-3 -10 3 336.3 19.38
-3 10 3 325.29 22.1
-3 10 3 310.39 22.04
-3 10 3 343.95 22.23
-3 -10 3 340.8 22.39
-3 10 3 292.84 20.37
-3 -10 3 327.31 22.28
-3 10 4 83.17 10.44
-3 -10 4 91.54 11.07
-3 10 4 72.71 11.03
-3 10 4 88.15 9.44
-3 -10 4 83.66 8.64
-3 -10 4 82.8 8
-3 -10 4 90.41 11.47
-3 10 5 124.62 11.1
-3 10 5 124.07 10.93
-3 10 5 117.82 12.9
-3 -10 5 122.61 12.59
-3 -10 5 126.08 10.81
-3 -10 5 143.61 13.76
-3 10 5 120.54 12.26
-3 -10 5 141.51 10.22
-3 -10 6 29.9 5.07
-3 10 6 23.26 7.96
-3 10 6 31.5 7.12
-3 -10 6 29.49 7.27
-3 10 6 19.76 5.34
-3 -10 7 131.82 12.88
-3 10 7 134.59 14.29
-3 10 7 121.82 12.17
-3 -10 8 -0.63 5.67
-3 11 -5 16.7 8.21
-3 11 -4 78.6 11.54
-3 -11 -4 47.03 8.86
-3 -11 -4 59.42 12.62
-3 11 -4 73.57 11.37
-3 -11 -3 5.03 5.34
-3 11 -3 7.34 7.14
-3 11 -3 7.64 8.57
-3 -11 -3 7.95 8.86
-3 11 -3 -1.58 7.18
-3 11 -2 200.88 17.3
-3 11 -2 185.88 14.43
-3 11 -2 179.62 17.79
-3 -11 -2 149.8 13.54
-3 11 -2 180.52 16.56
-3 -11 -2 130.7 16.02
-3 -11 -1 29.91 6.79
-3 11 -1 19.33 7.71
-3 -11 -1 21.88 9.14
-3 11 -1 30.16 10.13
-3 11 -1 20.69 6.08
-3 11 0 226.36 16.7
-3 11 0 221.35 18.07
-3 -11 0 219.64 18.89
-3 11 0 236.75 19.33
-3 11 0 176.43 16.77
-3 -11 0 182.43 14.6
-3 11 1 39.45 8.21
-3 11 1 36.92 8.32
-3 -11 1 33.96 6.57
-3 -11 1 45.25 9.48
-3 -11 1 45.94 10
-3 11 1 36.35 8.68
-3 11 1 44.62 10.39
-3 -11 2 298.65 22.64
-3 -11 2 310.41 19.58
-3 11 2 325.77 22.03
-3 11 2 337.94 23.5
-3 -11 2 320.49 23.02
-3 11 2 339.53 23.46
-3 11 2 329.35 22.14
-3 11 3 14.23 6.17
-3 11 3 12.01 7.86
-3 11 3 13.72 6.49
-3 -11 3 23.67 8.04
-3 11 3 21.25 7.32
-3 -11 3 17.1 5.47
-3 -11 3 16.92 7.64
-3 11 4 471.5 28.71
-3 -11 4 527.48 27.32
-3 -11 4 541.11 31.81
-3 11 4 493.04 30.77
-3 -11 4 555.1 28.03
-3 -11 4 515.86 31.01
-3 11 4 518.2 31.59
-3 11 5 3.04 5.28
-3 11 5 9.95 6.83
-3 -11 5 7.97 6.53
-3 11 5 16.52 5.88
-3 -11 5 -2.84 6.79
-3 11 6 151.9 14.49
-3 -11 6 179.85 15.49
-3 11 7 4.75 6.19
-3 -11 7 1.34 6.44
-3 12 -2 5.21 5.46
-3 12 -2 6.74 7.19
-3 12 -2 5.13 7.09
-3 -12 -2 5.48 8.79
-3 12 -1 113.95 14.06
-3 -12 -1 120.34 11.94
-3 12 -1 98.66 11.53
-3 -12 -1 120.75 15.14
-3 12 0 73.26 13.02
-3 -12 0 88.51 12.89
-3 12 0 67.07 10.06
-3 12 0 71.8 11.42
-3 -12 0 64.62 12.16
-3 12 0 77.81 12.23
-3 -12 0 79.83 9.89
-3 -12 1 36.32 9.3
-3 12 1 27.97 7.98
-3 -12 1 30.36 9.56
-3 12 1 33.25 9.03
-3 12 1 23.53 7.93
-3 -12 1 33.37 7.28
-3 12 1 23.04 9.35
-3 12 2 72.3 11.15
-3 -12 2 87.62 12.72
-3 12 2 64.37 10.47
-3 -12 2 85.18 12.1
-3 12 2 65.83 11.51
-3 -12 2 65.93 8.91
-3 12 2 73.53 12.3
-3 12 3 138.68 14.31
-3 -12 3 126.24 14.21
-3 12 3 116.14 13.91
-3 12 3 122.56 14.76
-3 -12 3 117.21 13.66
-3 12 3 115.14 12.59
-3 12 4 6.24 6.81
-3 12 4 8.28 7.55
-3 12 4 4.69 8.77
-3 -12 4 2.98 6.64
-3 -12 4 8.14 7.85
-3 12 4 4.25 6.1
-3 12 5 95.17 12.8
-3 -12 5 96.98 12.23
-3 12 6 26.94 8.25
-3 13 -2 106.64 11.8
-3 13 -1 16.25 7.47
-3 -13 0 40.07 8.42
-3 13 1 4.79 7.35
-3 13 2 3.02 7.12
-3 13 3 9.26 7.56
-2 0 -11 -2.66 5.4
-2 0 -10 88.02 10.6
-2 0 -10 93.23 11.31
-2 0 -10 86.25 9.55
-2 0 -9 1.44 5.11
-2 0 -9 -1.14 4.96
-2 0 -9 -4.14 4.8
-2 0 -8 446.81 24.93
-2 0 -8 430.67 25.49
-2 0 -8 467.34 25.47
-2 0 -7 -0.9 4.08
-2 0 -7 1.65 3.57
-2 0 -7 5.33 3.8
-2 0 -6 1048.52 47.83
-2 0 -6 1019.3 47.4
-2 0 -6 1025.53 44.59
-2 0 -5 -0.34 3.21
-2 0 -5 1.97 2.06
-2 0 -4 1231.76 52.89
-2 0 -3 1.21 1.78
-2 0 -3 2.41 2.58
-2 0 -2 3976.21 164.18
-2 0 -2 4002.56 164.33
-2 0 -1 2.56 1.51
-2 0 -1 0.79 1.48
-2 0 0 1129.14 48.05
-2 0 0 1119.99 47.06
-2 0 1 2.62 1.9
-2 0 1 1.56 1.64
-2 0 1 2.02 1.63
-2 0 2 1988.4 81.64
-2 0 2 1943.31 81
-2 0 2 1960.46 81.59
-2 0 3 0.72 2.05
-2 0 3 -0.33 1.36
-2 0 3 2.33 1.39
-2 0 4 105.23 7.22
-2 0 4 94.37 5.74
-2 0 4 103.18 7.18
-2 0 4 94.3 5.9
-2 0 5 1.03 2.61
-2 0 5 3.86 3.07
-2 0 5 4.24 1.68
-2 0 5 1.36 1.94
-2 0 6 80.03 7.1
-2 0 6 75.84 5.22
-2 0 6 70.51 5.88
-2 0 6 71.09 6.9
-2 0 7 1.05 2.91
-2 0 7 2.44 3.59
-2 0 7 3.18 2.25
-2 0 7 3.85 3.62
-2 0 8 1216.99 56.24
-2 0 8 1316.03 58.05
-2 0 8 1308.94 57.97
-2 0 8 1257.55 54.31
-2 0 9 3.61 4.71
-2 0 9 2.75 2.82
-2 0 9 0.46 4.19
-2 0 9 2.91 4.03
-2 0 10 400.67 22.38
-2 0 10 387.39 19.15
-2 0 10 414.14 23.89
-2 0 10 387.57 23.53
-2 0 11 4.65 5.18
-2 0 11 -1.13 5.58
-2 0 11 -0.48 4.99
-2 0 12 241 18.73
-2 0 12 252.54 17.83
-2 0 12 241.68 18.62
-2 1 -11 227.9 16.98
-2 1 -10 16.85 6.68
-2 -1 -10 20.18 6.86
-2 -1 -10 24.73 6.6
-2 -1 -10 23.7 6.13
-2 1 -10 19.81 6.92
-2 1 -10 18.18 6.42
-2 -1 -9 54.33 7.48
-2 1 -9 55.14 7.84
-2 -1 -9 47.07 7.99
-2 1 -9 65.48 8.42
-2 -1 -9 53.41 8.08
-2 1 -9 66.53 9.04
-2 1 -8 143.18 12.26
-2 -1 -8 120.62 10.65
-2 1 -8 134.31 11.57
-2 -1 -8 118.13 10.86
-2 -1 -8 136.71 12.03
-2 1 -7 432.94 24.43
-2 -1 -7 400.63 23.44
-2 1 -7 451.72 20.88
-2 -1 -7 416.1 23.55
-2 1 -7 467.03 24.4
-2 -1 -6 262.13 16.2
-2 1 -6 275.24 14.06
-2 1 -6 257.96 16.15
-2 -1 -5 348.47 20.48
-2 1 -5 422.28 19.33
-2 -1 -4 71.3 6.77
-2 1 -4 76.31 5.79
-2 -1 -3 1075.91 49.58
-2 1 -3 1207.01 50.32
-2 -1 -3 1100.25 50.38
-2 1 -3 1185.94 49.59
-2 1 -2 593.94 28.04
-2 -1 -2 633.1 27.86
-2 1 -2 626.11 28.11
-2 -1 -2 658.52 27.79
-2 1 -2 601.86 28.07
-2 -1 -2 582.7 28.51
-2 1 -1 287.52 14.75
-2 -1 -1 366.54 15.53
-2 1 -1 280.42 14.99
-2 1 -1 278.37 15.21
-2 -1 -1 360.64 14.97
-2 1 0 4315.53 176.51
-2 -1 0 4423.09 176.35
-2 -1 0 4147.46 177.69
-2 1 1 137.95 7.96
-2 -1 1 163.47 8.43
-2 1 1 139.79 8.16
-2 -1 2 1056.6 44.02
-2 1 2 1032 43.96
-2 1 2 986.51 43.84
-2 -1 2 1038.48 44.47
-2 1 3 612 28.78
-2 -1 3 668.23 29.05
-2 1 3 654.11 29.66
-2 -1 3 698 27.88
-2 1 3 610.99 28.44
-2 -1 4 365.64 18.42
-2 -1 4 381.01 16.87
-2 1 4 393.15 18.3
-2 1 4 379.35 18.09
-2 1 4 383.84 19.19
-2 -1 4 371.78 18.43
-2 1 4 377.3 17.25
-2 1 4 380.21 19.13
-2 1 5 666.9 29.2
-2 1 5 690.85 28.94
-2 1 5 653.44 30.2
-2 1 5 691.17 27.28
-2 -1 5 557.77 27.6
-2 -1 5 546.09 29.08
-2 -1 5 577.47 29.11
-2 1 5 687.08 30.49
-2 1 6 343.22 17.43
-2 1 6 311.82 15.39
-2 -1 6 265.58 13.02
-2 -1 6 271.34 15.89
-2 1 6 330.24 16.15
-2 1 6 330.86 17.13
-2 -1 6 290.26 14.74
-2 -1 6 291.87 16.09
-2 -1 7 87.84 8.27
-2 1 7 123.01 9.37
-2 1 7 113.66 9.35
-2 -1 7 86.29 5.2
-2 1 7 117.94 7.73
-2 1 7 113.23 8.59
-2 -1 7 95.16 8.37
-2 -1 7 77.54 6.9
-2 1 8 167.32 11.73
-2 1 8 167.92 10.44
-2 -1 8 167.76 12.01
-2 -1 8 148.64 7.94
-2 -1 8 187.81 12.41
-2 1 8 157.25 12.19
-2 -1 8 148.94 10.52
-2 1 8 172.94 12.55
-2 1 9 460.49 24.2
-2 -1 9 356.41 17.74
-2 1 9 417.52 20.81
-2 -1 9 444.74 22.07
-2 1 9 444.7 23.91
-2 -1 9 450.81 23.71
-2 1 9 426.32 22.87
-2 -1 9 433.77 23.33
-2 -1 10 53.39 3.61
-2 1 10 83.07 9.41
-2 -1 10 77.81 9.13
-2 -1 10 86.17 9.28
-2 1 10 72.95 9.24
-2 1 10 77.51 7
-2 1 10 84.83 9
-2 -1 10 76.24 7.96
-2 1 11 118.66 11.66
-2 -1 11 122.35 11.87
-2 1 11 111.62 11.69
-2 1 11 114.05 11.98
-2 -1 11 92.12 10.75
-2 -1 11 89.79 9.72
-2 1 11 117.09 8.78
-2 -1 12 22.74 7.7
-2 1 12 29.35 8.54
-2 -1 12 18.46 7.16
-2 1 12 21.57 7.01
-2 -1 12 29.52 6.9
-2 2 -11 -1.77 6.16
-2 2 -10 244.61 18.49
-2 2 -10 256.44 19.47
-2 2 -10 257.54 18.23
-2 -2 -10 271.42 19.39
-2 -2 -10 284.01 19.18
-2 -2 -10 245.43 17.13
-2 -2 -9 8.03 4.96
-2 -2 -9 7.38 4.86
-2 2 -9 6.6 2.37
-2 2 -9 11.85 5.72
-2 2 -9 10.83 6.04
-2 -2 -8 497.57 27.13
-2 2 -8 512.23 28.84
-2 -2 -8 523.59 28.27
-2 2 -8 564.44 28.73
-2 2 -8 496.32 24.15
-2 2 -7 140.85 11.62
-2 2 -7 165.37 11.92
-2 -2 -7 100.13 9.81
-2 2 -7 146.51 8.88
-2 -2 -7 91.63 9.71
-2 -2 -6 212.51 13.99
-2 2 -6 234.03 14.73
-2 2 -6 219.67 12.57
-2 -2 -5 19.24 4.09
-2 2 -5 15.2 3.22
-2 2 -5 11.74 3.79
-2 2 -4 130.59 8.81
-2 -2 -4 137.73 9.76
-2 2 -4 135.7 10.19
-2 -2 -4 144.73 9.55
-2 2 -3 81.87 7.16
-2 2 -3 88.02 6.45
-2 2 -3 82.27 6.63
-2 -2 -3 67.27 5.8
-2 2 -2 252.98 13.44
-2 2 -2 241.59 13.21
-2 -2 -2 240.22 12.75
-2 -2 -2 248.27 13.75
-2 2 -1 647.53 27.58
-2 2 -1 568.52 27.83
-2 2 -1 624.9 28.33
-2 -2 -1 593.31 26.81
-2 2 0 2041.79 86.08
-2 2 0 2038.17 85.33
-2 -2 0 2120.16 86.02
-2 -2 0 2028.77 84.58
-2 2 1 604.44 30.48
-2 2 1 698.17 30.3
-2 -2 1 743.42 30.45
-2 2 1 665.02 30.77
-2 -2 1 764.37 31.36
-2 2 1 671.91 29.75
-2 2 2 2557.62 105.74
-2 2 2 2641.79 107.15
-2 -2 2 2572.3 106.16
-2 2 2 2527.71 105.74
-2 -2 2 2561.36 107.61
-2 2 2 2596.9 106.83
-2 -2 3 123.36 7.89
-2 -2 3 127.13 7.86
-2 2 3 200.15 9.77
-2 -2 3 127.42 9.15
-2 -2 4 1040.86 43.91
-2 2 4 991.63 44.48
-2 -2 4 996.32 43.42
-2 -2 4 1028.43 43.68
-2 2 4 987.64 43.07
-2 -2 4 1010.22 42.12
-2 -2 5 28.14 3.98
-2 2 5 20.78 4.39
-2 -2 5 25.41 3.73
-2 -2 5 26.1 3.4
-2 2 5 19.65 3.88
-2 2 5 20.61 4.05
-2 2 5 17.94 2.32
-2 -2 5 29.56 2.72
-2 2 6 1780.51 75.78
-2 -2 6 1795.39 75.74
-2 2 6 1852.29 77.32
-2 2 6 1727.45 72.63
-2 2 6 1829.64 76.39
-2 -2 6 1767.33 74.03
-2 -2 6 1670.2 75.42
-2 2 7 71.11 7.16
-2 -2 7 95.96 6.74
-2 2 7 71.79 8.19
-2 -2 7 83.42 7.59
-2 -2 7 77.47 7.19
-2 2 7 75.67 7.79
-2 2 8 536.23 28.36
-2 2 8 533.32 27.53
-2 -2 8 529.48 26.73
-2 -2 8 519.59 27.11
-2 2 8 496.31 26.05
-2 -2 8 528.78 25.52
-2 2 9 3.52 4.67
-2 -2 9 5.17 4.35
-2 -2 9 5.07 3.61
-2 2 9 4.8 4.95
-2 2 9 3.43 4.95
-2 2 9 -0.34 4.37
-2 -2 9 4.38 4.33
-2 2 10 249.2 18.38
-2 2 10 273.14 16.56
-2 2 10 263.31 18.77
-2 -2 10 277.32 18.18
-2 -2 10 289.92 18.03
-2 2 10 277.83 18.13
-2 -2 10 267.37 16.49
-2 -2 11 18.38 6.54
-2 2 11 4.39 5.81
-2 -2 11 16.19 5.51
-2 2 11 14.27 6.94
-2 2 11 13.46 5.96
-2 2 11 9.97 4.98
-2 -2 11 22.28 6.68
-2 -2 12 14.83 7.27
-2 2 12 10.94 6.98
-2 2 12 16.33 7.61
-2 -2 12 16.17 7.25
-2 3 -11 189.48 15.92
-2 -3 -10 49.03 8.23
-2 3 -10 35.53 7.85
-2 -3 -10 44.62 7.69
-2 3 -10 26.38 8.22
-2 -3 -9 41.02 7.01
-2 3 -9 42.97 7.6
-2 3 -9 42.83 8.03
-2 3 -9 36.94 4.64
-2 -3 -9 42.02 7.59
-2 3 -8 82.54 9.45
-2 3 -8 83.39 6.99
-2 -3 -8 88.07 9.23
-2 3 -8 96.28 10.52
-2 -3 -8 80.16 8.69
-2 -3 -7 448.02 23.14
-2 3 -7 401.45 23.97
-2 3 -7 396.36 20.89
-2 3 -7 408.48 23.5
-2 3 -6 145.96 11.72
-2 3 -6 151.31 10.29
-2 3 -6 163.33 12.61
-2 -3 -6 156.02 11.39
-2 3 -5 101.79 9.06
-2 3 -5 105.6 9.83
-2 3 -5 95.99 8.34
-2 -3 -5 121.93 9.46
-2 -3 -4 261.27 14.75
-2 3 -4 252.83 15.71
-2 3 -4 252.39 15.03
-2 -3 -4 251.91 14.91
-2 3 -4 247.45 14.43
-2 3 -4 249.14 15.16
-2 -3 -3 1043.49 45.85
-2 3 -3 1049.63 46.56
-2 -3 -3 1017 46.53
-2 3 -3 1015.4 46.17
-2 3 -2 486.43 24.16
-2 -3 -2 498.37 24.64
-2 3 -2 515.2 24.45
-2 -3 -2 497.48 23.54
-2 3 -1 368.7 18.31
-2 3 -1 371.33 17.21
-2 3 -1 387.1 17.76
-2 -3 -1 292.11 17.59
-2 3 -1 363.5 15.36
-2 -3 -1 284.72 16.17
-2 3 0 70.55 5.79
-2 3 0 69.03 5.66
-2 -3 0 61.34 4.5
-2 -3 0 60.13 5.8
-2 3 1 2885.24 114.64
-2 3 1 2849.03 114.69
-2 -3 1 2604.27 114.87
-2 3 1 2888.28 115.42
-2 -3 1 2661.95 113.12
-2 3 2 683.66 29.82
-2 -3 2 652.69 27.25
-2 3 2 623.85 28.69
-2 -3 2 614.2 28.99
-2 3 2 628.79 29.27
-2 3 2 623.6 28.2
-2 -3 3 1355.94 56.82
-2 -3 3 1346.07 58.79
-2 3 3 1427.69 59.96
-2 -3 3 1322.35 57.58
-2 3 3 1432.65 59.09
-2 3 3 1421.24 57.56
-2 -3 4 324.01 15.99
-2 3 4 330.47 16.39
-2 -3 4 338.16 16.7
-2 3 4 333.47 17.68
-2 -3 4 331.53 14.94
-2 3 5 813.35 40.04
-2 -3 5 906.48 39.3
-2 3 5 811.74 37.97
-2 -3 5 899.25 39.09
-2 -3 5 921.03 37.72
-2 -3 5 893.43 38.58
-2 -3 6 85.05 5.77
-2 3 6 70.47 7.27
-2 -3 6 85.8 6.95
-2 3 6 73.67 7.61
-2 3 6 71.56 5.03
-2 -3 6 80.34 6.48
-2 -3 6 86.56 6.87
-2 3 7 680.2 32.03
-2 -3 7 754.13 31.96
-2 -3 7 727.53 31.09
-2 3 7 683.16 33.21
-2 3 7 651.94 32.7
-2 -3 7 773.26 30.32
-2 3 8 84.15 8.49
-2 -3 8 86.56 7.14
-2 -3 8 79.34 8.11
-2 3 8 89.6 9.58
-2 3 8 95.93 9.69
-2 -3 8 85 7.94
-2 3 9 283.28 19.57
-2 -3 9 345.5 18
-2 3 9 293.13 18.63
-2 -3 9 322.99 18.58
-2 -3 9 344.85 19.6
-2 3 9 312.51 20.46
-2 -3 10 56.91 6.83
-2 3 10 54.25 7.46
-2 3 10 47.74 8.12
-2 3 10 61.06 9.15
-2 -3 10 66.63 8
-2 -3 10 57.05 8.24
-2 3 11 189.8 14.12
-2 -3 11 184.57 14.28
-2 3 11 204.82 16.1
-2 -3 11 199.24 13.76
-2 -3 11 183.94 15.17
-2 3 11 186.4 16.28
-2 3 12 33.95 9.1
-2 -3 12 27.52 7.41
-2 -3 12 17.62 6.71
-2 -4 -10 130.7 11.89
-2 4 -10 134.49 13.44
-2 4 -9 49.66 8.81
-2 4 -9 50.09 8.55
-2 4 -9 29.45 4.89
-2 -4 -9 20.3 6.19
-2 -4 -9 28.53 6.5
-2 4 -8 390.95 24.37
-2 -4 -8 388.8 22.41
-2 4 -8 374.5 20.45
-2 4 -8 415.75 24.03
-2 4 -7 45.95 7.23
-2 4 -7 28.52 6.37
-2 4 -7 35.95 7.04
-2 4 -7 30.24 5.05
-2 -4 -7 19.91 5.76
-2 4 -6 1185.07 55.53
-2 -4 -6 1188.66 54.93
-2 4 -6 1211.1 54.11
-2 4 -6 1221.09 56.71
-2 -4 -5 116.16 9.73
-2 4 -5 123.47 10.82
-2 -4 -5 121.09 10.24
-2 4 -5 129.55 9.8
-2 4 -5 113.82 9.83
-2 -4 -4 1626.38 69.45
-2 4 -4 1538.41 70.18
-2 4 -4 1538.72 69.46
-2 4 -4 1555.16 68.83
-2 -4 -4 1573.21 68.91
-2 4 -3 57.84 6.53
-2 -4 -3 77.92 8.13
-2 4 -3 58.82 5.39
-2 4 -3 68.72 6.72
-2 -4 -3 71.62 7.2
-2 -4 -3 78.95 6.68
-2 -4 -2 2560.45 110.21
-2 -4 -2 2727.11 112.37
-2 4 -2 2648.71 108.89
-2 -4 -2 2641.91 111.73
-2 4 -2 2652.3 111.32
-2 4 -2 2537.94 111.22
-2 4 -1 76.83 6.22
-2 4 -1 88.38 7.26
-2 -4 -1 54.66 6.55
-2 4 -1 75.93 7.03
-2 -4 -1 77.17 7.5
-2 4 -1 78.13 4.89
-2 -4 -1 71.78 6
-2 4 0 1669.69 70.66
-2 4 0 1585.31 70.79
-2 4 0 1625.22 70.87
-2 -4 0 1640.27 69.44
-2 -4 0 1712.2 71.6
-2 -4 1 169.81 11.01
-2 -4 1 180.33 9.34
-2 4 1 169.3 10.94
-2 4 1 170.02 10.24
-2 4 1 152.12 10.4
-2 -4 2 1646.49 69.62
-2 4 2 1723.33 71.84
-2 4 2 1728.17 71.39
-2 4 2 1490.25 71.7
-2 -4 2 1679.84 71.65
-2 4 2 1711.43 70.73
-2 4 3 140.61 10.09
-2 -4 3 177.65 8.61
-2 4 3 152.3 10.08
-2 4 3 151.55 10.86
-2 4 3 155.58 10.24
-2 -4 3 175.8 8.41
-2 -4 3 161.95 10.4
-2 -4 4 41.79 3.34
-2 -4 4 40.49 3.69
-2 4 4 27.67 4.83
-2 -4 4 40.45 4.75
-2 4 4 29.34 4.79
-2 4 4 27.55 4.09
-2 -4 5 15.73 2.55
-2 -4 5 19.29 3.44
-2 -4 5 18.49 3.97
-2 4 5 30.06 2.38
-2 4 5 32.98 5.35
-2 4 5 37.57 4.19
-2 -4 6 316.95 16.99
-2 -4 6 304.64 15.4
-2 -4 6 296.11 15.1
-2 4 6 290.64 15.22
-2 4 6 315.52 18.24
-2 -4 6 305.25 16.17
-2 -4 7 10.11 3.59
-2 -4 7 9.31 4.03
-2 4 7 22.39 5.86
-2 -4 7 9.15 3.8
-2 4 7 11.67 4.82
-2 4 7 17.76 2.66
-2 -4 7 11.06 3.08
-2 4 7 16.68 5.8
-2 4 8 337.06 20.03
-2 4 8 359.52 21.09
-2 -4 8 347.15 17.87
-2 -4 8 341.7 19.17
-2 4 8 336.18 20.63
-2 4 8 296.59 20.43
-2 -4 8 333.87 18.15
-2 4 9 23.68 6.11
-2 4 9 27.38 6.84
-2 -4 9 21 5.06
-2 -4 9 20 4.6
-2 -4 9 24.59 5.12
-2 4 9 25.23 6.29
-2 4 9 24 6.65
-2 -4 10 219.79 14.06
-2 -4 10 212.77 15.42
-2 4 10 214.05 16.88
-2 4 10 209.91 16.8
-2 4 10 215.26 15.72
-2 4 10 231.31 17.52
-2 -4 10 220.7 14.72
-2 4 11 -2.7 6.64
-2 -4 11 2.4 4.54
-2 -4 11 1.33 4.6
-2 -4 11 6.38 6.21
-2 4 11 -0.66 5.76
-2 4 11 2.5 5.33
-2 4 11 5.76 7.36
-2 -4 12 213.05 16.77
-2 4 12 222.21 18.18
-2 5 -10 17.2 7.75
-2 5 -9 128.03 13.55
-2 5 -9 126.3 12.5
-2 5 -9 108.68 9.05
-2 -5 -9 83.92 10.17
-2 -5 -9 94.27 10.98
-2 5 -8 13.66 5.85
-2 5 -8 16.09 6.43
-2 5 -8 12.65 4.52
-2 -5 -8 14.52 5.8
-2 5 -8 9.95 5.66
-2 5 -7 411.99 25.63
-2 -5 -7 376.93 23.6
-2 -5 -7 383.36 26.44
-2 5 -7 462.29 25.04
-2 5 -7 468.86 23.75
-2 5 -7 479.59 26.77
-2 5 -6 8.21 5.1
-2 -5 -6 12.19 4.58
-2 5 -6 15.99 5.21
-2 -5 -6 19.96 7.15
-2 -5 -6 8.61 4.87
-2 5 -6 6.69 4.39
-2 5 -5 445.1 25.15
-2 -5 -5 393.7 23.39
-2 5 -5 452.59 23.03
-2 5 -5 421.21 23.15
-2 -5 -5 424.84 23.27
-2 -5 -4 80.31 8.26
-2 5 -4 80.61 8.59
-2 5 -4 90.71 9.28
-2 5 -4 79.91 7.21
-2 5 -4 85.83 8.37
-2 -5 -4 90.74 7.91
-2 5 -3 2028.79 87.85
-2 -5 -3 1981.92 87.78
-2 -5 -3 1989.49 86.45
-2 5 -3 2031.75 87.57
-2 5 -3 2017.3 85.4
-2 -5 -2 224.68 14.66
-2 -5 -2 245.32 15.52
-2 -5 -2 216.71 13.22
-2 5 -2 195.95 14.24
-2 5 -2 233.28 14.51
-2 5 -2 228.61 12.3
-2 5 -2 243.54 13.34
-2 5 -2 236.55 14.74
-2 5 -1 281.83 16.89
-2 5 -1 277.42 16.84
-2 -5 -1 305.92 17.82
-2 -5 -1 318.18 15.88
-2 5 -1 279.61 15.83
-2 5 0 502.03 24.83
-2 5 0 508.65 24.3
-2 -5 0 450.16 22.88
-2 5 0 485.1 24.72
-2 -5 0 480.19 25.11
-2 -5 1 1569.3 68.85
-2 -5 1 1625.66 66.78
-2 5 1 1471 68.11
-2 -5 2 295.16 16.94
-2 5 2 311.63 16.94
-2 -5 2 292.52 15.13
-2 5 3 614.62 31.26
-2 5 3 617.93 30.56
-2 -5 3 661.97 27.34
-2 -5 3 676.59 31.02
-2 -5 3 587.92 31.13
-2 5 3 611.24 30.27
-2 -5 4 371.45 17.78
-2 5 4 388.96 20.41
-2 -5 4 378.63 19.98
-2 -5 4 366.87 17.32
-2 5 4 408.3 21.26
-2 -5 4 335.06 20.4
-2 5 4 369.48 19.64
-2 5 5 400.96 17.18
-2 -5 5 324.85 17.08
-2 5 5 345.06 20.47
-2 -5 5 345.66 19.39
-2 -5 5 330.07 17.3
-2 5 5 382.9 20.63
-2 5 5 382.07 19.08
-2 5 6 239.75 11.03
-2 -5 6 211.7 14.13
-2 5 6 258.84 16.16
-2 5 6 230.44 15.38
-2 -5 6 201.93 12.67
-2 5 6 262.35 13.61
-2 -5 6 204.78 12.14
-2 -5 7 171.72 11.62
-2 -5 7 179.04 12.64
-2 -5 7 166.23 10.37
-2 5 7 213.67 11.17
-2 5 7 212.46 14.59
-2 5 7 175.34 14.02
-2 -5 7 173.96 10.8
-2 -5 8 107.57 9.83
-2 -5 8 95.73 7.79
-2 5 8 112.44 11.15
-2 -5 8 102.89 8.94
-2 5 8 107.23 6.65
-2 -5 8 110.96 8.32
-2 -5 9 196.04 12.43
-2 5 9 196.25 15.08
-2 -5 9 187.91 12.23
-2 5 9 194.19 15.69
-2 -5 9 175.76 13.15
-2 5 9 196.66 14.87
-2 5 10 32.11 7.89
-2 5 10 21.67 6.76
-2 -5 10 26.61 5.06
-2 5 10 25.77 8.25
-2 -5 10 24.58 5.49
-2 5 10 26.96 7.36
-2 -5 10 22.99 5.86
-2 5 11 149.96 14.59
-2 5 11 162.21 14.06
-2 -5 11 166.97 13.66
-2 5 11 150.09 15.17
-2 5 11 159.89 15.42
-2 -5 12 17.58 7.1
-2 6 -9 13.65 7.38
-2 -6 -9 13.29 6.17
-2 -6 -9 15.24 8.89
-2 6 -9 17.88 7.07
-2 6 -9 16.39 5.43
-2 6 -9 18.39 7.22
-2 -6 -8 226.74 16.19
-2 6 -8 192.2 16.91
-2 -6 -8 220.41 19.04
-2 6 -8 212.12 17.4
-2 6 -8 189.19 14.08
-2 6 -8 201.15 15.87
-2 6 -7 46.41 7.64
-2 6 -7 47.75 8.47
-2 6 -7 43.61 6.89
-2 -6 -7 48.46 7.53
-2 6 -7 49.54 8.82
-2 -6 -7 42.03 7.47
-2 -6 -7 60.8 10.24
-2 -6 -6 2.33 3.67
-2 6 -6 2.72 4.33
-2 6 -6 3.6 5.12
-2 -6 -6 3.32 5.24
-2 6 -6 0.87 4.54
-2 -6 -6 -2.66 6.03
-2 6 -5 114.13 11.25
-2 -6 -5 101.55 9.92
-2 -6 -5 101.91 9.53
-2 6 -5 84.68 9.19
-2 6 -5 99.54 8.95
-2 6 -4 55.42 6.23
-2 6 -4 40.99 7.36
-2 6 -4 43.18 7.22
-2 6 -4 39.36 7.23
-2 -6 -4 60.66 6.8
-2 6 -3 81.78 8.93
-2 6 -3 75.06 6.77
-2 6 -3 75.4 8.06
-2 -6 -2 228.16 16.81
-2 6 -2 251.61 16.77
-2 6 -2 272.74 15.26
-2 -6 -2 254.99 15.37
-2 6 -1 227.94 14.73
-2 6 -1 229.27 14.68
-2 6 -1 222.59 13.16
-2 -6 -1 196.8 12.47
-2 -6 -1 202.85 12.61
-2 -6 -1 178.94 14.01
-2 -6 0 317.03 18.86
-2 -6 0 330.5 16.61
-2 6 0 321.97 17.69
-2 -6 0 289.69 16.4
-2 6 0 278.81 17.91
-2 -6 1 42.42 4.87
-2 -6 1 45.17 4.67
-2 6 1 38.72 5.69
-2 -6 1 46.37 6.53
-2 6 1 38.69 6.12
-2 -6 2 1461.22 63.4
-2 6 2 1509.55 63.38
-2 -6 2 1310.17 60.85
-2 -6 2 1407.72 63.53
-2 -6 3 52.42 6.81
-2 6 3 35.22 6.21
-2 6 3 45.76 6.5
-2 -6 3 55.11 6.65
-2 -6 4 631.1 28.29
-2 -6 4 657.84 32.16
-2 -6 4 658.66 29.73
-2 -6 4 650.38 32.78
-2 6 4 659.8 32.01
-2 6 4 665.3 33.26
-2 -6 5 58.56 7.24
-2 -6 5 58.7 5.52
-2 6 5 75.41 7.99
-2 -6 5 67.7 5.42
-2 6 5 69.04 5.88
-2 6 5 68.32 8.57
-2 6 5 61.38 6.92
-2 6 6 1109.25 52.27
-2 -6 6 1054 47.87
-2 -6 6 1076.45 50.58
-2 6 6 1158.61 49.69
-2 -6 6 1054.25 47.94
-2 6 6 1117.67 47.05
-2 6 6 1087.12 51.52
-2 6 7 37.73 5.33
-2 6 7 50.51 7.72
-2 -6 7 39.77 6.38
-2 6 7 39.03 3.34
-2 -6 7 39.16 5.27
-2 -6 7 35.53 4.77
-2 6 7 42.67 7.19
-2 6 8 176.1 14.49
-2 -6 8 179.61 13.32
-2 6 8 172.93 14.52
-2 -6 8 166.01 11.86
-2 6 8 184.83 10.9
-2 -6 8 176.55 11.37
-2 -6 9 12.36 4.26
-2 6 9 4.3 5.48
-2 6 9 -1.15 5.36
-2 -6 9 8.23 4.43
-2 6 9 7.06 1.99
-2 -6 9 10.44 3.6
-2 6 10 216.75 17.24
-2 -6 10 235.3 14.53
-2 -6 10 218.79 15.49
-2 -6 11 14.33 6.25
-2 6 11 11.21 7.43
-2 7 -9 45.76 9.9
-2 -7 -9 50.78 12.17
-2 7 -9 42.43 7.3
-2 7 -8 2.37 5.87
-2 7 -8 -1.45 7.04
-2 -7 -8 0.6 5.3
-2 -7 -8 1.66 8.01
-2 7 -8 -0.75 7.15
-2 7 -8 7.99 5.42
-2 7 -7 282.18 18.93
-2 -7 -7 324.65 22.8
-2 7 -7 254.88 18.14
-2 7 -7 264.45 20.22
-2 -7 -7 295.25 19.16
-2 7 -6 17.8 5.77
-2 -7 -6 19.47 5.37
-2 7 -6 14.9 5.5
-2 7 -6 16.41 6.49
-2 -7 -6 22.45 7.44
-2 -7 -5 35.32 6.1
-2 7 -5 32.55 7.19
-2 7 -5 27.36 5.84
-2 7 -5 40.62 6.93
-2 7 -4 226.04 16.59
-2 -7 -4 212.69 14.47
-2 7 -4 194.07 14.98
-2 7 -4 208.69 13.94
-2 7 -3 80.23 7.43
-2 -7 -3 66.09 7.6
-2 7 -3 80.2 9.57
-2 7 -2 149.47 10.72
-2 7 -2 138.46 12.32
-2 7 -2 131.37 11.96
-2 -7 -2 169.41 11.31
-2 -7 -2 133.4 10.57
-2 -7 -2 124.24 12.45
-2 -7 -1 118.95 9.57
-2 -7 -1 127.66 10.06
-2 7 -1 160.37 11.02
-2 7 -1 150.37 11.9
-2 -7 -1 115.3 11.65
-2 7 -1 138.73 12.14
-2 7 0 135.51 11.92
-2 -7 0 127.54 11.9
-2 7 0 148.38 10.91
-2 -7 0 135.1 10.09
-2 -7 0 155.19 10.19
-2 -7 1 805.61 38.43
-2 7 1 845.27 40.85
-2 -7 1 839.88 37.98
-2 7 1 872.48 40.27
-2 -7 1 793.85 40.69
-2 7 2 365.38 22.84
-2 -7 2 399.3 23.22
-2 -7 2 442.22 20.57
-2 -7 2 430.04 23.68
-2 -7 2 403.22 21.42
-2 -7 3 614.32 32.04
-2 7 3 648.78 32.43
-2 -7 3 621.14 32.36
-2 7 4 227.91 16.21
-2 7 4 241.25 15.8
-2 -7 4 219.36 10.8
-2 -7 4 233.51 15.38
-2 7 4 211.2 14.45
-2 -7 4 240.22 15.83
-2 -7 4 214.19 12.91
-2 7 5 621.06 33.36
-2 -7 5 671.25 32.58
-2 7 5 585.48 31.75
-2 -7 5 622.27 33.01
-2 7 5 630.79 29.94
-2 -7 5 632.34 29.64
-2 -7 5 632.07 28.18
-2 -7 6 37.86 5.23
-2 7 6 33.7 6.55
-2 7 6 29.78 4.42
-2 -7 6 43.43 4.62
-2 7 6 31.87 6.96
-2 -7 6 35.93 6.51
-2 7 6 34.15 5.87
-2 7 7 336.43 21.05
-2 -7 7 366.58 20.98
-2 -7 7 351.7 17.81
-2 7 7 298.08 15.96
-2 7 7 310.89 18.34
-2 -7 7 338.53 17.74
-2 7 7 332.55 21.53
-2 7 8 124.52 12.83
-2 7 8 100.64 6.17
-2 -7 8 127.52 9.56
-2 7 8 145.08 13.02
-2 7 8 136.64 9.53
-2 -7 8 128.27 9.26
-2 -7 8 118.1 11.15
-2 7 9 157.56 15.05
-2 -7 9 194.25 14.84
-2 -7 9 178.37 12.15
-2 -7 9 187.37 12.94
-2 7 9 147.47 15.19
-2 7 10 22.43 7.64
-2 7 10 48.37 9.68
-2 -7 10 35.28 6.62
-2 7 11 128.73 13.77
-2 8 -9 7 7.51
-2 8 -9 2.45 7.29
-2 8 -8 168.38 15.33
-2 -8 -8 187.57 18.9
-2 8 -8 181.44 14.92
-2 8 -8 199.58 17.96
-2 8 -7 44.85 9.27
-2 -8 -7 32.73 9.48
-2 8 -7 31.44 7.15
-2 -8 -7 34.15 7.51
-2 8 -7 47.59 8.23
-2 8 -6 390.73 26.21
-2 -8 -6 408.26 24.39
-2 -8 -6 432.95 28.1
-2 8 -6 411.58 24.94
-2 8 -6 409.97 24.24
-2 8 -5 30.66 7.76
-2 -8 -5 17.31 5.14
-2 8 -5 21.89 6.42
-2 8 -5 20.13 7.54
-2 8 -5 32.09 6.58
-2 8 -4 197.74 16.7
-2 -8 -4 234.83 15.64
-2 8 -3 100.43 11.14
-2 -8 -3 78.37 8.68
-2 8 -3 106.31 11.39
-2 8 -3 104.72 8.75
-2 -8 -3 74.62 8.53
-2 8 -2 535.41 30.43
-2 8 -2 559.12 27.84
-2 -8 -2 560.44 28.24
-2 8 -2 578.18 30.66
-2 -8 -2 513.85 30.57
-2 -8 -2 487.84 27.51
-2 -8 -1 167.11 12.07
-2 8 -1 199.65 13.24
-2 -8 -1 179.27 15.03
-2 8 -1 203.41 15.47
-2 -8 -1 149.21 12.05
-2 8 0 502.11 29.79
-2 -8 0 566.69 30.7
-2 -8 0 565.6 27.54
-2 -8 0 557.19 28.09
-2 8 0 522.11 28.25
-2 8 1 268.57 16.96
-2 8 1 247.22 17.58
-2 -8 1 268.48 18.15
-2 -8 1 244.99 14.82
-2 -8 1 266.35 17.86
-2 -8 1 245.77 15.53
-2 -8 2 286.46 18.84
-2 -8 2 277.69 15.46
-2 8 2 272.62 18.1
-2 8 2 283.38 18.97
-2 -8 2 279.99 18.45
-2 -8 2 285.34 16.93
-2 -8 3 136.58 12.03
-2 -8 3 134.25 8.9
-2 8 3 122.36 11.7
-2 -8 3 134.24 11.72
-2 -8 3 138.35 10.78
-2 -8 4 47.38 3.27
-2 8 4 58.97 8.61
-2 8 4 58.52 8.73
-2 -8 4 56.72 6.24
-2 -8 4 53.92 7.74
-2 -8 4 47.05 7.37
-2 -8 5 68.18 4.89
-2 8 5 55.21 7.96
-2 8 5 49.01 8.42
-2 -8 5 72.1 8.83
-2 -8 5 63.65 8.18
-2 8 5 60.94 7.12
-2 -8 5 64.4 6.62
-2 8 6 19.73 6.06
-2 -8 6 23 4.53
-2 8 6 23.5 4.51
-2 8 6 24.27 7.27
-2 -8 6 22.19 3.81
-2 -8 6 23.65 5.56
-2 8 6 18.53 5.59
-2 8 7 119.62 12.82
-2 -8 7 125.15 11.49
-2 8 7 107.45 11.71
-2 -8 7 127.08 8.9
-2 -8 7 131.65 9.62
-2 8 7 111.47 9.98
-2 8 7 118.36 8.42
-2 -8 8 51.15 6.22
-2 -8 8 51.48 8.32
-2 -8 8 52.48 6.45
-2 8 8 52.61 9.62
-2 8 8 50.78 7.04
-2 8 8 64.97 9.39
-2 8 9 34.1 8.65
-2 -8 9 44.05 8.03
-2 -8 9 51.72 6.9
-2 8 9 42.4 9.63
-2 8 10 181.95 16.77
-2 9 -8 29.25 8.12
-2 9 -8 38.99 8.77
-2 9 -7 458.17 29.93
-2 -9 -7 452.23 31.12
-2 9 -7 460.34 27.48
-2 9 -7 463.78 27.86
-2 9 -6 56.57 10.14
-2 -9 -6 36.33 10.11
-2 9 -6 42.85 8.69
-2 -9 -6 39.54 7.4
-2 9 -5 334.97 22.8
-2 -9 -5 300.41 20.13
-2 9 -5 290.42 22.5
-2 9 -5 337.69 21.86
-2 -9 -5 280.36 22.79
-2 -9 -4 74.74 9.16
-2 9 -4 77.16 10.84
-2 9 -3 460.46 24.13
-2 -9 -3 432.23 24.88
-2 9 -3 466.44 27.79
-2 -9 -3 409.53 24.56
-2 9 -3 440.03 27.69
-2 9 -2 40.95 8.17
-2 -9 -2 46.72 6.88
-2 9 -2 44.18 8.63
-2 -9 -2 55.84 9.88
-2 -9 -2 55.88 7.69
-2 9 -2 42.97 6.83
-2 -9 -1 509.5 27.85
-2 -9 -1 544.15 27.95
-2 9 -1 549.21 31.02
-2 -9 -1 533.81 30.92
-2 9 -1 508.64 27.85
-2 9 0 0.47 4.6
-2 -9 0 2.5 4.49
-2 -9 0 6.84 6.32
-2 9 0 -0.61 6.15
-2 -9 0 -0.37 3.66
-2 9 1 453.03 27.03
-2 -9 1 517.69 26.55
-2 9 1 432.44 28.06
-2 -9 1 521.34 28.9
-2 -9 1 514.25 25.52
-2 -9 1 525.96 29.46
-2 -9 2 82.79 10.16
-2 9 2 93.21 10.02
-2 -9 2 86.26 7.76
-2 -9 2 74.22 8.73
-2 -9 2 88.82 10.48
-2 9 2 96.81 11.04
-2 -9 3 86.85 9.11
-2 -9 3 93.43 7.35
-2 -9 3 86.83 9.89
-2 -9 3 86.44 10.32
-2 9 3 51.39 8.92
-2 9 3 53.3 8.99
-2 -9 4 8.78 5.73
-2 -9 4 10.74 4.2
-2 9 4 13.38 6.33
-2 -9 4 16.38 6.11
-2 9 4 9.63 5.16
-2 -9 5 27 5.18
-2 9 5 34.24 6.63
-2 9 5 51.97 8.48
-2 -9 5 22.28 2.65
-2 -9 5 30.03 6.68
-2 9 5 42.51 6.58
-2 -9 5 23.45 6.44
-2 9 6 20.05 5.75
-2 9 6 15.99 6.47
-2 9 6 18.54 5.1
-2 9 6 17.27 7.4
-2 -9 6 13.95 6.23
-2 -9 6 19.61 4.59
-2 -9 6 18.09 3.24
-2 9 7 -0.69 6.54
-2 -9 7 7.55 4.11
-2 9 7 5.97 4.79
-2 -9 7 5.19 3.26
-2 -9 7 5.2 5.27
-2 9 7 1.17 5.98
-2 9 7 4.42 3.67
-2 9 8 6.38 6.48
-2 9 8 1.45 7.26
-2 9 8 2.49 4.58
-2 -9 8 3.59 4.97
-2 -9 8 7.4 4.14
-2 9 9 180 17.35
-2 -9 9 183.43 15.78
-2 10 -8 73.61 11.07
-2 10 -7 7.62 6.72
-2 -10 -6 96.85 14.04
-2 10 -6 69.64 11.43
-2 10 -6 91.83 11.93
-2 -10 -5 46.34 8.47
-2 10 -5 62.5 10.21
-2 10 -5 61.57 10.55
-2 10 -5 57.93 11.45
-2 -10 -5 57.51 10.96
-2 -10 -4 37.72 7.14
-2 10 -4 28.08 8.85
-2 10 -3 24.94 5.67
-2 10 -3 24.33 7.35
-2 -10 -3 12.44 5.92
-2 -10 -3 8.34 5.24
-2 10 -3 27.79 9.17
-2 -10 -2 59.39 8.23
-2 10 -2 76.53 10.51
-2 10 -2 76.23 8.52
-2 -10 -2 56.57 8.18
-2 -10 -2 59.88 10.59
-2 10 -2 80.76 11.37
-2 10 -1 83.06 9.48
-2 10 -1 110.92 12.79
-2 -10 -1 93.33 9.56
-2 -10 -1 104.06 12.33
-2 -10 -1 97.92 10.19
-2 -10 0 76.24 8.85
-2 10 0 75.65 9.31
-2 -10 0 74.27 8.04
-2 -10 0 67.85 10.55
-2 10 0 82.65 11.38
-2 -10 1 159.53 14.82
-2 10 1 180.91 14.17
-2 -10 1 148.98 11.37
-2 10 1 173.44 15.64
-2 -10 1 137.2 13.68
-2 -10 1 144.5 12.58
-2 -10 2 202.49 16.8
-2 10 2 239.71 18.15
-2 10 2 215.91 16.35
-2 -10 2 200.67 13.41
-2 -10 2 212.78 15.31
-2 -10 2 201.59 16.18
-2 -10 3 139.97 13.64
-2 10 3 122.29 12.44
-2 -10 3 147.38 10.2
-2 10 3 133.28 13.66
-2 -10 3 138.97 12.04
-2 -10 3 134.56 13.09
-2 -10 4 176.75 13.34
-2 10 4 185.95 14.67
-2 -10 4 202.63 14.77
-2 -10 4 217.21 16.62
-2 10 4 224.08 17.58
-2 -10 4 198.74 15.87
-2 -10 5 47.87 6.72
-2 10 5 26.27 8.08
-2 -10 5 41.85 8.14
-2 -10 5 39.96 7.82
-2 10 5 23.08 6.17
-2 -10 6 160.79 12.06
-2 -10 6 160.64 14.41
-2 10 6 183.37 16.32
-2 10 6 157.91 13.88
-2 10 6 151.93 12.02
-2 10 7 12.95 5.68
-2 10 7 14.06 6.73
-2 10 7 10.53 7.56
-2 -10 7 12.58 6.49
-2 -10 7 16.22 5.03
-2 10 8 94.43 12.26
-2 -10 8 108.71 12.35
-2 11 -6 20.63 8.61
-2 11 -5 17.65 8.39
-2 -11 -5 9.26 9.3
-2 -11 -4 8.91 6.01
-2 11 -4 18.6 8.07
-2 11 -4 7.7 8.07
-2 -11 -3 21.69 6.79
-2 11 -3 12.45 7.08
-2 11 -3 15.28 5.83
-2 11 -3 22.42 9.67
-2 -11 -2 27.39 7.18
-2 11 -2 32.92 8.3
-2 11 -2 27.69 6.41
-2 -11 -2 25.24 6.49
-2 -11 -2 37.96 9.37
-2 11 -2 39.55 9.95
-2 -11 -1 38.44 7.66
-2 -11 -1 46.55 7.53
-2 11 -1 73.06 9.11
-2 -11 -1 44.67 10.24
-2 11 -1 50.85 10.45
-2 -11 0 48.17 9.55
-2 -11 0 33.04 7.11
-2 11 0 21.98 6.8
-2 -11 0 35.54 6.74
-2 11 0 23.61 8.68
-2 -11 0 38.85 8.77
-2 -11 1 144.83 14.79
-2 -11 1 140.11 12.75
-2 11 1 162.53 14.07
-2 11 1 157.18 15.61
-2 -11 1 143.74 14.02
-2 -11 1 136.03 11.31
-2 -11 2 13.51 6.67
-2 -11 2 6.64 5.27
-2 11 2 5.85 7.63
-2 11 2 10.81 5.82
-2 -11 2 10.4 4.47
-2 -11 2 7.08 6.72
-2 -11 3 202.57 17.29
-2 -11 3 220.13 16.03
-2 11 3 194.26 17.62
-2 11 3 208.54 17.07
-2 -11 3 232.9 17.56
-2 -11 3 197.94 13.2
-2 11 4 12.07 6.98
-2 -11 4 6.41 6.17
-2 11 4 6.2 6.23
-2 -11 4 2.7 5.91
-2 -11 4 12.73 5.37
-2 11 4 3.65 7.17
-2 -11 4 8.11 5.87
-2 -11 5 278.33 19.61
-2 11 5 218.77 16.62
-2 -11 5 250.77 19.09
-2 -11 5 246.92 16.17
-2 -11 5 246.92 17.22
-2 11 6 0.78 6.78
-2 -11 6 7.14 4.48
-2 -11 6 7.41 6.1
-2 -11 7 288.14 20.47
-2 11 7 236.9 18.12
-2 12 -3 87.78 12.65
-2 12 -3 82.62 9.7
-2 -12 -3 87.48 11.29
-2 12 -2 114.04 14.13
-2 12 -2 119.34 11.77
-2 -12 -2 119.48 12.05
-2 -12 -2 116.73 15.14
-2 -12 -2 113.28 12.58
-2 -12 -1 24.02 7.24
-2 12 -1 14.92 7.76
-2 12 -1 13.93 5.95
-2 12 -1 27.51 10.45
-2 -12 -1 22.34 6.41
-2 -12 -1 23.07 9.04
-2 -12 0 77.79 10.41
-2 -12 0 68.51 8.85
-2 -12 0 67.01 11.12
-2 12 0 74.3 10
-2 -12 0 76.94 12.21
-2 12 0 72.43 12.49
-2 12 1 29.76 9.99
-2 -12 1 36.82 8.86
-2 12 1 22.21 7.84
-2 -12 1 49.94 8.47
-2 -12 1 44.76 7.06
-2 -12 1 33.48 8.78
-2 -12 2 77.06 11.3
-2 12 2 79.27 11.04
-2 12 2 71.74 12.35
-2 -12 2 76.11 8.65
-2 -12 2 82.19 10.35
-2 -12 2 81.27 12.35
-2 12 3 24.71 8.58
-2 12 3 14.68 7.22
-2 12 3 11.98 9.19
-2 -12 3 27.07 9.12
-2 -12 3 35.52 7.82
-2 -12 3 24.53 8.12
-2 -12 4 51.47 8.88
-2 12 4 32.1 9.67
-2 -12 4 54 10.04
-2 12 4 46.63 9.09
-2 -12 4 48.56 7.61
-2 -12 4 60.27 10.19
-2 -12 5 5.83 6.96
-2 -12 5 5.21 5.17
-2 12 6 41.41 9.29
-2 13 -3 195.67 15.43
-2 13 -2 21.88 7.03
-2 13 -1 142.22 13.87
-2 -13 -1 148.91 15.94
-2 13 0 11.3 6.85
-2 -13 0 5.41 7.76
-2 -13 0 13.84 6.88
-2 -13 1 81.77 10.94
-2 13 1 58.18 10.23
-2 -13 1 69.88 11.02
-2 -13 2 5.48 6.86
-2 -13 2 -6.59 7.25
-2 -13 3 37.63 9.39
-2 13 3 25.65 8.89
-1 0 -11 8.69 5.46
-1 0 -11 3.86 6.42
-1 0 -11 3.03 4.65
-1 0 -10 3.64 5.08
-1 0 -10 -3.32 4.38
-1 0 -10 1.73 4.84
-1 0 -9 37.85 6.08
-1 0 -9 34.44 6.38
-1 0 -9 42.92 7.49
-1 0 -8 -2.75 4.19
-1 0 -8 -0.41 3.86
-1 0 -8 -1.08 3.76
-1 0 -7 431.36 23.24
-1 0 -7 390.96 21.66
-1 0 -7 436.91 22.63
-1 0 -6 1.04 2.96
-1 0 -6 -0.31 2.64
-1 0 -5 1194.55 52.9
-1 0 -5 1201.35 50.2
-1 0 -4 1.08 2.41
-1 0 -4 1.01 1.19
-1 0 -3 9788.48 397.58
-1 0 -2 2.11 1.32
-1 0 -1 1075.39 44.97
-1 0 2 2.66 2.15
-1 0 2 1.67 2.08
-1 0 3 3016.22 126.1
-1 0 3 3042.34 126.14
-1 0 3 3102.95 125.46
-1 0 4 1.11 1.5
-1 0 4 1.46 2.03
-1 0 4 1.31 1.88
-1 0 4 0.75 2.33
-1 0 5 575.93 26.78
-1 0 5 569.73 26.68
-1 0 5 564.68 25.23
-1 0 5 561.11 26.06
-1 0 6 0.28 2.66
-1 0 6 3.85 2
-1 0 6 0.72 2.19
-1 0 6 0.55 2.77
-1 0 7 20.59 3.94
-1 0 7 25.35 3.61
-1 0 7 30.34 4.99
-1 0 7 28.99 5.16
-1 0 8 1.92 4.02
-1 0 8 2.87 2.96
-1 0 8 5.83 4.06
-1 0 8 3.42 3.81
-1 0 9 277.76 16.94
-1 0 9 266.29 17.25
-1 0 9 272.31 14.88
-1 0 9 262.98 17.28
-1 0 10 -0.52 3.3
-1 0 10 8.5 5.11
-1 0 10 0.49 5.02
-1 0 10 5.02 5.01
-1 0 11 233.81 17.19
-1 0 11 225.17 16.97
-1 0 11 225.38 16.52
-1 0 12 2.93 5.94
-1 0 12 -0.61 6.06
-1 0 13 316.91 22.36
-1 1 -11 123.3 13.21
-1 1 -11 133.78 12.65
-1 1 -11 114.56 11.11
-1 -1 -11 133.72 13.09
-1 -1 -11 146.83 13.35
-1 -1 -10 73.36 9.07
-1 1 -10 43.07 7.6
-1 1 -10 46.54 7.02
-1 -1 -10 58.74 8.89
-1 1 -10 48.54 8.46
-1 -1 -10 62 7.39
-1 1 -9 136.43 12.32
-1 -1 -9 144.46 11.95
-1 1 -9 133.03 11.12
-1 1 -9 136.32 12.1
-1 -1 -9 155.25 11.22
-1 -1 -9 141.12 12.33
-1 -1 -8 352.26 19.68
-1 -1 -8 372.36 21.48
-1 1 -8 361.8 21.55
-1 -1 -8 356.73 20.56
-1 1 -8 348.52 20.73
-1 -1 -7 70.07 7.19
-1 1 -7 65.23 7.51
-1 1 -7 55.91 4.03
-1 -1 -7 61.88 6.38
-1 1 -7 68.24 7.48
-1 1 -6 135.9 9.73
-1 -1 -6 80.56 7.58
-1 -1 -6 89.56 8.09
-1 1 -6 121.42 6.53
-1 1 -6 119.52 8.88
-1 1 -5 527.43 25.23
-1 -1 -5 475.39 24.11
-1 -1 -5 482.16 24.42
-1 1 -5 503.47 22.52
-1 1 -5 530.4 24.78
-1 1 -4 1256.32 54.32
-1 -1 -4 1160.78 53.41
-1 1 -4 1287.76 53.95
-1 1 -4 1253.32 52.43
-1 -1 -3 610.71 27.33
-1 1 -3 612.59 27.8
-1 1 -3 588.14 26.47
-1 -1 -2 484.39 23.57
-1 1 -2 494.35 24.03
-1 1 -1 76.13 4.86
-1 1 -1 69.89 4.86
-1 -1 -1 77.12 4.59
-1 1 1 28.49 2.91
-1 1 2 329.56 17.13
-1 -1 2 412.1 16.98
-1 1 2 323.32 17.06
-1 -1 2 407.26 16.97
-1 -1 2 432.75 17
-1 -1 3 317.39 14.67
-1 -1 3 318.48 14.89
-1 -1 3 320.01 14.78
-1 1 3 305.39 15.35
-1 1 3 314.57 14.95
-1 1 3 304.69 14.95
-1 -1 3 322.88 14.19
-1 1 4 953.52 43.43
-1 -1 4 1054.91 42.86
-1 -1 4 1070.39 43.69
-1 1 4 932.44 43.91
-1 1 4 972.83 43.24
-1 -1 4 1022.03 43.39
-1 1 5 602.05 27.95
-1 -1 5 545.44 26.96
-1 1 5 624.98 27.04
-1 -1 5 576.45 27.28
-1 -1 5 559.62 26.48
-1 1 5 624.06 27.55
-1 1 6 379.58 19.7
-1 -1 6 365.03 16.66
-1 1 6 375.2 18.39
-1 -1 6 357.78 18.96
-1 -1 6 365.16 18.91
-1 1 6 376.56 19.08
-1 -1 6 349.99 18.21
-1 1 7 127.69 9.94
-1 -1 7 124.51 7.45
-1 -1 7 127.76 9.67
-1 -1 7 132.72 9.3
-1 1 7 133.22 9.8
-1 1 7 149.15 9.39
-1 1 7 144.36 10.56
-1 -1 7 133.33 9.78
-1 -1 8 554.36 26.93
-1 1 8 642.43 29.39
-1 1 8 677.92 31
-1 -1 8 568.3 30.11
-1 -1 8 585.38 29.58
-1 1 8 622.51 30.91
-1 1 8 691.17 31.65
-1 -1 8 596.14 30.17
-1 -1 9 16.59 5.48
-1 1 9 32.74 6
-1 1 9 25.32 5.9
-1 1 9 32.35 5.1
-1 1 9 35.48 6.23
-1 -1 9 15.01 5.19
-1 -1 9 21.57 5.16
-1 -1 9 18.43 3.36
-1 -1 10 58.84 7.66
-1 -1 10 46.6 7.46
-1 -1 10 50.57 4.89
-1 1 10 80.19 7.57
-1 1 10 74.42 8.68
-1 1 10 73.71 8.77
-1 -1 10 44.64 7.6
-1 1 10 85.43 9.5
-1 -1 11 83.92 10.19
-1 -1 11 82.19 9.28
-1 -1 11 69.76 9.41
-1 1 11 80.18 9.75
-1 1 11 72.52 7.85
-1 1 11 87.73 10.13
-1 1 11 80.85 10.14
-1 1 12 155.75 14.58
-1 -1 12 163.29 14.06
-1 -1 12 147.87 14.04
-1 1 12 173.83 15.02
-1 2 -11 300.56 19.39
-1 -2 -11 294.27 21.12
-1 2 -11 321.38 21.1
-1 2 -11 293.58 21.47
-1 -2 -10 40.13 7.69
-1 -2 -10 38.35 6.39
-1 -2 -10 33.66 7.46
-1 2 -10 48.25 7.68
-1 2 -9 337.35 20.75
-1 2 -9 361.8 22.09
-1 -2 -9 331.56 20.87
-1 -2 -9 334.94 19.02
-1 -2 -8 59.02 7.06
-1 2 -8 40.59 6.95
-1 2 -8 36.33 6.06
-1 2 -8 38.58 3.6
-1 -2 -8 60.09 6.63
-1 2 -7 642.49 32.16
-1 2 -7 653.76 32.97
-1 -2 -7 678.98 31.1
-1 2 -7 624.12 28.76
-1 -2 -7 651.3 32.09
-1 -2 -6 74.16 6.99
-1 2 -6 59.2 6.76
-1 2 -6 71.14 7.4
-1 2 -6 61.73 5.08
-1 2 -6 62.55 6.69
-1 -2 -6 77.46 6.65
-1 2 -5 472.54 24.74
-1 -2 -5 496.25 23.92
-1 2 -5 484.89 24.91
-1 2 -5 533.52 24.74
-1 2 -5 488.42 22.93
-1 2 -4 136.74 9.46
-1 2 -4 127.49 8.86
-1 -2 -4 155.14 8.88
-1 2 -4 120.57 8.02
-1 -2 -4 153.88 8.93
-1 2 -3 15.52 3.62
-1 -2 -3 7.73 2.56
-1 -2 -3 14.75 2.98
-1 2 -3 11.37 2.67
-1 2 -3 18.23 3.25
-1 -2 -2 493.11 20.64
-1 -2 -2 492.15 21.66
-1 -2 -2 468.05 21.33
-1 -2 -1 4103.94 161.21
-1 2 -1 4012.39 160.99
-1 2 -1 3856.29 161.51
-1 -2 -1 3677.64 161.88
-1 2 0 1136.84 47.83
-1 -2 0 1105.54 47.19
-1 -2 0 1152.48 48.13
-1 -2 0 1133.26 47.13
-1 2 0 1119.88 47.83
-1 2 1 1867.62 71.7
-1 -2 1 1800.26 71.81
-1 -2 2 550.5 23.81
-1 -2 2 553.3 22.77
-1 2 3 2184.55 92.53
-1 -2 3 2251.43 91.17
-1 -2 3 2180.27 91.07
-1 -2 3 2157.44 92.1
-1 2 3 2232.52 91.3
-1 2 3 2260.96 92.72
-1 2 4 52.03 4.84
-1 2 4 56.26 5.04
-1 2 4 58.27 3.13
-1 -2 5 4239.25 170.83
-1 2 5 4139.3 171.88
-1 -2 5 4165.5 171.01
-1 2 5 4113.3 172.29
-1 2 5 4032.96 172.39
-1 -2 6 40.9 5.12
-1 -2 6 43.76 4.82
-1 2 6 70.96 6.38
-1 2 6 83.62 7.37
-1 2 6 73.3 6.66
-1 2 7 416.14 21.78
-1 2 7 428.39 22.86
-1 -2 7 411.26 21.79
-1 -2 7 410.04 21.41
-1 2 7 434.83 22.69
-1 -2 7 415.22 21.07
-1 -2 8 11.16 4.31
-1 -2 8 9.73 3.88
-1 2 8 18.44 5.36
-1 2 8 8.55 4.54
-1 2 8 18.53 4.81
-1 -2 8 7.31 4.15
-1 2 9 768.7 38.33
-1 -2 9 742.67 37.46
-1 2 9 780.39 36.84
-1 -2 9 735.87 37.02
-1 2 9 813.76 38.89
-1 -2 9 744.18 36.78
-1 2 10 31.52 7.2
-1 2 10 29.74 6.76
-1 -2 10 15.62 4.86
-1 2 10 24.49 5.51
-1 -2 10 18.35 5.81
-1 -2 10 12.97 5.38
-1 2 11 223.79 16.99
-1 2 11 236.04 14.97
-1 -2 11 210.37 15.61
-1 -2 11 187.46 15.65
-1 -2 11 199.74 15.06
-1 2 11 218.5 16.84
-1 -2 12 44.94 8.35
-1 -2 12 34.93 8.26
-1 2 12 32.37 8.5
-1 3 -11 37.81 8.14
-1 -3 -10 77.92 9.59
-1 -3 -10 79.66 8.39
-1 3 -10 105.26 11.76
-1 3 -10 94.47 10.51
-1 3 -9 43.83 7.71
-1 3 -9 37.79 7.29
-1 3 -9 29.54 3.57
-1 -3 -9 43.06 7.17
-1 -3 -9 30.41 5.63
-1 3 -8 475.54 25.33
-1 -3 -8 410.58 21.89
-1 -3 -8 413.47 23.38
-1 3 -8 398.34 19.98
-1 3 -8 418.74 23.83
-1 -3 -7 73.56 7.89
-1 3 -7 82.08 8.32
-1 3 -7 66.85 7.77
-1 3 -7 67.93 8.25
-1 3 -7 64.08 5.79
-1 -3 -7 73.82 7.02
-1 3 -6 244.62 15.81
-1 3 -6 251.71 16.07
-1 -3 -6 277.93 15.29
-1 3 -6 243.51 13.85
-1 -3 -6 277.82 15.14
-1 3 -6 255.87 15.64
-1 -3 -6 238.65 15.3
-1 3 -5 468.25 23.86
-1 -3 -5 488.57 23.32
-1 3 -5 491.83 24.79
-1 3 -5 466.79 24.46
-1 -3 -5 454.22 23.08
-1 3 -5 464.47 22.78
-1 -3 -4 301.44 13.75
-1 3 -4 224.78 14.44
-1 3 -4 235.22 13.83
-1 -3 -4 289.83 14.25
-1 3 -4 195.9 12.91
-1 -3 -3 332.82 15.31
-1 -3 -3 269.87 15.82
-1 -3 -3 325.7 16.41
-1 -3 -3 290.12 16.05
-1 3 -3 335.34 17.19
-1 3 -3 327.1 16.43
-1 -3 -2 38.07 4.11
-1 3 -2 52.41 3.92
-1 -3 -2 28.52 2.93
-1 3 -2 49.22 3.95
-1 -3 -2 26.03 3.85
-1 -3 -1 870.53 35.86
-1 3 -1 871.15 38.22
-1 -3 -1 854.87 38.14
-1 -3 -1 845.42 37.42
-1 3 -1 865.26 37.28
-1 3 -1 851.93 36.67
-1 -3 -1 845.57 37.34
-1 3 0 1446.84 65.22
-1 -3 0 1543.39 65.98
-1 3 0 1633.35 65.9
-1 -3 0 1592.61 64.89
-1 -3 0 1528.64 64.68
-1 -3 1 1852.13 80.52
-1 -3 1 1872.67 78.98
-1 3 1 1957.5 80.45
-1 3 1 1978.99 79.68
-1 -3 2 759.73 33.97
-1 -3 2 718.37 35.71
-1 3 2 937.31 36.16
-1 3 2 923.05 36.45
-1 3 2 873.34 36.74
-1 -3 3 1620.84 68.47
-1 -3 3 1618.96 69.84
-1 3 3 1590.44 69.77
-1 3 3 1692.88 68.43
-1 3 3 1685.11 70.48
-1 3 3 1695.35 70.53
-1 3 3 1586.95 69.85
-1 3 4 2212.6 92.71
-1 -3 4 2316.84 95.07
-1 3 4 2198.93 95.02
-1 3 4 2274.64 95.63
-1 3 4 2214.12 95.65
-1 -3 4 2343.02 93.74
-1 -3 4 2235.73 93.14
-1 3 5 258.92 12.85
-1 -3 5 273.63 14.93
-1 3 5 257.99 15.32
-1 3 5 244.5 15.07
-1 3 5 249.14 14.85
-1 -3 5 283.65 13.92
-1 -3 5 294.19 13.68
-1 3 6 597.49 25.25
-1 -3 6 603.26 28.71
-1 3 6 597.06 28.94
-1 3 6 581.73 28.84
-1 3 6 553.97 24.99
-1 3 6 609.01 29.37
-1 -3 6 572.27 27.31
-1 -3 6 610.03 27.23
-1 -3 7 584.59 26.75
-1 3 7 537.07 27.85
-1 3 7 543.18 23.94
-1 3 7 510.31 28.17
-1 3 7 569.92 28.76
-1 3 7 541.16 28.02
-1 -3 7 570.36 26.69
-1 -3 8 376.81 18.94
-1 3 8 287.01 18.84
-1 3 8 303.07 19.34
-1 3 8 295.38 19.56
-1 -3 8 388.13 19.75
-1 -3 8 361.82 18.68
-1 3 8 320.71 19.94
-1 -3 9 143.69 10.66
-1 3 9 128.02 10.95
-1 3 9 123.83 11.33
-1 -3 9 139.51 11.2
-1 3 9 132.14 12.16
-1 3 9 119.06 11.5
-1 -3 9 145.06 10.87
-1 3 10 165.62 13.62
-1 3 10 177 14.71
-1 3 10 192.91 15.6
-1 -3 10 212.14 14.95
-1 3 10 176.02 15.11
-1 -3 10 232.22 14.55
-1 -3 10 217.37 14.37
-1 3 11 8.68 6.23
-1 -3 11 12.51 5.9
-1 -3 11 11.32 5.31
-1 -3 11 4.83 5.26
-1 3 11 8.31 5.14
-1 3 11 23.24 7.05
-1 3 11 9.46 6.82
-1 -3 12 103.19 10.9
-1 -3 12 96.93 10.79
-1 3 12 111.89 12.97
-1 4 -11 42.98 8.65
-1 4 -10 28.97 7.4
-1 4 -10 26.35 7.34
-1 -4 -10 27.55 5.83
-1 -4 -10 34.92 7.71
-1 4 -10 29.35 8.06
-1 -4 -9 41.1 7.3
-1 4 -9 44.33 7.28
-1 4 -9 38.77 8.03
-1 -4 -9 35.37 6.17
-1 4 -9 35.5 4.66
-1 4 -9 38.92 7.97
-1 4 -8 5.32 5.2
-1 4 -8 10.65 4.93
-1 -4 -8 7.56 4.46
-1 4 -8 12.15 5.66
-1 -4 -8 10.51 4.32
-1 4 -8 7.79 3.33
-1 4 -8 7.89 4.7
-1 -4 -7 747.11 37.08
-1 4 -7 761.16 39.12
-1 4 -7 829.91 40
-1 4 -7 787.65 38.69
-1 4 -7 849.37 39.66
-1 -4 -7 774.46 37.84
-1 4 -7 809.22 36.68
-1 -4 -7 768.17 38.48
-1 4 -6 100.24 8.78
-1 -4 -6 78.16 7.59
-1 4 -6 83.23 8.67
-1 4 -6 95.78 9.49
-1 4 -6 92.46 9.04
-1 -4 -6 71.94 7.49
-1 4 -6 97.55 7.96
-1 -4 -5 774.84 35.44
-1 4 -5 756.47 37.25
-1 4 -5 809.04 37.73
-1 4 -5 775.9 36.47
-1 -4 -5 762.43 36.16
-1 4 -5 771.42 36.44
-1 4 -5 736.55 35.69
-1 4 -4 350.15 19.31
-1 -4 -4 315.54 16.7
-1 -4 -4 338 17.89
-1 -4 -4 325.39 17.69
-1 4 -4 353.16 18
-1 -4 -4 331.37 19.58
-1 -4 -3 4781.62 192.48
-1 4 -3 4558.52 195.17
-1 -4 -3 4617.96 194.22
-1 -4 -3 4777.76 194.33
-1 4 -3 4642.01 193.53
-1 4 -2 45.34 4.33
-1 -4 -2 54.6 3.83
-1 4 -2 48.06 4.73
-1 -4 -2 56.62 5.32
-1 -4 -1 1503.41 61.58
-1 -4 -1 1456.26 63.72
-1 4 -1 1449.11 64.82
-1 -4 -1 1545.07 63.97
-1 4 -1 1485.06 63.64
-1 -4 0 172.8 10.26
-1 4 0 218.65 11.31
-1 -4 0 170.47 10
-1 -4 0 170.46 11.45
-1 4 0 211.52 11.8
-1 -4 1 5724.76 240.4
-1 -4 1 5956.33 238.54
-1 4 1 5744.99 240.23
-1 -4 2 295.98 13.38
-1 4 2 296.89 15.66
-1 -4 2 278.14 15.3
-1 -4 2 271.9 12.45
-1 -4 2 290.19 15.56
-1 4 2 291.31 14.62
-1 4 3 313.41 16.04
-1 -4 3 331.01 17.34
-1 4 3 321.3 17.89
-1 4 3 322.46 17
-1 -4 3 342 16.06
-1 -4 3 328.15 17.65
-1 -4 3 336.26 14.7
-1 4 4 56.71 6.43
-1 -4 4 78.03 5.39
-1 4 4 48.25 5.54
-1 4 4 67.69 6.23
-1 4 4 55.42 4.69
-1 -4 4 82.62 4.41
-1 -4 4 82.21 6.78
-1 4 4 48.27 6.38
-1 4 5 541.54 25.2
-1 -4 5 608.58 28.08
-1 4 5 549.11 27.75
-1 -4 5 571.62 25.33
-1 4 5 579.34 28.79
-1 4 5 551.14 28.37
-1 4 5 552.38 28.05
-1 -4 5 610.17 26.51
-1 4 6 76.76 8.08
-1 4 6 76.93 8.4
-1 -4 6 82.43 7.65
-1 4 6 79.72 7.78
-1 -4 6 84.17 6.58
-1 4 6 68.99 5.46
-1 -4 6 79.91 6.04
-1 4 7 31.21 5.94
-1 -4 7 35.31 4.81
-1 -4 7 33.92 4.61
-1 4 7 39.11 3.37
-1 4 7 37.88 6.36
-1 4 7 38.5 3.17
-1 4 7 38.12 6.8
-1 4 8 7.96 5.54
-1 4 8 8.98 1.87
-1 -4 8 27.1 4.8
-1 4 8 9.22 4.77
-1 4 8 16.49 5
-1 -4 8 31.89 5.11
-1 4 9 69.67 9.43
-1 4 9 101.12 10.27
-1 -4 9 86.68 8.59
-1 4 9 88.22 9.58
-1 -4 9 83.39 8.12
-1 -4 9 78.8 8.01
-1 4 9 92.57 10.11
-1 -4 10 17.32 5.21
-1 4 10 5.95 5.53
-1 4 10 2.43 6.26
-1 4 10 9.48 5.87
-1 4 10 6.75 5.47
-1 -4 10 11.13 5
-1 -4 10 17.31 5.66
-1 4 11 262.75 19.7
-1 4 11 275.1 19.73
-1 4 11 262.7 18.44
-1 -4 11 259.64 18.36
-1 4 11 271.45 20.38
-1 -4 11 261.22 17.44
-1 -4 11 294.34 18.07
-1 4 12 12.45 8.61
-1 5 -10 18.64 7.49
-1 -5 -10 21.9 9.03
-1 -5 -10 24.06 6.86
-1 5 -10 13.77 7.12
-1 5 -9 40.97 8.29
-1 -5 -9 36.51 7.11
-1 -5 -9 29.55 6.42
-1 -5 -9 46.22 9.42
-1 5 -9 40.95 8.67
-1 5 -9 28.92 7.09
-1 5 -9 29.85 5.36
-1 5 -8 270.69 18.49
-1 -5 -8 234.65 17.17
-1 5 -8 253.6 18.62
-1 -5 -8 246.69 15.94
-1 -5 -8 264.12 19.94
-1 5 -8 294.11 19.03
-1 5 -8 254.77 15.51
-1 5 -7 64.85 8.54
-1 5 -7 74.31 9.13
-1 -5 -7 78.11 8.11
-1 5 -7 70.61 9.1
-1 5 -7 74.54 7.52
-1 -5 -7 77.09 10.32
-1 -5 -7 58.18 8.12
-1 -5 -7 87.21 8.24
-1 5 -6 543.84 28.08
-1 5 -6 539.02 27.94
-1 -5 -6 445.03 25.09
-1 -5 -6 472.48 28.04
-1 5 -6 549.56 27.09
-1 5 -6 509.91 25.86
-1 -5 -6 456.43 24.69
-1 5 -5 17.42 4.62
-1 -5 -5 19.41 4.16
-1 -5 -5 21.12 4.57
-1 -5 -5 29.6 5.03
-1 5 -5 17.28 5.45
-1 5 -5 17.78 4.96
-1 -5 -5 14.69 5.7
-1 5 -4 1513.16 64.92
-1 -5 -4 1414 61.13
-1 -5 -4 1319.41 62.54
-1 -5 -4 1446.17 65.21
-1 5 -4 1472.25 62.86
-1 -5 -4 1427.11 63.24
-1 -5 -3 189.69 10.24
-1 5 -3 184.06 10.57
-1 -5 -3 187.83 12.05
-1 5 -3 179.82 11.51
-1 -5 -2 2076.49 88.01
-1 5 -2 2332.74 90.03
-1 -5 -2 2189.78 90.52
-1 5 -2 2209.3 90.13
-1 -5 -2 2088.55 90.64
-1 -5 -1 378.67 19.35
-1 -5 -1 370.96 16.5
-1 5 -1 374.57 18.93
-1 -5 -1 404.14 19.2
-1 5 -1 362.61 20.27
-1 5 0 2462.45 101.23
-1 5 0 2253.6 101.87
-1 -5 0 2406.49 100.33
-1 -5 0 2497.13 102.6
-1 -5 0 2349.51 100.78
-1 -5 1 218.15 13.48
-1 -5 1 231.84 11.82
-1 5 1 215.83 13.46
-1 5 1 194.56 12.75
-1 -5 2 572.06 25.18
-1 5 2 525.69 27.4
-1 5 2 515.08 25.83
-1 -5 2 557.91 27.43
-1 -5 2 578.04 27.69
-1 -5 2 567.83 23.61
-1 -5 3 621.74 29.24
-1 5 3 610.2 29.97
-1 -5 3 635.44 30.77
-1 5 3 651.58 31.35
-1 5 3 608.75 31.14
-1 -5 3 647.02 30.98
-1 -5 3 646.39 27.66
-1 -5 3 661.62 27.97
-1 -5 4 273.33 11.24
-1 -5 4 270.04 14.91
-1 5 4 185.01 12.31
-1 5 4 187.88 14.15
-1 5 4 205.33 13.63
-1 -5 4 268.3 13.31
-1 -5 5 541.26 26.48
-1 -5 5 607.53 28.59
-1 5 5 579.55 28.09
-1 5 5 580.78 29.22
-1 5 5 551.21 29.01
-1 -5 5 548.11 24.56
-1 5 5 572.75 25.88
-1 5 5 559.31 28.23
-1 -5 6 578.77 27.75
-1 5 6 501.38 24.11
-1 5 6 499.8 26.95
-1 5 6 511.11 27.81
-1 5 6 498.35 27.22
-1 5 6 497.57 28.19
-1 -5 6 545.91 24.02
-1 -5 6 570.19 25.8
-1 5 7 94.12 9.37
-1 5 7 89.79 10.1
-1 -5 7 81.41 8.58
-1 5 7 84.04 9.34
-1 5 7 96.46 6.67
-1 5 7 87.66 9.19
-1 -5 7 84.45 7.52
-1 -5 7 85.32 6.64
-1 -5 8 120.52 9.85
-1 5 8 144.65 7.95
-1 5 8 167.17 12.71
-1 5 8 144.23 12.28
-1 5 8 138.54 7.5
-1 5 8 139.56 12.69
-1 -5 8 121.62 9.11
-1 5 9 82.58 10.32
-1 -5 9 72.75 8.19
-1 5 9 83.01 9.47
-1 5 9 78.44 9.71
-1 -5 9 74.97 7.71
-1 -5 9 62.63 7.08
-1 5 10 66.54 10.52
-1 -5 10 48.43 6.99
-1 5 10 78.84 9.98
-1 5 10 71.32 9.5
-1 -5 10 55.67 7.16
-1 -5 10 51.74 7.72
-1 5 11 51.09 10.57
-1 -5 11 53.34 7.75
-1 5 11 58.65 9.82
-1 5 11 57.1 9.37
-1 -5 11 38.93 7.59
-1 6 -10 10.81 6.74
-1 6 -10 5.07 6.72
-1 -6 -10 16.84 9.1
-1 6 -9 228.13 18.63
-1 6 -9 224.23 17.56
-1 -6 -9 232.27 19.7
-1 6 -9 215.81 14.63
-1 6 -9 234.5 18.24
-1 -6 -9 230.8 17.21
-1 -6 -8 41.68 9.07
-1 -6 -8 42.25 7.33
-1 6 -8 51.67 8.42
-1 6 -8 45.55 6.76
-1 6 -8 55.43 8.89
-1 6 -8 56.24 9.65
-1 -6 -7 496.33 25.56
-1 -6 -7 506.91 29.91
-1 6 -7 464.03 25.78
-1 6 -7 470.01 27.26
-1 6 -7 501.55 28.74
-1 6 -7 478.5 28.36
-1 -6 -6 75.34 10.09
-1 -6 -6 58.28 6.73
-1 6 -6 84.96 9.97
-1 6 -6 94.18 9.22
-1 6 -6 84.94 9.69
-1 6 -6 94.55 9.5
-1 6 -5 388 24.51
-1 -6 -5 453.8 23.71
-1 6 -5 425.7 24.94
-1 -6 -5 431.67 26
-1 -6 -5 463.08 22.11
-1 -6 -5 433.11 23.8
-1 6 -5 405.96 23.35
-1 6 -4 39.44 5.95
-1 6 -4 37.76 6.51
-1 -6 -4 17.87 3.51
-1 -6 -4 21.11 6.31
-1 -6 -4 19.21 4.8
-1 6 -3 857.06 36.57
-1 -6 -3 844.23 38.31
-1 6 -3 851.82 37.82
-1 6 -2 120.28 10.62
-1 6 -2 126 8.99
-1 -6 -2 138.89 9.54
-1 -6 -2 126.51 7.14
-1 -6 -2 125.86 9.67
-1 -6 -1 25.85 2.3
-1 6 -1 20.26 3.93
-1 -6 -1 23.55 4.14
-1 6 -1 19.76 5.07
-1 -6 -1 21.43 4.07
-1 6 0 77.58 7.94
-1 6 0 77.16 6.96
-1 -6 0 59.44 5.86
-1 -6 0 57.93 7.34
-1 -6 0 64.05 6.4
-1 6 1 511.38 25.15
-1 -6 1 496.56 23.28
-1 6 1 487.5 25.58
-1 -6 1 468.22 25.39
-1 -6 1 457.85 24.74
-1 -6 2 430.95 20.4
-1 6 2 446.74 21.3
-1 -6 2 410.41 18.25
-1 6 2 452.52 23.4
-1 -6 2 435.12 22.66
-1 -6 2 434.2 22.94
-1 -6 3 90.73 8.44
-1 6 3 104.23 7.98
-1 -6 3 102.88 6.48
-1 6 3 96.27 9.17
-1 -6 3 93.19 5.48
-1 -6 3 96.65 8.55
-1 -6 4 98.77 6.47
-1 -6 4 103.64 7.86
-1 6 4 110.78 8.94
-1 -6 4 109.95 6.33
-1 6 4 100.86 7.93
-1 -6 4 110.31 9.37
-1 6 4 108.01 9.85
-1 -6 4 99.61 9.01
-1 -6 5 806.41 37.81
-1 6 5 759.77 38.33
-1 -6 5 768.57 32.63
-1 -6 5 767.53 35.59
-1 6 5 751.12 35.29
-1 6 5 802.78 37.51
-1 -6 6 164.19 12.09
-1 6 6 132.23 9.12
-1 -6 6 158.52 10.34
-1 -6 6 152.85 7.9
-1 6 6 133.69 12.35
-1 6 6 126.35 11.21
-1 6 7 277.75 14.66
-1 6 7 266.33 17.56
-1 6 7 285.05 18.84
-1 -6 7 291.17 18.25
-1 6 7 288.9 19.33
-1 -6 7 276.56 16.1
-1 -6 7 274.95 14.04
-1 6 7 291.35 18.47
-1 -6 8 118.79 9.14
-1 6 8 77.89 10.59
-1 6 8 80.55 9.49
-1 6 8 94.57 10.45
-1 -6 8 95.33 9.88
-1 6 8 84.2 6.69
-1 6 8 105.89 10.71
-1 -6 8 91.54 7.08
-1 6 9 294.11 20.41
-1 6 9 278.59 13.19
-1 -6 9 301.38 15.58
-1 6 9 283.55 19.05
-1 6 9 295.69 19.8
-1 -6 9 309.49 17.6
-1 6 9 235.94 12.36
-1 6 9 312.65 20.01
-1 -6 9 297.92 17.21
-1 6 10 12.32 6.71
-1 6 10 12.73 7.83
-1 6 10 14.1 7.12
-1 6 10 16.63 6.83
-1 -6 10 21.6 5.18
-1 -6 10 18.72 5.72
-1 6 11 52.71 10.96
-1 6 11 56.01 10.26
-1 -6 11 48.73 8.12
-1 7 -10 214.99 18.51
-1 7 -9 26.12 8.48
-1 7 -9 19.69 7.76
-1 7 -9 29.36 8.87
-1 7 -9 30.89 6.41
-1 -7 -9 38.1 10.15
-1 7 -8 410.69 26.83
-1 7 -8 415.7 26.38
-1 -7 -8 408.95 27.71
-1 7 -8 396.23 23.61
-1 7 -8 435.33 26.33
-1 7 -7 29.28 7.19
-1 -7 -7 50.61 6.84
-1 7 -7 34.31 6.62
-1 7 -7 37.62 7.36
-1 7 -7 34.9 8.27
-1 -7 -7 43.16 9.16
-1 7 -6 104.61 10.73
-1 -7 -6 104.38 9.03
-1 7 -6 111.03 11.63
-1 -7 -6 109.4 10.3
-1 7 -6 110.88 11.74
-1 -7 -6 117.62 12.93
-1 -7 -6 101.42 10.54
-1 -7 -5 26.2 6.08
-1 -7 -5 30.44 4.73
-1 7 -5 33.98 6.21
-1 7 -5 30.61 7.05
-1 -7 -5 21.65 5.36
-1 7 -5 23.28 7.01
-1 -7 -5 35.37 8.31
-1 -7 -4 401.65 19.32
-1 7 -4 335.4 21.2
-1 -7 -4 426.92 22.39
-1 7 -4 340.8 22.66
-1 -7 -4 414.03 24.32
-1 -7 -3 123.01 10.28
-1 7 -3 136.13 9.53
-1 -7 -3 134.31 10.48
-1 -7 -3 132.47 8.17
-1 7 -2 96.2 8.22
-1 7 -2 93.95 10.25
-1 -7 -2 123.23 9.4
-1 -7 -2 120.47 9.68
-1 -7 -2 111.65 6.58
-1 -7 -1 7.65 1.56
-1 7 -1 4.25 3.35
-1 -7 -1 6.35 3.77
-1 -7 -1 2.55 3.41
-1 7 -1 1.9 4.97
-1 -7 0 117.27 9.06
-1 7 0 128.99 11.32
-1 7 0 142.47 10.33
-1 -7 0 115.83 11.04
-1 -7 0 136.21 10.13
-1 7 1 47.95 6.52
-1 -7 1 39.23 5.05
-1 -7 1 36.63 5.63
-1 -7 1 42.4 6.63
-1 7 1 41.76 6.86
-1 -7 1 31.59 5.84
-1 -7 2 270.12 13.11
-1 -7 2 318.27 18.77
-1 -7 2 290.04 15.65
-1 7 2 372.4 19.85
-1 7 2 365.05 16.92
-1 7 2 368.23 19.33
-1 -7 2 300.03 17.98
-1 7 3 65.15 6.4
-1 -7 3 51.22 4.98
-1 -7 3 45.61 6.79
-1 -7 3 51.87 6.88
-1 7 3 52.64 7.57
-1 -7 3 47.73 3.59
-1 7 4 394.17 23.33
-1 -7 4 375.2 22.3
-1 7 4 427.98 21.44
-1 -7 4 389.98 18.81
-1 -7 4 382.47 18.5
-1 -7 4 414.57 22.6
-1 -7 4 409.02 20.91
-1 7 4 409.32 21.77
-1 -7 5 77 7.11
-1 -7 5 78.05 5.14
-1 -7 5 84.07 8.8
-1 7 5 71.72 9.19
-1 7 5 79.97 7.46
-1 7 5 86.79 8.64
-1 7 6 429.29 24.16
-1 7 6 431.18 25.4
-1 7 6 404.79 21.32
-1 -7 6 437.32 22.43
-1 -7 7 9.73 1.88
-1 7 7 14.14 5.83
-1 -7 7 22.18 4.62
-1 -7 7 9.01 4.81
-1 7 7 16.59 6.26
-1 7 7 14.43 3.77
-1 7 8 268.85 20
-1 7 8 291.08 19.91
-1 -7 8 328.52 18
-1 -7 8 331.79 20.12
-1 -7 8 285.41 14.49
-1 7 8 280.52 16.13
-1 -7 9 26.45 5.45
-1 7 9 22.44 7.94
-1 7 9 24.67 7.64
-1 -7 9 23.85 5.39
-1 7 10 157.9 15.8
-1 -7 10 198 13.98
-1 7 10 174.88 15.94
-1 -7 10 206.38 14.08
-1 7 11 11.98 7.7
-1 -7 11 3.05 5.37
-1 8 -9 31.36 9.23
-1 8 -9 47.29 9.88
-1 -8 -9 39.01 11.17
-1 8 -9 31.83 6.79
-1 8 -8 -1.98 6.53
-1 8 -8 2.34 6.6
-1 8 -8 3.66 6.99
-1 -8 -8 5.83 8.36
-1 8 -8 1.07 4.95
-1 -8 -7 206.31 13.96
-1 8 -7 208.18 17.29
-1 -8 -7 191.38 18.26
-1 8 -7 207.93 18
-1 8 -7 217.87 16.57
-1 8 -7 190.89 15.47
-1 -8 -6 85.22 7.78
-1 8 -6 79.44 10.15
-1 8 -6 59.97 8.9
-1 -8 -6 86.18 9.64
-1 -8 -6 74.2 8.84
-1 8 -6 61.99 10.29
-1 -8 -6 61.89 10.52
-1 -8 -5 149.46 10.32
-1 8 -5 159.13 14.26
-1 -8 -5 169.38 15.47
-1 -8 -5 164.46 13.22
-1 -8 -4 12.02 5.44
-1 8 -4 27.74 6.79
-1 8 -4 24.05 4.55
-1 -8 -4 16.86 3.68
-1 -8 -4 7.61 6.48
-1 -8 -3 1087.92 45.66
-1 8 -3 1066.71 47.88
-1 -8 -3 1056.28 49.33
-1 -8 -3 909.24 51.09
-1 -8 -3 1061.16 49.7
-1 -8 -2 38.66 6.39
-1 -8 -2 46.75 3.89
-1 8 -2 35.47 5.62
-1 -8 -2 44.48 6.23
-1 8 -2 42.81 8.12
-1 8 -1 234.39 15.12
-1 8 -1 236.88 17.41
-1 -8 -1 259.38 15.39
-1 -8 -1 237.6 11.37
-1 -8 -1 260.12 16.23
-1 -8 0 59.17 6.63
-1 8 0 57.32 7.21
-1 -8 0 53.58 7.36
-1 -8 0 54.58 8.49
-1 8 0 61 8.7
-1 -8 1 1218.4 57.2
-1 -8 1 1184.45 55.45
-1 8 1 1257.19 56.34
-1 8 1 1211.8 57.36
-1 -8 1 1237.69 54.05
-1 -8 1 1146.73 55.88
-1 8 2 7.99 4.65
-1 -8 2 2.19 4.56
-1 -8 2 3.32 3.4
-1 -8 2 1.49 4.71
-1 -8 2 2.15 0.94
-1 8 2 6.2 5.52
-1 -8 3 175.07 14.04
-1 8 3 190.54 13.8
-1 8 3 199.73 15.24
-1 -8 3 207.28 11.74
-1 -8 3 221.26 14.58
-1 -8 3 190.28 9.36
-1 8 3 165.52 12.38
-1 -8 4 195.46 14.58
-1 -8 4 197.95 13.15
-1 -8 4 203.19 11.31
-1 8 4 184.55 13.4
-1 -8 4 211.01 14.75
-1 8 4 190.03 13.43
-1 -8 5 187.54 12.84
-1 -8 5 201.22 14.71
-1 -8 5 204.82 10.46
-1 8 5 162.75 14.53
-1 8 5 167.16 13.29
-1 8 5 196.63 13.06
-1 8 6 31.37 6.52
-1 -8 6 35.39 5.5
-1 8 6 20.67 4.86
-1 -8 6 42.34 7.35
-1 8 6 33.41 7.59
-1 -8 7 31.88 6.9
-1 8 7 27.8 6.91
-1 -8 7 32.1 5.53
-1 8 7 31.55 4.99
-1 8 7 40.3 8.55
-1 8 8 12.99 4.56
-1 -8 8 10.63 4.57
-1 8 8 0.59 5.67
-1 8 8 10.62 6.97
-1 -8 8 12.79 5.77
-1 8 8 13.86 3.99
-1 8 9 65.13 10.18
-1 -8 9 75.28 8.07
-1 8 9 98.55 12.1
-1 -8 9 85.35 10.7
-1 -8 9 86.6 8.7
-1 8 10 3.67 8.06
-1 -8 10 3.57 4.77
-1 9 -8 60.67 10.67
-1 9 -8 41.32 8.3
-1 -9 -8 52.46 12
-1 9 -8 46.69 9.72
-1 -9 -7 48.37 7.11
-1 9 -7 42.59 9.53
-1 -9 -7 48.37 8.67
-1 9 -7 49.79 8.71
-1 9 -7 44.92 8.48
-1 9 -7 51.33 10.85
-1 -9 -7 40.99 10.67
-1 -9 -6 146.98 15.55
-1 9 -6 155.79 15.51
-1 9 -6 161.98 14.79
-1 -9 -6 123.6 10.13
-1 -9 -6 134.53 12.68
-1 -9 -6 130.59 12.28
-1 -9 -5 26.53 4.48
-1 9 -5 27.29 7.37
-1 -9 -5 37.62 7.12
-1 -9 -5 28.1 9
-1 -9 -4 651.66 31.07
-1 -9 -4 676.22 38.07
-1 9 -4 733.4 33.13
-1 -9 -4 681.77 35.07
-1 -9 -4 649.59 35.05
-1 -9 -3 22.85 5.89
-1 -9 -3 18.55 3.3
-1 9 -3 24.19 5.15
-1 -9 -3 14.26 5.08
-1 -9 -3 26.06 7.92
-1 -9 -2 524.19 24
-1 9 -2 568.56 31.67
-1 9 -2 542.66 27.95
-1 -9 -2 573.16 28.89
-1 -9 -2 527.2 28.96
-1 9 -1 142.01 13.53
-1 -9 -1 143.65 11.71
-1 9 -1 136.56 11.07
-1 -9 -1 125.89 10.62
-1 -9 -1 119.51 6.52
-1 9 0 612.65 31.94
-1 -9 0 636.6 34.41
-1 9 0 573.98 33.58
-1 -9 0 633.02 31.01
-1 -9 0 615.97 32.19
-1 -9 1 4.97 5.68
-1 -9 1 8.87 5.44
-1 9 1 9.33 5.31
-1 -9 1 4.82 3.89
-1 9 1 8.36 6.49
-1 -9 1 15.14 6.67
-1 -9 2 363 22.66
-1 9 2 332.38 21.94
-1 -9 2 373.12 19.6
-1 9 2 342.63 22.75
-1 -9 2 381.66 22.15
-1 -9 3 67.93 6.7
-1 9 3 69.59 9.89
-1 9 3 69.18 9.42
-1 9 3 79.34 8.99
-1 -9 3 64.38 9.06
-1 -9 3 59.99 8.36
-1 9 3 79.41 7.99
-1 -9 4 160.34 13.27
-1 9 4 111.42 11.1
-1 -9 4 155.83 12.77
-1 -9 4 159.51 11.63
-1 -9 4 169.81 9.93
-1 9 4 120.93 10.98
-1 9 5 58.83 7.47
-1 -9 5 50.77 6.74
-1 -9 5 47.18 4.86
-1 9 5 51.06 8.66
-1 9 5 57.53 7.51
-1 -9 5 46.19 7.47
-1 9 6 23.46 6.58
-1 -9 6 30.72 3.18
-1 -9 6 40.49 6.1
-1 9 6 15.04 6.36
-1 9 6 27.78 5.64
-1 -9 6 25.86 6.68
-1 9 7 37.77 7.44
-1 9 7 32.29 5.7
-1 9 7 44.65 9.32
-1 -9 7 25.8 7.27
-1 -9 7 37.13 6.1
-1 -9 8 104.55 9.93
-1 -9 8 94.23 11.24
-1 -9 8 93.24 8.46
-1 9 8 111.81 13.37
-1 9 8 94.01 9.37
-1 9 8 112.85 12.19
-1 -9 9 23.22 7.62
-1 9 9 26.51 9.52
-1 10 -8 37 8.83
-1 10 -7 40.87 8.64
-1 10 -7 32.21 9.32
-1 -10 -7 59.13 12.52
-1 -10 -6 -3.69 5.66
-1 -10 -6 2.64 3.77
-1 10 -6 4.64 6.95
-1 10 -6 -2.49 7.97
-1 -10 -6 -3.41 8.54
-1 -10 -5 23.51 4.53
-1 -10 -5 27.39 7.31
-1 -10 -5 22.49 6.34
-1 10 -5 23.05 7.52
-1 -10 -5 18.6 8.87
-1 -10 -4 55.21 5.55
-1 -10 -4 48.63 7.78
-1 -10 -4 56.06 10.45
-1 -10 -4 54.53 8.36
-1 10 -4 52.56 6.8
-1 -10 -3 118.52 7.82
-1 -10 -3 111.99 11.19
-1 10 -3 147.49 11.06
-1 -10 -3 128.77 13.76
-1 10 -3 102.84 13.5
-1 -10 -3 125.76 12.11
-1 -10 -2 69.22 5.02
-1 -10 -2 80.08 9.01
-1 10 -2 89.57 9.04
-1 -10 -2 68.19 8.9
-1 10 -2 81.05 11.26
-1 -10 -1 34.96 7.58
-1 -10 -1 31.51 2.65
-1 10 -1 45.45 7.26
-1 -10 -1 39.4 6.53
-1 10 -1 41.81 9.31
-1 10 0 6.82 6.52
-1 -10 0 0.83 4.1
-1 -10 0 10.2 5.63
-1 10 0 7.07 5.36
-1 -10 0 0.67 6
-1 -10 0 -1.1 5.5
-1 10 1 369.43 21.72
-1 -10 1 308.64 21.88
-1 -10 1 287.69 18.22
-1 10 1 365.49 23.4
-1 -10 1 320.45 20.92
-1 -10 1 310.47 20.52
-1 -10 2 123.01 12.07
-1 -10 2 129.46 12.92
-1 10 2 154.92 13.42
-1 -10 2 135.96 10.48
-1 10 2 145.24 14.09
-1 -10 2 130.82 12.28
-1 -10 3 38.48 5.65
-1 10 3 30.74 7.43
-1 10 3 41.26 7.67
-1 -10 3 26.39 6.45
-1 -10 3 49.7 8.42
-1 10 3 41.79 9.02
-1 -10 4 61.31 7.78
-1 -10 4 63.28 6.41
-1 -10 4 58.46 8.35
-1 10 4 50.9 7.46
-1 -10 4 62.79 8.75
-1 10 4 60.7 8.36
-1 -10 5 261.32 19.55
-1 -10 5 283.32 17.97
-1 -10 5 289.08 15.37
-1 10 5 297.53 18.62
-1 10 5 297.74 18.71
-1 10 6 81.08 10.24
-1 10 6 72.72 10.72
-1 -10 6 81.3 10.86
-1 -10 6 88.5 8.98
-1 10 6 78.44 8.76
-1 -10 7 190.31 15.92
-1 10 7 140.99 15.43
-1 10 7 171.27 14.96
-1 -10 7 181.2 13.36
-1 10 8 21.25 8.1
-1 -10 8 20.09 6.12
-1 -10 8 25.72 7.52
-1 11 -7 13.96 7.76
-1 11 -6 58.54 11.07
-1 -11 -6 63.27 12.8
-1 11 -5 3.23 7.01
-1 -11 -5 6.31 5.99
-1 -11 -5 3.49 8.4
-1 -11 -4 64.42 9.64
-1 11 -4 42.69 6.46
-1 -11 -4 55.78 9.04
-1 -11 -4 54.46 5.61
-1 -11 -4 53.35 11.54
-1 -11 -3 13.61 6.06
-1 -11 -3 9.67 3.04
-1 11 -3 12.05 4.99
-1 -11 -3 5.49 6.11
-1 -11 -3 8.83 7.95
-1 11 -3 6.51 8.07
-1 -11 -2 2.11 1.83
-1 11 -2 0.48 4.79
-1 -11 -2 2.07 5.09
-1 -11 -2 1.16 5.28
-1 11 -2 7.15 7.48
-1 -11 -1 8.24 5.27
-1 11 -1 7.77 5.2
-1 -11 -1 4.56 5.01
-1 11 -1 3.1 7.3
-1 11 0 153.81 13.19
-1 -11 0 136.04 11.65
-1 11 0 167.13 15.83
-1 -11 0 160.77 14.1
-1 -11 0 108.63 13.73
-1 -11 0 138.8 13.31
-1 11 1 15.76 7.17
-1 -11 1 21.76 6.48
-1 -11 1 24.26 6.8
-1 11 1 20.82 6.44
-1 -11 1 21.15 5.4
-1 -11 1 30.03 8.19
-1 -11 2 114.49 10.01
-1 -11 2 122.63 12.9
-1 11 2 122.79 12.7
-1 -11 2 113.7 12.11
-1 11 2 133.99 14.32
-1 -11 2 131.55 12.28
-1 11 3 -0.74 7.06
-1 -11 3 0.57 5.47
-1 11 3 -1.34 6.03
-1 -11 3 1.07 3.8
-1 -11 3 -1.11 5.76
-1 -11 3 4.75 6.15
-1 11 3 15.16 6.43
-1 -11 4 338.64 23.22
-1 11 4 343.24 23.94
-1 -11 4 345.82 18.95
-1 11 4 338.22 22.1
-1 -11 4 358 21.27
-1 -11 4 342.91 22.37
-1 11 5 7.51 5.82
-1 11 5 1.05 5.26
-1 -11 5 0.67 5.91
-1 -11 5 2.89 4.8
-1 -11 6 293.71 20.7
-1 11 6 272.91 21.2
-1 11 6 270.42 17.91
-1 -11 6 260.88 17.45
-1 11 6 236.99 17.98
-1 -11 7 5.77 4.7
-1 11 7 6.11 6.52
-1 12 -4 32.7 6.24
-1 -12 -4 25.22 10.12
-1 12 -3 85.95 9.48
-1 -12 -3 77.75 12.64
-1 -12 -3 83.14 11.28
-1 -12 -2 27.88 8.15
-1 12 -2 50.19 7.91
-1 -12 -2 42.54 7.96
-1 -12 -2 37.43 10.89
-1 12 -2 48.76 11.01
-1 12 -1 112.3 11.94
-1 12 -1 127.64 15.52
-1 -12 -1 133.62 12.06
-1 -12 -1 127.87 12.86
-1 -12 -1 123.84 13.16
-1 12 0 94.71 13.79
-1 -12 0 97.85 11.88
-1 12 0 113.32 12.29
-1 -12 0 120.58 11
-1 -12 0 105.16 12.1
-1 12 1 204.09 17.13
-1 -12 1 198.81 18.07
-1 -12 1 226.35 15.42
-1 -12 1 222.31 17.62
-1 12 1 206.84 19.11
-1 -12 1 214.69 16.92
-1 -12 2 4.93 6.51
-1 12 2 13.07 7.31
-1 12 2 14.09 7.35
-1 -12 2 11.18 4.79
-1 -12 2 9.12 6.9
-1 -12 2 11.76 6.73
-1 12 2 21.13 8.93
-1 -12 3 49.8 9.14
-1 -12 3 56.01 9.71
-1 12 3 44.44 9.73
-1 -12 3 43.55 6.55
-1 -12 3 53.7 10.1
-1 12 3 42.13 9.97
-1 12 3 33.62 10.5
-1 -12 4 68.74 10.27
-1 -12 4 97.47 10.34
-1 12 4 97.72 12.55
-1 -12 4 88.64 11.84
-1 12 4 77.29 10.54
-1 12 5 207.89 16.59
-1 -12 5 218.95 18.53
-1 -12 5 220.44 15.95
-1 12 6 20.68 7.52
-1 -12 6 30.68 7.05
-1 12 7 33.47 8.58
-1 13 -3 29.7 6.98
-1 13 -2 181.19 15.15
-1 -13 -1 9.96 7.52
-1 13 -1 17.82 6.87
-1 -13 -1 10.23 6.15
-1 13 0 376.36 24.57
-1 -13 0 354.61 22.59
-1 -13 0 396.15 25.22
-1 -13 0 368.09 24.82
-1 -13 1 14.67 7.21
-1 13 1 18.18 8.01
-1 -13 1 6.68 7.26
-1 -13 1 7.52 5.78
-1 -13 2 243.9 16.55
-1 13 2 239.86 19.48
-1 13 2 214.74 19.66
-1 -13 2 268.69 19.3
-1 -13 3 15.1 7.35
-1 13 3 16.82 8.01
-1 -13 4 128.03 13.94
-1 13 4 94.49 12.64
-1 -13 4 126.49 12.53
-1 -14 -2 7.76 8.23
-1 14 -2 0.62 6.18
-1 -14 -1 49.36 10.95
-1 14 -1 37.7 8.87
-1 -14 0 3.61 7.34
-1 -14 1 133.96 14.45
-1 -14 2 10.41 7.79
-1 -14 3 40.38 9.17
0 0 -11 0.65 3.96
0 0 -11 -1.16 5.76
0 0 -11 -0.53 5.25
0 0 -10 30.18 6.53
0 0 -10 41.91 7.09
0 0 -10 43.66 5.85
0 0 -9 2.92 3.96
0 0 -9 0.6 3.05
0 0 -9 -2.77 4.51
0 0 -8 400.16 22.49
0 0 -8 377.76 20.52
0 0 -8 433.96 22.36
0 0 -7 4.58 3.6
0 0 -7 2.21 3.03
0 0 -6 1005.32 44.89
0 0 -6 968.15 44.19
0 0 -5 0.22 2.09
0 0 -5 -0.49 2.56
0 0 -4 4286.58 176.35
0 0 -3 0.26 1.48
0 0 -2 2659.46 102.85
0 0 -2 2355.23 102.87
0 0 2 2662.98 109.19
0 0 3 -0.11 1.3
0 0 3 0.92 1.5
0 0 3 2.41 1.17
0 0 4 4276.75 173.61
0 0 4 4169.86 174.05
0 0 4 4284.19 174.66
0 0 5 0.68 2.03
0 0 5 1.64 2.14
0 0 5 0.23 2.3
0 0 5 1.65 1.93
0 0 6 1034.37 46.16
0 0 6 1013.19 44.58
0 0 6 1042.42 46.15
0 0 7 1.31 3.22
0 0 7 -0.66 2.76
0 0 7 -0.33 3.15
0 0 8 433.64 22.56
0 0 8 378.86 20.35
0 0 8 416.38 22.34
0 0 9 1.32 4.79
0 0 9 0.43 4.29
0 0 9 3.11 4.13
0 0 9 3.91 3.57
0 0 10 40.68 7.01
0 0 10 30.08 6.5
0 0 10 37.54 5.85
0 0 10 46.15 7.49
0 0 11 1.69 5.36
0 0 11 -0.55 5.66
0 0 11 -2.29 5.58
0 0 12 54.45 9.47
0 0 12 53.29 9.44
0 1 -12 9.38 6.3
0 1 -11 148.76 13.09
0 -1 -11 177.82 14.35
0 1 -11 132.32 13.22
0 1 -11 136.58 11.37
0 -1 -11 173.86 13.78
0 1 -10 134.66 11.93
0 -1 -10 128 12.16
0 1 -10 136.23 10.65
0 -1 -10 151.1 12.29
0 -1 -10 138.9 9.77
0 1 -10 142.32 12.64
0 -1 -9 250.38 16.45
0 1 -9 241.45 16.32
0 1 -9 226.97 15.67
0 -1 -9 227.41 13.65
0 -1 -9 242.57 15.72
0 -1 -8 435.83 21.53
0 -1 -8 450.91 24.13
0 1 -8 414.51 23.91
0 -1 -8 448.53 23.5
0 1 -8 430.63 23.31
0 -1 -7 188.36 11.23
0 -1 -7 172.47 12.19
0 1 -7 220.86 13.6
0 1 -7 224.54 13.03
0 -1 -6 141.14 8.31
0 1 -6 149.16 9.47
0 1 -6 160.04 10.22
0 -1 -6 151.55 9.55
0 -1 -5 931.5 44.07
0 1 -5 1063.86 44.18
0 1 -5 1058.7 44.88
0 -1 -5 939.86 42.99
0 1 -5 1000.42 41.8
0 1 -5 1046.27 44.33
0 -1 -4 78.88 5.33
0 -1 -4 74.43 5.95
0 1 -4 98.61 6.46
0 1 -4 88.49 6.44
0 -1 -4 86.44 5.77
0 1 -4 87.21 6.26
0 1 -4 90.25 4.88
0 -1 -4 84.15 6.24
0 1 -4 89.33 6.13
0 -1 -3 1636 68.72
0 -1 -3 1552.44 68.29
0 1 -3 1618.32 68.96
0 1 -3 1824.08 69.45
0 1 -3 1824.22 69.7
0 -1 -3 1547.07 69.02
0 -1 -3 1512.08 68.79
0 1 -3 1838.9 69.24
0 1 -2 981.97 40.8
0 1 -2 994.54 41.14
0 -1 -2 947.32 40.7
0 -1 -2 972.65 40.75
0 -1 -2 959.93 40.38
0 -1 2 994.19 41.93
0 -1 2 1003.61 42.35
0 1 2 961.18 42.33
0 1 2 1029.31 42.18
0 -1 2 1015.03 42.07
0 -1 3 1827.67 72
0 1 3 1620.31 72.19
0 1 3 1598.71 71.73
0 -1 3 1869.52 72.13
0 -1 4 90 6.12
0 1 4 72.3 6.24
0 -1 4 93.23 6.11
0 1 4 75.41 5.25
0 1 4 77.17 5.74
0 -1 4 91.76 4.87
0 1 4 74.62 6.15
0 1 5 953.21 44.78
0 -1 5 1104.3 44.68
0 1 5 955.37 43.46
0 -1 5 1041.79 44.64
0 1 5 971.97 44
0 -1 5 1052.42 42.89
0 1 5 938.01 44.72
0 -1 5 1065.93 44.73
0 1 6 142.55 10.18
0 -1 6 153.62 10.01
0 -1 6 156.04 8.48
0 -1 6 160.51 10.21
0 1 6 149.73 9.07
0 1 6 145.01 9.32
0 1 6 157.94 10.47
0 1 7 209.65 12.22
0 1 7 209.54 13.77
0 -1 7 226.03 11.76
0 1 7 209.06 13.87
0 1 7 195 12.63
0 -1 7 244.17 13.94
0 -1 7 238.26 13.84
0 -1 8 438.13 23.23
0 1 8 443.88 23.89
0 -1 8 444.2 23.42
0 -1 8 414.83 20.84
0 1 8 435.69 22.33
0 1 8 438.79 23.78
0 1 9 268.46 17.14
0 1 9 267.21 15.56
0 -1 9 242.08 13.92
0 1 9 272.23 17.19
0 -1 9 246.09 16.3
0 -1 9 246.9 16.43
0 1 10 127.47 11.71
0 -1 10 128.5 11.54
0 -1 10 110.68 8.53
0 1 10 119.15 10.1
0 -1 10 125.49 11.45
0 1 10 122.87 11.54
0 -1 10 122.64 11.12
0 1 11 175.28 14.63
0 -1 11 124.77 12.44
0 -1 11 155.62 13.53
0 1 11 180.57 12.38
0 1 11 156.5 14.11
0 -1 11 134.34 12.99
0 -1 12 20.78 7.55
0 1 12 11.26 7.08
0 -1 12 4.7 6.1
0 2 -12 170.57 15.06
0 2 -11 4.28 5.01
0 -2 -11 4.9 5.05
0 -2 -11 7.6 5.87
0 2 -11 4.93 6.18
0 -2 -10 275.56 18.41
0 2 -10 265.83 18.64
0 -2 -10 251.44 14.6
0 2 -10 277.5 18.04
0 -2 -10 260.12 17.72
0 -2 -9 98.1 9.55
0 2 -9 107.3 10.53
0 -2 -9 80.8 7.1
0 2 -9 105.83 9.62
0 -2 -9 91.83 9.22
0 -2 -8 1397.07 57.28
0 2 -8 1426.13 57.34
0 2 -8 1395.79 58.38
0 -2 -8 1380.18 57.36
0 -2 -8 1321.67 54.47
0 -2 -7 4.43 3.6
0 2 -7 16.48 4.39
0 -2 -7 1.45 2.59
0 2 -7 8.47 4.28
0 -2 -7 3.91 3.59
0 2 -7 10.18 1.89
0 2 -7 10.37 3.92
0 2 -6 527.31 25.14
0 -2 -6 525 25.1
0 2 -6 479.8 24.92
0 2 -6 509.05 25.76
0 -2 -6 522.31 25.37
0 2 -6 497.65 22.75
0 -2 -6 508.37 23.57
0 2 -5 97.4 6.39
0 2 -5 91.23 6.79
0 -2 -5 42.64 4.82
0 -2 -5 39.8 4.79
0 2 -5 84.16 6.5
0 -2 -5 45.49 4.65
0 -2 -5 39.23 4.02
0 2 -4 1857.26 78.6
0 2 -4 1879.68 79.27
0 -2 -4 1904.35 78.52
0 2 -4 1893.22 79.4
0 -2 -4 1826.61 78.52
0 -2 -4 1844.96 77.71
0 -2 -4 1862.3 79.03
0 -2 -3 4.37 2
0 2 -3 7.62 2.09
0 -2 -3 3.14 1.83
0 2 -3 9.61 2.44
0 -2 -3 4.16 1.7
0 2 -2 3852.37 159.41
0 -2 -2 3800.69 159.2
0 -2 -2 3733.15 160.4
0 2 -2 4002.01 158.38
0 2 -2 3914.54 159.86
0 2 -1 682.83 31.82
0 -2 -1 807.89 31.84
0 -2 -1 840.53 32.16
0 2 -1 699.18 32.46
0 -2 0 1144.67 48.64
0 2 0 1172.96 47.81
0 2 1 797.83 32.68
0 2 1 842.59 32.56
0 2 1 782.34 33.65
0 -2 2 3874.27 157.03
0 -2 2 3898.17 156.65
0 -2 2 3775.73 157.51
0 2 2 3916.8 156.93
0 2 2 3652.51 157.46
0 2 2 3820.73 156.76
0 -2 3 9.85 2
0 2 3 6.49 2.58
0 -2 3 9.43 1.96
0 2 3 2.08 2.04
0 -2 3 8.72 2.28
0 2 3 2.4 1.78
0 2 3 3.02 1.56
0 -2 4 1926.06 80.87
0 -2 4 1903.36 81.67
0 2 4 1927.35 81.45
0 2 4 1972 81.32
0 2 4 1900.59 81.8
0 -2 4 1934.23 81.09
0 -2 5 83.82 5.91
0 -2 5 83.73 4.21
0 -2 5 86.06 6.13
0 -2 6 475.57 23.76
0 2 6 479.57 24.54
0 2 6 485.44 22.61
0 2 6 463.96 23.91
0 -2 6 498.83 21.52
0 2 6 495.11 24.26
0 -2 6 482.69 23.52
0 2 6 463.62 24.49
0 -2 6 487.43 23.89
0 2 7 6.41 3.64
0 -2 7 11.29 3.94
0 2 7 2.2 3.68
0 2 7 3.26 2.74
0 2 7 5.23 4.03
0 -2 7 12.64 2.47
0 2 7 1.37 3.52
0 -2 7 14.07 4.14
0 -2 8 1396.71 60.7
0 2 8 1242.9 60.82
0 2 8 1392.46 59.08
0 2 8 1316.9 61.54
0 -2 8 1344.21 57.55
0 2 8 1384.19 61.98
0 2 8 1377.89 60.66
0 -2 8 1381.41 60.95
0 2 9 101.79 10.25
0 2 9 91.12 9.03
0 -2 9 106.31 7.04
0 2 9 98.83 9.78
0 -2 9 103.77 9.53
0 2 9 93.83 10.1
0 -2 9 109.97 9.85
0 2 10 237.68 17.18
0 -2 10 243.1 12.97
0 2 10 239.89 15.98
0 2 10 218.24 16.72
0 -2 10 249.23 17.01
0 2 10 263.62 18.03
0 -2 10 242.3 16.75
0 -2 10 265.86 16.96
0 -2 11 1.07 5.4
0 2 11 4.24 5.79
0 2 11 9.43 5.95
0 -2 11 5.59 5.36
0 2 11 0.62 5.95
0 2 11 1.75 4.9
0 -2 11 -0.56 5.31
0 -2 12 145.76 13.54
0 2 12 156.9 15.36
0 -2 12 152.67 13.98
0 3 -11 213.29 16.72
0 3 -11 177.85 14.47
0 -3 -11 168.96 14.9
0 -3 -11 159.62 14.14
0 -3 -10 74 9.11
0 3 -10 81.98 9.31
0 3 -10 77.59 10.64
0 -3 -10 72.27 6.62
0 3 -10 72.44 9.7
0 -3 -9 200.21 15.28
0 3 -9 273.53 17.4
0 -3 -9 201.58 12.63
0 -3 -9 227.08 15.53
0 3 -9 217.78 10.73
0 3 -9 290.47 16.69
0 -3 -8 80.75 8.12
0 3 -8 83.62 8.48
0 -3 -8 69.31 6.45
0 3 -8 76.25 8.92
0 3 -8 79.9 5.65
0 3 -8 98.43 8.92
0 -3 -8 73.38 8.02
0 -3 -7 448.15 25.24
0 3 -7 538.63 26.97
0 -3 -7 479.03 23.71
0 3 -7 515.05 23.45
0 3 -7 557.33 26.5
0 -3 -7 468.94 25.66
0 3 -7 511.23 25.62
0 -3 -6 397.6 20.58
0 3 -6 413.27 21.79
0 3 -6 389.45 21.14
0 -3 -6 398.86 19.35
0 -3 -6 385.37 20.9
0 3 -6 407.35 20.9
0 -3 -6 390.63 20.38
0 3 -5 514.96 26.65
0 -3 -5 577.48 26.08
0 -3 -5 569.07 25.15
0 3 -5 530.73 26
0 3 -5 502.37 26.52
0 -3 -5 547.1 25.86
0 3 -5 527.95 26.99
0 -3 -5 555.36 26.68
0 3 -4 148.93 9.16
0 3 -4 134.97 9.67
0 3 -4 135.09 9.65
0 -3 -4 147.13 8.83
0 -3 -4 151.58 8.67
0 -3 -4 164.36 9.45
0 3 -4 153.92 9.9
0 -3 -4 135.5 9.53
0 3 -3 623.15 30.69
0 -3 -3 713.49 30.53
0 -3 -3 724.91 31.68
0 3 -3 624.74 30.41
0 3 -2 147.91 7.5
0 -3 -2 141.88 7.67
0 -3 -2 143.32 9.31
0 3 -2 151.54 8.79
0 -3 -1 163.92 8.13
0 -3 -1 167.65 8.39
0 3 0 614.35 26.51
0 3 0 581.28 25.04
0 -3 0 597.25 26.32
0 3 1 170.19 9.37
0 -3 1 223.32 10.12
0 3 1 166.75 10.6
0 -3 1 233.2 10.59
0 3 2 123.91 7.4
0 -3 2 123.34 7.97
0 3 2 126.2 7.13
0 -3 2 128.46 6.83
0 3 2 129.63 7.62
0 -3 2 132.73 7.85
0 -3 2 125.31 7.43
0 -3 3 638.58 29.62
0 -3 3 669.54 31
0 3 3 702.73 30.71
0 3 3 721.83 31.31
0 3 3 753.76 30.41
0 -3 3 669.47 30.22
0 3 3 718.62 30.11
0 -3 3 623.75 28.91
0 -3 4 183.41 10.71
0 -3 4 163.31 9.38
0 3 4 161.05 9.14
0 -3 4 157.78 8.12
0 3 4 161.79 10.33
0 -3 4 164.83 9.67
0 3 4 172.69 9.87
0 3 4 162.61 10.93
0 -3 5 509.08 24.27
0 -3 5 520.73 25.43
0 -3 5 482.16 22.32
0 3 5 561.49 25.1
0 3 5 548.67 25.64
0 -3 5 488.57 24.35
0 3 5 553.02 26.05
0 -3 6 421.49 20.87
0 3 6 394.51 22.06
0 -3 6 420.96 20.99
0 -3 6 425.07 18.22
0 3 6 404.48 21.28
0 3 6 384.84 17.9
0 -3 6 433.84 18.48
0 -3 6 394.57 20.31
0 3 6 416.8 21.77
0 -3 7 510.34 23.96
0 3 7 458.47 22.74
0 -3 7 499.68 21.35
0 -3 7 507.84 24.76
0 3 7 415.3 24.44
0 -3 7 485.29 21.16
0 3 7 453.52 24.54
0 3 7 443.4 25.49
0 -3 8 85.47 7.8
0 3 8 67.68 8.37
0 3 8 78.19 6.68
0 -3 8 78.86 5.09
0 3 8 69.91 8.39
0 -3 8 81.3 5.17
0 3 8 81.7 8.35
0 3 8 70.07 8.18
0 -3 8 90.16 8.29
0 3 9 228.32 16.54
0 -3 9 288.64 16.07
0 -3 9 273.96 16.34
0 -3 9 229.86 11.64
0 3 9 249.42 16.2
0 -3 9 235.48 11.81
0 3 9 239.82 17.16
0 3 9 229.41 16.1
0 3 9 238.02 13.63
0 3 10 81.43 10.45
0 3 10 64.31 9
0 -3 10 63.99 8.04
0 -3 10 66 4.62
0 3 10 72.01 9.06
0 3 10 67.56 8.97
0 -3 10 85.1 9.06
0 -3 11 185.01 13.9
0 3 11 153.64 13.67
0 -3 11 184.83 14.54
0 3 11 172.35 14.64
0 -3 11 175.06 14.24
0 3 11 152.83 15.35
0 3 11 150.24 14.54
0 -3 12 47.5 8.46
0 -3 12 37.12 8.36
0 4 -11 2.79 5.67
0 4 -11 14.46 7.56
0 4 -10 15.66 5.7
0 -4 -10 24.02 6.73
0 -4 -10 23.14 6.42
0 4 -10 13.82 6.46
0 4 -10 21.39 7.24
0 4 -10 14.49 2.38
0 4 -9 18.64 5.62
0 4 -9 27.71 5.91
0 4 -9 19.32 6.58
0 4 -9 19.98 3.42
0 -4 -9 6.36 4.8
0 -4 -9 15.5 4.94
0 4 -9 21.06 6.75
0 4 -8 108.83 9.95
0 -4 -8 95.4 7.83
0 4 -8 116.1 11.26
0 4 -8 134.18 11.02
0 4 -8 119.92 11.52
0 4 -8 109.27 8.04
0 -4 -8 114.96 9.86
0 -4 -8 112.67 10.2
0 -4 -7 142.71 10.94
0 -4 -7 163.32 12.08
0 4 -7 167.91 12.7
0 4 -7 163.02 12.78
0 -4 -7 154.67 10.33
0 -4 -7 163 11.6
0 4 -7 167.15 13.02
0 4 -7 184.8 12.28
0 4 -7 179.03 10.91
0 4 -6 83.01 7.67
0 -4 -6 89.75 8.07
0 4 -6 79.71 8.17
0 -4 -6 87.17 7.61
0 4 -6 71.95 8.03
0 4 -6 70.33 7.91
0 -4 -6 95.41 7.62
0 -4 -5 113.23 8.01
0 4 -5 97.59 8.88
0 -4 -5 113.33 8.42
0 4 -5 89.32 8.57
0 -4 -5 123.85 10.14
0 -4 -5 119.22 9.09
0 4 -5 107.12 8.95
0 -4 -4 1542.79 67.41
0 4 -4 1604.4 69.44
0 -4 -4 1591.66 68.49
0 -4 -4 1588.34 70.01
0 4 -4 1615.44 69.15
0 4 -3 28.25 4.32
0 4 -3 28.56 2.85
0 4 -3 27.22 4.66
0 4 -2 625.67 27.85
0 -4 -2 637.62 27.75
0 -4 -2 657.54 30.39
0 4 -2 604.4 29.15
0 -4 -1 35.42 4.25
0 -4 -1 33.91 4.21
0 -4 -1 34.88 3.04
0 -4 0 6423.19 263.53
0 4 0 6517.11 261.88
0 -4 0 6367.16 261.76
0 4 0 6451.24 263.7
0 -4 1 64.76 4.97
0 -4 1 66.59 4.81
0 4 1 31.69 4.77
0 4 2 636.09 27.97
0 4 2 630.2 27.55
0 -4 2 592.96 27.38
0 4 2 638.69 28.58
0 4 2 612.7 29.54
0 -4 2 622.64 29.11
0 -4 2 599.92 28.44
0 -4 3 34.64 4.2
0 4 3 45.36 4.35
0 4 3 42.15 5.3
0 -4 3 31.69 3.41
0 -4 3 28.28 3.23
0 4 3 42.61 4.46
0 -4 3 29.34 4.35
0 4 3 47.56 4.58
0 -4 4 1634.11 67.58
0 4 4 1544.17 69.75
0 4 4 1567.83 68.74
0 4 4 1552.66 68.22
0 4 4 1580.4 69.47
0 -4 4 1601.2 69.42
0 -4 4 1588.11 66.44
0 -4 4 1640.94 68.38
0 4 4 1605 67.83
0 -4 5 92.49 7.18
0 -4 5 91.56 8.3
0 4 5 132.85 7.81
0 -4 5 89.94 5.81
0 4 5 127.2 9.39
0 4 5 120.84 8.35
0 -4 5 87.32 7.39
0 4 5 118.39 8.79
0 4 5 127.98 9.68
0 4 6 84.62 8.45
0 -4 6 95.93 8.72
0 -4 6 90.41 6.75
0 4 6 98.53 8.22
0 4 6 102.13 9.05
0 4 6 102.51 9.3
0 -4 6 90.23 5.49
0 -4 6 91.53 7.48
0 -4 6 103.87 8.05
0 -4 7 190.06 10.83
0 4 7 154.7 12.76
0 -4 7 162.38 8.17
0 -4 7 163.94 7.93
0 4 7 138.9 11.76
0 -4 7 167.15 11.27
0 4 7 148.36 8.08
0 4 7 147.88 11.43
0 -4 7 180.19 11.72
0 -4 8 109.98 8.7
0 4 8 109.88 10.44
0 4 8 128.89 8.45
0 4 8 112.8 11.01
0 -4 8 97.54 5.51
0 -4 8 103.13 9.06
0 4 8 116.03 9.95
0 -4 9 20.63 4.93
0 4 9 7.7 3.5
0 4 9 9.03 5.41
0 -4 9 16.69 4.94
0 4 9 9.24 5.47
0 4 9 0.57 5.09
0 4 9 7.73 5.05
0 -4 10 15.9 5.44
0 4 10 8.91 5.83
0 -4 10 13.98 4.93
0 4 10 20.99 7.7
0 4 10 17.27 6.43
0 4 10 15.85 6.38
0 -4 11 4.7 5.1
0 -4 11 4.2 5.29
0 4 11 2.1 6.65
0 4 11 4.44 6
0 4 11 -1.32 6
0 4 11 -1.85 5.95
0 -4 11 10.89 6.27
0 -4 12 104.84 11.74
0 -5 -11 121.49 14.76
0 -5 -10 50.62 8.38
0 5 -10 37.55 7.55
0 -5 -10 59.05 8.65
0 -5 -10 52 10.3
0 5 -10 56.14 10.03
0 5 -10 39.35 9.24
0 5 -9 24.69 7.23
0 -5 -9 32.48 6.69
0 -5 -9 30.52 6.43
0 5 -9 17.1 5.87
0 5 -9 16.78 4.2
0 5 -9 22.87 7.2
0 -5 -9 20.38 8.13
0 -5 -8 100.24 11.6
0 -5 -8 95.63 9.05
0 5 -8 85.54 9.88
0 -5 -8 106.73 10.11
0 5 -8 91.36 10.69
0 5 -8 100.46 10.93
0 5 -8 93.04 8.09
0 -5 -7 75.37 7.44
0 5 -7 51.96 7.87
0 5 -7 50.47 7.83
0 -5 -7 71.55 8.09
0 -5 -7 67.6 7.37
0 5 -7 56.24 8.5
0 -5 -7 80.18 9.68
0 -5 -6 98.28 7.96
0 5 -6 92.38 9.42
0 5 -6 96.06 9.85
0 -5 -6 85.9 8.25
0 -5 -6 94.71 10.49
0 5 -6 95.16 9.35
0 -5 -6 92.34 8.78
0 -5 -5 122.91 9.2
0 5 -5 176.8 12.17
0 -5 -5 128.21 10.04
0 -5 -5 129.35 11.5
0 5 -5 173.76 11.79
0 5 -4 220.28 14.86
0 -5 -4 239.45 14.17
0 5 -4 237.24 14.65
0 -5 -4 247.72 15.79
0 5 -3 942.76 44.12
0 5 -3 987.93 41.13
0 -5 -3 879.88 44.06
0 5 -3 935.95 43.34
0 -5 -2 386.41 21.84
0 -5 -2 451.1 20.28
0 -5 -2 431.03 23.21
0 5 -2 465.64 21.06
0 -5 -2 458.5 22.66
0 5 -1 1290.97 55.28
0 -5 -1 1254.95 56.21
0 -5 -1 1334.44 55.93
0 -5 -1 1249.43 53.62
0 5 0 7.6 1.79
0 -5 0 8.48 1.71
0 5 0 6.09 3.21
0 -5 0 7.35 3.1
0 -5 1 1343.94 56.18
0 5 1 1319.48 57.12
0 -5 1 1286.19 56.47
0 5 1 1295.83 57.92
0 5 1 1267.11 54.97
0 -5 2 430.4 23.36
0 5 2 458.47 23.03
0 -5 2 472.81 22.01
0 5 2 480.15 24.28
0 -5 2 456.96 22.73
0 5 2 481.19 21.97
0 5 3 843.8 38.67
0 -5 3 966.97 41.09
0 -5 3 945.51 38.44
0 5 3 796.21 39.07
0 5 3 803.33 39.39
0 -5 3 916.52 39.83
0 -5 4 230.82 11.95
0 -5 4 230.82 13.02
0 -5 4 220.82 13.79
0 5 4 215 12.63
0 -5 4 216.52 11.34
0 5 4 217.44 13.07
0 5 4 204.89 12.56
0 5 4 225.01 14.12
0 5 5 152.67 11.42
0 -5 5 206.13 9.72
0 5 5 138.77 10.42
0 -5 5 204.31 12.86
0 5 5 156.23 11.15
0 -5 5 196.03 9.58
0 5 5 145.24 12.37
0 -5 5 197.6 10.88
0 5 5 154.67 12.24
0 -5 5 199.84 11.74
0 5 6 91.28 8.64
0 -5 6 93.95 6.6
0 -5 6 89.84 8.74
0 5 6 98.77 7.59
0 -5 6 84.27 5.52
0 5 6 93.35 8.32
0 5 6 87.24 9.14
0 5 6 94.12 9.72
0 -5 6 90.6 7.36
0 -5 6 106.11 8.37
0 5 7 61.04 7.72
0 -5 7 45.19 5.1
0 -5 7 46.97 5.96
0 -5 7 41.97 3.29
0 -5 7 51.14 7.23
0 -5 7 53.39 6.46
0 5 7 62.7 8.14
0 5 7 63.87 8.72
0 5 7 62 7.19
0 -5 7 46.95 3.16
0 -5 8 80.57 8.38
0 -5 8 96.88 8
0 5 8 103.48 9.89
0 5 8 111.07 10.91
0 5 8 91.03 5.59
0 5 8 98.97 11.04
0 5 8 90.23 9.99
0 -5 9 33.08 5.49
0 5 9 38.97 5
0 5 9 35.7 7.79
0 5 9 31.75 7.01
0 5 9 23.06 7.33
0 -5 9 29.4 5.99
0 -5 10 39.85 6.73
0 -5 10 50.2 7.18
0 5 10 49.9 9.81
0 5 10 43.49 8.22
0 5 10 53.35 8.77
0 5 11 122.16 14.11
0 -5 11 110.83 11.18
0 5 11 109.42 12.19
0 -5 11 101.04 10.62
0 5 11 95.18 11.72
0 6 -11 25.71 7.7
0 -6 -11 31.87 9.81
0 -6 -10 176.39 14.41
0 6 -10 153.99 14.32
0 -6 -10 180.66 15.36
0 6 -10 150.24 15.81
0 -6 -10 201.79 18.1
0 6 -10 174.32 16.69
0 6 -9 44.2 8.78
0 6 -9 37.04 6.19
0 6 -9 44.62 7.61
0 -6 -9 35.16 6.6
0 -6 -9 31.51 8.81
0 -6 -9 33.32 7.04
0 6 -9 32.86 8.55
0 6 -8 665.58 35.47
0 6 -8 656.45 36.07
0 -6 -8 684.24 34.04
0 -6 -8 640.34 36.57
0 -6 -8 677.44 33.24
0 6 -8 639.15 32.76
0 6 -8 651.18 35.72
0 -6 -8 666.63 34.91
0 -6 -7 67.69 8.34
0 6 -7 42.39 7.64
0 6 -7 45.91 7.75
0 -6 -7 59.4 7.09
0 -6 -7 68.62 9.61
0 -6 -7 55.93 7.27
0 6 -7 51.29 8.47
0 6 -6 230.59 16.99
0 6 -6 260.45 17.66
0 -6 -6 258.86 16.17
0 -6 -6 260.36 18.35
0 6 -6 231.14 16.74
0 -6 -6 268.18 16.9
0 -6 -6 264.71 15.17
0 -6 -5 87.31 8.5
0 -6 -5 102 10.72
0 -6 -5 87.62 7.63
0 6 -5 103.96 10.15
0 6 -5 99.27 9.6
0 6 -4 484.65 23.28
0 6 -4 505.01 27.48
0 -6 -4 567.04 28.59
0 6 -4 516.66 26.86
0 -6 -3 13.23 4.3
0 6 -3 30.1 3.71
0 6 -3 34.11 5.89
0 -6 -3 18.4 5.3
0 6 -2 367.05 18.62
0 -6 -2 375.81 17.59
0 -6 -2 360.06 19.74
0 -6 -2 361.78 21.29
0 -6 -2 376.48 20.34
0 -6 -1 15.19 4.14
0 6 -1 10.83 3.39
0 -6 -1 10.58 2.17
0 -6 -1 20 4.09
0 6 0 207.53 12.99
0 -6 0 219.08 12.85
0 -6 1 9.05 3.05
0 -6 1 11.42 3.31
0 6 1 13.79 2.83
0 -6 1 9.64 1.41
0 6 1 14.48 4.78
0 6 1 15.54 4.07
0 -6 2 303.76 18.02
0 6 2 343.34 18.03
0 -6 2 317.29 16.56
0 6 2 275.79 17.59
0 6 2 329.6 18.94
0 -6 2 288.19 17.08
0 6 2 345.36 16.47
0 6 3 20.78 3.89
0 -6 3 31.64 4.62
0 -6 3 30.12 4.67
0 -6 3 29.77 4.01
0 -6 3 30.25 5.05
0 6 3 17.98 4.51
0 -6 4 465.14 20.85
0 -6 4 475.22 22.73
0 -6 4 482.86 25.74
0 6 4 525.3 24.39
0 6 4 517.94 26.48
0 -6 4 479.68 22.75
0 6 4 518.46 24.68
0 6 4 535.46 25.06
0 -6 4 491.33 24.68
0 -6 5 95.48 8.16
0 -6 5 86.25 5.48
0 -6 5 97.94 7.14
0 -6 5 104.9 9.41
0 6 5 85.72 7.94
0 6 5 96.36 7.95
0 -6 5 100.22 6.48
0 6 5 87.74 9.86
0 6 5 87.78 9.29
0 6 5 97.53 8.81
0 -6 6 241 12.3
0 6 6 262.23 14.43
0 6 6 236.36 16.43
0 -6 6 228.62 13.72
0 -6 6 252.14 16.29
0 6 6 262.1 15.59
0 6 6 240.96 15.68
0 6 6 244.08 17.25
0 -6 6 225.74 11.85
0 -6 6 234.33 14.89
0 -6 7 51.46 5.09
0 6 7 62.93 9.1
0 6 7 56.72 7.65
0 -6 7 48.15 6.02
0 -6 7 49.09 6.58
0 6 7 61.89 7.34
0 6 7 54.09 8.31
0 -6 7 44.73 7.31
0 6 8 667.42 33.45
0 6 8 658.18 34.13
0 6 8 643.65 34.53
0 -6 8 627.71 30.03
0 6 8 622.38 35.1
0 -6 8 629.65 32.33
0 -6 9 37.72 6.29
0 6 9 31.36 7.19
0 -6 9 32.81 5.4
0 6 9 34.5 5.28
0 6 9 30.44 6.91
0 6 9 31.02 7.76
0 6 9 29.77 8.31
0 6 10 170.9 16.16
0 6 10 169.16 14.47
0 -6 10 163.78 13.21
0 6 10 178.6 15.76
0 6 10 158 14.82
0 6 11 24.29 8.49
0 -6 11 38.67 7.63
0 7 -11 215.99 18.31
0 7 -10 12.97 7.67
0 -7 -10 13.25 9
0 7 -9 192.79 17.24
0 7 -9 194.7 16.11
0 -7 -9 194.43 18.15
0 -7 -9 180.92 14.43
0 7 -9 182.06 13.64
0 7 -9 201.6 17.14
0 -7 -9 187.64 15.49
0 7 -8 18.13 7.21
0 -7 -8 11.52 5.2
0 7 -8 18.67 6.47
0 -7 -8 16.6 5.45
0 7 -8 14.91 7.3
0 -7 -8 13.82 5.76
0 -7 -8 15.07 8.03
0 -7 -7 608.7 30.11
0 -7 -7 557.48 31.02
0 7 -7 601.52 33.14
0 7 -7 622.28 33.96
0 -7 -7 584.85 34.05
0 7 -7 639.88 33.6
0 -7 -7 573.39 32.04
0 -7 -6 297.87 16.77
0 7 -6 274.05 19.37
0 7 -6 297.9 20.04
0 -7 -6 278.28 17.92
0 -7 -6 285.4 20.3
0 7 -6 284.61 19.29
0 7 -5 504.76 29.22
0 -7 -5 516.79 27.45
0 -7 -5 526.27 25.63
0 -7 -5 558.37 30.05
0 7 -5 491.88 28.08
0 7 -4 75.92 6.37
0 -7 -4 94.98 10.45
0 7 -4 79.46 9.83
0 7 -3 170.48 10.87
0 7 -3 159.56 13.8
0 -7 -3 191.95 12.93
0 -7 -3 202.64 14.8
0 -7 -3 190.48 13.27
0 -7 -2 111.45 9.78
0 7 -2 114.78 8.36
0 -7 -2 109.6 10.74
0 -7 -2 106.97 7.09
0 -7 -2 112.97 9.28
0 -7 -1 19.55 2.88
0 -7 -1 20 4.49
0 -7 -1 18.58 5.83
0 -7 -1 20.03 4.84
0 -7 0 487.52 22.12
0 7 0 500.86 25.26
0 -7 0 499.27 24.81
0 7 0 452.43 26.42
0 -7 1 47.44 5.96
0 -7 1 58 5.92
0 7 1 24.85 5.06
0 7 1 27.56 3.82
0 7 1 27.99 6.06
0 -7 2 95.19 9.58
0 7 2 102.75 9.64
0 -7 2 110.25 8.41
0 7 2 109.29 10.3
0 -7 2 110.84 8.89
0 7 2 115.46 8.14
0 7 2 117.32 9.91
0 -7 3 164.38 12.52
0 -7 3 173.27 10.78
0 7 3 202.07 12.99
0 7 3 188.61 11.64
0 -7 3 151.28 11.5
0 -7 3 158.24 11.58
0 -7 4 73.88 7.51
0 -7 4 77.9 8.48
0 -7 4 74.73 6.53
0 7 4 90.89 8.25
0 7 4 89.6 8.19
0 -7 4 76.11 6.14
0 -7 5 414.95 19.7
0 7 5 524 25.35
0 -7 5 481.09 22.48
0 -7 5 502.65 24.64
0 -7 5 479.95 25.88
0 7 5 522.87 27.01
0 -7 5 471.72 21.92
0 7 5 528.37 24.67
0 -7 6 250.41 12.7
0 7 6 286.58 16.23
0 -7 6 275.82 15.27
0 -7 6 280.28 18.08
0 7 6 274.12 16.74
0 7 6 305.05 19.14
0 -7 6 264.3 13.47
0 -7 6 257.86 16.18
0 7 6 275.9 18.97
0 7 6 280.63 17.42
0 7 7 547.38 30.44
0 -7 7 631.31 31.97
0 7 7 571.37 30.02
0 7 7 564.31 28.42
0 -7 7 597.17 28.47
0 7 7 599.51 32.2
0 -7 7 562.04 25.02
0 7 7 577.12 33.06
0 -7 7 586.78 29.69
0 -7 7 566.1 25.92
0 7 8 16.88 6.29
0 -7 8 13.4 3.57
0 -7 8 13.66 4.74
0 7 8 15.43 5.95
0 7 8 12.86 6.17
0 -7 8 17.22 6.19
0 7 8 10.76 6.9
0 7 9 189.77 17.08
0 7 9 155.79 14.21
0 7 9 198.85 16.54
0 -7 9 192.89 13.9
0 7 9 169.79 14.96
0 7 10 13.42 8.5
0 7 10 12.88 7.05
0 7 10 20.87 8.38
0 -7 10 16.65 6.04
0 -7 11 209.05 16.08
0 8 -10 8.94 7.03
0 -8 -9 33.83 7.25
0 8 -9 69.64 10.97
0 8 -9 61.39 11.06
0 -8 -9 39.74 10.85
0 8 -9 69.74 8.57
0 -8 -8 56.37 8.95
0 -8 -8 69.23 8.45
0 8 -8 72.19 10.45
0 8 -8 80.69 11.57
0 -8 -8 55.93 8.37
0 8 -8 87.58 12.14
0 -8 -8 64.27 11.28
0 -8 -7 65.34 9
0 -8 -7 64.69 7.5
0 8 -7 76.87 10.27
0 8 -7 83.07 10.88
0 -8 -7 68.03 8.97
0 -8 -7 87.98 12.14
0 8 -7 72.79 10.65
0 8 -6 176.98 14.89
0 8 -6 158.9 15.03
0 -8 -6 149.54 12.68
0 -8 -6 163.42 15.46
0 -8 -6 163.44 11.37
0 8 -6 162.13 14.21
0 -8 -5 36.59 5.24
0 -8 -5 30.5 6.23
0 8 -5 39.1 8.42
0 -8 -5 42.13 8.44
0 8 -4 996.01 43.43
0 8 -4 985.32 48.52
0 -8 -4 914.83 47.99
0 -8 -4 935.31 46.5
0 8 -3 205.8 16.04
0 8 -3 221.07 12.71
0 -8 -3 178.87 13.6
0 -8 -3 193.4 15.68
0 -8 -3 182.06 13.96
0 -8 -2 381.56 21.78
0 8 -2 392.15 20.85
0 -8 -2 384.95 23.77
0 -8 -2 396.81 18.78
0 -8 -2 367.68 22.26
0 8 -1 278.12 16.2
0 -8 -1 251.03 17.99
0 -8 -1 245.64 15.82
0 -8 -1 249.67 16.84
0 -8 -1 260.95 13.17
0 -8 0 1126.75 48.91
0 8 0 1191 53.03
0 -8 0 1177.7 52.31
0 8 0 1073.19 54.46
0 -8 0 1163.75 53.51
0 8 1 243.86 16.2
0 -8 1 271.87 15.53
0 8 1 237.66 13.27
0 8 1 234.26 17.26
0 -8 1 257.17 15.73
0 8 2 405.23 24.64
0 8 2 415.85 23.76
0 8 2 421.77 21.03
0 -8 2 413.52 21.73
0 8 2 393.06 23.51
0 -8 2 435.51 22.8
0 -8 3 209.23 14.81
0 8 3 173.94 14.24
0 -8 3 206.45 12.44
0 8 3 191.5 13.96
0 8 3 196.33 15.38
0 -8 3 187.42 13.33
0 8 3 199.73 12.72
0 -8 4 963.8 42.33
0 -8 4 915.43 46.5
0 -8 4 1001.22 43.44
0 8 4 973.3 45.6
0 -8 4 948.29 45.28
0 8 4 955.12 44.79
0 -8 5 41.04 4.98
0 -8 5 54.44 7.01
0 -8 5 51.11 5.19
0 8 5 38.76 6.38
0 8 5 40.16 6.49
0 8 5 31.22 7.08
0 -8 5 53.73 7.68
0 -8 6 163.9 10.71
0 -8 6 177.71 14.14
0 8 6 150.4 14.03
0 -8 6 160.39 9.7
0 -8 6 169.6 12.62
0 8 6 154.82 12.67
0 8 6 166.15 12.08
0 -8 7 75.1 7.15
0 8 7 65.15 8.93
0 8 7 72.23 7.95
0 8 7 68.05 10
0 -8 7 77.36 9.54
0 -8 7 63.26 4.23
0 -8 7 79.5 8.3
0 -8 8 61.13 7.78
0 8 8 70.26 10.3
0 -8 8 54.88 8.69
0 8 8 58.62 8.83
0 8 9 36.59 8.54
0 8 9 27.3 7.48
0 8 9 40.56 9.77
0 8 10 13.23 7.37
0 -8 10 10.94 6.01
0 -9 -9 0.88 8.93
0 9 -9 -0.78 6.38
0 -9 -9 0.49 5.34
0 9 -9 10.2 5.53
0 9 -8 30.39 8.68
0 9 -8 25.51 8.66
0 -9 -8 35.59 10.17
0 -9 -8 43.59 8.3
0 9 -8 33.72 10.1
0 -9 -7 25.68 9.69
0 -9 -7 21.34 5.4
0 9 -7 39.18 8.41
0 -9 -7 14.48 5.95
0 9 -7 29.3 9.43
0 -9 -6 46.98 5.96
0 9 -6 49.09 9.05
0 -9 -6 41.11 7.56
0 9 -6 29.07 8.79
0 -9 -6 54.37 10.37
0 -9 -5 318.85 18.18
0 9 -5 370.08 18.03
0 9 -5 363.07 24.03
0 -9 -5 323.9 23.24
0 -9 -5 304.38 20.82
0 -9 -4 25.84 6.35
0 -9 -4 33.55 4.74
0 9 -4 25.86 4.87
0 -9 -4 34.28 6.72
0 9 -4 19.24 7.45
0 -9 -4 33.79 8.11
0 9 -3 623.58 28.8
0 -9 -3 523.32 31.97
0 -9 -3 542.72 29.95
0 9 -3 569.08 32.88
0 -9 -3 546.41 30.66
0 -9 -2 45.43 7.38
0 9 -2 23.66 5.62
0 -9 -2 41.95 6.67
0 -9 -2 38.9 8.58
0 -9 -1 872.73 41.78
0 9 -1 824.86 39.89
0 -9 -1 862.81 42.88
0 -9 -1 817.88 39.9
0 -9 -1 789.85 36
0 -9 0 6.86 5.35
0 -9 0 5.21 5
0 9 0 2.25 4.49
0 -9 0 2.96 2.41
0 -9 0 4.79 4.18
0 9 0 9.12 6.1
0 -9 1 810.66 39.55
0 9 1 871.53 41.66
0 9 1 835.71 43.18
0 -9 1 816.32 40.34
0 9 2 42.24 5.64
0 -9 2 27.95 5.82
0 9 2 41.47 7.48
0 -9 2 31.1 5.66
0 9 2 50.01 7.95
0 9 2 41.8 8.04
0 -9 3 608.87 28.9
0 9 3 531.35 28.45
0 -9 3 627.21 32.18
0 9 3 523.56 31.2
0 9 3 575.09 31.06
0 9 3 544.69 32.26
0 -9 3 667.75 31
0 9 4 24.69 6.19
0 -9 4 28.64 3.95
0 9 4 38.22 6.12
0 -9 4 27.58 4.97
0 -9 4 37.6 7.02
0 -9 4 31.1 5.71
0 -9 5 363.86 18.27
0 -9 5 371.31 21.21
0 -9 5 370.91 22.84
0 -9 5 378.65 18.81
0 9 5 308.88 20.45
0 9 5 332.4 20.71
0 -9 6 42.83 7.03
0 -9 6 46.08 5.64
0 9 6 46.84 8.52
0 -9 6 38.96 4.77
0 -9 6 35.02 7.41
0 9 6 51.71 7.01
0 9 6 53.14 8.13
0 9 7 26.05 7.14
0 -9 7 37.86 5.62
0 -9 7 42.05 6.74
0 9 7 30.25 8.35
0 9 7 16.25 5.26
0 -9 7 34.92 7.65
0 9 8 38.37 8.18
0 -9 8 43.11 7.37
0 9 8 36.37 8.98
0 -9 8 30.4 7.94
0 -9 9 9.2 5.68
0 -10 -8 101.94 10.56
0 10 -8 106.97 13.59
0 -10 -8 118.04 15.91
0 -10 -7 45.8 7.16
0 10 -7 68.2 10.86
0 -10 -7 44.7 10.91
0 -10 -6 36.65 7.72
0 -10 -6 48.22 6.39
0 10 -6 32.09 8.38
0 -10 -6 46.2 7.89
0 10 -6 25.52 9.35
0 -10 -6 29.63 10.38
0 -10 -5 69.61 6.85
0 10 -5 62.73 6.68
0 -10 -5 56.45 8.75
0 10 -5 63.52 10.85
0 -10 -5 79.17 12.45
0 -10 -4 272.55 19.21
0 10 -4 251.69 16.01
0 -10 -4 267.16 20.82
0 10 -4 269.15 21.08
0 -10 -4 284.53 15.39
0 -10 -4 297.66 19.07
0 10 -3 15.67 4.85
0 -10 -3 19.26 6.25
0 -10 -3 17.93 5.87
0 -10 -3 19.7 7.32
0 10 -3 12.3 7.48
0 10 -2 18.23 5.49
0 -10 -2 16.2 5.51
0 -10 -2 21.95 7.32
0 -10 -2 28.87 7.04
0 -10 -1 79.85 6.04
0 10 -1 78.65 9.1
0 -10 -1 79.56 9.07
0 -10 -1 95.15 11.71
0 -10 -1 94.42 10.47
0 10 0 361.42 22.46
0 -10 0 367.89 17.86
0 10 0 368.54 24.73
0 -10 0 393.66 22.13
0 -10 0 385.64 23.72
0 -10 0 394.93 22.69
0 -10 1 85.41 9.2
0 -10 1 78.59 5.72
0 10 1 72.82 9.6
0 -10 1 69.77 7.93
0 10 1 77.71 10.91
0 10 2 16.11 4.43
0 -10 2 9.2 5.09
0 10 2 21.85 6.54
0 10 2 21.48 7.82
0 -10 2 12 4.71
0 10 2 17.98 6.63
0 10 3 28.56 5.2
0 -10 3 15.87 5.73
0 -10 3 15.98 3.2
0 10 3 21.3 6.93
0 -10 3 11.86 4.64
0 10 3 22.04 7.72
0 -10 3 18.35 6.37
0 10 3 18.77 6.33
0 -10 4 264.17 14.37
0 -10 4 248.03 18.98
0 10 4 294.72 20.35
0 -10 4 268.22 16.13
0 10 4 301.84 19.21
0 10 4 301.43 17.71
0 -10 4 293.4 18.37
0 -10 5 63.78 5.88
0 -10 5 55.21 7.89
0 10 5 67.56 8.29
0 -10 5 62.8 6.53
0 -10 5 63.26 9.38
0 10 5 63.08 8.57
0 -10 6 32.03 6.45
0 10 6 28.39 8.09
0 -10 6 35.56 8.1
0 10 6 26.99 6.12
0 -10 6 29.75 4.85
0 10 6 29.42 7.28
0 10 7 51.41 8.95
0 -10 7 69.6 8.74
0 10 7 52.17 7.66
0 10 7 54.48 10.46
0 -10 7 61.52 9.65
0 10 8 108.14 12.21
0 -10 8 107.08 11.09
0 11 -6 4.88 6.75
0 -11 -6 9.48 9.09
0 -11 -5 144.54 15.87
0 11 -5 121.72 9.96
0 -11 -5 145.17 10.09
0 -11 -5 140.97 13.3
0 11 -5 134.29 15.85
0 -11 -5 161.12 14.16
0 -11 -4 23.37 4.47
0 -11 -4 17.71 6.67
0 11 -4 11.08 4.97
0 -11 -4 20.37 6.63
0 -11 -4 20.66 9.12
0 11 -4 11.5 8.53
0 -11 -3 89.52 10.82
0 11 -3 65.81 8.29
0 -11 -3 83.08 9.67
0 -11 -3 72.05 6.42
0 -11 -3 75.89 11.68
0 11 -3 57.76 11.05
0 -11 -2 9.18 6.27
0 11 -2 9.91 5.31
0 -11 -2 11.7 5.75
0 -11 -2 12.87 7.65
0 -11 -1 88.66 11.26
0 -11 -1 89.3 10.41
0 11 -1 73.71 9.09
0 -11 -1 77.53 11.25
0 -11 -1 86.58 9.57
0 -11 0 20.06 7.51
0 -11 0 22.62 6.45
0 11 0 18.42 6.6
0 -11 0 18.64 6.07
0 -11 0 18.94 3
0 -11 0 17.2 7.18
0 11 0 29.08 8.62
0 -11 1 50.88 8.03
0 -11 1 50.49 9.2
0 -11 1 46.64 4.42
0 11 1 77.3 10.8
0 -11 1 59.43 7.7
0 11 1 66.82 10.94
0 11 1 73.81 9.93
0 -11 2 16.04 5.72
0 -11 2 9.72 3.04
0 11 2 8.21 6.22
0 -11 2 10.17 4.87
0 11 2 16.13 7.21
0 11 2 10.48 8.05
0 11 3 66.64 7.89
0 -11 3 56.02 4.98
0 11 3 70 10.45
0 -11 3 63.2 7.48
0 -11 3 64.15 9.65
0 11 3 68.25 10.01
0 -11 3 60.02 8.46
0 -11 4 19.92 6.6
0 11 4 29.71 7.44
0 -11 4 18.51 3.7
0 11 4 15.43 7.12
0 11 4 22.97 5.9
0 -11 4 19.56 5.2
0 -11 4 13.5 6.41
0 -11 5 126.09 11.86
0 -11 5 115.81 12.8
0 -11 5 128.52 9.81
0 11 5 121.63 11.94
0 11 5 132.93 11.87
0 11 6 2.71 5.29
0 -11 6 3.2 5.31
0 11 6 10 7.57
0 -11 6 1.41 5.89
0 11 6 6.93 5.79
0 11 7 143.13 13.74
0 -11 7 145.72 13.31
0 -12 -5 2.67 9.11
0 12 -4 364.28 20.43
0 -12 -4 304.59 25.07
0 12 -3 46.72 7.47
0 -12 -3 64.84 9.76
0 -12 -3 54.2 9.68
0 -12 -3 69.15 11.9
0 -12 -2 58.1 10.17
0 12 -2 52.47 8.12
0 -12 -2 53.76 8.98
0 -12 -2 55.91 11.17
0 -12 -1 3.31 6.59
0 -12 -1 1.76 5.44
0 12 -1 8.47 5.62
0 -12 -1 5.42 5.85
0 -12 -1 1.6 6.97
0 12 -1 -2.57 8.37
0 12 0 326.36 21.23
0 -12 0 288.95 22.56
0 -12 0 300.8 19.75
0 12 0 310.59 23.87
0 -12 0 315.93 20.63
0 -12 0 282.26 21.19
0 -12 1 8.6 7.26
0 12 1 -2.49 8.38
0 12 1 4.55 5.99
0 -12 1 2.93 4.81
0 12 1 11.11 8.18
0 -12 1 6.03 5.28
0 -12 2 48.63 8.2
0 12 2 35.13 8.92
0 -12 2 61.55 7.9
0 12 2 44.04 9.88
0 12 2 56.49 10.97
0 -12 2 32.07 9.08
0 -12 3 47.26 8.22
0 12 3 51.44 10.14
0 -12 3 50.21 7.3
0 -12 3 67.48 10.79
0 12 3 50.24 9.24
0 -12 3 47.32 8.37
0 -12 4 329.24 21.11
0 12 4 283.81 18.47
0 -12 4 330.62 22.91
0 12 4 292.57 22.66
0 12 4 319.07 21.76
0 12 5 3.98 5.43
0 -12 5 -2.86 5.46
0 12 5 4.28 6.63
0 -12 6 44.27 8.31
0 12 6 28.43 7.53
0 12 7 17.91 7.82
0 13 -3 268.74 18.26
0 -13 -2 12.31 7.39
0 13 -2 7.91 5.87
0 -13 -1 336.5 24.49
0 -13 -1 283.19 20.03
0 13 -1 290.62 20.73
0 -13 -1 298.83 20.78
0 -13 0 27.59 7.82
0 13 0 30.29 7.94
0 -13 0 21.49 7.33
0 -13 0 24.56 8.99
0 13 1 299.42 21.8
0 -13 1 282.75 19.12
0 -13 1 300.6 22.16
0 -13 1 272.03 19.62
0 13 2 5.21 7.27
0 -13 2 15.02 6.69
0 -13 2 10.33 5.33
0 13 2 10.07 8.18
0 -13 2 10.74 8.37
0 -13 3 266.67 19.86
0 13 3 286.11 21.6
0 13 4 24.56 8.7
0 -13 4 3.72 5.86
0 -13 5 159.86 14.81
0 14 -1 13.16 7.44
0 14 0 138.25 14.64
1 0 -12 5.31 5.5
1 0 -12 1.73 5.17
1 0 -11 249.63 17.13
1 0 -11 225.71 16.09
1 0 -10 0.42 4.2
1 0 -10 2.74 2.66
1 0 -10 2.31 4.49
1 0 -10 4.22 4.61
1 0 -9 275.29 17.16
1 0 -9 272.76 16.93
1 0 -9 260.98 13.98
1 0 -9 261.92 16.3
1 0 -8 0.97 3.29
1 0 -8 2.47 3.83
1 0 -8 2.12 4.07
1 0 -8 1.68 2.33
1 0 -7 27.59 4.37
1 0 -7 29.2 4.76
1 0 -7 27.53 4.63
1 0 -6 2.02 2.78
1 0 -6 0.45 2.17
1 0 -6 1.01 2.69
1 0 -5 580.41 27.05
1 0 -5 593.78 25.7
1 0 -5 579.38 27.23
1 0 -5 600.44 26.87
1 0 -4 2.56 2.16
1 0 -4 0.92 1.15
1 0 -4 -0.46 1.71
1 0 -4 1.45 1.27
1 0 -4 0.97 1.65
1 0 -3 2931.14 120.33
1 0 -3 3031.14 119.9
1 0 -3 2925.87 119.01
1 0 -3 2975.09 119.38
1 0 -3 2818.28 118.9
1 0 -3 2925.27 119.67
1 0 -2 2.25 1.26
1 0 -2 2.94 2
1 0 -2 1.77 1.17
1 0 -2 2.26 1.14
1 0 -2 1.3 1.14
1 0 1 1175.52 48.99
1 0 2 3.4 1.68
1 0 2 2.6 1.36
1 0 3 9999 392.28
1 0 3 9783.05 390.88
1 0 3 9021.94 391.93
1 0 4 1.32 2.37
1 0 4 2.17 2.28
1 0 4 2.75 1.61
1 0 5 1173.11 53.6
1 0 5 1235.83 52.72
1 0 5 1261.13 54.03
1 0 6 0.32 2.61
1 0 6 1.74 3.09
1 0 6 3.3 2.43
1 0 7 401.88 21.76
1 0 7 419.46 20.88
1 0 7 424.26 22.64
1 0 8 1.71 3.94
1 0 8 3.57 4.21
1 0 8 1.75 3.51
1 0 9 31.17 6.57
1 0 9 45.26 7.02
1 0 9 37.74 5.73
1 0 10 0.55 4.51
1 0 10 1.78 4.35
1 0 10 4.06 4.99
1 0 11 -1.84 6.12
1 0 11 8.31 6.48
1 0 11 10.16 5.92
1 1 -12 168.97 14.27
1 -1 -12 184.24 15.17
1 1 -12 181.04 14.9
1 -1 -12 173.18 13.99
1 1 -11 81.87 8.98
1 1 -11 66.88 6.83
1 -1 -11 80.58 9.35
1 1 -11 65.66 9.25
1 -1 -11 83.06 9.18
1 1 -10 53.91 7.19
1 -1 -10 57.77 7.97
1 -1 -10 69.85 8.25
1 1 -10 45.4 7.44
1 -1 -10 66.62 4.75
1 1 -10 45.24 5.72
1 -1 -10 80.98 8.4
1 1 -9 29.47 5.57
1 -1 -9 23.2 5.13
1 1 -9 23.29 5.47
1 -1 -9 30.19 3.31
1 -1 -9 38.31 6.2
1 1 -9 17.77 5.22
1 -1 -8 699.74 32.3
1 1 -8 617.38 31.96
1 1 -8 596.97 31.5
1 -1 -8 660.97 28.6
1 -1 -8 675.75 31.81
1 1 -8 628.51 31.29
1 1 -7 128.1 9.65
1 1 -7 126.82 8.57
1 1 -7 127.73 9.73
1 1 -7 142.26 9.51
1 -1 -7 145.98 9.93
1 -1 -7 138.77 7.43
1 -1 -6 339.65 14.71
1 1 -6 338.2 17.13
1 1 -6 347.36 16.24
1 -1 -6 360.84 16.11
1 1 -6 370.91 17.65
1 -1 -6 354.58 17.21
1 1 -6 360.09 16.83
1 -1 -5 563.29 24.12
1 1 -5 522 25.4
1 1 -5 546.84 26.45
1 1 -5 560.13 26.24
1 -1 -5 621.15 25.71
1 -1 -5 596.14 26.4
1 1 -5 568.1 25.84
1 1 -4 1035 44
1 -1 -4 1000.04 43.42
1 1 -4 1055.39 43.89
1 -1 -4 954.82 43.7
1 1 -4 1043.55 43.4
1 1 -3 301.68 13.77
1 1 -3 303.87 13.71
1 -1 -3 285.63 13.82
1 -1 -3 277.21 13.82
1 1 -3 287.12 13.8
1 1 -3 294.82 13.25
1 1 -2 418.49 15.82
1 1 -2 409.47 16.59
1 -1 -2 326.19 16.63
1 -1 -2 322.87 16.53
1 1 -2 392.53 16.35
1 -1 -2 321.77 16.14
1 -1 -1 19.12 2.44
1 1 -1 22.29 1.75
1 -1 -1 24.5 2.04
1 1 -1 21.47 2.49
1 1 -1 21.66 2.32
1 -1 -1 19.6 1.91
1 1 1 88.2 5.13
1 1 1 89.36 5.68
1 -1 1 88.44 5.57
1 1 2 428.12 20.77
1 -1 2 535.29 22.26
1 1 2 443.22 20.65
1 -1 2 537.28 21.39
1 1 3 562.11 26.72
1 -1 3 610.23 27.67
1 1 3 629.37 26.97
1 1 3 607.56 26.12
1 -1 3 607.65 27.32
1 1 4 1057.96 50.34
1 -1 4 1110.63 50.88
1 -1 4 1283.81 51.72
1 1 4 1194.08 50.49
1 1 4 1156.86 49.14
1 1 4 1137.08 51.18
1 -1 4 1333.23 51.51
1 1 5 471.77 23.78
1 -1 5 529.96 24.26
1 1 5 530.14 23.79
1 -1 5 477.01 24.45
1 1 5 460.21 23.65
1 1 5 484.98 21.74
1 1 5 521.95 24.68
1 -1 5 514.05 24.47
1 -1 6 139.18 9.11
1 1 6 91.75 7.84
1 -1 6 137.39 9.38
1 1 6 84.77 7.34
1 -1 6 148.16 7.92
1 1 6 92.21 8.34
1 -1 6 151.6 9.51
1 -1 7 64.87 7.06
1 -1 7 62.73 7.19
1 1 7 69.46 6.89
1 -1 7 68.73 6.15
1 1 7 76.49 7.09
1 1 7 81.59 8.1
1 1 8 343 20.48
1 -1 8 353.33 20.01
1 1 8 367.06 19.87
1 1 8 335.14 19.24
1 -1 8 356.98 18.37
1 1 8 350.25 20.79
1 -1 8 352.03 20.56
1 1 9 142.12 12.53
1 1 9 163.24 12.81
1 1 9 150.05 11.54
1 1 9 142.03 11.18
1 -1 9 149.5 10.28
1 -1 9 138.95 11.6
1 -1 9 150.99 12.33
1 1 10 69.61 9.24
1 1 10 55.85 8.4
1 -1 10 40.31 7.55
1 -1 10 37.47 7.52
1 1 10 53.22 7.44
1 -1 10 46.86 6.19
1 1 11 133.14 13.32
1 -1 11 129.65 12.43
1 1 11 139.23 11.47
1 1 11 137.54 13.89
1 -1 11 121.79 12.58
1 -1 12 18.57 7.55
1 -2 -12 28.82 7.45
1 2 -12 35.49 7.31
1 -2 -12 36.21 7.63
1 2 -12 31.27 8.06
1 2 -11 207.82 15.08
1 -2 -11 198.6 15.48
1 2 -11 195.1 15.83
1 -2 -11 225.39 15.7
1 -2 -10 33.5 6.07
1 2 -10 16.96 5.11
1 -2 -10 31.55 6.3
1 2 -10 18.1 5.92
1 2 -9 758.98 35.27
1 2 -9 745.22 34.13
1 -2 -9 765.74 34.67
1 -2 -9 767.2 34.84
1 2 -8 9.01 3.8
1 2 -8 6.73 3.65
1 2 -8 9.88 4.64
1 -2 -8 11.31 4.03
1 -2 -8 13.62 2.05
1 2 -7 427.35 21.5
1 2 -7 430.8 21.29
1 2 -7 429.93 22
1 2 -7 431.1 22.45
1 -2 -7 451.39 21.04
1 -2 -7 405.25 18.65
1 -2 -7 372.13 21.51
1 -2 -7 446.22 22.3
1 2 -6 46.22 5.14
1 -2 -6 76.24 6.41
1 2 -6 46.64 5.39
1 2 -6 42.69 5.11
1 -2 -6 69.2 3.89
1 -2 -6 84.65 5.91
1 2 -6 43.26 5.61
1 -2 -6 74.28 6.24
1 2 -5 4138.51 170.45
1 2 -5 4267.65 170.9
1 2 -5 4123.35 171.09
1 -2 -5 3935.22 170.77
1 -2 -5 4217.03 171.39
1 2 -5 4172.11 171.54
1 2 -4 14.39 2.53
1 2 -4 15.38 2.76
1 -2 -4 49.47 4.34
1 -2 -4 48.71 4.42
1 2 -4 13.6 3.05
1 2 -3 2238.28 93.68
1 -2 -3 2253.81 93.57
1 -2 -3 2302.96 93.94
1 2 -3 2255 92.71
1 -2 -3 2246.27 93.77
1 -2 -3 2259.79 93.89
1 2 -3 2201.56 92.61
1 2 -2 552.3 22.13
1 2 -2 562.1 21.93
1 -2 -2 464.13 22.96
1 2 -2 565.74 23.6
1 -2 -2 433.12 23.13
1 2 -2 531.86 21.64
1 -2 -2 485.74 23.13
1 -2 -2 490.22 23.38
1 -2 -2 469.59 23.03
1 -2 -1 1879.49 78.17
1 2 -1 1899.97 77.32
1 2 -1 1819.75 78.38
1 -2 -1 1916.62 78.15
1 2 0 1121.25 46.7
1 -2 0 1190.25 47.22
1 2 0 1145.19 46.75
1 2 1 4222.16 167.44
1 -2 1 3976.89 168.36
1 2 1 4128.86 169.04
1 2 1 4029.34 168.52
1 -2 2 400.04 20.58
1 -2 2 385.99 19.97
1 2 2 481.81 20.73
1 2 2 499.23 20.06
1 2 2 497.95 21.17
1 -2 3 18.05 2.86
1 2 3 11.87 2.41
1 2 3 9.44 2.46
1 2 3 19.62 3.23
1 2 4 154.48 9.19
1 -2 4 128.72 8.81
1 2 4 158.55 7.97
1 -2 4 129.69 9
1 -2 5 488.29 22.9
1 2 5 465.51 22.75
1 2 5 462.16 23.47
1 2 5 453.06 20.7
1 -2 5 455.36 23.02
1 -2 6 65.72 6.55
1 2 6 75.1 6.69
1 2 6 75.75 6.94
1 2 6 73.54 4.59
1 2 6 82.14 7.78
1 -2 6 64.67 6.6
1 -2 7 640.67 32.36
1 2 7 657.49 32.68
1 2 7 659.22 31.5
1 -2 7 627.22 31.82
1 2 7 672.56 32.11
1 -2 7 658.46 29.94
1 2 7 675.09 33.19
1 2 8 61.11 8
1 -2 8 42.49 6.51
1 -2 8 44.93 6.74
1 2 8 58.91 6.79
1 2 8 67.36 7.31
1 -2 8 42.6 5.07
1 2 8 61.88 7.61
1 2 9 345.43 20.75
1 -2 9 297.65 19.09
1 2 9 364.11 19.36
1 2 9 340.17 19.76
1 -2 9 331.6 17.27
1 2 9 315.35 20.79
1 2 9 316.88 19.93
1 -2 9 309.31 19.79
1 2 10 39.51 7.93
1 -2 10 68.28 8.87
1 2 10 31.13 7.31
1 -2 10 52.47 7.89
1 2 10 39.62 7.13
1 -2 10 52.91 5.89
1 2 10 28.17 6.79
1 2 11 286.18 19.03
1 2 11 293.21 20.29
1 -2 11 294.81 19.47
1 2 11 313.14 21.6
1 -2 11 302.04 20.54
1 2 11 303.7 21.09
1 -2 12 17.92 7.01
1 3 -12 102.61 10.96
1 3 -12 90.98 11.81
1 -3 -11 22.85 6.33
1 3 -11 8.22 4.92
1 -3 -11 12.87 6.21
1 -3 -11 17.07 5.99
1 3 -11 16.55 7.34
1 3 -11 27.96 7.3
1 -3 -10 157.33 13.31
1 -3 -10 166.91 13.44
1 3 -10 203.81 15.11
1 3 -10 167.58 15.41
1 3 -10 209.14 13.93
1 3 -9 161.48 11.25
1 -3 -9 128.65 10.84
1 3 -9 141.9 10.53
1 3 -9 146.87 11.85
1 3 -9 118.54 6.39
1 3 -9 147.52 13.04
1 3 -9 123.39 6.59
1 -3 -9 135.24 11.12
1 3 -8 393.8 20.11
1 -3 -8 295.25 19.38
1 -3 -8 317.14 19.84
1 3 -8 395.35 20.28
1 3 -8 379.31 21.31
1 -3 -8 359.6 19.3
1 3 -8 400.25 22.77
1 3 -8 357.48 17.07
1 3 -7 584.98 28.08
1 3 -7 598.32 29.47
1 3 -7 597.75 28.65
1 -3 -7 560.3 27.69
1 3 -7 594.68 30.64
1 -3 -7 539.28 28.27
1 -3 -7 576.77 28.79
1 -3 -6 607.85 28.77
1 3 -6 571.6 28.98
1 3 -6 616.23 29.55
1 -3 -6 588.33 28.3
1 3 -6 610.89 28.15
1 3 -6 590.3 30.27
1 -3 -6 584.47 29.12
1 3 -5 283.87 14.4
1 -3 -5 255.5 15.11
1 3 -5 283.31 15.48
1 -3 -5 271.91 14.91
1 3 -5 282.55 16.3
1 3 -4 2264.56 96.84
1 -3 -4 2216.68 96.45
1 -3 -4 2340.8 96.53
1 -3 -4 2238.76 96.13
1 -3 -4 2319.01 97.16
1 3 -4 2282.28 97.54
1 -3 -4 2377.36 96.9
1 3 -3 1479.6 64.13
1 3 -3 1656.79 67.41
1 -3 -3 1657.25 67.24
1 -3 -3 1639.13 66.52
1 -3 -3 1693.19 67.51
1 -3 -3 1609.45 67.38
1 3 -3 1530.74 67.86
1 -3 -3 1649.48 66.85
1 -3 -2 923.49 35.64
1 3 -2 727.64 33.94
1 3 -2 727.6 35.84
1 -3 -2 938.23 36.51
1 -3 -2 948.76 35.82
1 -3 -2 800.31 36.09
1 3 -2 715.63 36.24
1 -3 -1 1932.98 77.69
1 3 -1 1817.88 76.37
1 3 -1 1787.68 77.8
1 -3 -1 1843.06 76.83
1 -3 0 1565.76 66.39
1 -3 0 1645.41 66.48
1 3 0 1543.48 65.72
1 -3 0 1549.26 64.81
1 -3 1 812.05 35.34
1 3 1 804.6 33.77
1 3 1 805.8 35.9
1 3 1 806.94 35.55
1 -3 2 73.96 5.39
1 -3 2 71.55 4.65
1 3 3 347.05 16.97
1 -3 3 316.5 15.95
1 3 3 329.96 16.99
1 -3 3 341.5 17.08
1 3 4 308.58 14.03
1 -3 4 196.32 13.33
1 -3 4 208.9 12.01
1 3 4 287.48 14.16
1 -3 4 230.49 13.32
1 -3 5 451.76 22.46
1 -3 5 435.96 21.93
1 -3 5 439.03 20.74
1 3 5 466.74 22.77
1 3 5 446.24 20.33
1 3 5 408.94 22.8
1 -3 6 250.75 14.98
1 -3 6 245.37 13.43
1 3 6 267.11 15.79
1 -3 6 241.12 15.11
1 3 6 273.81 16.5
1 3 6 288.38 13.1
1 3 7 66.17 6.92
1 -3 7 60.53 5.54
1 -3 7 64.79 7.22
1 3 7 87.29 8.52
1 3 7 76.12 7.49
1 3 7 67.84 8.04
1 3 7 68.96 4.57
1 -3 7 66.31 7.23
1 -3 8 433.09 23.06
1 3 8 388.62 23.39
1 3 8 432.42 22.36
1 -3 8 405.5 20.26
1 3 8 435.85 23.6
1 -3 8 417.09 20.15
1 3 8 414.19 23.1
1 3 8 385.63 23.92
1 -3 8 439.43 23.64
1 -3 9 27.97 5.65
1 3 9 55.45 8.07
1 -3 9 40.86 6.29
1 3 9 43 6.42
1 -3 9 44.33 4.86
1 3 9 33.63 6.61
1 -3 9 38.51 4.63
1 3 9 40.54 6.66
1 3 9 45.42 7.92
1 -3 10 92.19 9.54
1 3 10 83.6 11.2
1 3 10 78.56 10.14
1 -3 10 87.68 6.97
1 3 10 71.04 9.63
1 3 10 87.65 9.86
1 -3 10 91.19 9.98
1 -3 11 40.53 8.09
1 3 11 42.25 8.98
1 -3 11 31.89 7
1 3 11 44.28 9.76
1 3 11 35.44 7.77
1 3 11 39.86 8.34
1 -3 12 149.83 13.79
1 -4 -12 5.43 7.79
1 -4 -12 5.46 6.09
1 4 -11 274.32 18.1
1 4 -11 284.35 19.94
1 -4 -11 272.11 20.77
1 -4 -11 243.49 18.04
1 -4 -10 4.52 6.62
1 4 -10 12.3 6.96
1 -4 -10 3.52 5.02
1 4 -10 15.87 5.04
1 4 -10 17 5.06
1 -4 -10 2.4 4.77
1 4 -10 10.51 6.17
1 4 -10 10.73 2.04
1 -4 -9 79.28 10.22
1 4 -9 90.44 8.71
1 4 -9 77.42 8.48
1 4 -9 91.66 9.83
1 -4 -9 99.72 9.39
1 4 -9 74.79 6.11
1 4 -9 83.19 10.46
1 -4 -9 89.71 9.18
1 -4 -8 10.75 4.58
1 4 -8 26.59 5.04
1 -4 -8 10.5 4.42
1 4 -8 27.58 5.67
1 4 -8 31.84 6.93
1 -4 -8 14.5 4.61
1 4 -8 35.13 6.37
1 -4 -8 11.47 5.96
1 -4 -7 53.51 6.9
1 4 -7 32.21 6.47
1 -4 -7 34.8 5.37
1 4 -7 47.11 6.59
1 -4 -7 36.49 5.59
1 4 -7 44.33 5.66
1 4 -7 36.9 6.86
1 -4 -7 31.06 6.64
1 4 -6 94.18 8.56
1 -4 -6 71 7.07
1 -4 -6 69.9 8.26
1 4 -6 78.73 8.43
1 -4 -6 83.32 7.83
1 4 -5 577.24 28.1
1 -4 -5 545.52 27.12
1 -4 -5 568.39 28.4
1 4 -5 557.79 28.54
1 -4 -5 549.99 27.77
1 -4 -4 51.88 5.45
1 4 -4 87.96 7.33
1 -4 -4 56.84 5.87
1 -4 -4 51.96 5.23
1 -4 -4 58.23 6.62
1 4 -4 78.84 7.2
1 -4 -4 51.56 5.86
1 -4 -3 318.53 15.8
1 4 -3 297.03 16.64
1 4 -3 309.67 13.84
1 -4 -3 316.52 16.49
1 -4 -3 282.64 15.19
1 -4 -3 290.64 16.59
1 -4 -3 286.85 16.4
1 4 -3 315.99 17.22
1 -4 -2 304.96 14.68
1 -4 -2 294.62 14.54
1 4 -2 279.26 13.73
1 4 -2 265.78 15.63
1 -4 -2 288.04 15.74
1 -4 -1 5742.47 236.61
1 -4 -1 5906.54 236.88
1 4 -1 5697.51 235.34
1 4 -1 5740.44 237.12
1 -4 -1 5720.31 235.25
1 -4 0 199.05 10.01
1 -4 0 216.27 11.79
1 4 0 172.51 11.46
1 -4 0 208.28 11.52
1 4 0 173.01 10.51
1 -4 0 201.81 10.07
1 4 1 1590.6 64.3
1 -4 1 1486.66 66.26
1 4 1 1508.3 66.32
1 4 1 1608.51 67.3
1 4 1 1562.89 66.72
1 -4 1 1541.11 65.25
1 -4 2 40.82 4.86
1 4 2 65.23 5.9
1 -4 2 45.16 4.85
1 4 2 59.08 4.15
1 4 2 64.42 5.85
1 4 3 4506.79 197.34
1 4 3 4823.21 195.88
1 -4 3 4763.69 197.45
1 4 3 4875.47 197.56
1 -4 3 4847.49 196.36
1 4 4 345.24 17.71
1 4 4 315.2 17.44
1 -4 4 305.02 17.95
1 -4 4 346.75 16.63
1 4 4 333.18 18.18
1 4 4 324.42 16.81
1 -4 4 351.98 17.92
1 4 5 789.95 36.56
1 -4 5 793.74 35.81
1 -4 5 749.15 34.48
1 4 5 817.05 36.32
1 4 5 764.2 36.82
1 4 5 776.38 35.58
1 -4 5 746.95 36.99
1 -4 5 768.18 36.37
1 -4 6 93.07 7.63
1 4 6 60.25 7.33
1 4 6 84.31 8.65
1 -4 6 96.02 6.45
1 4 6 66.98 7.57
1 -4 6 91.84 7.82
1 4 6 68.81 6.98
1 4 6 63.48 5.36
1 -4 7 795.56 37.11
1 -4 7 811.24 37.91
1 -4 7 801.03 35.02
1 4 7 739.98 37.94
1 4 7 752.19 37.12
1 4 7 751.94 33.99
1 4 7 820.35 39.54
1 -4 8 11.94 4.33
1 -4 8 9.69 4.39
1 4 8 11 4.68
1 -4 8 6.88 2.88
1 4 8 4.91 4.88
1 4 8 11.63 5.26
1 -4 8 9.7 2.86
1 4 8 15.47 5.11
1 4 8 12.52 1.98
1 4 9 49.87 8.81
1 -4 9 50.33 7.54
1 -4 9 40.91 6.98
1 4 9 44.37 6.42
1 -4 9 44.54 4.77
1 4 9 37.22 7.59
1 -4 9 39.57 4.36
1 4 9 52.2 7.68
1 -4 9 50.08 6.77
1 4 10 24.95 8.14
1 -4 10 29.93 5.99
1 -4 10 24.06 6.41
1 4 10 36.46 7.55
1 4 10 27.32 5.69
1 4 10 26.59 7.13
1 4 10 26.09 6.8
1 -4 11 33.64 7.24
1 4 11 42.78 8.56
1 -4 11 46.72 8.18
1 -5 -12 138.44 16.13
1 5 -11 59.44 8.54
1 5 -11 65.98 10.59
1 -5 -11 54.39 10.83
1 5 -10 53.61 10.02
1 -5 -10 61.98 8.17
1 5 -10 49.46 7.85
1 5 -10 50.05 9.16
1 5 -10 52.59 5.44
1 -5 -10 71.15 9.04
1 -5 -10 70.75 10.79
1 5 -9 63.48 9.81
1 -5 -9 78.79 8.56
1 5 -9 69.3 8.64
1 -5 -9 73.54 8.19
1 5 -9 54.91 9.07
1 -5 -9 78.61 10.26
1 -5 -9 83.08 9.33
1 5 -8 143.33 12.39
1 5 -8 141.8 12.88
1 -5 -8 163.72 12.01
1 -5 -8 170.15 14.11
1 -5 -8 157.46 11.75
1 5 -8 154.64 13.9
1 -5 -8 171.77 13.06
1 -5 -7 91.14 8.51
1 5 -7 83.3 9.83
1 5 -7 90.66 9.26
1 5 -7 88.81 10.02
1 -5 -7 94.2 8.79
1 -5 -7 109.36 10.85
1 -5 -7 96.15 9.32
1 5 -6 525.54 27.13
1 -5 -6 469.39 25.32
1 -5 -6 476.88 25.9
1 -5 -6 485.23 27.03
1 5 -6 538.8 27.72
1 -5 -5 598.44 29.89
1 5 -5 570.69 30.38
1 5 -5 575.58 30.09
1 -5 -5 624.2 29.57
1 -5 -5 580.3 30.3
1 -5 -4 159.38 12.33
1 5 -4 257.79 10.05
1 5 -4 254.34 14.43
1 -5 -4 150.3 11.91
1 -5 -4 165.34 12.9
1 -5 -4 173.66 11.78
1 -5 -4 165.03 11.26
1 5 -4 258.08 14.75
1 5 -3 625.82 27.12
1 -5 -3 603.45 28.14
1 5 -3 616.87 30.39
1 -5 -3 567.17 30.1
1 -5 -3 620.83 28.62
1 -5 -2 453.19 22.95
1 -5 -2 447.94 22.82
1 5 -2 547.78 25.63
1 -5 -2 487.18 24.89
1 5 -2 526.99 22.83
1 5 -1 225.72 11.85
1 -5 -1 212.46 12.69
1 5 -1 220.5 13.48
1 -5 -1 201.48 12.88
1 5 -1 198.22 8.97
1 -5 -1 216.11 11.24
1 5 0 2417.51 100.87
1 -5 0 2330.73 100.44
1 -5 0 2343.28 99.99
1 5 0 2494.68 99.66
1 5 0 2415.04 97.14
1 -5 0 2271.84 97.86
1 -5 0 2277.27 98.38
1 5 1 377.14 17.22
1 -5 1 311.41 19.01
1 -5 1 354.81 18.7
1 5 1 363.9 18.98
1 5 1 396.72 19.88
1 -5 1 377.68 17.74
1 -5 1 368.01 16.97
1 5 2 2121.69 90.91
1 -5 2 2217.37 91.99
1 5 2 2185.11 90.19
1 5 2 2206.95 92.92
1 5 2 2134.52 92.96
1 5 3 158.48 10.17
1 -5 3 159.6 10.17
1 5 3 171.26 9.61
1 -5 3 160.53 10.8
1 5 3 179.78 11.36
1 5 3 170.92 11.85
1 -5 4 1514.63 63.92
1 5 4 1413.3 63.14
1 5 4 1439.11 63.57
1 -5 4 1466.73 62.38
1 5 4 1403.79 64.26
1 5 4 1444.54 62.25
1 -5 5 26.16 4.75
1 5 5 25.18 4.8
1 -5 5 23.76 4.33
1 -5 5 21.12 3.8
1 5 5 23.75 5.41
1 -5 5 26.59 5.19
1 5 5 28.92 4.56
1 5 5 21.42 4.61
1 5 6 441.47 25.63
1 -5 6 527.76 25.43
1 -5 6 543.36 27.41
1 -5 6 528.05 23.98
1 5 6 459.32 26.4
1 5 6 484.23 25.3
1 5 6 480.28 25.25
1 -5 6 523.63 26.17
1 5 7 58.98 8.49
1 -5 7 66.21 7.17
1 5 7 68.91 8.03
1 -5 7 67.2 5.97
1 5 7 69.04 7.4
1 5 7 73.72 8.74
1 5 7 71.57 5.98
1 -5 7 81.03 8.27
1 5 8 234.35 16.76
1 -5 8 248.65 15.87
1 -5 8 266.55 15.11
1 -5 8 236.12 13.3
1 5 8 261.28 17.71
1 5 8 246.38 16.27
1 5 8 245.36 12.78
1 5 8 258.91 18.5
1 -5 8 268.08 16.67
1 -5 9 36.54 6.91
1 5 9 20.82 6.62
1 -5 9 38.1 5.99
1 -5 9 36.36 6.54
1 5 9 31.64 5.88
1 5 9 44.23 8.48
1 -5 9 31.52 3.95
1 5 9 42.61 8.04
1 -5 9 32.71 3.62
1 5 9 44.37 7.35
1 5 10 28.64 9.05
1 -5 10 26.08 6.85
1 5 10 29.82 7.96
1 5 10 25.75 7.17
1 -5 10 24.96 5.77
1 -5 11 21.49 7.29
1 5 11 28.7 8.58
1 6 -11 64.91 9.44
1 -6 -11 61.18 12.45
1 6 -10 16.07 7.54
1 -6 -10 13.44 5.76
1 6 -10 16.7 6.35
1 -6 -10 14.86 6.43
1 6 -10 17.98 8.29
1 -6 -10 9.32 7.21
1 -6 -9 296.83 18.64
1 6 -9 281.03 19.44
1 -6 -9 304.2 18.6
1 -6 -9 281.75 20.97
1 6 -9 269.19 20.34
1 6 -9 313.68 21.89
1 -6 -9 298.18 19.5
1 6 -8 96.49 11.28
1 -6 -8 77.1 10.86
1 6 -8 100.4 10.36
1 -6 -8 84.79 8.9
1 -6 -8 83.83 8.64
1 6 -8 98.92 11.08
1 -6 -8 91.18 9.98
1 -6 -7 285.09 16.99
1 6 -7 271.83 18.4
1 6 -7 271.94 18.91
1 -6 -7 268.7 17.25
1 -6 -7 301.59 19.9
1 6 -7 271.51 19.07
1 -6 -7 282.34 18.03
1 6 -6 148.67 12.78
1 -6 -6 140.02 11.14
1 -6 -6 132.57 12.47
1 -6 -6 123.44 11.3
1 6 -5 733.62 36.94
1 -6 -5 732.56 35.69
1 -6 -5 716.61 36.91
1 -6 -5 702.13 35.87
1 6 -5 767.98 37.33
1 6 -4 105.03 6.5
1 6 -4 114.34 10.19
1 -6 -4 111.45 9.28
1 -6 -4 98.48 9.67
1 -6 -4 106.57 7.97
1 -6 -4 100.85 9.4
1 6 -3 126.38 7.97
1 -6 -3 122.81 8.41
1 6 -3 137.79 11.07
1 -6 -3 122.77 10.63
1 -6 -3 122.94 8.72
1 -6 -2 459.34 22.02
1 -6 -2 466.07 21.89
1 6 -2 424.85 21.75
1 -6 -2 465.73 23.82
1 -6 -2 468.11 24.69
1 6 -2 452.44 24.66
1 -6 -1 481.55 22.41
1 6 -1 449.87 23.17
1 -6 -1 510.51 24.69
1 -6 -1 481.3 25.21
1 6 -1 462.96 25.28
1 -6 0 75.39 7.4
1 -6 0 78.17 7.02
1 -6 0 68.46 5.81
1 -6 0 83.41 5.4
1 6 0 59.53 6.22
1 6 0 49.87 4.12
1 -6 1 16.81 2.69
1 -6 1 22.59 3.6
1 6 1 23.21 3.09
1 -6 1 28.06 4.52
1 6 1 23.05 4.46
1 6 1 20.49 4.69
1 -6 1 20.08 4.76
1 6 2 129.95 8.55
1 -6 2 148.51 9.73
1 6 2 139.04 10.39
1 6 2 135.39 10.4
1 -6 2 141.74 9.3
1 6 3 856.49 39.05
1 6 3 878.41 38.26
1 -6 3 885.17 39.36
1 6 3 842.32 40.41
1 -6 3 849.55 40.29
1 6 3 840.54 41.23
1 -6 4 29.36 5.22
1 6 4 25.03 5.97
1 6 4 18.06 4.43
1 6 4 20.37 3.83
1 6 4 17.85 5.32
1 6 4 15.99 4.5
1 6 5 429.74 22.38
1 -6 5 384.29 20.34
1 6 5 437.49 22.39
1 -6 5 393.46 20.85
1 -6 5 395.53 23.03
1 6 5 423.45 21.32
1 6 5 416.3 23.37
1 -6 5 402.1 22.24
1 -6 6 73.69 7.01
1 6 6 49.22 7.28
1 -6 6 74.57 8.44
1 -6 6 80.17 6.44
1 6 6 58.51 7.21
1 6 6 63.09 7.22
1 6 6 68.96 8.7
1 -6 6 67.57 7.67
1 6 7 471.73 26.37
1 -6 7 486.53 26
1 -6 7 448.51 24.81
1 -6 7 481.55 27.32
1 6 7 467.63 28.1
1 -6 7 480.92 23.08
1 6 7 492.3 25.67
1 6 7 524.63 27.91
1 6 7 485.86 23.57
1 6 8 48.04 8.78
1 -6 8 50.58 7.35
1 6 8 43.28 7.55
1 -6 8 49.84 5.78
1 -6 8 45.02 6.77
1 -6 8 51.24 5.05
1 6 8 51.68 8.88
1 6 8 43.93 7.14
1 6 8 45.18 4.84
1 -6 9 220.11 15.42
1 6 9 246.36 15.25
1 6 9 236.3 16.4
1 6 9 247.77 18.39
1 6 9 202.82 16.55
1 6 9 222.45 18.22
1 -6 9 211.74 14.14
1 -6 9 210.7 15.9
1 6 10 9.23 8.16
1 -6 10 10.47 5.92
1 6 10 11.17 6.51
1 6 10 9.33 7.28
1 6 10 2.32 6.15
1 6 11 315.2 23.2
1 -6 11 321.78 21.45
1 -7 -11 16.44 9.38
1 7 -10 185.41 15.67
1 7 -10 163.26 16.73
1 -7 -10 174.94 17.46
1 -7 -9 25.81 6.8
1 -7 -9 26.61 6.17
1 7 -9 20.88 8.29
1 7 -9 20.9 7.14
1 -7 -9 24.05 6.29
1 7 -9 23.2 8.99
1 -7 -9 35.71 9.24
1 -7 -8 271.43 17.9
1 7 -8 331.76 21.25
1 7 -8 345.33 21.97
1 -7 -8 270.19 18.52
1 -7 -8 281.55 20.59
1 7 -8 323.54 22.24
1 -7 -8 284.38 19.41
1 -7 -7 13.3 4.5
1 7 -7 16.69 6.96
1 -7 -7 15.15 5.52
1 -7 -7 13.25 5.37
1 7 -7 14.54 6.64
1 -7 -7 18.9 7.11
1 7 -6 452.78 25.94
1 -7 -6 405.52 23.42
1 -7 -6 409.55 25.23
1 -7 -6 413.43 24
1 7 -6 392.43 24.7
1 7 -5 86.64 5.52
1 -7 -5 73.85 8.6
1 7 -5 81.26 10.23
1 -7 -5 74.18 10.1
1 -7 -5 75.51 8.82
1 7 -4 430.05 19.93
1 7 -4 404.27 24.26
1 -7 -4 393.86 24.12
1 -7 -4 406.34 21.02
1 -7 -3 58.04 5.97
1 7 -3 52.95 5.39
1 -7 -3 60.73 5.89
1 -7 -3 54.2 8.13
1 7 -3 49.32 7.73
1 -7 -2 403.73 18.52
1 -7 -2 387.44 18.34
1 7 -2 292.24 18.16
1 -7 -2 375.44 20.53
1 -7 -2 376.91 21.62
1 7 -2 295.23 20.62
1 -7 -1 41.89 4.42
1 7 -1 33.31 6.75
1 7 -1 39.5 5.38
1 -7 -1 46.79 6.22
1 -7 -1 40.82 6.72
1 -7 0 155.08 8.52
1 -7 0 147.76 11.67
1 7 0 116.25 10.92
1 7 0 134.52 10.3
1 -7 0 145.68 10.77
1 -7 0 143.68 9.86
1 7 0 136.03 7.65
1 -7 1 3.84 2.01
1 -7 1 1.83 2.87
1 -7 1 5.06 4.14
1 7 1 3.72 3.74
1 7 1 3.79 2.42
1 7 1 8.53 4.6
1 -7 1 3.35 3.88
1 7 2 96.32 7.21
1 -7 2 75.43 7.55
1 7 2 101.97 9.05
1 7 2 116.92 9.81
1 -7 2 80.59 7.14
1 -7 2 73.18 5.33
1 7 3 126.29 9.23
1 -7 3 120.73 10.19
1 -7 3 134.69 9.86
1 7 3 132.12 10.82
1 7 4 361.87 19.49
1 -7 4 323.75 19.92
1 7 4 359.03 18.63
1 -7 4 335.81 18.74
1 7 4 390.69 21.01
1 7 4 366.75 21.76
1 7 5 41.92 6.21
1 -7 5 37.38 5.32
1 7 5 32.65 7.32
1 7 5 30.71 5.54
1 -7 5 38.64 6.04
1 7 5 38.6 5.43
1 -7 5 31.68 4.97
1 7 5 29.79 6.52
1 -7 5 38.76 6.52
1 7 6 94.26 9.41
1 7 6 80.21 8.68
1 -7 6 108.78 10.67
1 7 6 115.44 9.36
1 -7 6 98.37 7.71
1 7 6 96.46 10.64
1 -7 6 87.99 7.98
1 -7 6 87.31 8.93
1 -7 7 45.57 7.2
1 7 7 41.28 7.3
1 -7 7 35.4 4.71
1 -7 7 36.23 5.85
1 -7 7 41.57 5.1
1 7 7 50.74 6.91
1 7 7 41.1 8.08
1 -7 7 42.1 7.33
1 7 7 41.46 6.58
1 -7 8 421.54 20.84
1 -7 8 398.37 22.27
1 7 8 385.41 23.28
1 -7 8 381.62 19.44
1 7 8 413.05 25.75
1 7 8 404.67 20.63
1 7 8 432.31 24.85
1 7 8 383.69 25.72
1 -7 8 402.87 23.58
1 7 9 50.96 10.43
1 -7 9 31.31 7.14
1 7 9 26.3 7.63
1 -7 9 40.37 7.09
1 7 9 39.78 8.74
1 7 9 47.42 8.02
1 7 10 217.14 17.18
1 7 10 229.13 19.24
1 -7 10 245.16 17.37
1 8 -10 5.66 6.95
1 -8 -10 0.81 8.58
1 -8 -9 69.32 9
1 8 -9 79.49 10.99
1 8 -9 77.47 12.13
1 -8 -9 72.86 9.7
1 8 -9 72.34 11.8
1 -8 -9 57.19 11.66
1 -8 -8 12.91 5.98
1 -8 -8 7.62 5.06
1 8 -8 11.13 6.27
1 8 -8 12.31 7.65
1 -8 -8 10.01 5.92
1 8 -8 20.19 8.75
1 -8 -8 15.67 8.25
1 -8 -7 39.61 7.17
1 -8 -7 45.15 6.66
1 8 -7 49.78 9.56
1 -8 -7 42.21 7.25
1 8 -7 42.45 9.23
1 -8 -7 33.9 8.02
1 -8 -6 22.24 5.95
1 -8 -6 30.72 6.39
1 8 -6 43.69 8.53
1 -8 -6 19.35 6.86
1 8 -5 213.92 11.08
1 8 -5 206.43 16.38
1 -8 -5 176.75 14.23
1 -8 -5 171.47 15.59
1 8 -4 185.34 11.41
1 8 -4 205.23 16.17
1 -8 -4 188.15 15.67
1 -8 -4 203.7 12.37
1 -8 -3 199.62 14.4
1 8 -3 211.6 12.62
1 -8 -3 212.79 15.98
1 -8 -3 183.3 11.84
1 8 -3 221.49 16.45
1 -8 -2 7.06 3.51
1 8 -2 1.63 3.56
1 -8 -2 6.19 3.49
1 -8 -2 10.45 4.86
1 -8 -2 8.4 5.41
1 8 -2 -1.11 5.58
1 -8 -2 7.21 5.04
1 -8 -1 1269.03 54.64
1 -8 -1 1233.04 55.02
1 8 -1 1265.4 56.99
1 -8 -1 1305.33 59.66
1 -8 -1 1283.88 57.93
1 8 -1 1239.74 59.71
1 -8 0 51.24 4.84
1 -8 0 58.1 6.55
1 8 0 57.11 8.24
1 8 0 63.54 7.62
1 -8 0 59 7.39
1 -8 0 62.85 8.24
1 8 0 52.71 4.28
1 -8 1 230.98 11.97
1 -8 1 222.76 16.13
1 8 1 238.01 15.88
1 -8 1 228.82 15.14
1 8 1 252.18 16.87
1 -8 1 235.69 14.19
1 8 1 252.35 12.88
1 -8 2 43.55 5.89
1 8 2 40.54 5.01
1 8 2 36.67 6.79
1 -8 2 44.22 6.38
1 8 2 39.72 7.07
1 -8 2 39.55 3.59
1 -8 3 1062.11 49.43
1 -8 3 1047.89 47.97
1 8 3 1030.47 50.15
1 8 3 1061.28 49.87
1 -8 3 1022.23 44.27
1 8 3 1101.02 47.55
1 -8 4 24.41 2.77
1 8 4 12.58 4.48
1 -8 4 25.14 5.79
1 8 4 10.43 5.1
1 -8 4 23.02 5.43
1 8 5 163.12 12.48
1 -8 5 174.1 12.99
1 -8 5 168.67 11.06
1 -8 5 161.72 13.49
1 -8 5 155.45 11.14
1 8 5 161.5 14.07
1 8 5 160.55 12.71
1 8 6 83.12 8.93
1 -8 6 63.29 8.04
1 8 6 75.34 7.92
1 -8 6 90.31 7.88
1 8 6 71.01 8.73
1 8 6 64.82 9.53
1 -8 6 73.29 9.26
1 -8 6 78.9 7.2
1 -8 7 195 10.78
1 -8 7 189.67 13.05
1 -8 7 205.67 15.82
1 8 7 168.58 13.54
1 8 7 173.59 13.61
1 -8 7 205.87 11.84
1 8 7 156.22 15.11
1 -8 7 208.43 14.9
1 8 7 178.39 14.37
1 8 8 -0.57 6.33
1 -8 8 -3.1 5.45
1 -8 8 -1.97 4.38
1 8 8 -2.48 5.17
1 8 8 -1.37 7.08
1 -8 8 4.58 5.87
1 -8 9 41.03 8.06
1 8 9 24.12 7.86
1 8 9 34.56 8.08
1 8 9 35.13 9.79
1 -8 9 25.63 6.37
1 -8 10 40.93 8.25
1 8 10 29.75 8.22
1 9 -10 59.36 10.84
1 9 -9 16.34 8.19
1 -9 -9 24.42 10.16
1 9 -8 84.85 11.72
1 -9 -8 107.36 11.38
1 -9 -8 94.98 9.78
1 9 -8 95.06 13.55
1 -9 -8 123.58 12.55
1 -9 -8 93.87 13.56
1 -9 -7 37.07 7.97
1 -9 -7 33.26 6.17
1 -9 -7 49.1 8.16
1 9 -7 31.14 9.77
1 -9 -7 44.38 9.85
1 -9 -6 20.89 6.41
1 -9 -6 11.43 5.88
1 9 -6 28.12 8.81
1 -9 -6 14.43 7.66
1 9 -5 48.18 5.13
1 9 -5 38.53 8.94
1 -9 -5 58.95 9.93
1 9 -4 155.65 9.94
1 -9 -4 125.56 13.28
1 9 -4 153.02 14.3
1 -9 -4 117.99 9.39
1 -9 -3 73.63 9.36
1 9 -3 74.33 7.64
1 -9 -3 88.62 9.61
1 -9 -3 80.65 7.06
1 -9 -3 76.17 10.79
1 9 -3 64.89 10.13
1 9 -2 375.35 20.39
1 -9 -2 334.81 18.17
1 -9 -2 351.2 22.67
1 -9 -2 346.25 21.21
1 9 -2 392.65 24
1 -9 -2 323.85 21.56
1 -9 -1 7.57 3.3
1 -9 -1 13.01 3.74
1 9 -1 6.22 4.6
1 -9 -1 12.43 5.47
1 9 -1 14.23 6.53
1 -9 -1 13.27 6.34
1 -9 -1 11.1 5.62
1 -9 0 617.87 33.6
1 9 0 675.55 34.48
1 9 0 689.43 32.93
1 -9 0 620.78 32.07
1 -9 0 603.43 28.08
1 -9 0 578.04 30.55
1 -9 1 139.01 7.86
1 -9 1 143.94 12.68
1 9 1 138.07 12.07
1 9 1 117.87 11.94
1 -9 1 138.06 11.27
1 -9 1 129.72 10.24
1 9 1 129.6 8.67
1 -9 2 527.02 23.55
1 9 2 559.78 29.94
1 -9 2 536.1 27.92
1 9 2 563.05 30.19
1 9 2 507.61 30.82
1 -9 2 560.15 27.51
1 9 2 532.83 26.06
1 9 3 18.32 4.73
1 -9 3 16.52 2
1 9 3 20.86 6
1 -9 3 22.59 5.35
1 9 3 21.14 5.97
1 -9 4 699.09 35.5
1 9 4 598.04 35.9
1 -9 4 725.25 33.92
1 9 4 706.6 36
1 9 4 706.78 34.01
1 -9 5 23.98 2.12
1 9 5 35.3 6.31
1 -9 5 14.65 5.54
1 -9 5 22.41 4.62
1 -9 5 24.94 5.13
1 -9 5 37.12 7.4
1 9 5 31.48 6.8
1 -9 6 194.96 14.19
1 9 6 159.64 13.16
1 -9 6 167.24 14.32
1 9 6 134.87 14.15
1 -9 6 194.98 11.81
1 -9 6 179.46 11.69
1 -9 6 152.31 8.01
1 9 6 140.62 12.43
1 -9 7 39.34 7.53
1 -9 7 48.5 6.49
1 9 7 51.46 8.42
1 9 7 62.01 9.96
1 -9 7 39.27 8.19
1 9 7 45.65 7.28
1 9 8 53.1 9.26
1 -9 8 69.95 9.4
1 -9 8 61.17 7.63
1 9 8 43.05 9.59
1 -9 8 53.59 9.38
1 -9 9 12.65 6.43
1 -10 -8 19.67 6.34
1 10 -8 27.5 8.57
1 -10 -8 18.27 9.83
1 -10 -7 164.15 12.67
1 10 -7 159.59 17.24
1 -10 -7 178.67 17.28
1 -10 -6 81.37 8.35
1 -10 -6 81.91 10.12
1 10 -6 75.44 12.21
1 -10 -6 81.79 12.27
1 10 -5 280.78 15.3
1 10 -5 248.26 20.72
1 -10 -5 283.69 21.33
1 -10 -4 60.77 9.16
1 10 -4 58.62 6.49
1 -10 -4 60.67 8.81
1 -10 -4 56.95 10.36
1 10 -4 60.18 10.75
1 -10 -3 55.57 8.73
1 10 -3 47.73 6.66
1 -10 -3 47.21 8.09
1 -10 -3 52.88 5.85
1 -10 -3 42.72 9.08
1 10 -3 42.93 9.56
1 10 -2 132.78 11.55
1 -10 -2 164.96 15.11
1 -10 -2 146.64 9.97
1 -10 -2 143.43 12.78
1 10 -2 137.9 14.19
1 -10 -2 150.46 13.78
1 10 -1 348.59 21.42
1 -10 -1 366 18.8
1 -10 -1 359.65 23.63
1 -10 -1 369.51 22.27
1 10 -1 332.62 23.97
1 -10 -1 380.79 23.49
1 -10 -1 352.5 20.9
1 -10 0 1.19 4.49
1 -10 0 4.98 3.58
1 10 0 4.54 5.51
1 -10 0 3.84 5.36
1 10 0 6.41 6.51
1 -10 0 10.64 6.56
1 10 1 43.29 5.1
1 -10 1 45.73 6.77
1 10 1 42.68 8.01
1 -10 1 40.32 6.92
1 -10 1 49.55 8.75
1 10 1 47.44 8.95
1 10 2 74.41 10.2
1 -10 2 91.63 9.34
1 10 2 58.64 9.05
1 -10 2 80.31 10.04
1 -10 2 99.44 8.9
1 10 2 72.35 7.12
1 10 2 65.58 10.31
1 -10 3 144.83 12.27
1 -10 3 145.11 11.55
1 10 3 122.37 12.93
1 10 3 139.43 12.92
1 10 3 122.22 10.37
1 10 4 58.23 7.28
1 -10 4 54.34 8.36
1 10 4 54.19 8.61
1 10 4 65.64 9.6
1 -10 4 61.21 7.5
1 10 5 21.14 5.73
1 -10 5 14.33 6.02
1 -10 5 15.88 4.69
1 -10 5 14.4 5.16
1 -10 5 10.95 6.23
1 10 5 18.16 6.61
1 10 6 0.54 5.01
1 -10 6 -3.8 5
1 -10 6 4.59 3.95
1 10 6 -2.15 6.61
1 -10 6 -4.69 5.66
1 10 6 3.53 5.26
1 10 7 47.24 8.5
1 -10 7 46 8.11
1 -10 7 43.73 6.4
1 10 7 57.65 10.67
1 -10 7 58.83 9.51
1 10 7 56.98 8.37
1 10 8 28.57 8.13
1 -10 8 37.92 7.91
1 -11 -7 2.9 4.62
1 -11 -7 6.77 9.18
1 -11 -6 287.66 17.33
1 -11 -6 288.73 22.75
1 11 -5 4.2 3.8
1 -11 -5 5.49 8.02
1 11 -5 0.83 8.16
1 11 -4 368.11 20.48
1 -11 -4 370.89 25.64
1 -11 -4 368.53 23.67
1 11 -4 343.78 25.57
1 -11 -4 377.92 24.51
1 -11 -3 1.96 5.87
1 11 -3 0.79 7.3
1 11 -3 3.39 4.63
1 -11 -3 0.59 5.53
1 -11 -3 0.3 3.45
1 -11 -3 -0.74 7.17
1 11 -2 132.16 11.78
1 -11 -2 157.73 15.03
1 -11 -2 137.2 12.89
1 -11 -2 130.61 9.54
1 11 -2 147.33 15.55
1 -11 -2 149 13.86
1 -11 -1 22.71 7.51
1 -11 -1 18.39 6.14
1 11 -1 18.2 6.58
1 11 -1 23.33 7.78
1 -11 -1 19.02 6.67
1 -11 -1 24.9 4.44
1 -11 -1 21.88 7.53
1 11 -1 18.62 8.51
1 -11 0 174.04 11.06
1 -11 0 191.76 16.27
1 11 0 151.39 15.22
1 -11 0 184.08 14.37
1 -11 0 174.29 13.32
1 -11 0 186.14 15.71
1 11 0 160.02 14.06
1 -11 1 4.64 4.88
1 11 1 8.35 6.33
1 -11 1 5.94 5.23
1 -11 1 2.04 5.75
1 11 1 5.46 6.94
1 11 2 2.63 3.65
1 11 2 3.8 5.87
1 -11 2 5.18 5.45
1 11 2 5.41 7.12
1 -11 2 3.37 5.91
1 -11 2 4.25 4.67
1 11 2 4.62 5.84
1 11 3 12.03 6.68
1 11 3 3.93 4.51
1 -11 3 7.34 5.33
1 11 3 7.35 6.53
1 -11 3 8.49 4.91
1 11 4 41.99 6.53
1 -11 4 36.48 5.44
1 -11 4 43.26 8.1
1 11 4 47.93 8.57
1 11 4 39.41 8.6
1 -11 4 35.69 6.59
1 11 5 5.69 5.43
1 -11 5 4.81 3.77
1 11 5 11.11 7.38
1 -11 5 5.82 5.09
1 11 5 1.2 5.71
1 -11 5 -2.1 5.58
1 -11 5 5.16 5.24
1 11 6 59.96 9.45
1 11 6 54.8 8.67
1 -11 6 54.25 8.89
1 11 7 18.84 7.59
1 -11 7 10.76 6.22
1 -12 -5 209.05 19.93
1 12 -4 79.98 8.74
1 -12 -4 78.86 12.5
1 -12 -3 43.37 9.76
1 12 -3 52.41 11.73
1 12 -3 54.09 7.73
1 -12 -3 53.65 9.22
1 -12 -3 50.06 10.83
1 -12 -2 6.35 6.99
1 -12 -2 13.54 5.89
1 12 -2 16.19 6.21
1 12 -2 5.74 7.96
1 -12 -2 17.6 7.03
1 -12 -2 7.09 7.54
1 12 -2 16.46 9.47
1 12 -1 222.34 16.79
1 -12 -1 199.34 18.19
1 12 -1 246.47 19.72
1 -12 -1 196.34 12.6
1 -12 -1 224.8 16.97
1 12 -1 256.45 21.17
1 -12 -1 245.65 18.89
1 -12 -1 219.34 15.93
1 -12 0 94.61 12.54
1 12 0 112.83 12.23
1 -12 0 87.87 7.68
1 -12 0 105.63 11.36
1 12 0 110.08 13.66
1 -12 0 100.93 12.7
1 -12 0 96.32 10.18
1 12 1 126.62 13.26
1 -12 1 113.04 11.52
1 12 1 135.67 14.5
1 -12 1 105.62 13.06
1 -12 1 109.11 10.86
1 -12 2 42.04 7.23
1 12 2 38.34 9.26
1 12 2 40.73 9.47
1 -12 2 41.06 7.57
1 -12 2 40.03 9.01
1 12 2 34.14 9.75
1 12 3 99.42 12.07
1 -12 3 82.78 10.67
1 12 3 70.57 11.08
1 -12 3 82.81 9.63
1 12 3 84.59 8.38
1 12 4 18.38 5.93
1 -12 4 29.67 7.79
1 12 4 26.9 8.22
1 12 4 29.83 9.2
1 -12 4 29.09 6.31
1 12 5 30.98 6.75
1 -12 5 40.15 8.48
1 12 5 26.87 8.22
1 12 6 31.43 7.61
1 13 -3 14.25 6.03
1 -13 -2 208.36 16.3
1 13 -2 245.42 17.28
1 -13 -2 206.03 19.76
1 -13 -1 9.4 6.11
1 13 -1 10.54 6.78
1 -13 -1 10.89 8.41
1 -13 0 334.26 24.41
1 13 0 354.07 22.96
1 -13 0 292.85 21.16
1 -13 0 320.58 20.42
1 13 1 14.13 8.21
1 -13 1 7.35 6.11
1 -13 1 5.86 5.09
1 13 2 159.04 15.79
1 -13 2 160.84 13.82
1 -13 3 32.85 8.62
1 14 -1 121.04 13.32
1 14 0 2.85 7.05
2 0 -12 250.38 17.58
2 0 -12 262.22 17.32
2 0 -11 -2.56 4.24
2 0 -11 -1.53 4.95
2 0 -11 0.92 4.5
2 0 -10 415.63 24.17
2 0 -10 430.52 23.35
2 0 -10 422.5 22.96
2 0 -9 6.71 4.7
2 0 -9 0.99 3.21
2 0 -9 2.7 1.2
2 0 -9 3.19 4.04
2 0 -8 1297.5 56.47
2 0 -8 1184.56 51.88
2 0 -8 1374.46 56.05
2 0 -8 1320.75 55.46
2 0 -7 2.11 2.63
2 0 -7 0.3 2.96
2 0 -7 1.53 2.62
2 0 -7 1.65 1.84
2 0 -6 66 5.99
2 0 -6 61.84 3.7
2 0 -6 59.27 5.29
2 0 -6 57.98 3.69
2 0 -6 72.88 4.68
2 0 -6 60.37 3.73
2 0 -6 63.32 5.25
2 0 -5 3.36 2.39
2 0 -5 2.67 1
2 0 -5 2.54 1.79
2 0 -5 2.65 1.73
2 0 -5 1.87 1.86
2 0 -5 1.91 1.38
2 0 -5 3.21 0.99
2 0 -4 93.81 6.8
2 0 -4 94.7 5.46
2 0 -4 92.22 5.71
2 0 -4 98.44 6.65
2 0 -4 101.9 7.33
2 0 -4 92.91 5.67
2 0 -4 92.54 4.9
2 0 -4 94.73 5.49
2 0 -3 -0.08 0.95
2 0 -3 1.26 2.02
2 0 -3 0.53 1
2 0 -3 1.18 1.77
2 0 -3 0.12 1.49
2 0 -3 -0.81 1.52
2 0 -3 0.29 0.74
2 0 -3 -0.13 1.3
2 0 -2 1856.97 75.35
2 0 -2 1763.09 75.51
2 0 -2 1818.67 75.89
2 0 -2 1819.52 76.07
2 0 -2 1848.99 74.73
2 0 -2 1783.93 76.11
2 0 -1 0.45 0.96
2 0 -1 0.64 1.68
2 0 0 1004.99 42.26
2 0 1 2.5 1.7
2 0 1 1.65 1.9
2 0 2 4097.01 155
2 0 2 3458.09 154.52
2 0 3 2.38 2.99
2 0 3 0.93 2.12
2 0 4 1264.62 55.17
2 0 4 1226.23 53.33
2 0 5 3.13 2.84
2 0 5 2.67 3.24
2 0 5 2.34 2.2
2 0 6 997.01 48.02
2 0 6 1087.09 46.98
2 0 6 1033.28 45.58
2 0 6 1062.56 48.3
2 0 7 -1.25 3.6
2 0 7 0.41 4.08
2 0 7 0.31 3.35
2 0 8 465.62 25.89
2 0 8 487.46 24.58
2 0 8 454.39 26.06
2 0 9 1.08 4.42
2 0 9 2.48 4.87
2 0 9 4.9 4.38
2 0 10 97.3 11.27
2 0 10 91.27 10.58
2 0 10 92.5 9.35
2 0 11 -1.33 6.77
2 0 11 -2.99 6.37
2 -1 -12 25.55 6.43
2 1 -12 21.94 6.21
2 -1 -12 21.45 6.45
2 1 -12 17.49 6.22
2 1 -11 97.89 9.18
2 1 -11 101.37 11.92
2 -1 -11 106.02 10.66
2 1 -11 112.79 11.2
2 -1 -11 93.09 9.47
2 -1 -11 100.97 9.75
2 1 -11 84.3 9.47
2 1 -10 80.8 10.56
2 1 -10 83.42 9.24
2 -1 -10 79 8.19
2 -1 -10 76.06 8.87
2 1 -10 75.85 5.77
2 -1 -10 84.15 8.46
2 1 -10 73.78 8.44
2 1 -10 90.06 8.42
2 -1 -9 469.19 25.58
2 1 -9 488.64 25.75
2 -1 -9 473.76 24.74
2 1 -9 470.33 25.23
2 -1 -9 480.58 24.87
2 1 -9 485.21 27.66
2 1 -9 493.29 24.58
2 -1 -8 178.04 12.46
2 1 -8 177.92 12.11
2 -1 -8 184.28 11.68
2 1 -8 170.65 11.8
2 -1 -8 180.55 10.4
2 1 -8 177.88 13.72
2 -1 -8 190.39 11.87
2 1 -8 160.92 11.06
2 1 -7 76.48 7.18
2 -1 -7 119.85 7.81
2 1 -7 80.07 5.8
2 1 -7 82.78 7.19
2 -1 -7 114.48 8.53
2 -1 -7 114.19 6.98
2 1 -7 82.2 8.62
2 1 -7 72.08 4.57
2 -1 -7 104.77 7.42
2 1 -7 75.16 6.39
2 -1 -6 339 16.88
2 1 -6 287.75 14.41
2 1 -6 269.22 15.47
2 -1 -6 323.81 15.23
2 1 -6 289.11 13.23
2 1 -6 286.94 13.82
2 1 -6 299.62 17.53
2 -1 -6 338.43 15.88
2 1 -6 315.67 16.18
2 1 -6 300.65 14.98
2 1 -5 604.03 28.53
2 1 -5 587.31 28.01
2 -1 -5 708.84 28.5
2 1 -5 595.47 26.38
2 1 -5 599.53 27.24
2 1 -5 607.14 30.06
2 -1 -5 700.23 28.47
2 -1 -5 721.5 29.75
2 1 -5 611 27.44
2 -1 -4 378.39 18.42
2 1 -4 364.15 17.04
2 1 -4 351.54 16.13
2 -1 -4 412.04 17.91
2 1 -4 343.33 16.95
2 1 -4 360.16 17.03
2 1 -4 378.03 18.99
2 -1 -4 376.93 17.07
2 1 -4 356.97 17.58
2 -1 -4 393.88 17.47
2 1 -4 367.53 16.29
2 -1 -3 561.52 25.46
2 1 -3 669.18 26.2
2 1 -3 643.33 26.44
2 -1 -3 553.44 27.17
2 1 -3 699.93 27.34
2 1 -3 647.81 26.99
2 -1 -3 555.51 25.95
2 1 -3 655.52 27.09
2 -1 -3 578.34 26.91
2 1 -3 657.1 28.47
2 -1 -3 577.31 26.75
2 1 -3 651.63 27.29
2 1 -3 614.95 25.41
2 -1 -2 1080.04 44.48
2 1 -2 1077.4 44.95
2 -1 -2 1058.19 45.4
2 1 -2 1038.94 44.2
2 1 -2 1068.41 45.36
2 1 -2 1056.23 45.17
2 -1 -2 1034.24 45.4
2 -1 -2 1079.03 44.76
2 1 -2 1059.78 46.06
2 -1 -1 109.08 6.31
2 -1 -1 102.06 5.16
2 -1 -1 81.64 6.09
2 -1 -1 93.2 6.55
2 1 -1 123.52 6.79
2 1 -1 122.04 5.1
2 -1 0 4347.28 176.43
2 -1 0 4170.51 177.54
2 -1 0 4255.2 176.97
2 1 0 4427.36 176.29
2 -1 1 293.33 15.53
2 1 1 371.8 16.24
2 -1 1 284.42 15.85
2 1 1 374.65 15.69
2 -1 2 529.04 26.9
2 1 2 604.94 26.29
2 -1 2 574.65 26.41
2 1 2 587.03 26.25
2 1 3 1141.07 49.12
2 -1 3 1147.37 50.55
2 1 3 1119.07 48.9
2 -1 3 1136.09 49.18
2 1 4 72.5 6.05
2 -1 4 71.87 6.77
2 1 4 69.49 5.45
2 -1 4 61.72 5.55
2 1 5 322.08 17.93
2 1 5 315.37 18.57
2 -1 5 398.15 19.79
2 1 5 342.86 18.08
2 1 5 320.93 16.82
2 -1 5 416.79 19.58
2 1 6 271.47 15.62
2 -1 6 268.95 16.11
2 1 6 250.55 15.94
2 1 6 270.26 15.3
2 1 6 258.05 13.62
2 -1 6 262.53 16.28
2 1 6 267.85 16.22
2 1 7 394.38 21.88
2 1 7 400.76 22.41
2 -1 7 405.64 22.79
2 1 7 377.91 21.24
2 -1 7 445.86 21.29
2 1 7 387.33 19.19
2 1 7 397.15 22.79
2 -1 7 435.1 23.11
2 1 8 122.52 10.69
2 -1 8 113.72 10.82
2 1 8 113.67 9.68
2 -1 8 125.21 9.47
2 1 8 117.85 11.05
2 -1 8 114.15 10.76
2 -1 9 82.94 9.34
2 1 9 62.1 8.83
2 -1 9 84.47 9.4
2 1 9 53.66 8.16
2 -1 9 84.42 7.82
2 1 9 57.46 7.56
2 -1 10 29.98 6.91
2 -1 10 21.19 6.51
2 1 10 16.94 6.48
2 1 10 24.05 6.28
2 -1 10 13.73 4.95
2 1 10 17.15 5.91
2 1 10 26.08 7.05
2 1 11 240.87 18.22
2 -1 11 192.34 16.42
2 1 11 234.03 16.34
2 1 11 252.84 19.15
2 -1 11 215.31 17.62
2 -2 -12 13.27 5.94
2 -2 -12 5.49 5.06
2 2 -12 11.8 6.21
2 2 -11 12.7 6.9
2 -2 -11 9.16 4.71
2 2 -11 13.67 4.95
2 -2 -11 11.18 5.01
2 2 -11 12.2 5.44
2 2 -10 265.34 16.27
2 2 -10 282.98 17.86
2 -2 -10 259.51 16.41
2 2 -10 273.07 17.51
2 2 -10 252.58 19.22
2 -2 -10 272.88 16.97
2 2 -9 5.18 5.42
2 -2 -9 1.83 3.82
2 2 -9 3.48 3.47
2 2 -9 3.33 2.98
2 2 -9 5.77 4.18
2 -2 -9 -0.7 3.82
2 -2 -9 0.53 3.17
2 2 -9 5.25 4.23
2 2 -8 563.15 25.35
2 2 -8 531.99 26.82
2 -2 -8 523.31 25.25
2 2 -8 548.16 25.75
2 2 -8 491.11 22.69
2 2 -8 494.14 28.52
2 2 -8 555.32 26.8
2 -2 -8 533.41 26.54
2 2 -7 87.52 6.51
2 2 -7 83.36 7.22
2 2 -7 81.27 6.48
2 -2 -7 75.4 6.86
2 2 -7 78.44 7.4
2 -2 -7 64.91 6.25
2 2 -7 85.4 5.34
2 2 -7 76.97 8.65
2 2 -6 1781.51 74.08
2 2 -6 1730.09 75.08
2 -2 -6 1795.11 76.28
2 2 -6 1786.94 75.4
2 -2 -6 1723.51 74.86
2 2 -6 1745.55 73.57
2 -2 -6 1757.55 75.37
2 2 -5 31.09 2.96
2 -2 -5 23.08 3.75
2 2 -5 34.19 3.85
2 2 -5 28.06 3.53
2 -2 -5 18.79 3.66
2 2 -5 29.26 4.01
2 2 -4 1040.75 44.64
2 2 -4 1034.13 43.57
2 2 -4 1012.66 45.12
2 -2 -4 1061.54 45.84
2 -2 -4 1053.02 45.04
2 -2 -4 1062.26 45.5
2 2 -3 119.27 6.51
2 -2 -3 197.15 9.7
2 2 -3 124.74 7.95
2 2 -3 116.32 8.22
2 -2 -3 189.29 8.32
2 2 -3 123.17 7.4
2 -2 -3 196.55 9.37
2 -2 -2 2608.65 108.37
2 2 -2 2597.15 106.62
2 -2 -2 2595.76 106.87
2 2 -2 2527.86 107.43
2 2 -2 2573.56 108.21
2 -2 -2 2713.46 108.27
2 -2 -1 714.56 32.5
2 -2 -1 737.12 31.86
2 2 -1 787.93 32.71
2 2 -1 801.1 33.4
2 2 -1 759.94 31.28
2 -2 0 2055.57 87.86
2 -2 0 2038.83 86.81
2 2 0 2165.41 86.55
2 -2 1 650.57 28.12
2 -2 1 648.09 28.44
2 2 1 593.7 28.11
2 -2 1 649.82 28.9
2 2 1 604.88 27.73
2 2 2 240.22 12.06
2 -2 2 246.65 13.06
2 -2 2 253.65 12.85
2 2 2 232.13 13.45
2 2 2 238.86 12.6
2 -2 2 239.63 13.15
2 2 2 242.08 12.82
2 2 3 67.23 5.25
2 2 3 65.44 5.6
2 2 3 62.85 5.23
2 2 3 55.6 5.61
2 2 4 146.77 8.95
2 -2 4 140.47 10.22
2 2 4 138.96 9.24
2 -2 4 137.23 9.53
2 2 4 129.45 8.33
2 -2 5 11.27 3.7
2 2 5 15.89 3.56
2 -2 5 11.21 4.24
2 -2 5 7.11 3.44
2 2 5 14.41 3.84
2 2 5 10.81 2.6
2 2 6 210.51 13.81
2 -2 6 211.51 13.6
2 -2 6 216.13 14.54
2 2 6 212.92 13.23
2 2 6 213.73 13.43
2 2 6 208.19 11.59
2 -2 6 212.99 13.9
2 -2 7 149.98 10.59
2 2 7 89.52 8.77
2 2 7 102.51 9.49
2 2 7 92.94 6.88
2 2 7 102.73 10
2 -2 7 146.95 11.06
2 -2 8 517.42 27.37
2 2 8 532.95 27.64
2 2 8 502.99 26.92
2 -2 8 540.4 25.69
2 2 8 489.01 23.14
2 2 8 520.93 28.75
2 -2 8 508.61 27.81
2 2 9 12.12 6.1
2 -2 9 7.29 4.88
2 2 9 11.59 5.67
2 -2 9 13.35 5.5
2 2 9 18.83 5.72
2 2 9 8.21 5.23
2 -2 9 5.02 3.89
2 -2 10 233.04 16.87
2 2 10 272.65 18.83
2 2 10 260.6 17.41
2 2 10 274.86 17.85
2 -2 10 239.98 15.2
2 2 10 243.51 18.6
2 -2 10 241.79 17.83
2 -2 11 5.77 6.52
2 -2 11 0.55 5.8
2 2 11 1.61 5.82
2 -3 -12 32.23 8.65
2 -3 -12 22.32 6.45
2 -3 -12 28.45 6.52
2 3 -12 11.42 6.69
2 3 -11 186.01 13.17
2 -3 -11 172.31 13.69
2 3 -11 183.43 14.83
2 -3 -11 176.44 13.84
2 3 -10 65.61 7.29
2 3 -10 63.15 6.89
2 -3 -10 60.62 7.6
2 -3 -10 54.09 7.52
2 -3 -10 53.17 7.7
2 3 -10 75.93 8.92
2 3 -9 341.71 17.67
2 -3 -9 263.93 17.96
2 3 -9 354.71 17.85
2 3 -9 314.26 18.99
2 -3 -9 278.83 16.85
2 3 -9 289.99 14.08
2 -3 -9 299.57 18.07
2 3 -8 84.99 7.08
2 3 -8 78.18 7.55
2 3 -8 71.52 7.02
2 3 -8 72.96 7.87
2 -3 -8 91.24 7.53
2 -3 -8 80.09 8.18
2 3 -8 69.34 5.32
2 -3 -8 71.57 7.54
2 3 -7 678.41 30.33
2 3 -7 690.32 31.19
2 3 -7 639.46 31.25
2 3 -7 698.71 32.38
2 -3 -7 609.22 30.83
2 -3 -7 652.65 32.34
2 -3 -7 604.78 31.29
2 3 -6 96.55 6.89
2 3 -6 88.76 7.65
2 -3 -6 71.88 6.77
2 -3 -6 68.92 7.29
2 3 -6 89.58 6.2
2 -3 -6 84.12 7.31
2 3 -5 950.04 40.04
2 -3 -5 858.61 39.8
2 -3 -5 849.44 39.75
2 -3 -5 853.41 39.66
2 3 -5 904.99 38.64
2 -3 -5 830.78 39.63
2 3 -4 356.12 16.31
2 3 -4 348.49 18.08
2 -3 -4 356.89 18.44
2 -3 -4 371.57 18.29
2 -3 -4 341.32 17.8
2 3 -4 345.55 16.53
2 -3 -4 356.28 18.31
2 3 -3 1334.62 56.18
2 -3 -3 1417.63 58.55
2 3 -3 1294.4 58.47
2 -3 -3 1423.61 58.93
2 3 -3 1304.48 58.08
2 3 -3 1324.94 55.69
2 -3 -3 1408.67 57.93
2 -3 -3 1332.73 58.68
2 3 -3 1336 56.19
2 -3 -3 1396.41 58.46
2 -3 -2 631.44 29.32
2 3 -2 651.86 30.48
2 3 -2 683.73 28.33
2 3 -2 686.15 30.24
2 -3 -2 612.73 29.79
2 3 -1 2533.92 107.85
2 -3 -1 2981.39 110.18
2 3 -1 2717.43 109.4
2 3 -1 2728.42 110.81
2 3 -1 2483.55 110.9
2 -3 -1 2761.65 110.46
2 -3 0 76.76 5.43
2 -3 0 63.66 5.7
2 3 0 72.32 5.19
2 3 0 71.77 6.13
2 3 0 64.38 4.88
2 3 1 309.12 14.73
2 -3 1 406.17 17.23
2 -3 1 389.97 17.28
2 3 1 288.34 16.07
2 3 1 337.92 17.37
2 3 1 316.61 16.19
2 3 2 492.38 24.06
2 3 2 488.08 21.96
2 -3 2 503.87 23.71
2 -3 2 467.1 23.22
2 3 2 499.1 23.46
2 3 3 1034.17 42.64
2 -3 3 902.09 43.91
2 3 3 1050.03 44.82
2 -3 3 932.72 43.21
2 3 3 1039.07 44.05
2 -3 3 922.47 43.92
2 3 3 962.72 43.17
2 3 3 1017.53 44.31
2 3 4 266.1 13.77
2 -3 4 262.65 14.01
2 3 4 291.57 15.17
2 3 4 258.99 15.09
2 3 4 235.84 13.65
2 3 4 230.99 14.85
2 -3 4 247.35 14.74
2 3 5 151.49 9.53
2 -3 5 116.33 8.67
2 3 5 142.79 9.96
2 3 5 131.21 8.53
2 -3 5 112.08 9.36
2 -3 6 155.63 10.12
2 -3 6 173.86 11.47
2 3 6 162.45 11.59
2 3 6 138.92 9.35
2 -3 6 150.83 11.37
2 3 7 447.87 23.3
2 -3 7 381.14 20.75
2 3 7 426.07 23.21
2 3 7 430.33 20.05
2 -3 7 406.99 22.61
2 3 7 410.98 23.89
2 -3 7 374.58 22.74
2 -3 8 89.99 9.25
2 -3 8 76.23 8.85
2 3 8 95.83 9.34
2 -3 8 82.3 7.51
2 3 8 109.94 10.07
2 3 8 83.27 6.09
2 3 8 107.44 10.76
2 -3 9 48.53 7.95
2 3 9 54.94 8.03
2 -3 9 43.71 7.31
2 3 9 47.92 7.26
2 -3 9 34.61 5.56
2 3 9 44.32 8.18
2 3 9 41.45 7.25
2 -3 9 39.84 5.59
2 3 10 47.86 9.03
2 -3 10 42.63 7.91
2 3 10 49.62 8.96
2 -3 10 31.87 6.85
2 3 10 42.83 7.55
2 3 10 44.84 8.18
2 3 10 39.82 7.69
2 -3 11 187.94 14.89
2 3 11 191.8 15.76
2 4 -12 269.06 19.8
2 -4 -12 259.82 20.29
2 -4 -11 1.03 4.85
2 -4 -11 3.38 5.03
2 4 -11 3.57 6.19
2 -4 -11 5.03 6.86
2 -4 -10 210.42 15.18
2 4 -10 209.46 14.21
2 4 -10 216.31 16.09
2 -4 -10 216.51 14.04
2 -4 -10 229.71 16.71
2 4 -10 194 10.58
2 4 -10 176.49 17.01
2 -4 -10 202.98 14.87
2 -4 -9 24.46 5.36
2 4 -9 29.56 7.55
2 -4 -9 15.51 5.36
2 4 -9 22.58 5.42
2 -4 -9 29.72 7.29
2 -4 -9 23.92 4.87
2 4 -9 16.69 5.96
2 4 -9 19.42 3.43
2 -4 -8 312.26 19.26
2 4 -8 364.23 19.78
2 4 -8 354.27 20.57
2 -4 -8 338.87 18.94
2 -4 -8 349.35 20.75
2 4 -8 303.4 21.44
2 -4 -8 332.13 19.65
2 -4 -7 21.87 4.98
2 -4 -7 19.85 4.88
2 4 -7 13.51 5.32
2 -4 -7 19.21 5.71
2 -4 -6 246.74 16.21
2 4 -6 300.63 15.1
2 4 -6 268.28 16.62
2 -4 -6 272.35 16.32
2 -4 -6 289.21 16.78
2 -4 -6 297.03 16.74
2 -4 -5 32.7 4.81
2 -4 -5 34.5 5.09
2 4 -5 17.47 3.29
2 -4 -5 32.94 5.11
2 -4 -5 27.13 4.46
2 4 -5 17.74 4.3
2 -4 -5 33.85 5.13
2 -4 -4 28.4 4.71
2 -4 -4 24.43 4.28
2 4 -4 40.87 3.46
2 4 -4 32.95 2.16
2 -4 -4 28.62 4.83
2 -4 -4 27.97 4.33
2 4 -4 33.54 5.07
2 -4 -4 25.32 4.79
2 4 -3 168.44 7.95
2 -4 -3 158.22 10.38
2 -4 -3 158.34 10.92
2 4 -3 178.11 8.62
2 4 -3 162.15 10.89
2 -4 -3 150.14 10.39
2 4 -3 172.17 8.25
2 -4 -3 168.37 11.04
2 -4 -3 165.79 10.47
2 4 -2 1610.65 68.7
2 4 -2 1736.52 73.21
2 -4 -2 1794.78 72.17
2 4 -2 1748.91 70.44
2 4 -2 1710.6 72.63
2 -4 -2 1798.94 72.04
2 -4 -1 168.82 10.38
2 4 -1 190.49 9.88
2 4 -1 169.66 11.27
2 -4 -1 166.14 10.22
2 4 0 1602.94 71.01
2 -4 0 1697.9 71.74
2 -4 0 1629.9 72.04
2 4 0 1715.52 71.11
2 4 0 1759.01 73.05
2 -4 1 85.01 6.85
2 4 1 74.45 6.16
2 -4 1 82.37 6.75
2 4 1 79.31 7.18
2 4 1 75.23 6.29
2 -4 2 2625.24 112.09
2 -4 2 2686.51 111.71
2 4 2 2705.62 112.59
2 4 2 2610.25 111.92
2 -4 3 66.35 6.49
2 4 3 78 7.04
2 -4 3 58.14 5.66
2 -4 3 64.15 6.52
2 4 3 75.32 6.83
2 4 4 1626.1 72.35
2 4 4 1616.35 72.06
2 -4 4 1602.51 70.66
2 4 4 1691.89 72
2 4 4 1707.73 70.68
2 -4 4 1609.02 71.88
2 -4 5 130.33 8.78
2 4 5 108.81 9.36
2 4 5 106.35 9.27
2 4 5 112.75 8.04
2 4 5 88.15 9.3
2 -4 5 128.43 9.69
2 -4 6 1249.17 56.44
2 -4 6 1235.59 55.08
2 4 6 1237.59 57.06
2 4 6 1259.18 54.52
2 -4 6 1262.09 57.26
2 -4 7 34.48 5.9
2 -4 7 29.89 5.71
2 -4 7 36.42 5.28
2 4 7 24.21 5.97
2 4 7 23.64 3.84
2 4 8 418.99 24.96
2 -4 8 393.04 22.86
2 4 8 416 23.09
2 -4 8 393 20.84
2 4 8 394.89 23.6
2 4 8 422.09 22.99
2 4 8 389.57 19.33
2 -4 8 374.09 22.85
2 4 9 30.39 7.69
2 -4 9 41.14 7.12
2 -4 9 33.27 6.73
2 4 9 24.83 6.44
2 -4 9 32.62 5.18
2 4 9 18.58 6.95
2 -4 9 37.87 5.18
2 4 9 27.08 6.48
2 -4 10 139.19 12.8
2 4 10 153.63 14.08
2 4 10 141.46 12.91
2 4 10 156.53 15.06
2 -4 10 124.19 12.52
2 -4 10 134.78 11.72
2 -4 11 10.23 6.69
2 4 11 5.1 7.49
2 5 -11 149.76 14.46
2 -5 -11 134.52 14.17
2 -5 -11 144.67 13
2 -5 -10 27.33 6.7
2 5 -10 28.59 8.19
2 -5 -10 28.24 6.5
2 5 -10 33.05 6.52
2 -5 -10 26.42 6.12
2 -5 -10 17.52 7.44
2 -5 -9 228.41 15.15
2 5 -9 202.88 14.66
2 5 -9 207.91 15.88
2 -5 -9 207.18 14.43
2 -5 -9 202.65 16.26
2 5 -9 208.23 17.05
2 -5 -9 200.88 14.88
2 5 -8 113.1 10.51
2 5 -8 127.51 11.84
2 -5 -8 142.83 10.85
2 -5 -8 129.37 11.96
2 5 -8 119.05 12.43
2 -5 -8 123.37 10.69
2 -5 -7 214.56 13.98
2 -5 -7 201.72 14.7
2 -5 -7 229.98 14.44
2 5 -7 174.95 13.99
2 5 -7 175.91 14.98
2 -5 -6 254.22 15.21
2 5 -6 193.21 14.77
2 -5 -6 233.23 14.94
2 -5 -6 211.67 15
2 -5 -6 252.33 14.61
2 -5 -6 233.97 15.05
2 5 -6 207.48 15.85
2 5 -5 339.56 20.5
2 -5 -5 380.18 20.67
2 -5 -5 404.63 20.01
2 -5 -5 359.85 20.46
2 -5 -5 384.66 20.8
2 -5 -5 392.72 20.29
2 -5 -4 402.15 20.54
2 5 -4 363.67 17.26
2 -5 -4 420.2 20.5
2 -5 -4 407.04 21.4
2 5 -4 380.95 21.23
2 -5 -4 376.75 21.13
2 -5 -4 430.13 21.63
2 -5 -3 579.69 29.12
2 5 -3 674.14 27.71
2 -5 -3 622.84 30.05
2 5 -3 673.27 31.06
2 -5 -3 612.99 30.51
2 -5 -3 618.91 29.42
2 5 -2 292.31 16.91
2 -5 -2 314.3 16.52
2 5 -2 321.18 14.74
2 5 -2 299.07 16.78
2 5 -2 259.61 12.22
2 -5 -2 328.74 15.8
2 -5 -1 1534.49 67.15
2 -5 -1 1402.57 67.28
2 5 -1 1676.81 66.23
2 5 -1 1652.43 68.4
2 -5 -1 1457.65 65.94
2 -5 0 445.2 23.82
2 -5 0 495.44 24.36
2 5 0 461.65 23.23
2 5 0 496.97 25.12
2 -5 0 493.59 21.18
2 -5 0 481.27 22.84
2 -5 1 279.96 16.39
2 -5 1 295.85 16.57
2 5 1 294.28 13.37
2 5 1 319.9 16.46
2 5 1 308.92 17.4
2 5 1 300.17 16.57
2 -5 2 196.6 12.88
2 -5 2 220.44 13.27
2 -5 2 196.01 12.55
2 5 2 191.92 12.67
2 5 2 213.38 10.47
2 5 2 206.86 13.39
2 5 2 215.69 13.13
2 -5 3 1994.47 86.7
2 -5 3 1959.56 86.96
2 -5 3 2015.12 86
2 5 3 1992.33 84.08
2 5 3 2029.61 87.07
2 5 3 2060.85 87.39
2 -5 4 73.26 7.61
2 5 4 85.74 8.32
2 -5 4 77.71 7.11
2 5 4 87.49 8.21
2 5 4 81.64 6.55
2 5 4 83.22 8.46
2 5 5 441.41 24.82
2 -5 5 497.9 23.07
2 5 5 430.8 24
2 5 5 463.5 24.45
2 5 5 430.31 22.22
2 5 5 404.92 22.08
2 -5 5 449.62 23.99
2 -5 6 7.16 4.33
2 5 6 8.93 4.47
2 -5 6 8.87 4.26
2 -5 6 12.44 3.97
2 5 6 9.01 5.05
2 5 6 16.93 4.44
2 5 6 12.14 3.6
2 -5 7 480.06 24.55
2 5 7 437.81 24.95
2 -5 7 501.15 23.26
2 5 7 413.65 25.04
2 5 7 410.33 23.55
2 -5 7 482.05 25.37
2 5 7 405.24 21.84
2 -5 8 13.44 5.37
2 5 8 19.44 6.1
2 -5 8 17.19 5.47
2 -5 8 16.28 4.44
2 5 8 4.92 5.72
2 5 8 16.6 5.54
2 5 8 14.47 3.46
2 5 9 93.59 11.19
2 5 9 108.26 10.61
2 5 9 118.59 12.57
2 5 9 100.46 10.77
2 -5 9 126.02 11.79
2 -5 9 136.12 9.04
2 -5 9 123.66 11.24
2 5 9 113.43 12.79
2 -5 10 14.25 6.43
2 -5 10 12.86 5.2
2 -5 10 11.61 5.97
2 5 10 19.32 7.86
2 5 10 10.1 6.18
2 5 11 88 12.24
2 6 -11 12.74 8.11
2 -6 -11 7.71 7.54
2 -6 -10 182.27 14.63
2 6 -10 193.95 15.21
2 6 -10 198.72 16.87
2 -6 -10 208.52 14.89
2 -6 -10 178.22 16.44
2 6 -10 206.6 18.38
2 -6 -10 209 15.73
2 -6 -9 7.69 5.08
2 -6 -9 4.56 4.61
2 6 -9 4.39 6.69
2 6 -9 8.41 5.03
2 -6 -9 13.18 7.23
2 -6 -9 4.54 4.62
2 6 -9 9.7 6.2
2 6 -8 208.52 15.45
2 -6 -8 187.86 13.59
2 -6 -8 161.22 14.5
2 6 -8 181.14 15.64
2 -6 -8 166.53 13.62
2 -6 -7 54.91 7.68
2 6 -7 35.35 7.72
2 -6 -7 41.47 6.91
2 6 -7 38.33 7.48
2 -6 -7 49.03 8.15
2 -6 -6 1132.37 50.53
2 6 -6 1045.76 51.25
2 -6 -6 1091.85 50.8
2 -6 -6 1062.9 51.21
2 -6 -6 1106.86 49.69
2 -6 -6 1115.65 51.04
2 6 -6 993.64 52.15
2 -6 -5 71.08 7.41
2 -6 -5 70.96 8.04
2 6 -5 58.85 3.48
2 -6 -5 68.01 6.87
2 -6 -5 66.7 7.9
2 6 -5 54.72 7.88
2 -6 -5 66.37 8.21
2 -6 -4 679.72 32.44
2 6 -4 671.39 29.64
2 -6 -4 648.99 31.97
2 -6 -4 713.43 34
2 6 -4 673.84 34.18
2 -6 -4 672.19 33.74
2 -6 -4 661.21 33.62
2 -6 -3 48.28 6.79
2 -6 -3 50.09 5.87
2 6 -3 63.26 5.18
2 -6 -3 41.64 5.52
2 -6 -3 45.18 6.81
2 6 -3 58.65 7.46
2 -6 -2 1479.24 64.82
2 6 -2 1393.24 62.43
2 6 -2 1459.68 65.37
2 6 -2 1422.77 65.43
2 -6 -2 1506.67 63.13
2 6 -1 48.83 3.17
2 6 -1 48.58 5.5
2 -6 -1 42.28 6.02
2 -6 -1 44.29 4.93
2 -6 -1 48.34 6.17
2 6 -1 45.52 6.74
2 -6 0 320.27 16.3
2 -6 0 312.93 18.01
2 -6 0 319.06 18.19
2 6 0 309.82 17.18
2 6 0 311.6 18.67
2 6 0 339.04 19.3
2 -6 0 308.58 15.05
2 -6 1 223.2 13.93
2 -6 1 238.6 14.1
2 6 1 191.69 12.91
2 6 1 204.61 14.6
2 6 1 209.54 14.15
2 -6 2 279.69 16.43
2 -6 2 295.23 16.78
2 -6 2 294.96 16.26
2 6 2 252.73 12.81
2 6 2 248.72 15.75
2 6 2 263.48 16.17
2 6 2 249.95 16.39
2 -6 3 67.39 7.26
2 6 3 51.69 7.08
2 -6 3 80.34 8.01
2 -6 3 73.98 7.31
2 6 3 47.06 4.69
2 6 3 52.07 7.08
2 -6 4 39.87 6.17
2 6 4 49.07 6.01
2 6 4 62.99 7.59
2 6 4 49.47 5.22
2 -6 4 48.06 6.26
2 6 4 50.48 7.42
2 -6 5 101.22 9.72
2 6 5 106.53 9.38
2 6 5 112.92 10.1
2 -6 5 94.88 8.61
2 6 5 112.91 10.55
2 6 5 104.25 8.09
2 6 5 100.75 10.45
2 6 6 1.1 4.69
2 -6 6 4.5 4.3
2 6 6 4.24 4.2
2 -6 6 2.9 4.01
2 -6 6 5.14 3.79
2 6 6 2.5 5.02
2 6 6 -0.89 4.05
2 6 6 0.33 3.64
2 6 6 1.9 3.51
2 -6 7 46.33 7.61
2 6 7 44.82 7.19
2 -6 7 49.69 7.35
2 -6 7 57 6.6
2 6 7 50.93 8.31
2 6 7 46.27 6.59
2 6 7 50.23 5.88
2 6 8 220.86 16.1
2 -6 8 181.58 13.97
2 -6 8 206.24 12.94
2 6 8 208.57 16.45
2 6 8 205.12 14.56
2 6 8 215.44 12.65
2 -6 8 185.3 14.78
2 6 9 10.27 7.56
2 -6 9 17.95 6.04
2 6 9 17.61 6.57
2 -6 9 16.71 6.28
2 6 9 7.52 5.31
2 6 9 9.68 6.86
2 6 9 7.66 5.5
2 -6 10 74.79 10.28
2 -6 10 86.05 10.46
2 6 10 94.86 13.2
2 6 10 93.66 10.98
2 -7 -11 130.45 14.68
2 7 -10 47.99 8.95
2 -7 -10 32.79 7.5
2 7 -10 35.38 9.53
2 -7 -10 41.58 9.26
2 -7 -9 143.24 12.35
2 7 -9 166.89 14.15
2 7 -9 178.16 15.75
2 -7 -9 135.73 12.43
2 -7 -9 157.19 13.48
2 -7 -9 121.01 13.52
2 7 -9 162.93 16.1
2 7 -8 137.06 14.33
2 7 -8 123.85 12.78
2 -7 -8 142.59 12.13
2 -7 -8 111.01 12.63
2 -7 -8 140.27 12.3
2 -7 -7 295.2 19.44
2 7 -7 306.53 20.67
2 -7 -7 314.2 19.54
2 -7 -7 288.77 20.13
2 7 -7 313.97 21.71
2 -7 -6 29.83 6.32
2 -7 -6 41.79 6.84
2 7 -6 30.21 7.23
2 -7 -6 39.47 8.01
2 -7 -5 650.16 32.34
2 7 -5 657.18 28.24
2 -7 -5 621.62 33.28
2 7 -5 656.82 34.59
2 -7 -5 634.22 33.84
2 -7 -5 644.56 31.7
2 -7 -5 647.39 33.69
2 7 -4 242.3 12.71
2 -7 -4 232.3 14.37
2 -7 -4 214.51 15.64
2 -7 -4 227.76 16.07
2 7 -4 238.87 16.83
2 -7 -4 252.1 14.99
2 -7 -4 232.46 16.14
2 -7 -3 694.84 32.36
2 -7 -3 687.75 32.27
2 7 -3 665.75 31.12
2 -7 -3 645.48 34.01
2 7 -3 651.95 34.67
2 -7 -3 664.35 34.43
2 -7 -2 355.69 19.84
2 -7 -2 376.48 21.8
2 7 -2 392.15 19.93
2 -7 -2 367.73 21.56
2 7 -2 407.41 22.97
2 -7 -2 382.4 19.87
2 -7 -1 904.53 40.48
2 -7 -1 904.79 40.53
2 7 -1 857.02 38.58
2 7 -1 830.76 40.92
2 -7 -1 862.44 36.83
2 -7 -1 929.44 37.98
2 7 -1 750.08 34.51
2 7 0 137.76 7.74
2 -7 0 132.93 10.96
2 -7 0 143.62 11.16
2 7 0 128.6 10.3
2 7 0 135.8 11.65
2 7 0 134.87 11.88
2 -7 0 141.57 8.46
2 -7 0 138.8 9.01
2 7 1 146.49 9.04
2 -7 1 167.09 12.13
2 -7 1 179.33 12.29
2 7 1 147.51 11.31
2 7 1 128.15 12.31
2 7 1 139.46 11.9
2 -7 1 163.13 9.63
2 -7 2 132.11 11.01
2 7 2 128.59 8.99
2 -7 2 143.06 11.33
2 -7 2 137 10.89
2 7 2 144.99 11.28
2 7 2 129.55 11.3
2 -7 3 80.83 8.36
2 7 3 73.08 8.72
2 7 3 64.2 6.67
2 7 3 77.93 6.01
2 -7 3 82 8.32
2 7 3 79.56 9.09
2 7 3 68.22 8.29
2 -7 3 70.2 8.12
2 -7 4 198.77 14.1
2 7 4 189.65 12.88
2 -7 4 203.5 13.43
2 7 4 179.77 11.53
2 7 4 208.02 15.27
2 7 4 206.34 14.7
2 7 5 29.3 6.87
2 -7 5 25.64 5.7
2 7 5 27.48 5.75
2 -7 5 24.14 5.26
2 7 5 32.75 6.57
2 7 5 26.15 6.33
2 7 5 22.19 4.64
2 7 6 10.31 6.06
2 -7 6 9.66 4.95
2 7 6 9.28 5.12
2 -7 6 9.3 4.59
2 7 6 8.73 4.65
2 -7 6 10.71 4.33
2 7 6 9.97 5.85
2 7 6 9.07 4.25
2 7 7 270.56 17.73
2 -7 7 265.62 16.5
2 -7 7 244.3 18.28
2 -7 7 231.03 15.14
2 7 7 284.71 16.9
2 7 7 239.39 18.47
2 7 7 282.52 16
2 7 7 271.21 19.81
2 -7 7 238.96 17.72
2 -7 8 1.64 5.21
2 7 8 11.21 6.22
2 -7 8 2.63 5.18
2 7 8 5.18 6.28
2 7 8 10.71 5.36
2 7 8 8.4 4.14
2 -7 9 40.83 8.22
2 7 9 35.1 8.3
2 -7 9 46.55 7.35
2 7 9 32.17 8.94
2 7 9 30.48 7.26
2 7 10 0.59 6.4
2 8 -10 173.76 15.59
2 -8 -10 181.52 17.07
2 -8 -9 62.47 9.32
2 -8 -9 41.17 7.84
2 8 -9 58.18 9.32
2 -8 -9 49.7 8.41
2 8 -9 46.35 10.25
2 -8 -9 44.4 10.01
2 -8 -8 73.37 9.38
2 -8 -8 66.15 9.13
2 8 -8 47.53 9.68
2 -8 -8 60.68 10.35
2 8 -7 134.35 13.62
2 -8 -7 119.21 11.77
2 -8 -7 124.67 13.28
2 -8 -7 119.4 12.29
2 -8 -6 13.05 5.32
2 -8 -6 22.98 6.68
2 8 -6 19.14 7.03
2 -8 -6 22 7.69
2 -8 -5 63.84 8.61
2 8 -5 67.57 5.13
2 -8 -5 67.44 7.31
2 -8 -5 60.19 8.7
2 -8 -5 61.73 7.36
2 -8 -5 53.9 8.99
2 8 -5 66.13 9.73
2 -8 -4 81.12 9.48
2 -8 -4 76.31 7.95
2 8 -4 73.21 6.41
2 -8 -4 70.98 7.54
2 -8 -4 61.85 9.19
2 8 -4 58.45 9.43
2 -8 -3 126.87 9.69
2 8 -3 124.35 9.3
2 -8 -3 134.04 9.94
2 -8 -3 113.21 11.58
2 -8 -3 103.75 10.98
2 8 -3 139.22 13.03
2 -8 -2 320.45 17.07
2 -8 -2 288.84 17.02
2 8 -2 308.88 17.37
2 -8 -2 294.26 19.3
2 -8 -2 300.59 19.02
2 8 -2 276.98 19.63
2 -8 -1 249.7 16.94
2 8 -1 242.19 15.35
2 -8 -1 268.74 16.96
2 8 -1 276.73 18.25
2 -8 -1 263.9 14.33
2 8 -1 228.25 10.96
2 -8 -1 263.4 14.05
2 -8 0 517.67 28.51
2 -8 0 495.55 27.93
2 8 0 523.33 27.56
2 8 0 574.45 29.88
2 8 0 568.6 30.22
2 -8 0 509.41 24.93
2 -8 0 516.63 25.24
2 8 0 544.51 23.88
2 8 1 153.88 9.84
2 -8 1 200.02 13.93
2 -8 1 180.71 13.22
2 8 1 160.44 12.69
2 8 1 161.76 14.15
2 8 1 166.67 13.68
2 -8 1 194.03 10.85
2 8 2 554.48 26.37
2 -8 2 518.65 28.9
2 -8 2 586.36 29.92
2 -8 2 565.42 29
2 8 2 550.19 29.33
2 8 2 540.05 29.85
2 -8 2 527.44 25.51
2 8 3 75.34 7.46
2 -8 3 95.66 9.57
2 -8 3 99.91 9.99
2 -8 3 107.21 9.46
2 8 3 85.23 9.7
2 8 3 79.5 9.57
2 -8 4 214.99 15.32
2 8 4 214.48 13.83
2 -8 4 194.95 15.52
2 8 4 232.74 12.93
2 -8 4 192.41 14.14
2 8 4 225.16 15.86
2 -8 5 27.33 6.37
2 8 5 15.42 4.55
2 8 5 14.5 5.78
2 8 5 14.19 4.37
2 -8 5 16.86 5.16
2 8 5 11.49 6.6
2 8 6 407.56 23.46
2 -8 6 413.36 22.53
2 8 6 406.9 24.34
2 8 6 390.55 22.04
2 -8 6 435.13 22.65
2 8 6 408.61 25.43
2 8 6 424.05 26.56
2 -8 6 408.07 24.49
2 8 7 33.13 8.58
2 -8 7 42.07 7.26
2 8 7 24.46 7.01
2 -8 7 45.84 6.82
2 -8 7 37.09 6.04
2 8 7 31.08 6
2 8 7 26.2 8.07
2 -8 7 51.7 8.86
2 8 7 41.3 6.25
2 8 7 32.76 7.19
2 8 8 174.75 15.32
2 -8 8 168.78 13.4
2 8 8 192.44 14.14
2 8 8 151.98 16.17
2 8 8 186.6 17.61
2 -8 8 194.46 15.29
2 -8 9 3.05 5.78
2 -8 9 3.89 5.46
2 8 9 5.97 6.28
2 9 -10 5.96 7.17
2 -9 -10 4.74 8.96
2 9 -9 222.23 18.71
2 -9 -9 210.74 18.98
2 -9 -8 3.22 4.83
2 9 -8 5.29 8.11
2 -9 -8 8.51 7.48
2 -9 -7 2.45 5.55
2 -9 -7 5.83 5.73
2 9 -7 7.91 7.59
2 -9 -7 12.77 7.38
2 -9 -6 24.55 6.93
2 -9 -6 30.37 7.15
2 -9 -6 24.3 8.48
2 9 -6 23.48 8.62
2 -9 -5 46.59 8.35
2 9 -5 35.38 4.48
2 -9 -5 57.44 8.55
2 -9 -5 46.22 6.44
2 -9 -5 54.55 8.64
2 9 -5 36.78 8.94
2 -9 -4 15.09 6.17
2 -9 -4 13.75 4.84
2 9 -4 12.17 4.25
2 -9 -4 9.51 4.33
2 -9 -4 11.3 5.87
2 9 -4 7.81 6.42
2 -9 -3 70.88 7.45
2 9 -3 75.35 7.53
2 9 -3 82.97 10.44
2 -9 -3 63.69 8.86
2 -9 -3 51.74 6.47
2 -9 -3 59.7 9.1
2 9 -3 80.19 11.07
2 -9 -2 87.04 7.78
2 -9 -2 92.22 8.4
2 9 -2 84.03 8.58
2 -9 -2 94.49 10.63
2 -9 -2 90.66 10.1
2 9 -2 73.67 10.59
2 -9 -1 441.43 22.1
2 -9 -1 425.41 25.64
2 9 -1 502.27 24.94
2 -9 -1 420.13 24.94
2 9 -1 454.04 26.83
2 9 -1 546.65 28.52
2 -9 -1 366.36 21.53
2 9 0 2.72 2.11
2 -9 0 2.09 3.27
2 -9 0 6.25 3.25
2 9 0 3.09 5.99
2 9 0 1.36 5.31
2 -9 0 2.93 4.93
2 -9 0 0.53 5.29
2 9 0 4.12 5.29
2 -9 1 537.61 28.96
2 -9 1 494.28 27.73
2 9 1 490.05 27.83
2 9 1 547.96 29.91
2 9 1 506.89 30.06
2 -9 1 508.22 25.07
2 -9 1 508.81 24.34
2 9 1 507.6 24.21
2 9 2 50.48 5.79
2 9 2 48.35 8.14
2 -9 2 45.52 7.35
2 -9 2 60.16 8
2 9 2 55.16 8.45
2 -9 2 40.4 7.21
2 -9 2 49.34 5.09
2 9 3 453.59 23.15
2 -9 3 428.48 25.36
2 -9 3 442.46 26.08
2 -9 3 424.16 24.49
2 9 3 440.91 26.06
2 9 3 454.8 26.38
2 -9 3 440.08 21.21
2 9 4 68.44 7.54
2 -9 4 74.76 9.23
2 -9 4 69.95 8.35
2 9 4 67.77 9.6
2 -9 4 82.54 9.76
2 9 4 91.46 10.34
2 -9 4 62.54 5.75
2 -9 5 324.52 20.94
2 9 5 292.89 18.89
2 -9 5 335.19 19.23
2 9 5 308.65 20.58
2 9 6 26.71 6.73
2 -9 6 41.75 7.94
2 -9 6 38.65 6.34
2 9 6 37.84 6.29
2 -9 6 35.81 6.35
2 9 6 37.61 8.54
2 9 6 22.14 6.61
2 9 7 451.65 26.33
2 -9 7 449 24.52
2 -9 7 514.45 28.92
2 -9 7 480.2 27.48
2 9 7 410.49 24.25
2 9 7 421.89 26.09
2 9 7 387.89 27.48
2 9 7 461.41 29.21
2 -9 8 48.74 9.25
2 9 8 32.19 8.31
2 -9 8 38.84 6.97
2 9 8 42.84 7.71
2 -9 9 103.65 10.96
2 -10 -9 43.31 11.44
2 -10 -8 90.52 10.04
2 -10 -8 85.6 13.12
2 -10 -7 19.72 8.85
2 10 -7 22.22 9.65
2 -10 -6 150.1 15.09
2 -10 -6 156.4 14.21
2 10 -6 150.6 15.6
2 -10 -6 154.16 14.6
2 -10 -5 36.19 8.37
2 10 -5 36.28 4.94
2 -10 -5 30.07 5.67
2 -10 -5 42.18 9.07
2 10 -5 43.09 10.07
2 10 -4 212.45 13.31
2 -10 -4 221.56 17.51
2 -10 -4 191.75 15.98
2 -10 -4 201.17 13.51
2 10 -4 196.11 17.9
2 -10 -3 148.11 10.75
2 10 -3 126.49 10.7
2 10 -3 125.09 13.93
2 -10 -3 134.38 13.58
2 -10 -3 146.08 10.64
2 -10 -3 130.42 12.66
2 10 -3 118.54 13.87
2 -10 -2 210.1 12.86
2 -10 -2 193.8 12.86
2 10 -2 180.01 13.7
2 -10 -2 207.02 16.44
2 -10 -2 194.07 15.46
2 10 -2 191.71 17.14
2 -10 -2 177.43 15.68
2 -10 -2 191.35 13.03
2 -10 -1 167.56 10.94
2 -10 -1 174.07 11.74
2 -10 -1 172.72 14.85
2 10 -1 137.05 12.24
2 -10 -1 169.35 13.96
2 10 -1 135.52 13.77
2 10 -1 140.8 14.74
2 -10 -1 159.24 11.1
2 -10 0 57.08 5.89
2 10 0 50.63 7.96
2 -10 0 69.2 9.06
2 -10 0 60.82 9.08
2 -10 0 61.2 6.62
2 10 0 70.13 10
2 10 0 55.08 4.44
2 10 0 62.27 10.12
2 -10 1 90.73 7.08
2 -10 1 94.55 10.68
2 -10 1 90.65 10.31
2 10 1 93.89 10.71
2 10 1 92.6 7.17
2 10 1 89.99 10.95
2 10 1 87.01 11.95
2 10 2 57.86 6.47
2 10 2 55.25 9.47
2 -10 2 71.25 9.08
2 10 2 56.31 9.1
2 -10 2 73.47 9.2
2 -10 2 69.22 9.28
2 -10 2 71.99 5.81
2 10 3 9.19 4.4
2 -10 3 21.22 6.65
2 10 3 15.92 6.76
2 10 3 10.49 6.39
2 -10 3 19.13 6.07
2 -10 3 21.85 3.49
2 -10 3 29.48 7.14
2 -10 4 24.87 3.63
2 10 4 29.41 5.88
2 -10 4 16.42 6
2 -10 4 36.74 6.93
2 10 4 29.4 7.85
2 -10 4 24.81 6.95
2 10 4 35.47 7.91
2 10 5 40.8 8.1
2 10 5 42.61 7.52
2 -10 5 57.81 8.79
2 -10 5 66.26 8.12
2 10 6 82.23 9.77
2 -10 6 87.25 9.01
2 -10 6 95.83 10.85
2 10 6 88.57 10.72
2 10 7 4.56 6.15
2 -10 7 0.62 5.72
2 -10 7 8.92 4.89
2 10 7 4.27 5.87
2 -11 -8 11.47 9.25
2 -11 -7 241.24 20.43
2 -11 -6 4.59 8.26
2 11 -6 10.91 9.17
2 -11 -5 247.96 20.15
2 11 -5 251.15 20.85
2 -11 -5 250.71 19.61
2 11 -4 9.14 4.62
2 11 -4 8.07 7.32
2 -11 -4 5.78 6.36
2 -11 -4 8.65 4.27
2 -11 -4 5.07 6.92
2 11 -4 6.41 7.99
2 11 -3 187.34 14.06
2 -11 -3 206.4 17.52
2 -11 -3 213.35 16.82
2 -11 -3 195.71 13.21
2 11 -3 213.39 18.82
2 -11 -2 20.03 7.71
2 -11 -2 16.89 5.39
2 11 -2 9.18 5.71
2 -11 -2 8.49 4.25
2 -11 -2 9.75 6.24
2 -11 -2 7.58 7.01
2 11 -2 4.7 7.82
2 -11 -1 164.86 10.99
2 -11 -1 153.84 15.04
2 -11 -1 168.42 11.78
2 -11 -1 184 16.19
2 11 -1 144.26 13.17
2 -11 -1 166.44 14.49
2 11 -1 150.9 15.25
2 11 -1 167.28 16.46
2 -11 -1 174.43 11.89
2 -11 0 24.88 5.15
2 -11 0 34.91 4.9
2 11 0 39.61 7.79
2 -11 0 29.61 7.32
2 -11 0 29.99 8.04
2 11 0 41.15 8.61
2 11 0 38.46 9.5
2 -11 1 73.22 5.8
2 11 1 45.98 5.35
2 11 1 52.5 10.22
2 11 1 64.6 9.44
2 -11 1 70.43 9.64
2 -11 1 79.51 10.52
2 11 1 58.86 10.01
2 -11 2 32.55 3.9
2 11 2 34.1 8.63
2 -11 2 33.41 7.32
2 11 2 30.77 7.68
2 -11 2 44.49 8.01
2 -11 2 35.8 8.08
2 11 2 31.79 5.23
2 11 3 21.59 5.17
2 -11 3 16.45 6.65
2 11 3 23.44 7.5
2 11 3 25.04 7.86
2 -11 3 9.66 6.01
2 -11 3 13.48 6.39
2 11 4 10.31 5.04
2 -11 4 6.15 5.81
2 11 4 22.2 8.49
2 -11 4 12.15 5.93
2 11 4 9.96 6.58
2 -11 4 12.46 6.68
2 11 5 18.87 5.88
2 -11 5 7.47 6.55
2 -11 5 19.21 5.49
2 11 5 21.12 8.21
2 11 5 13.8 6.96
2 11 6 32.35 7.72
2 -11 6 34.91 8.56
2 11 6 34.74 8.67
2 11 7 105.1 11.94
2 -12 -6 43.95 11.1
2 -12 -5 1.61 8.31
2 -12 -4 41.43 6.44
2 -12 -4 45.71 10.2
2 -12 -3 22.65 6.16
2 12 -3 24.63 6.3
2 -12 -3 17.79 4.9
2 -12 -3 21.49 9.47
2 12 -3 45.46 11.89
2 -12 -2 73.83 11.18
2 -12 -2 66.51 8.38
2 12 -2 81.04 13.05
2 12 -2 100.93 10.76
2 -12 -2 77.85 10.69
2 -12 -2 68.09 7.58
2 12 -2 114.06 13.98
2 -12 -2 86.81 12.69
2 -12 -1 31.99 9.53
2 -12 -1 35.85 5.99
2 12 -1 36.96 7.89
2 -12 -1 40.75 6.16
2 -12 -1 29.71 7.77
2 -12 -1 27.47 8.41
2 12 -1 46.19 10.23
2 12 -1 45.1 11
2 -12 0 69.34 7.82
2 -12 0 74.12 7.76
2 12 0 82.38 10.69
2 -12 0 81.7 10.65
2 -12 0 66.73 10.59
2 12 0 95.62 12.62
2 12 0 86.08 13.04
2 12 1 11.47 7.8
2 12 1 18.46 7.88
2 -12 1 23 7.31
2 -12 1 18.93 7.84
2 12 1 10.35 8.09
2 -12 2 108.99 12.56
2 -12 2 124.8 13.56
2 -12 2 120.96 12.26
2 12 2 116.11 13.67
2 12 2 136.93 14.47
2 -12 3 101 11.91
2 12 3 66.35 11.28
2 12 3 76.79 11.81
2 -12 3 77.23 9.82
2 -12 3 81.19 11.37
2 -12 4 125.37 13.32
2 12 4 138.81 14.31
2 13 -2 -4.03 6.79
2 -13 -2 -2.45 7.79
2 13 -1 76.38 10.81
2 -13 -1 58.12 11.25
2 13 0 16.11 7.9
2 13 1 148.44 14.94
2 -13 1 124.08 13.57
2 -13 2 20.94 7.74
2 14 -1 16.11 8.76
3 0 -11 489.31 27.86
3 0 -11 494.44 26.46
3 0 -11 487.03 30.12
3 0 -11 524.41 26.35
3 0 -10 -0.61 5.07
3 0 -10 0.65 3.22
3 0 -10 -0.89 4.42
3 0 -10 -2.82 3.97
3 0 -9 580.3 29.75
3 0 -9 589.73 28.52
3 0 -9 576.72 31.81
3 0 -9 572.86 28.05
3 0 -8 4.35 4.94
3 0 -8 3.09 2.72
3 0 -8 2.83 3.82
3 0 -8 2.6 2.12
3 0 -8 -1.28 3.04
3 0 -7 186.89 12.05
3 0 -7 174.38 10.29
3 0 -7 179.54 9.75
3 0 -7 173.69 13.03
3 0 -7 177.58 9.53
3 0 -7 171.24 10.12
3 0 -6 -0.36 3.2
3 0 -6 1.26 1.96
3 0 -6 1.73 3.17
3 0 -6 1.87 0.88
3 0 -6 1.07 0.84
3 0 -6 2.21 2.16
3 0 -6 2.94 1.89
3 0 -6 2.63 1.98
3 0 -5 1654.26 68.97
3 0 -5 1636.32 69.14
3 0 -5 1693.71 70.39
3 0 -5 1741.47 71.84
3 0 -5 1629.13 70.45
3 0 -5 1705.57 72.5
3 0 -5 1674.52 69.42
3 0 -5 1660.65 71.77
3 0 -4 2.46 1.24
3 0 -4 4.64 2.95
3 0 -4 1.81 2.76
3 0 -4 3.23 2.2
3 0 -4 2.99 2.43
3 0 -4 2.66 1.48
3 0 -4 1.57 0.79
3 0 -4 4.14 2.03
3 0 -3 99.28 5.37
3 0 -3 99.51 7.08
3 0 -3 95.3 6.54
3 0 -3 104.1 6.33
3 0 -3 95.43 6.85
3 0 -3 93.39 7.19
3 0 -3 101.83 7.35
3 0 -2 1.82 1.23
3 0 -2 0.89 2
3 0 -2 0.21 2.16
3 0 -1 1098.52 46.24
3 0 0 1.82 1.63
3 0 1 1194.45 52.7
3 0 1 1206.08 51.59
3 0 2 1.1 2.09
3 0 2 -0.26 2.68
3 0 3 2653.92 113.1
3 0 3 2592.44 111.67
3 0 3 2712.64 111.83
3 0 4 2.84 3.08
3 0 4 2.31 3.35
3 0 4 3.89 2.62
3 0 5 1486.92 67.41
3 0 5 1539.48 66.14
3 0 5 1467.13 65.07
3 0 6 7.87 4.09
3 0 6 -1.38 4.24
3 0 6 2 3.37
3 0 7 768.3 37.44
3 0 7 737.57 38.5
3 0 7 807.98 37.14
3 0 7 738.78 38.11
3 0 8 5.28 4.59
3 0 8 0.9 4.37
3 0 8 1.61 4.86
3 0 8 0.79 4.15
3 0 9 463.95 26.51
3 0 9 466.53 27.37
3 0 9 462.21 25.45
3 0 9 470.33 27.57
3 0 10 -3.94 5.99
3 0 10 0.63 5.46
3 0 10 -2.34 5.09
3 -1 -11 11.15 6.7
3 1 -11 18.27 7.53
3 -1 -11 23.31 4.96
3 1 -11 18.75 4.9
3 -1 -11 14.28 5.82
3 1 -11 12.31 5.73
3 -1 -11 16.08 4.99
3 1 -11 18.81 5.61
3 1 -10 61.39 6.46
3 1 -10 67.37 9.47
3 -1 -10 48.36 6.23
3 -1 -10 43.73 7.13
3 1 -10 65.35 7.92
3 1 -10 73.5 7.69
3 -1 -10 39.77 5.82
3 -1 -10 49.94 8.32
3 1 -9 13.68 6.23
3 -1 -9 2.14 3.34
3 1 -9 7.68 3.38
3 -1 -9 5.34 4.1
3 1 -9 6.15 4.09
3 1 -9 5.41 1.49
3 -1 -9 5.33 2.91
3 -1 -9 3.76 3.58
3 1 -9 6.6 3.93
3 1 -8 336.86 19.1
3 -1 -8 372.01 19.95
3 1 -8 333.23 15.81
3 -1 -8 353.32 17.7
3 1 -8 341.9 18.14
3 -1 -8 384.19 17.6
3 1 -8 316.3 15.61
3 1 -8 319.21 15.81
3 1 -8 355.18 21.29
3 -1 -8 377.36 18.41
3 1 -8 337.32 17.29
3 -1 -7 63.66 6.89
3 1 -7 47.02 6.85
3 1 -7 48.79 6.01
3 1 -7 39.12 5.46
3 -1 -7 62.42 5.09
3 1 -7 44.99 3.91
3 -1 -7 64.09 5.55
3 1 -7 47.14 3.38
3 1 -7 38.06 3.68
3 1 -7 41.92 4.98
3 1 -7 40.4 4.07
3 -1 -7 59.42 5.29
3 1 -7 48.82 4.38
3 -1 -6 316.08 16.13
3 -1 -6 300.74 14.23
3 -1 -6 297.98 13.46
3 1 -6 252.92 14.75
3 1 -6 259.74 13.68
3 -1 -6 285.84 14.62
3 1 -6 237.34 12.53
3 -1 -6 308.05 15.97
3 1 -6 237.4 12.92
3 -1 -6 318.2 16.65
3 1 -6 259.65 13.69
3 -1 -6 308.69 13.98
3 1 -6 238.38 15.99
3 1 -6 246.92 12.81
3 1 -5 227.87 11.17
3 -1 -5 257.18 11.55
3 1 -5 228.04 12.02
3 1 -5 224.12 11.87
3 -1 -5 259.81 13.54
3 -1 -5 266.13 14.31
3 1 -5 240.31 13.45
3 -1 -5 274.44 12.11
3 1 -5 213.83 12.59
3 -1 -5 260.62 14.33
3 1 -5 229.98 12.17
3 -1 -5 253.74 12.99
3 -1 -5 288.63 14.77
3 1 -5 228.76 14.53
3 -1 -5 265.17 12.69
3 1 -5 234.48 13.48
3 -1 -4 434.94 18.33
3 -1 -4 397.84 17.55
3 1 -4 426.59 19.13
3 -1 -4 471.94 20.66
3 -1 -4 468.26 21.23
3 1 -4 415.81 18.49
3 1 -4 432.29 20.19
3 -1 -4 421.76 17.82
3 1 -4 420.45 20.16
3 -1 -4 452.53 20.41
3 -1 -4 443.98 20.64
3 1 -4 393.66 19.36
3 1 -4 430.49 21.6
3 -1 -4 449.22 19.45
3 1 -4 431.69 20.49
3 -1 -4 463.72 21.34
3 1 -4 368.96 17.41
3 1 -3 557.51 27.61
3 -1 -3 599.47 25.69
3 -1 -3 605.38 27.38
3 1 -3 583.6 25.88
3 1 -3 568.82 26.72
3 -1 -3 600.23 26.94
3 1 -3 562.14 26.45
3 1 -3 541.18 24.57
3 1 -3 563.29 26.75
3 -1 -3 601.81 27.09
3 -1 -3 623.96 26.65
3 -1 -3 600.01 25.92
3 -1 -3 594.23 27.49
3 1 -3 567.76 26.32
3 1 -2 644.37 28.31
3 -1 -2 595.67 27.59
3 -1 -2 597.65 28.14
3 1 -2 645.98 28.62
3 -1 -2 600.75 28.55
3 1 -2 615.94 25.57
3 -1 -1 464.24 21.57
3 -1 -1 478.8 22.61
3 1 -1 471.65 22.79
3 -1 -1 485.48 22.61
3 1 -1 474.84 20.59
3 -1 0 1801.92 79.02
3 -1 0 1794.35 80.21
3 1 0 1895.35 80.54
3 1 0 2003.07 78.59
3 1 1 1202.4 52.21
3 -1 1 1182.74 52.43
3 1 1 1204.29 51.13
3 -1 1 1171.08 51.47
3 1 2 2069.17 87.56
3 -1 2 2015.72 87.78
3 1 2 2151.87 87.11
3 -1 2 1993.79 87.23
3 -1 3 1098.52 49.47
3 -1 3 1061.05 48.07
3 1 3 1085.97 48
3 -1 3 1025.55 48.04
3 1 3 1125.96 48.19
3 1 4 398.63 19.48
3 -1 4 342.86 20.48
3 1 4 379.94 19.34
3 -1 4 347.98 19.12
3 1 4 366.97 19.78
3 1 5 354.69 18.19
3 1 5 334.13 19.57
3 -1 5 314.1 19.3
3 1 5 322.19 17.44
3 -1 5 301.84 17.49
3 1 6 519.61 27.42
3 1 6 548.99 29.13
3 -1 6 581.71 29.63
3 1 6 591.89 28
3 1 6 512.07 26.39
3 1 7 125.11 10.5
3 1 7 122.35 11.38
3 -1 7 114.22 11.24
3 1 7 127.34 10.48
3 1 7 134.78 9.32
3 -1 7 128.2 11.06
3 1 8 116.46 11.06
3 1 8 129.33 11.99
3 -1 8 152.61 12.94
3 1 8 129.26 11.21
3 -1 8 157.85 11.26
3 1 8 134.44 12.53
3 -1 8 159.12 12.81
3 1 9 55.06 8.6
3 -1 9 52.79 8.27
3 1 9 58.17 8.8
3 1 9 59.63 7.99
3 -1 9 46.72 6.76
3 1 10 337.81 22.15
3 1 10 310 20.48
3 -1 10 333.64 19.85
3 -1 10 356.04 22.85
3 1 10 333.08 23.11
3 2 -11 27.91 8.07
3 -2 -11 24.7 5.78
3 2 -11 27.8 5.34
3 -2 -11 23.95 6.55
3 2 -11 29.63 6.96
3 -2 -11 20.36 5.33
3 2 -11 15.29 5.72
3 -2 -10 2.25 3.48
3 2 -10 -1.5 3.41
3 -2 -10 6.1 4.55
3 2 -10 -0.43 4.31
3 2 -10 -0.67 5.65
3 -2 -10 4.63 3.38
3 -2 -10 2.46 3.49
3 2 -10 2.91 4.35
3 2 -10 2.82 2.54
3 -2 -9 147.81 12
3 2 -9 156.52 11.46
3 2 -9 149.87 9.25
3 -2 -9 135.07 10.01
3 2 -9 152.17 11.34
3 -2 -9 141.9 10.02
3 2 -9 155 9.93
3 2 -9 141.87 9.13
3 2 -9 150.68 8.01
3 2 -9 164.63 14
3 -2 -9 157.8 11.04
3 2 -8 67.05 5.66
3 2 -8 56.39 6.43
3 2 -8 63.3 8.6
3 -2 -8 68.85 7.83
3 -2 -8 66.56 5.99
3 2 -8 58.24 5.51
3 -2 -8 64.09 6.38
3 2 -8 68.31 5.73
3 -2 -8 65.72 6.56
3 2 -8 63.17 5.09
3 2 -8 55.5 6.58
3 2 -7 1295.72 55.5
3 -2 -7 1290.82 58.75
3 2 -7 1293.99 57.3
3 2 -7 1324.22 57.29
3 -2 -7 1289.16 57.23
3 2 -7 1228.78 56.15
3 2 -7 1335.35 57.68
3 -2 -7 1318.8 57.29
3 2 -7 1330.6 56.15
3 2 -7 1356.74 60.69
3 -2 -7 1330.45 57.3
3 -2 -6 4.24 2.63
3 -2 -6 8.68 3.71
3 2 -6 8.23 3.19
3 2 -6 12.32 1.99
3 2 -6 10.52 4.7
3 -2 -6 2.16 2.65
3 2 -6 11.41 3.03
3 2 -6 9.24 2.81
3 2 -6 5.33 2.58
3 -2 -6 4.59 2.57
3 2 -5 1024.35 45.46
3 2 -5 1105.44 46
3 -2 -5 1141.98 49.07
3 2 -5 1138.56 47.81
3 -2 -5 1152.53 47.21
3 2 -5 1137.59 48.13
3 2 -5 1076.14 48.02
3 2 -5 1142.02 50.82
3 -2 -5 1089.14 48.07
3 -2 -5 1105.03 49.57
3 2 -5 1184.04 48.38
3 2 -4 188.42 8.91
3 -2 -4 153.83 10.53
3 2 -4 185.88 9.69
3 -2 -4 154.94 8.65
3 2 -4 192.96 10.04
3 2 -4 195.38 10.52
3 2 -4 187.83 10.68
3 -2 -4 159.73 9.97
3 -2 -4 160.76 10.4
3 -2 -4 144.47 9.7
3 2 -4 181.5 12.01
3 2 -4 181.42 10.24
3 -2 -3 2972.15 121.35
3 -2 -3 2962.64 123.21
3 -2 -3 2835.89 120.3
3 2 -3 3073.4 121.82
3 2 -3 2913.99 122.12
3 2 -3 2999.71 121.47
3 2 -3 2947.01 122.82
3 2 -3 2943.85 122.79
3 -2 -3 2951.33 121.53
3 -2 -3 2928.97 123.19
3 -2 -2 101.87 6.9
3 -2 -2 98.33 5.56
3 -2 -2 89.01 7.38
3 2 -2 150.91 7.33
3 2 -2 142.02 8.35
3 -2 -2 91.85 7.64
3 2 -2 145.42 8.53
3 -2 -2 92.85 5.85
3 -2 -1 3527.99 148.91
3 -2 -1 3603.11 147.1
3 2 -1 3619.45 146.67
3 2 -1 3541.99 149.34
3 -2 0 363.49 18.68
3 -2 0 371.33 17.88
3 -2 0 356.37 19.37
3 2 0 421.22 17.9
3 -2 1 689.71 33.68
3 -2 1 708.51 32.9
3 -2 1 728.27 32.75
3 2 1 720.07 33
3 -2 1 695.88 33.4
3 2 1 730.86 31.96
3 -2 2 124.38 8.57
3 2 2 106.16 8.91
3 2 2 109.04 7.89
3 2 2 112.46 8.31
3 -2 2 138.44 9.28
3 -2 2 127.66 8.67
3 -2 3 340.45 19.16
3 2 3 320.59 17.5
3 -2 3 337.54 18.18
3 2 3 333.91 17.72
3 2 4 274.61 15.18
3 -2 4 282.07 17.17
3 2 4 266.67 15.25
3 2 4 278.57 16.1
3 2 5 78.43 7.22
3 -2 5 79.64 8.63
3 2 5 90.42 7.99
3 2 5 70.31 6.78
3 2 5 85.45 8.28
3 -2 6 23.24 5.27
3 2 6 16.23 4.39
3 2 6 16.99 5.52
3 -2 6 20.96 5.58
3 2 6 7.88 4.31
3 2 6 9.09 3.55
3 2 7 218.92 14.41
3 -2 7 184.89 13.94
3 2 7 207.46 15.1
3 -2 7 199.15 15.11
3 2 7 204.93 14.18
3 2 7 209.46 12.58
3 -2 7 201.81 14.63
3 -2 8 20.89 5.93
3 -2 8 30.07 6.1
3 2 8 18.07 5.93
3 2 8 10.26 3.71
3 2 8 14.95 4.79
3 2 9 67.64 9.36
3 -2 9 71 9.56
3 -2 9 65.52 8.45
3 2 9 60.36 9.07
3 2 9 65.99 8.74
3 -2 9 67.83 7.65
3 2 10 2.08 5.98
3 -2 10 8.91 7.07
3 2 10 0.63 6.29
3 -2 10 9.65 6.06
3 2 10 6.64 6.37
3 2 10 4.93 6.18
3 -2 10 12.08 4.98
3 2 11 362.85 23.41
3 -3 -12 25.63 6.22
3 -3 -11 93.92 8.85
3 3 -11 95.05 10.55
3 -3 -11 104.74 9.98
3 -3 -11 86.5 10.48
3 3 -10 40.87 8.98
3 3 -10 45.3 6
3 -3 -10 62.28 6.76
3 3 -10 59.72 6.27
3 3 -10 64.09 8.1
3 -3 -10 68.53 7.16
3 3 -10 54.05 6.28
3 3 -10 58.9 7.92
3 -3 -10 84.78 8.35
3 -3 -10 62.11 8.42
3 3 -9 173.79 11.02
3 3 -9 190.39 12.77
3 -3 -9 194.63 11.91
3 3 -9 171.09 11.57
3 3 -9 195.25 13.49
3 3 -9 171.88 11.64
3 -3 -9 202.4 12.57
3 -3 -9 184.93 13.56
3 3 -9 166.02 10.01
3 3 -9 162.06 15.04
3 -3 -9 199.9 13.11
3 3 -8 321.69 16.54
3 -3 -8 292.91 19.02
3 3 -8 351.58 18.36
3 3 -8 352.63 19.03
3 3 -8 332.42 17.74
3 -3 -8 298.73 17.86
3 -3 -8 293.7 18.21
3 3 -8 345.65 16.75
3 3 -8 368.33 22.05
3 -3 -8 301.46 18.05
3 3 -7 64.38 6.28
3 -3 -7 57.22 6.35
3 -3 -7 52.37 7.08
3 3 -7 56.8 8.01
3 3 -7 70.36 6.96
3 -3 -7 45.49 6.1
3 3 -7 62.94 5.68
3 3 -7 52.25 6.17
3 -3 -7 51.36 6.31
3 3 -6 485.8 23.08
3 3 -6 513.96 23.07
3 3 -6 506.77 24.11
3 -3 -6 444.41 24
3 3 -6 477.87 23.82
3 -3 -6 438.24 23.1
3 3 -6 489.31 23.22
3 3 -6 487.5 26.45
3 -3 -6 451.09 23.6
3 3 -5 484.16 22.52
3 3 -5 459.77 20.11
3 -3 -5 503.74 24.47
3 3 -5 518.61 23.59
3 3 -5 451.68 19.92
3 3 -5 516.35 23.93
3 -3 -5 488.45 22.65
3 3 -5 514.6 23.33
3 -3 -5 520.49 23.99
3 3 -5 517.53 26.15
3 3 -4 803.6 34.2
3 -3 -4 829 37.63
3 -3 -4 778.79 35.27
3 3 -4 808.86 36.31
3 3 -4 789.61 37.05
3 -3 -4 783.54 36.77
3 3 -4 816.89 35.49
3 3 -4 849.58 39.02
3 3 -3 382.89 17.35
3 -3 -3 341.45 18.85
3 -3 -3 338.89 16.79
3 3 -3 394.76 16.78
3 3 -3 359.75 17.95
3 3 -3 368.4 18.86
3 -3 -3 341.57 16.5
3 -3 -3 324.26 18.58
3 -3 -2 587.7 24.68
3 3 -2 526.3 23.93
3 -3 -2 584.94 26.83
3 3 -2 556.64 25.69
3 3 -2 543.58 26.51
3 -3 -2 522.58 23.19
3 -3 -2 580.62 26.7
3 -3 -1 314.55 16.69
3 3 -1 348.56 17.63
3 3 -1 339.3 15
3 -3 0 845.43 36.01
3 -3 0 872.58 36.78
3 -3 0 847.62 34.99
3 -3 0 677.96 35.67
3 3 0 700.23 35.4
3 3 0 765.31 34.28
3 -3 1 397.07 20.2
3 -3 1 382.19 19.44
3 -3 1 398.26 21.07
3 -3 1 384.5 20.1
3 3 1 399.36 20.1
3 3 1 395.43 19.24
3 -3 2 672.57 32.9
3 3 2 680.9 31.07
3 -3 2 740.29 32.82
3 3 2 693.05 33.78
3 -3 2 763.44 33.15
3 3 2 715.02 32.75
3 3 2 648.9 32.17
3 3 3 395.33 19.62
3 -3 3 393.18 20.72
3 3 3 407.25 22.01
3 3 3 414.1 20.83
3 3 3 409.04 21.09
3 3 4 38.41 5.79
3 3 4 46.93 5.09
3 -3 4 65.91 7.46
3 -3 4 61.72 6.2
3 3 4 40.08 5.45
3 3 4 31.57 4.96
3 3 5 58.64 6.36
3 3 5 57.05 7.12
3 -3 5 66.79 8.24
3 -3 5 61.96 6.63
3 3 5 64.4 6.99
3 3 5 55.95 6.04
3 -3 5 68.47 7.73
3 3 6 238.45 14.21
3 -3 6 189.3 14.02
3 -3 6 195.35 13.48
3 3 6 233.9 15
3 3 6 238.14 13.61
3 3 6 252.2 16.01
3 -3 6 209.03 14.69
3 -3 7 33.19 6.42
3 3 7 44.64 7.27
3 -3 7 47.38 6.68
3 -3 7 36.07 5.78
3 3 7 43.57 6.85
3 3 7 40.15 5.29
3 -3 8 77.24 9.21
3 -3 8 75 8.2
3 3 8 120.86 10.8
3 3 8 120.16 11.23
3 3 8 111.9 8.09
3 -3 8 95.87 10.04
3 3 9 82.1 10.77
3 -3 9 87.15 9.94
3 -3 9 65.69 8.79
3 3 9 85.16 10.14
3 -3 9 61.26 7.56
3 3 9 79.25 9.82
3 -3 9 66.79 7.69
3 3 10 299.12 20.37
3 3 10 276.72 20.05
3 -3 10 273.29 20.06
3 3 11 8.29 7.2
3 -4 -12 24.67 6.88
3 -4 -11 370.12 20.61
3 4 -11 353.74 22.42
3 -4 -11 358.19 20.37
3 -4 -11 330.92 22.1
3 -4 -11 359.26 21.58
3 -4 -10 3.99 4.33
3 4 -10 1.49 6.42
3 -4 -10 0.99 4.79
3 4 -10 7.66 4.6
3 -4 -10 2.67 4.23
3 4 -10 4.13 4.45
3 4 -10 5.05 5.46
3 4 -10 5.92 2.68
3 -4 -10 4.88 5.84
3 4 -9 678.98 33.7
3 4 -9 714.08 33.93
3 4 -9 702.27 35.26
3 4 -9 652.36 33.62
3 -4 -9 695.58 33.91
3 -4 -9 691.67 35
3 4 -9 673.44 31.67
3 -4 -9 717.84 34.63
3 -4 -8 41.8 6.12
3 4 -8 28.36 5.12
3 4 -8 31.14 5.88
3 -4 -8 36.09 5.75
3 4 -8 24.93 6.11
3 4 -8 31.27 4.41
3 -4 -8 37.23 6.79
3 4 -7 213.75 13.1
3 4 -7 206.48 14.12
3 4 -7 226.02 14.76
3 -4 -7 249.65 15.09
3 -4 -7 232.16 14.53
3 -4 -7 242.14 15.07
3 -4 -7 218.89 14.28
3 -4 -6 46.21 6.15
3 4 -6 66.88 5.64
3 -4 -6 46.35 6.27
3 4 -6 77.83 7.63
3 -4 -6 44.5 6.55
3 4 -6 64.79 7.15
3 -4 -6 46.98 6.44
3 -4 -5 561.72 28.5
3 4 -5 594.5 25.81
3 4 -5 578.18 25.96
3 -4 -5 562.76 28.75
3 -4 -5 566.09 28.37
3 4 -5 574.98 28.18
3 4 -5 552.64 28.43
3 -4 -5 547.13 27.24
3 -4 -5 569.96 28.32
3 4 -4 265.12 12.58
3 -4 -4 252.68 15.2
3 -4 -4 247.89 15.44
3 -4 -4 234.91 13.7
3 4 -4 256.78 12.02
3 4 -4 252.63 14.8
3 4 -4 271.15 15.64
3 -4 -4 222.48 14.61
3 4 -4 279.71 12.88
3 -4 -4 241.42 14.92
3 -4 -3 60.12 6.5
3 -4 -3 49.39 4.93
3 4 -3 51.33 4.17
3 4 -3 54.93 5.98
3 4 -3 53.77 6.23
3 4 -3 57.42 4.41
3 -4 -3 57.48 5.99
3 -4 -2 167.93 9.17
3 4 -2 123.79 6.69
3 4 -2 136.36 8.16
3 4 -2 126.69 9.49
3 4 -2 130.24 9.91
3 -4 -2 141.16 6.35
3 -4 -2 173.55 10.3
3 -4 -1 108.22 7.83
3 4 -1 121.5 7.8
3 4 -1 119.2 9.06
3 4 -1 130.27 9.5
3 4 0 24.83 3.63
3 -4 0 13.59 3.74
3 4 0 23.16 3.69
3 -4 0 10.24 3.17
3 -4 1 544.2 27.74
3 4 1 593.71 25.02
3 -4 1 549.34 27.16
3 -4 1 558.74 27.81
3 4 1 601.23 27.52
3 4 1 561.34 26.92
3 4 1 533.89 28.25
3 4 2 438.57 24.06
3 4 2 457.65 21
3 -4 2 481.08 23.39
3 -4 2 509.13 23.85
3 4 2 421.72 22.9
3 4 2 443.11 22.92
3 4 3 922.74 41.86
3 -4 3 948.8 44.27
3 4 3 972.35 45.26
3 -4 3 930.48 43.75
3 4 3 1000.5 43.93
3 4 3 997.4 44.4
3 4 4 150.42 9.77
3 -4 4 181.68 11.49
3 4 4 152.93 11.97
3 4 4 168.09 11.68
3 4 4 143.62 10.62
3 4 4 161.58 11.8
3 4 5 361.13 19.44
3 -4 5 357.67 20.21
3 4 5 390.71 21.33
3 4 5 374.23 19.97
3 4 5 390.96 22.07
3 -4 5 372.62 21.33
3 4 6 9.84 4.87
3 -4 6 4.07 3.94
3 -4 6 7.68 4
3 4 6 7.95 4.75
3 4 6 2.83 3.39
3 -4 7 709.6 36.41
3 -4 7 753.3 35.51
3 4 7 762.65 37.47
3 4 7 714.46 34.35
3 4 7 702.82 37.83
3 -4 7 735.9 37.49
3 -4 8 17.39 5.96
3 -4 8 18.01 5.59
3 4 8 11.43 5.96
3 -4 8 19.42 5.12
3 4 8 10.2 6.2
3 4 8 9.81 3.72
3 -4 9 151.9 13
3 4 9 154.92 13.48
3 -4 9 135.55 11.15
3 4 9 149.16 13.82
3 -4 9 135.98 12.99
3 4 10 11.51 7.42
3 4 10 19.57 6.91
3 -5 -11 23.82 6.24
3 5 -11 22 7.7
3 -5 -11 23.58 7.6
3 -5 -10 260.51 17.88
3 5 -10 279.9 17.56
3 5 -10 264.29 17.47
3 5 -10 296.52 19.75
3 -5 -10 279.26 17.4
3 -5 -10 241.91 18.26
3 -5 -10 263.92 17.74
3 -5 -9 24.85 5.61
3 5 -9 26.53 5.92
3 5 -9 21.05 5.89
3 -5 -9 32.22 6.15
3 5 -9 19.66 6.29
3 5 -9 23.85 4.44
3 -5 -9 18.18 6.44
3 5 -8 306.42 18.61
3 5 -8 310.01 19.11
3 -5 -8 301.9 18.3
3 -5 -8 280.83 18.2
3 -5 -8 272.62 17.92
3 -5 -7 235.44 15.45
3 5 -7 212.39 14.87
3 5 -7 221.88 15.21
3 -5 -7 203.73 14.68
3 -5 -7 206.34 14.36
3 -5 -7 219.36 14.63
3 -5 -7 208.29 14.34
3 -5 -6 529.6 27.03
3 5 -6 476.57 23.79
3 -5 -6 551.23 27.03
3 5 -6 449.6 26.43
3 -5 -6 543.11 27.37
3 5 -6 480.13 26.57
3 -5 -6 541.14 26.7
3 -5 -6 520.2 26.27
3 -5 -5 13.78 4.29
3 5 -5 11.79 2.27
3 5 -5 10.78 2.73
3 -5 -5 10.25 4.65
3 5 -5 11.87 1.47
3 -5 -5 11.82 4.81
3 -5 -5 19.4 4.88
3 5 -5 15.91 5.21
3 5 -5 16.69 5.17
3 -5 -5 9.95 4.4
3 5 -4 185.25 9.37
3 5 -4 169.45 9.35
3 -5 -4 224.11 13.23
3 -5 -4 225.83 13.97
3 5 -4 180.91 9.74
3 -5 -4 208.27 12.43
3 5 -4 170.72 12.85
3 5 -4 158.83 12.39
3 -5 -4 212.63 13.44
3 -5 -4 241.72 13.54
3 5 -3 91.01 4.85
3 -5 -3 93.57 8.6
3 -5 -3 101.02 7.83
3 5 -3 89.81 6.24
3 5 -3 88.13 8.14
3 5 -3 84.25 8.44
3 5 -3 89.22 5.49
3 -5 -3 101.81 8.3
3 -5 -2 83.75 6.72
3 5 -2 61.99 5.5
3 5 -2 51.94 6.8
3 -5 -2 84.5 7.17
3 5 -2 59.37 7.12
3 -5 -1 333.74 17.81
3 -5 -1 312.86 18.57
3 5 -1 345.45 17.33
3 5 -1 329.46 18.81
3 5 -1 315.22 18.95
3 -5 -1 334.4 17.8
3 5 0 99.74 4.87
3 -5 0 84.36 7.54
3 -5 0 77.92 8
3 5 0 114.41 7.9
3 5 0 107.27 7.83
3 5 1 130.54 6.8
3 -5 1 133.39 9.67
3 -5 1 119.83 9.75
3 5 1 134.37 9.55
3 5 1 124.1 10.46
3 5 1 127.59 9.41
3 5 2 528.21 23.15
3 -5 2 468.53 25.76
3 -5 2 488.16 26.01
3 5 2 519.24 25.95
3 5 2 524.93 26.15
3 5 2 525.53 27.24
3 5 3 109.99 9.89
3 -5 3 91.38 8.82
3 -5 3 99.07 8.76
3 5 3 119.81 9.69
3 -5 4 253.44 16.14
3 -5 4 232.36 15.84
3 5 4 251.1 16.81
3 -5 4 266.44 15.74
3 5 4 245.39 14.95
3 5 4 248.63 16.22
3 -5 5 109.48 9.37
3 5 5 108.29 10.15
3 5 5 107.64 10.57
3 5 5 117.96 9.31
3 5 5 102.12 10.41
3 -5 5 99.01 9.55
3 -5 6 399.21 20.79
3 5 6 341.32 21.47
3 5 6 357.67 19.82
3 5 6 341.52 22.03
3 -5 6 362.41 21.81
3 5 7 67.4 9.28
3 -5 7 57.7 7.96
3 -5 7 57.95 8
3 -5 7 60.66 7.3
3 5 7 57.07 8.48
3 5 7 65.95 6.99
3 5 8 123.33 11.88
3 5 8 100.18 12.34
3 -5 8 133.3 11.7
3 -5 8 126.58 10.4
3 5 8 118.56 10.89
3 5 8 97.78 11.5
3 5 8 107.77 8.89
3 -5 8 135.13 12.23
3 -5 9 7.92 6.24
3 5 9 12.47 6.67
3 -5 9 7.32 5.5
3 5 9 8.75 6.45
3 5 9 14.58 6.7
3 5 9 13.9 6.06
3 5 10 50.31 10.74
3 -6 -11 56.67 8.77
3 -6 -10 25.23 6.6
3 6 -10 51.21 7.81
3 6 -10 51.85 8.21
3 6 -10 49.23 9.15
3 -6 -10 30.44 7.86
3 -6 -9 84.27 9.51
3 6 -9 90.83 12.41
3 6 -9 95.45 10.28
3 -6 -9 86.25 9.31
3 6 -9 101.57 11.33
3 -6 -9 65.43 9.87
3 -6 -8 35.56 6.48
3 6 -8 38.83 8.75
3 6 -8 42.97 7.77
3 -6 -8 31.99 6.77
3 6 -8 43.77 7.95
3 -6 -8 27.71 7.02
3 -6 -7 247.6 16.58
3 6 -7 222.44 16.8
3 -6 -7 264.93 17.12
3 6 -7 245.1 17.29
3 -6 -7 237.38 16.65
3 -6 -7 252.65 16.27
3 -6 -7 254.53 16.73
3 6 -7 259.55 18.87
3 -6 -6 50.08 7.26
3 -6 -6 63.03 7.58
3 6 -6 60.55 8.34
3 -6 -6 54.99 7.77
3 -6 -6 57.69 7.03
3 6 -6 64.77 8.5
3 -6 -6 47.42 7.44
3 -6 -5 1061.74 48.12
3 6 -5 1010.05 43.24
3 6 -5 1016.8 49.27
3 -6 -5 1037.57 49
3 -6 -5 1035.88 47.75
3 -6 -5 1005.74 47.74
3 6 -5 1051.93 48.97
3 -6 -5 1062.61 49.01
3 -6 -4 181.75 12.3
3 -6 -4 174.28 13.15
3 6 -4 149.48 9.4
3 -6 -4 189.43 12.38
3 6 -4 154.27 12.98
3 6 -4 158.02 12.69
3 -6 -4 200.07 13.71
3 -6 -4 193.27 12.48
3 -6 -3 932.12 41.54
3 -6 -3 945.13 41.33
3 6 -3 909.18 39.19
3 6 -3 912.29 42.97
3 6 -3 923.63 42.59
3 6 -3 817.29 36.66
3 -6 -3 950.6 41.34
3 -6 -2 85.5 7.88
3 6 -2 59.2 6.1
3 6 -2 81.01 8.73
3 6 -2 62.41 7.92
3 -6 -2 88.9 7.63
3 -6 -1 949.94 43.84
3 -6 -1 930.2 44.84
3 6 -1 954.7 42.98
3 6 -1 986.6 45.47
3 -6 -1 932.38 43.24
3 -6 0 97.44 8.28
3 -6 0 83.3 8.47
3 6 0 70.65 7.13
3 6 1 335.44 18.65
3 -6 1 350.21 19.04
3 -6 1 338.03 19.28
3 6 1 343.55 18.65
3 6 1 309.62 14.51
3 6 1 351.34 20.18
3 6 2 46.97 6.67
3 6 2 44.98 3.94
3 -6 2 67.46 7.6
3 6 2 50.11 6.51
3 -6 2 61.36 7.27
3 6 2 48.01 7.11
3 6 3 415.24 23.58
3 -6 3 402.33 22.87
3 -6 3 413.55 22.9
3 -6 3 418.78 22.66
3 6 3 353.97 21.99
3 6 3 415.11 19.52
3 6 3 402.54 22.88
3 6 4 7.08 4.79
3 -6 4 26.86 5.78
3 -6 4 26.38 5.45
3 -6 4 25.09 5.55
3 6 4 15.6 3.73
3 6 4 13.91 5.65
3 6 5 1.05 5.3
3 -6 5 0.95 3.87
3 -6 5 1.98 4.1
3 -6 5 4.07 4.46
3 6 5 -0.49 4.61
3 6 5 2.91 3.47
3 6 5 1.14 3.72
3 6 5 3.6 4.7
3 6 6 38.35 8.53
3 -6 6 52.79 7.43
3 -6 6 63.22 7.31
3 6 6 38.53 7.36
3 6 6 30.29 5.65
3 6 6 44.78 6.28
3 6 7 102.22 10.91
3 -6 7 102.08 10.41
3 -6 7 96.57 9.34
3 6 7 123.08 12.07
3 6 7 99.96 9.35
3 6 7 106.71 9.15
3 6 7 111.6 11.94
3 -6 7 93.64 10.44
3 6 8 11.98 7.22
3 -6 8 16.84 6.18
3 6 8 13.83 6.24
3 -6 8 11.72 5.78
3 -6 8 14.79 5.14
3 6 8 8.87 6.33
3 6 8 8.7 5.31
3 -6 9 27.52 7.4
3 -6 9 40.68 7.86
3 6 9 44.66 8.45
3 6 9 25.45 8.6
3 6 9 36.31 7.54
3 -7 -10 25.64 7.1
3 7 -10 13.59 6.74
3 7 -10 14.46 7.28
3 -7 -10 31.85 7.67
3 7 -10 15.7 8.27
3 -7 -10 18.19 7.96
3 -7 -9 21.85 6.61
3 7 -9 2.44 7.09
3 7 -9 8.93 7
3 -7 -9 15.73 6.26
3 7 -9 7.65 7.35
3 -7 -9 12.5 6.75
3 7 -8 263.76 18.3
3 7 -8 249.7 18.29
3 -7 -8 220.8 16.49
3 -7 -8 205.75 16.39
3 -7 -8 225.71 16.66
3 -7 -7 8.14 5.15
3 -7 -7 14.61 5.76
3 7 -7 13.17 5.98
3 -7 -7 10.34 5.37
3 -7 -7 10.26 4.61
3 7 -7 7.88 6.89
3 -7 -7 6.46 5.98
3 -7 -6 526.24 28.94
3 7 -6 615.17 31.34
3 -7 -6 529.91 29.87
3 -7 -6 506.78 29.11
3 7 -6 595.22 30.98
3 -7 -6 516.37 28.3
3 -7 -6 575.13 30.19
3 -7 -5 27.21 6.95
3 -7 -5 29.7 5.93
3 7 -5 18.79 2.92
3 -7 -5 32.04 6.59
3 -7 -5 27.16 5.68
3 7 -5 30.1 6.8
3 -7 -5 27.92 6.4
3 7 -5 28.45 6.86
3 -7 -4 824.68 39.75
3 -7 -4 801.73 39.66
3 7 -4 849.9 37.21
3 -7 -4 813 41.16
3 -7 -4 818.1 40.43
3 7 -4 873.43 42.35
3 7 -4 835.29 41.54
3 -7 -4 806.67 41.47
3 -7 -3 131.95 10.49
3 -7 -3 119.89 10.63
3 7 -3 115.38 9.04
3 7 -3 137 12.31
3 7 -3 137.07 12
3 -7 -3 130.65 11.79
3 -7 -3 141.53 10.56
3 -7 -2 606.81 31.01
3 -7 -2 618.3 32.17
3 7 -2 634.44 29.75
3 7 -2 622.78 32.68
3 7 -2 651.14 32.84
3 -7 -2 660.2 30.5
3 -7 -2 575.83 26.82
3 -7 -1 112.05 9.98
3 -7 -1 116.52 10.75
3 7 -1 132.44 9.62
3 7 -1 136.64 11.69
3 -7 -1 112.03 6.08
3 -7 -1 125.81 9.59
3 -7 0 496.47 26.26
3 -7 0 520.5 27.18
3 7 0 497.56 25.64
3 7 0 502.08 27.85
3 7 0 419.37 26.75
3 -7 0 513.83 24.91
3 -7 1 76.54 8.25
3 -7 1 83.85 9.02
3 7 1 94.08 8.84
3 7 1 94.85 9.95
3 -7 2 325.9 18.29
3 -7 2 342.58 18.83
3 7 2 253.04 13.11
3 7 2 278.55 17.45
3 7 2 275.6 18.41
3 7 2 254.48 17.19
3 -7 3 97.13 9.94
3 -7 3 113.68 10.38
3 -7 3 100.38 9.89
3 7 3 98.17 6.85
3 7 3 101.51 10.05
3 7 3 99.1 10.25
3 7 3 97.84 10.27
3 -7 4 147.06 11.75
3 7 4 114.51 11.38
3 -7 4 136.96 11.54
3 -7 4 134.63 11.4
3 7 4 103.8 8.23
3 7 4 114.35 11.55
3 -7 5 163.61 13.39
3 -7 5 164.01 13.55
3 7 5 167.29 13.92
3 -7 5 176.63 12.86
3 7 5 128.14 12.73
3 7 5 144.97 10.59
3 7 5 172.96 12.47
3 7 5 177.06 14.56
3 7 6 58.92 8.5
3 -7 6 44.81 7.9
3 7 6 45.28 7.24
3 7 6 60.13 9.41
3 -7 6 43.02 6.83
3 -7 6 41.73 7.67
3 7 6 42.88 8.03
3 7 6 52.11 6.44
3 7 6 51.16 6.73
3 7 7 25.56 8.5
3 -7 7 41.81 7.84
3 7 7 37.18 7.72
3 -7 7 39.18 7.1
3 -7 7 35.61 6.59
3 7 7 54.14 9.52
3 7 7 33.18 6.11
3 7 7 28.87 5.81
3 -7 8 20.61 7.24
3 7 8 26.09 7.57
3 -7 8 16.4 6.79
3 7 8 31.66 9.22
3 7 8 27.16 8.42
3 7 8 26.93 6.1
3 7 9 18.95 6.37
3 8 -10 2.65 6.56
3 8 -10 -2.23 8.75
3 8 -9 192.73 17.09
3 8 -9 210.45 18.03
3 -8 -9 207.38 16.38
3 -8 -9 195.38 16.84
3 -8 -9 221.53 16.75
3 -8 -8 6.35 5.95
3 8 -8 15.82 7.48
3 -8 -8 3.43 5.67
3 8 -8 7.96 7.32
3 -8 -8 5.85 6.43
3 8 -7 172.17 15.71
3 -8 -7 198.24 15.44
3 -8 -7 173.88 14.89
3 8 -7 178.45 16.06
3 -8 -7 182.49 13.75
3 -8 -7 189.51 15.1
3 -8 -6 58.09 8.79
3 -8 -6 63.71 8.31
3 -8 -6 61 9.06
3 8 -6 53.18 9.38
3 -8 -6 71.22 8.22
3 -8 -6 62.11 9.04
3 8 -6 58.46 9.47
3 -8 -5 181.78 13.25
3 8 -5 157.23 9.53
3 8 -5 175.64 15.11
3 -8 -5 165.1 13.65
3 -8 -5 174.72 14.2
3 -8 -5 178.57 12.77
3 8 -5 158.59 14.21
3 -8 -5 175.8 14.4
3 -8 -4 25.02 6.83
3 8 -4 35.41 8.13
3 -8 -4 14.85 4.69
3 8 -4 33.14 4.89
3 -8 -4 15.09 5.23
3 8 -4 35.46 7.7
3 -8 -4 19.01 6.06
3 -8 -3 31.98 7.45
3 8 -3 55.22 8.9
3 -8 -3 39.85 6.36
3 -8 -3 46.97 6.81
3 8 -3 44.45 6.03
3 -8 -3 32.01 6.64
3 8 -3 41.71 7.8
3 -8 -2 16.28 4.52
3 -8 -2 18.19 2.99
3 -8 -2 16.01 6.12
3 8 -2 21.38 5.3
3 -8 -2 10.57 5.2
3 8 -2 12.63 5.91
3 8 -2 16.69 6.31
3 8 -1 146.83 7.67
3 -8 -1 129.67 11.8
3 -8 -1 148.74 12.51
3 8 -1 168.71 11.85
3 8 -1 173.57 14.02
3 -8 -1 125.85 7.44
3 -8 -1 142.41 10.56
3 8 0 71.4 5.6
3 -8 0 63.64 6.96
3 8 0 82.39 9.68
3 8 0 87.01 8.59
3 -8 0 59.96 8.51
3 -8 0 74.91 8.51
3 8 0 87.98 10.66
3 8 1 76.93 6.42
3 -8 1 79.18 8.89
3 -8 1 87.77 9.29
3 8 1 80.83 8.93
3 8 1 102.79 10.57
3 -8 1 75.15 7.41
3 8 2 64.72 6.41
3 -8 2 54.07 7.85
3 -8 2 54.92 8
3 8 2 60.32 8.84
3 8 2 63.18 8.4
3 -8 2 61.13 8.13
3 -8 3 324.53 21.65
3 8 3 362.04 20.07
3 -8 3 342.28 22.07
3 8 3 372.11 17.93
3 -8 3 383.56 22.37
3 8 3 391.49 22.96
3 8 3 415.73 23.99
3 -8 4 145.94 12.42
3 8 4 106.39 11.67
3 8 4 106.65 9.62
3 -8 4 148.93 12.43
3 -8 4 140.5 11.78
3 8 4 111.31 8.42
3 8 4 124.43 12.15
3 8 4 102.57 11.51
3 -8 5 321.72 20.81
3 8 5 309.5 18.89
3 8 5 325.71 21.36
3 -8 5 312.14 20.85
3 -8 5 329.66 19.75
3 8 5 308.96 17.29
3 8 5 294.43 21.44
3 8 6 55.19 10.43
3 8 6 52.16 8.63
3 -8 6 53.38 8.48
3 8 6 46.91 7.84
3 -8 6 56.38 7.7
3 8 6 45.69 8.53
3 -8 6 57.36 8.71
3 8 6 49.1 6.67
3 8 6 49.8 7.46
3 8 7 337.22 21.39
3 -8 7 319.51 20.48
3 -8 7 322.98 19.64
3 8 7 318.75 19.34
3 8 7 334.4 22.99
3 8 7 312.68 19.48
3 8 7 360.72 24.79
3 -8 7 309.79 21.87
3 -8 8 33.06 8.13
3 8 8 27.36 7.91
3 -8 8 42.53 7.59
3 8 8 18.1 6.23
3 9 -9 28.99 9.33
3 -9 -9 16.74 8.02
3 9 -9 23.85 9.82
3 -9 -8 132.45 14.05
3 9 -8 151.95 15.73
3 9 -8 105.75 14.08
3 -9 -8 154.55 13.99
3 -9 -7 26.14 7.59
3 9 -7 31.77 8.93
3 -9 -7 30.76 7.8
3 -9 -7 46.42 8.85
3 9 -7 33.85 9.24
3 -9 -6 99.86 9.76
3 -9 -6 94.55 10.73
3 9 -6 69.64 4.39
3 -9 -6 94.41 9.46
3 -9 -6 104.99 11.27
3 9 -6 79.24 11.49
3 -9 -6 80.05 10.33
3 9 -6 91.06 11.82
3 -9 -5 31.92 7.96
3 -9 -5 36.32 6.63
3 9 -5 33.87 4.59
3 -9 -5 34.79 7.78
3 -9 -5 39.27 6.36
3 9 -5 35.16 8.58
3 -9 -5 31.99 7.51
3 9 -5 34.91 8.85
3 -9 -4 6.75 6.13
3 -9 -4 19.61 4.99
3 9 -4 10.82 4.29
3 -9 -4 8.89 4.04
3 9 -4 12.12 6.77
3 -9 -4 19.83 6.39
3 9 -4 7.76 6.28
3 -9 -3 51.58 8.86
3 -9 -3 60.46 7.28
3 -9 -3 55.73 7.08
3 9 -3 50.87 6.82
3 -9 -3 49.26 8.68
3 -9 -3 52.76 8.37
3 9 -3 52.42 8.93
3 9 -3 50.49 9.32
3 -9 -2 63.06 7.47
3 9 -2 94.84 8.89
3 -9 -2 77.74 9.63
3 -9 -2 64.79 8.82
3 9 -2 87.83 10.92
3 -9 -2 65.09 5.59
3 9 -2 103.85 11.6
3 -9 -1 139.28 12.38
3 -9 -1 144.1 13.09
3 9 -1 144.22 11.6
3 9 -1 157.82 14.27
3 -9 -1 151.41 8.26
3 9 -1 133.37 7.28
3 -9 -1 146.72 10.63
3 9 0 167.55 9.16
3 -9 0 129.81 12.25
3 -9 0 132.36 12.74
3 9 0 164 12.87
3 9 0 186.07 15.47
3 9 0 168.88 14.19
3 -9 0 134.53 10.46
3 -9 1 22.97 4.98
3 9 1 17.63 3.82
3 9 1 17.04 6.2
3 -9 1 25.63 7.26
3 9 1 23.89 6.45
3 -9 1 22.72 5.92
3 9 2 462.78 22.47
3 -9 2 417.65 25.58
3 -9 2 438.72 25.89
3 -9 2 390.13 24.72
3 9 2 450.26 25.9
3 9 2 493.97 27.47
3 -9 2 417.38 22.19
3 9 3 76.13 7.57
3 -9 3 64.99 8.99
3 -9 3 61.46 8.97
3 9 3 79.56 9.76
3 -9 3 77.73 9.9
3 9 3 66.14 10.01
3 -9 3 68.79 6.93
3 -9 4 387 23.42
3 9 4 358.14 20.86
3 -9 4 367.17 23.63
3 -9 4 382.62 22.7
3 9 4 349.76 23.49
3 9 4 391 24.29
3 -9 5 22.85 6.57
3 9 5 23.27 5.81
3 9 5 30.85 5.46
3 -9 5 29.61 6.74
3 -9 5 22.32 6.47
3 9 5 10.22 6.18
3 9 5 24.35 7.84
3 9 6 415.06 24.69
3 -9 6 468.46 27.5
3 9 6 429.16 26.52
3 9 6 382.36 22.31
3 -9 6 435.4 24.57
3 9 6 386.3 26.47
3 9 6 433.98 28.26
3 -9 6 463.52 26.51
3 -9 7 0.64 5.68
3 9 7 6.21 6.3
3 -9 7 6.34 6.12
3 9 7 -0.84 4.96
3 9 7 -1.3 6.44
3 -9 8 135.67 12.8
3 -10 -8 6.25 7.5
3 10 -8 10.48 8.9
3 10 -7 123.66 14.84
3 -10 -7 108.12 13.17
3 10 -7 128.77 15.04
3 -10 -6 40.08 8.56
3 -10 -6 20.31 7.58
3 10 -6 25.02 9.5
3 -10 -6 21.95 5.99
3 -10 -6 31.96 8.5
3 10 -6 33.75 9.67
3 -10 -5 131.87 11.66
3 10 -5 148.64 9.56
3 -10 -5 120.72 13.05
3 10 -5 135.3 14.54
3 -10 -5 116.85 12.99
3 -10 -5 137.82 11.46
3 10 -5 124.06 14.17
3 -10 -5 146.99 14.19
3 -10 -4 96.42 9.42
3 -10 -4 71.32 10.75
3 10 -4 85.31 8.28
3 -10 -4 96.18 9.49
3 10 -4 92.24 12.26
3 -10 -4 94.41 11.38
3 10 -4 74.52 11.57
3 -10 -3 331.59 18.88
3 -10 -3 345.6 19.55
3 -10 -3 332.46 21.59
3 10 -3 324.05 18.89
3 -10 -3 286.5 20.67
3 10 -3 328.38 22.91
3 10 -3 308.85 22.74
3 -10 -3 332.91 22.57
3 -10 -3 268.67 16.39
3 -10 -2 93.04 8.48
3 -10 -2 75.51 8.64
3 10 -2 75.55 8.9
3 -10 -2 71.01 9.9
3 -10 -2 79.56 10.04
3 -10 -2 69.22 6.12
3 10 -2 70.42 10.99
3 -10 -1 202.46 16.2
3 10 -1 202.48 15.36
3 -10 -1 204.8 16.6
3 10 -1 235.49 18.56
3 10 -1 192.37 17.19
3 -10 -1 211.91 11.49
3 -10 -1 230.46 14.02
3 10 0 39.96 8.09
3 10 0 34.3 3.93
3 -10 0 39.23 5.63
3 -10 0 59.4 8.92
3 10 0 28.66 7.05
3 -10 0 38.94 7.71
3 10 0 34.4 8.81
3 -10 1 218.53 16.48
3 -10 1 226.54 16.67
3 10 1 195.45 15.81
3 10 1 187.04 16.34
3 -10 1 220.16 13.14
3 10 1 185.26 11.66
3 10 2 84.6 8.02
3 -10 2 103.62 11.17
3 -10 2 120.22 11.85
3 -10 2 118.87 12.09
3 10 2 107.84 12.28
3 10 2 93.33 11.15
3 -10 2 119.21 8.88
3 10 3 178.72 12.57
3 -10 3 203.44 16.12
3 -10 3 192.12 15.85
3 -10 3 179.88 14.68
3 10 3 175.76 15.57
3 10 3 193.53 16.47
3 -10 3 181.22 11.84
3 10 4 38.38 8.59
3 10 4 45.81 6.93
3 -10 4 58.19 8.89
3 -10 4 43.61 8.45
3 10 4 48.48 9.7
3 -10 4 45.74 8.58
3 10 5 80.12 9.08
3 -10 5 87.72 11.08
3 10 5 70.99 10.61
3 -10 5 77.83 9.64
3 10 5 66.55 10.8
3 -10 5 74.11 10.75
3 10 6 25.23 7.49
3 -10 6 34.34 8.18
3 10 6 29.71 8.19
3 -10 6 52.93 8.52
3 10 7 99.81 11.49
3 -10 7 91.95 10.63
3 10 7 88.79 11.87
3 -11 -7 4.39 8.28
3 -11 -6 174.44 16.19
3 -11 -6 149.35 12.96
3 11 -6 154.39 17.09
3 -11 -5 8.66 5.34
3 -11 -5 9.66 7.5
3 11 -5 10.54 9.24
3 -11 -4 505 27.7
3 11 -4 540.09 27.22
3 -11 -4 511.77 30.83
3 -11 -4 523.73 27.78
3 -11 -4 518.58 31.22
3 11 -4 538.63 33.12
3 11 -4 539.72 32.97
3 -11 -4 462.08 31.02
3 -11 -3 14.66 8.12
3 -11 -3 20.97 5.58
3 -11 -3 12.55 4.25
3 11 -3 20.45 6.05
3 -11 -3 11.36 5.34
3 -11 -3 13.99 7.26
3 -11 -3 24.4 7.69
3 11 -3 38.25 9.33
3 11 -3 24.47 9.76
3 -11 -2 315.06 18
3 -11 -2 288.48 18.37
3 -11 -2 282.96 20.76
3 11 -2 307.02 19.29
3 -11 -2 309.21 21.35
3 11 -2 293.8 22.52
3 -11 -2 287.48 15.62
3 -11 -1 34.11 4.32
3 -11 -1 43.77 6.25
3 11 -1 44.66 8
3 -11 -1 42.18 8.55
3 -11 -1 25.76 8.05
3 11 -1 43.65 9.73
3 11 -1 34.19 8.52
3 -11 0 230.19 13.53
3 -11 0 229.48 17.56
3 11 0 212 16.58
3 -11 0 214.55 17.25
3 11 0 228.29 19.34
3 11 0 210.16 18.03
3 11 0 185.92 10.44
3 11 1 25.85 4.46
3 -11 1 23.84 4.82
3 11 1 37.95 8.87
3 11 1 25.3 7.75
3 -11 1 27.72 8.36
3 -11 1 20.13 7.2
3 -11 2 182.07 15.35
3 -11 2 171.78 15.2
3 11 2 154.73 15.21
3 -11 2 173.8 15.07
3 11 2 168.01 15.76
3 11 2 135.85 10.51
3 11 3 10.59 4.68
3 -11 3 5.88 6.6
3 -11 3 0.59 5.93
3 11 3 4.87 7.42
3 -11 3 6.84 6.2
3 11 3 0.72 6.71
3 11 4 62.4 8.02
3 -11 4 80.93 10.92
3 -11 4 92.92 11.07
3 11 4 84.09 11.94
3 -11 4 80.01 10.69
3 11 4 52.71 10.43
3 11 5 13.58 5.52
3 11 6 73.06 9.9
3 -12 -6 31.33 9.59
3 -12 -5 90.23 12.64
3 -12 -4 1.47 6.59
3 12 -3 136.09 11.99
3 -12 -3 129.32 11.02
3 -12 -3 110.85 13.41
3 -12 -2 66.19 7.78
3 12 -2 80.61 9.9
3 -12 -2 66.21 8.43
3 -12 -2 77.84 11.42
3 -12 -1 30.76 6.21
3 12 -1 37.65 8.5
3 -12 -1 26.58 8.62
3 -12 -1 38.29 9.14
3 12 0 63.16 10.13
3 -12 0 84.67 11.44
3 -12 0 88.71 11.71
3 -12 1 110.48 13.13
3 -12 1 120.72 13.28
3 12 1 129.46 14.11
3 -12 1 146.05 14.48
3 -12 2 4.94 6.79
3 12 2 0.71 6.63
3 -12 2 7.61 7.37
3 -12 2 2.9 6.35
3 -12 3 88.37 11.27
3 13 -2 4.67 6.75
3 13 -1 6.35 6.66
3 13 0 51.9 10.16
3 13 1 16.02 8.97
4 0 -11 -2.11 6.86
4 0 -11 0.5 5.7
4 0 -10 608.7 31.31
4 0 -10 582.98 28.74
4 0 -10 629 34.1
4 0 -10 586.51 28.46
4 0 -9 0.57 4.88
4 0 -9 2.09 2.97
4 0 -9 1.69 4.13
4 0 -9 1.66 4.01
4 0 -9 0.84 2.31
4 0 -9 0.24 2.96
4 0 -8 820.59 39.61
4 0 -8 827.3 36.64
4 0 -8 811.33 36.71
4 0 -8 825.13 36.91
4 0 -8 824.72 41.35
4 0 -8 842.59 36.68
4 0 -7 1.87 1.88
4 0 -7 4.01 4.45
4 0 -7 3.96 3.77
4 0 -7 1.73 2.77
4 0 -7 1.4 1.79
4 0 -7 4.89 2.93
4 0 -6 1423.84 60.03
4 0 -6 1308.03 57.18
4 0 -6 1522.66 61.78
4 0 -6 1343.27 57.21
4 0 -6 1474.43 61.93
4 0 -6 1432.58 60.37
4 0 -6 1440.7 62.68
4 0 -6 1444.56 58.13
4 0 -5 3.82 1.38
4 0 -5 7.05 3.85
4 0 -5 6.93 3.41
4 0 -5 1.92 2.71
4 0 -5 4.41 3.12
4 0 -5 4.07 2.92
4 0 -4 574.94 25.55
4 0 -4 521.69 25.93
4 0 -4 513.66 25.78
4 0 -4 528.19 23.04
4 0 -4 527.54 26.37
4 0 -4 522.64 26.29
4 0 -3 2.4 1.29
4 0 -3 3.58 2.47
4 0 -3 -0.29 2.54
4 0 -2 531.16 23.58
4 0 -2 534.45 25.6
4 0 -2 543.43 26.4
4 0 -1 2.08 1.58
4 0 0 358.96 17.5
4 0 1 0.67 2.22
4 0 1 0.66 2.75
4 0 2 842.13 40.18
4 0 2 870.45 39.2
4 0 3 1.57 3.05
4 0 3 2.2 3.64
4 0 3 -0.72 3.21
4 0 4 193.41 14.07
4 0 4 176.41 12.61
4 0 4 187.78 12.74
4 0 5 6.99 4.07
4 0 5 5.14 4.7
4 0 5 0.37 4.06
4 0 6 1330.01 58.44
4 0 6 1252.94 60.28
4 0 6 1277.93 57.74
4 0 6 1227.68 58.9
4 0 7 0.88 4
4 0 7 -2.37 5.06
4 0 7 4.57 4.2
4 0 8 225.87 16.7
4 0 8 245.04 18.28
4 0 8 244.03 16.17
4 0 9 5.82 5.77
4 0 9 1.08 5.4
4 0 9 4.73 6.02
4 0 9 -2.45 5.07
4 0 10 260.15 20.18
4 0 10 257.41 18.02
4 -1 -11 185.23 14.72
4 1 -11 217.75 15.03
4 -1 -11 167.91 15.74
4 1 -11 173.77 16.53
4 -1 -11 182.54 12.48
4 1 -10 164.29 9.97
4 -1 -10 144.49 12.32
4 1 -10 160.3 12.15
4 -1 -10 134.97 9.87
4 1 -10 157.64 10.95
4 -1 -10 134.61 9.18
4 -1 -10 140.34 13.35
4 1 -10 177.77 15.27
4 -1 -10 135.58 10.17
4 1 -9 406.35 19.62
4 1 -9 406.53 22.6
4 -1 -9 416.55 23.24
4 -1 -9 397.46 19.92
4 1 -9 407.71 20.79
4 -1 -9 389.49 20.1
4 -1 -9 409.98 24.36
4 1 -9 407.78 19.3
4 1 -9 412.52 25.25
4 -1 -9 395.29 20.5
4 -1 -8 226.71 15.39
4 1 -8 255.66 15.08
4 1 -8 214.28 11.02
4 -1 -8 218.04 11.93
4 1 -8 230.29 12.84
4 -1 -8 221.12 13.09
4 1 -8 226.82 11.22
4 -1 -8 227.76 12.64
4 1 -8 254.43 13.2
4 -1 -8 234.22 16.04
4 1 -8 251.34 17.1
4 -1 -8 224.36 12.83
4 1 -8 243.58 11.95
4 -1 -7 258.61 15.25
4 1 -7 205.17 13.67
4 1 -7 198.73 11.21
4 -1 -7 233.68 11.08
4 1 -7 208.44 11.72
4 -1 -7 250.89 13.66
4 1 -7 212.84 11.51
4 -1 -7 244.51 14.75
4 -1 -7 232.29 11.49
4 1 -7 208.89 12.77
4 -1 -7 237.1 15.4
4 -1 -7 241.59 13.02
4 1 -7 225.51 15.89
4 -1 -7 245.42 12.45
4 1 -7 212.81 10.83
4 1 -6 108.83 6.63
4 1 -6 111.56 9.74
4 -1 -6 73.25 4.36
4 1 -6 108.26 6.75
4 -1 -6 83.65 7.33
4 1 -6 101.23 5.69
4 -1 -6 93.93 8.29
4 -1 -6 69.29 4.45
4 1 -6 116.67 8.37
4 1 -6 106.73 7.62
4 -1 -6 79.37 7.01
4 -1 -6 83.26 8.15
4 -1 -6 80.12 6
4 -1 -6 93.28 8.33
4 1 -6 105.57 8.4
4 1 -6 95.96 4.77
4 1 -5 789.54 36.32
4 -1 -5 858.43 35.24
4 1 -5 817.93 36.39
4 -1 -5 855.43 37.74
4 -1 -5 899.93 38.66
4 1 -5 827.47 37.49
4 1 -5 731.86 34.01
4 1 -5 789.75 37.44
4 -1 -5 886.67 37.89
4 -1 -5 865.86 38.26
4 -1 -5 877.65 35.93
4 1 -5 837.16 39.38
4 1 -5 825.44 37.94
4 -1 -5 890.93 38.99
4 -1 -4 167.63 9
4 1 -4 142.09 9.46
4 1 -4 137.93 9.01
4 -1 -4 174.16 10.88
4 -1 -4 167.06 10.36
4 1 -4 128.63 9.43
4 1 -4 137.28 9.98
4 -1 -4 164.62 10.63
4 -1 -4 169.57 8.97
4 -1 -4 159.47 10.28
4 1 -4 133.07 9.86
4 -1 -4 169 11.11
4 -1 -3 1007.9 43.53
4 1 -3 940.95 43.4
4 1 -3 896.53 43.87
4 -1 -3 1080.33 44.73
4 1 -3 952.05 44.56
4 -1 -3 1026.79 45.01
4 -1 -3 1059.25 45.36
4 -1 -2 755.5 32.58
4 -1 -2 719.42 34
4 -1 -2 808.84 34.55
4 1 -2 729.46 34.23
4 1 -2 709.16 34.42
4 -1 -2 787.6 35.01
4 1 -2 708.69 31.15
4 -1 -1 1023.55 45.16
4 -1 -1 1096.48 47.02
4 -1 -1 1050.05 46.73
4 1 -1 1033.56 47.01
4 1 -1 1029.22 44.27
4 -1 0 258.22 15
4 1 0 244.18 12.81
4 -1 0 248.65 13.36
4 -1 1 292.66 18.56
4 1 1 387.26 19.18
4 -1 1 304.22 18.53
4 1 1 390.12 17.58
4 -1 1 316.19 17.33
4 1 2 173.94 11.85
4 -1 2 177.79 12.24
4 1 2 172.37 10.92
4 -1 2 177.02 11.22
4 -1 3 524.54 30.15
4 1 3 662.61 30.17
4 -1 3 576.08 29.73
4 1 3 649.44 29.44
4 -1 3 559.31 29
4 -1 4 214.2 15.11
4 1 4 212.61 13.73
4 -1 4 193.89 13.6
4 1 4 220.64 13.98
4 -1 4 200.47 13.6
4 1 5 446.17 22.73
4 1 5 409.96 24.37
4 -1 5 426.66 24.7
4 1 5 420.55 22.63
4 -1 5 420.97 22.83
4 1 5 407.5 23.19
4 -1 5 388.98 22.93
4 1 6 147.1 11.26
4 -1 6 127.09 11.09
4 1 6 132.41 12.47
4 -1 6 123.56 12.26
4 1 6 149.43 10.97
4 -1 6 124.99 10.63
4 1 6 134.61 11.58
4 1 7 179.88 13.43
4 -1 7 188.6 13.76
4 1 7 163.25 14.66
4 -1 7 220.32 16.15
4 1 7 174.56 13.4
4 1 7 155.92 12.02
4 1 7 172.25 14.09
4 1 8 94.92 10
4 -1 8 96.36 9.9
4 -1 8 67.27 9.5
4 1 8 91.94 11.09
4 -1 8 77.25 10.4
4 1 8 101.5 10.1
4 -1 8 83.16 8.85
4 1 8 96.4 8.68
4 -1 9 102.32 10.82
4 1 9 86.4 10.51
4 1 9 78.51 11.14
4 -1 9 116.04 12.98
4 -1 9 112.81 10.44
4 1 9 96.33 10.46
4 -1 9 114.54 11.94
4 1 10 20.59 8.07
4 1 10 16.74 6.68
4 -1 10 14.34 6.11
4 -2 -11 3.27 6.29
4 -2 -11 -0.75 3.8
4 2 -11 -0.48 5.23
4 -2 -10 4.71 5.47
4 -2 -10 5.1 3.61
4 2 -10 7.85 3.2
4 2 -10 -0.7 5.78
4 -2 -10 10.75 5.03
4 2 -10 9.76 5.05
4 2 -10 5.84 1.97
4 -2 -10 7.4 3.77
4 -2 -10 2.38 3.11
4 2 -10 5.43 4.66
4 -2 -10 4.67 4.35
4 2 -9 79.09 5.58
4 -2 -9 51.34 7.97
4 2 -9 83.21 8.03
4 -2 -9 63.77 8.48
4 2 -9 84.67 10.64
4 2 -9 80.33 5.72
4 -2 -9 53.91 5.55
4 2 -9 94.65 7.93
4 -2 -9 57.11 6.53
4 2 -9 75.92 6.12
4 2 -9 66.19 5.29
4 -2 -9 53.33 6.58
4 -2 -9 59.07 6.53
4 2 -8 64.91 6.93
4 2 -8 69.2 4.87
4 -2 -8 75.71 8.38
4 2 -8 74.43 9.5
4 -2 -8 75.33 5.6
4 2 -8 72.34 7.44
4 2 -8 77.57 6.85
4 -2 -8 76.34 7.46
4 -2 -8 77.1 6.5
4 2 -8 70.45 6.36
4 -2 -8 86.09 9.1
4 2 -8 67.48 5.76
4 -2 -8 76.07 6.72
4 -2 -7 23.2 5.38
4 -2 -7 25.77 4.13
4 -2 -7 28.11 5.77
4 2 -7 38.38 5.45
4 -2 -7 31.58 3.09
4 2 -7 39.98 7.24
4 2 -7 35.22 2.72
4 2 -7 36.75 4.47
4 -2 -7 23.88 4.96
4 -2 -7 25.72 5.53
4 2 -7 39.1 4.86
4 2 -7 37.46 4.98
4 -2 -7 30.32 3.66
4 -2 -6 579.12 24.85
4 2 -6 594.4 25.9
4 -2 -6 601.64 28.85
4 -2 -6 597.21 29.37
4 2 -6 571.84 26.48
4 -2 -6 556.84 25.21
4 2 -6 576.76 27.98
4 -2 -6 611.57 29.07
4 -2 -6 583.46 28.04
4 2 -6 560.97 27.32
4 2 -6 602.89 30.96
4 -2 -6 571.62 27.23
4 -2 -6 628.77 30
4 2 -6 577.33 28.09
4 -2 -5 25.94 3.95
4 2 -5 24.8 4.61
4 -2 -5 35.94 5.44
4 -2 -5 30.22 4.45
4 2 -5 23.67 5.62
4 2 -5 27.4 3.42
4 -2 -5 28.91 5.16
4 -2 -5 31.29 5.18
4 2 -5 27 4.26
4 2 -5 23.73 4.08
4 2 -5 24.24 4.25
4 2 -5 24.91 3.13
4 -2 -5 28.12 4.67
4 -2 -4 1646.41 68.79
4 2 -4 1634.49 69.1
4 -2 -4 1635.01 71.55
4 -2 -4 1644.2 71.25
4 2 -4 1643.08 69.79
4 2 -4 1686.92 68.15
4 2 -4 1666.98 70.95
4 -2 -4 1642.85 71.17
4 -2 -4 1654.3 69.86
4 -2 -4 1579.68 69.66
4 2 -4 1623.8 70.4
4 2 -4 1614.61 70.38
4 -2 -4 1446.58 71.14
4 -2 -3 153.08 8.87
4 2 -3 110.66 8.29
4 -2 -3 154.43 10.12
4 2 -3 129.67 9.42
4 -2 -3 144.48 10.04
4 2 -3 131.95 9.48
4 -2 -2 2885.47 121.91
4 2 -2 3002.31 123.48
4 -2 -2 2802.5 122.64
4 -2 -2 2895.94 123.32
4 2 -2 3036.52 123.63
4 -2 -2 3015.95 123.94
4 2 -2 2916.11 119.5
4 -2 -1 467.23 21.55
4 -2 -1 495.83 22.85
4 2 -1 417.45 22.52
4 -2 -1 463.92 22.7
4 -2 -1 409.62 22.84
4 2 -1 406.44 19.57
4 -2 0 1289.2 56.65
4 -2 0 1369.76 58.21
4 2 0 1305.78 58.25
4 2 0 1204.75 57.36
4 2 0 1316.68 55.47
4 2 1 5.32 2.56
4 -2 1 11.79 3.41
4 -2 1 9.08 3.63
4 -2 1 9.83 3.36
4 -2 1 14.98 4.02
4 2 1 1.32 2.83
4 -2 2 1841.69 80.97
4 2 2 1829.84 81.15
4 -2 2 1862.43 81.84
4 2 2 1903.54 80.25
4 -2 2 1903.05 80.93
4 2 3 17.25 4.14
4 2 3 18.85 4.49
4 -2 3 8.51 4.04
4 2 4 199.55 12.4
4 -2 4 185.01 14.27
4 2 4 189.42 12.91
4 -2 4 190.77 13.35
4 2 4 184.78 12.98
4 -2 4 196.45 13.28
4 2 5 74.29 7.56
4 2 5 71.94 8.01
4 2 5 59.47 6.97
4 2 5 77.63 8.15
4 2 6 119.69 10.09
4 2 6 122.21 11.7
4 -2 6 127.91 12.1
4 2 6 121.95 10.5
4 2 6 108.34 9.59
4 2 6 112.51 11.04
4 2 7 13.66 5.8
4 2 7 9.27 5.09
4 2 7 5.3 5.55
4 -2 7 0.62 4.87
4 2 7 6.56 4.92
4 2 7 6.63 4.37
4 -2 8 19.8 6.33
4 2 8 20.83 6.32
4 2 8 14.44 6.5
4 -2 8 23.18 7.43
4 2 8 20.23 6.65
4 2 8 16.79 4.69
4 -2 9 6.4 5.89
4 2 9 2 6.32
4 2 9 -1.1 5.18
4 -2 9 1.79 4.58
4 2 10 174.3 16.24
4 2 10 182.67 15.52
4 -3 -11 44.49 8.32
4 -3 -11 58.7 7.31
4 3 -11 34.47 7.09
4 -3 -10 20.62 6.6
4 -3 -10 18.39 4.87
4 3 -10 14.87 7.39
4 3 -10 21.78 5.62
4 3 -10 18.04 4.15
4 3 -10 17.77 3.86
4 -3 -10 17.19 4.71
4 -3 -10 17.45 4.18
4 3 -10 18.06 5.72
4 3 -10 19.4 3.62
4 -3 -10 24.28 6
4 -3 -9 105.36 10.62
4 3 -9 95.06 8.68
4 -3 -9 112.33 7.52
4 3 -9 102.1 11.88
4 3 -9 93.88 7.87
4 3 -9 98.11 9.27
4 -3 -9 118.51 9.29
4 -3 -9 98.64 8.43
4 3 -9 78.06 7.23
4 -3 -9 115.6 10.98
4 3 -9 89.2 7.43
4 -3 -9 100.74 8.82
4 -3 -8 74.09 8.42
4 -3 -8 73.42 8.6
4 3 -8 57.52 6.54
4 -3 -8 65.56 5.33
4 3 -8 53.41 6.3
4 3 -8 50.49 9.07
4 -3 -8 79.96 7.76
4 -3 -8 64.33 6.34
4 3 -8 53.43 5.87
4 3 -8 57.82 6.11
4 3 -8 65.65 7.13
4 -3 -8 74.34 6.99
4 -3 -7 59.37 7.56
4 3 -7 98.59 7.64
4 3 -7 89.55 7.44
4 -3 -7 64.66 8.3
4 3 -7 87.63 10.08
4 -3 -7 72.3 7.88
4 3 -7 86.77 7.67
4 -3 -7 65.96 6.06
4 3 -7 89.62 7.57
4 3 -7 83.84 7.14
4 -3 -7 67.29 6.93
4 3 -6 77.88 6.91
4 3 -6 72.56 9.16
4 3 -6 68.57 4.67
4 -3 -6 101.51 8.76
4 -3 -6 90.39 5.93
4 3 -6 71.06 6.76
4 3 -6 71.04 7
4 3 -6 71.08 7.03
4 -3 -6 106.72 8.22
4 -3 -6 97.42 7.65
4 -3 -6 85.6 8.76
4 3 -5 469.98 19.93
4 -3 -5 429.63 23.07
4 -3 -5 397.01 19.24
4 3 -5 452.23 21.11
4 3 -5 435.4 22.35
4 3 -5 454.19 22.33
4 -3 -5 401.41 21.2
4 -3 -5 381.74 21.38
4 3 -5 467.65 21.66
4 3 -4 149.93 8.68
4 -3 -4 143.22 7.57
4 -3 -4 142.62 10.82
4 3 -4 156.15 9.04
4 3 -4 157.96 9.77
4 3 -4 171.52 9.55
4 3 -4 161.06 10.71
4 3 -4 143.59 10.48
4 -3 -4 143.15 10.71
4 -3 -4 134.29 8.78
4 -3 -4 137.24 9.9
4 -3 -3 317.36 17.1
4 -3 -3 335.49 15.39
4 -3 -3 332.86 18.78
4 3 -3 354.53 16.61
4 3 -3 348.79 17.12
4 3 -3 325.35 18.3
4 -3 -3 352.38 19.1
4 3 -3 323.1 18.39
4 -3 -2 198.57 12.91
4 -3 -2 209.06 11.12
4 -3 -2 219.78 13.94
4 3 -2 254.62 14.22
4 -3 -2 197.07 13.82
4 3 -2 239.49 10.59
4 3 -2 248.53 14.29
4 3 -1 1399.19 62.88
4 -3 -1 1457.08 61.8
4 -3 -1 1400.28 60.01
4 -3 -1 1451.38 62.49
4 -3 -1 1365.28 63.03
4 3 -1 1406.48 59.55
4 -3 0 248.81 14.51
4 3 0 263.76 15.81
4 -3 0 247.36 13.51
4 -3 0 249.53 15.34
4 3 0 260.42 15.24
4 3 0 251.27 13.27
4 -3 1 492.34 23.61
4 -3 1 503.45 24.9
4 -3 1 482.78 23.9
4 3 1 420.67 23.29
4 -3 1 502.67 24.93
4 3 1 383.75 21.74
4 3 2 381.39 19.24
4 -3 2 313.99 20.4
4 -3 2 358.8 19.73
4 3 2 369.37 20.94
4 3 2 360.74 19.72
4 -3 2 338.09 20.19
4 -3 2 356.81 19.53
4 3 3 247.19 14.14
4 -3 3 299.52 16.44
4 3 3 237.11 15.45
4 3 3 222.79 14.99
4 -3 3 304.85 16.6
4 3 4 365.84 18.94
4 -3 4 339.67 21.6
4 -3 4 347.58 20.04
4 3 4 375.51 20.5
4 3 4 358.64 20.03
4 3 4 360.99 20.57
4 -3 4 332.48 20.15
4 3 5 139.29 10.29
4 -3 5 143.99 12.81
4 -3 5 138.88 11.07
4 3 5 142.56 11.43
4 3 5 129.41 10.49
4 3 5 147.31 11.77
4 3 6 292.43 17.17
4 -3 6 282.7 19.78
4 -3 6 274.17 17.41
4 3 6 315.07 18.79
4 3 6 287.6 17.35
4 3 6 282.54 18.94
4 3 7 57.86 8.6
4 -3 7 60.22 8.22
4 3 7 37.89 6.84
4 3 7 43.49 8.16
4 -3 7 47.61 7.57
4 -3 7 67.32 7.92
4 3 7 47.16 7.61
4 3 7 47.46 6.48
4 -3 8 117.49 11.17
4 3 8 110.19 11.98
4 -3 8 100.4 9.97
4 3 8 110.13 11.47
4 3 8 100.81 9.25
4 3 8 100.7 11.64
4 -3 8 101.97 11.22
4 -3 9 92.81 11.1
4 -3 9 82.47 10.4
4 -3 9 82.39 9.43
4 -4 -11 5.06 4.86
4 4 -10 398.86 21.46
4 -4 -10 350.37 19.18
4 4 -10 362.89 20.22
4 4 -10 368.88 22.02
4 -4 -10 366.84 21.06
4 -4 -10 356.57 20.9
4 4 -10 371.91 20.17
4 4 -10 383.58 25.98
4 -4 -10 377.89 21.43
4 4 -9 20.46 4.7
4 -4 -9 12.91 4.63
4 -4 -9 9.92 5.37
4 4 -9 20.25 5.04
4 4 -9 17.3 8.06
4 -4 -9 6.55 4.68
4 4 -9 20.94 6.22
4 4 -9 19.61 4.41
4 -4 -9 12.6 5.01
4 4 -8 278.12 19.93
4 -4 -8 283.2 18.04
4 4 -8 279.91 15.69
4 -4 -8 276.42 17.2
4 4 -8 273.1 16.68
4 -4 -8 233.69 15.14
4 4 -8 262.88 16.05
4 4 -8 268.2 15.63
4 -4 -8 265.04 16.31
4 4 -7 8.41 4.16
4 -4 -7 7.35 3.92
4 4 -7 10.53 3.78
4 4 -7 4.36 3.26
4 4 -7 7.88 5.97
4 -4 -7 11.2 5.15
4 4 -7 4.92 3.28
4 4 -7 10.32 4.49
4 -4 -7 10.04 3.91
4 4 -6 894.44 36.7
4 4 -6 904.38 36.49
4 -4 -6 931.56 40.07
4 -4 -6 854.01 36.27
4 4 -6 881.41 37.98
4 4 -6 861.09 38.53
4 4 -6 898.28 38.38
4 -4 -6 926.13 38.78
4 -4 -5 38.26 5.09
4 -4 -5 43.8 6.44
4 4 -5 63.47 6.65
4 4 -5 66.25 4.51
4 -4 -5 43.6 4.8
4 4 -5 78.52 4.62
4 -4 -5 40.56 6.72
4 4 -5 76.4 7.61
4 4 -5 65.86 6.86
4 4 -5 83.13 6.12
4 -4 -4 113.73 9.78
4 -4 -4 123.61 7.52
4 -4 -4 122.71 10.19
4 4 -4 121.46 7.35
4 4 -4 107.95 9.01
4 4 -4 120.48 9.36
4 4 -4 107.82 9.51
4 -4 -4 114.47 7.24
4 -4 -4 121.91 9.58
4 4 -4 115.53 7.95
4 -4 -4 122.34 10.07
4 -4 -3 56.8 7.02
4 -4 -3 63.99 5.11
4 4 -3 74.47 4.88
4 4 -3 72.87 5.59
4 -4 -3 62.86 7.36
4 4 -3 63.24 6.5
4 4 -3 72.67 6.94
4 4 -3 79.27 7.62
4 -4 -3 51.75 3.84
4 -4 -2 210.98 11.13
4 4 -2 189.75 10.14
4 -4 -2 200.1 13.44
4 4 -2 187.94 12.73
4 4 -2 195.26 13.31
4 -4 -2 217.03 13.39
4 4 -1 155.94 8.62
4 4 -1 153.19 11.17
4 -4 0 49.55 6.26
4 -4 0 57.01 5.48
4 -4 0 52.61 6.71
4 4 0 61.74 5.54
4 4 0 61.15 6.16
4 -4 0 55.4 6.56
4 4 0 62.86 6.56
4 -4 1 64.95 6.39
4 -4 1 75.77 7.89
4 -4 1 68.3 7.24
4 4 1 59.61 6.32
4 -4 1 66.47 6.95
4 4 1 57.18 6.67
4 4 1 54.26 5.87
4 -4 2 247.78 16.28
4 4 2 272.71 14.26
4 -4 2 269.06 15.87
4 -4 2 245.34 17.29
4 4 2 275.02 17.66
4 -4 2 276.18 16.61
4 4 2 276.45 16.04
4 4 2 288.74 16.43
4 4 2 284.93 16.69
4 4 3 62.18 7.3
4 4 3 75.94 6.29
4 -4 3 80.44 8.07
4 4 3 68.49 8.55
4 4 3 66.32 7.45
4 -4 3 79.75 8.08
4 4 4 495.66 24.2
4 -4 4 492.76 25.99
4 4 4 470.68 25.94
4 4 4 472.99 25.46
4 4 4 492.42 26.4
4 4 5 23.72 6.06
4 4 5 35.73 5.52
4 -4 5 32.66 5.85
4 4 5 33.84 6.44
4 4 5 31.45 5.46
4 4 6 646.67 31.27
4 -4 6 591.62 31.85
4 4 6 688.88 33.62
4 4 6 660.79 31.84
4 4 6 636.07 33.94
4 -4 6 545.76 32.53
4 4 7 71.01 9.65
4 -4 7 81.17 9.76
4 -4 7 103.06 10.05
4 -4 7 95.7 9.3
4 4 7 73.3 9.56
4 4 7 67.62 8.03
4 -4 8 177.15 14.26
4 4 8 155.99 14.61
4 -4 8 162.17 12.85
4 4 8 149.95 13.93
4 4 8 155.75 11.76
4 4 8 169.8 15.07
4 -4 8 170.72 14.53
4 4 9 1.34 6.16
4 4 9 11.38 6.75
4 -5 -10 82.48 9.42
4 5 -10 92.54 9.38
4 -5 -10 79.43 9.34
4 5 -10 100.55 10.85
4 -5 -10 68.82 9.08
4 5 -9 408.55 21.02
4 5 -9 396.73 22.93
4 -5 -9 356.79 22.11
4 -5 -9 334.01 20.92
4 5 -9 383.93 22.03
4 5 -9 400.6 20.86
4 -5 -9 370.65 21.86
4 5 -9 404.27 26.42
4 -5 -8 60.54 7.61
4 5 -8 71.59 6.86
4 5 -8 69.74 10.18
4 5 -8 72.47 8.08
4 -5 -8 57.73 8.1
4 5 -8 67.73 7.24
4 -5 -8 63.31 8.02
4 5 -8 72.38 8.72
4 -5 -8 59.35 7.22
4 5 -7 76.49 6.63
4 -5 -7 61.42 8.41
4 -5 -7 94.85 9.49
4 -5 -7 79.07 7.67
4 -5 -7 79.44 8.62
4 5 -7 83.97 8.03
4 5 -7 79.18 8.66
4 -5 -7 85.66 8.6
4 5 -7 74.11 8.5
4 -5 -6 24.94 5.82
4 -5 -6 34.98 6.22
4 5 -6 40.34 4.29
4 5 -6 40.13 4.22
4 -5 -6 29.11 6.74
4 -5 -6 26.39 5.6
4 -5 -6 28.48 4.97
4 5 -6 35.54 6.26
4 5 -6 40.28 6.48
4 5 -5 389.02 19.72
4 -5 -5 460.86 24.07
4 -5 -5 452 21.73
4 -5 -5 482.36 24.95
4 5 -5 432.67 19.54
4 5 -5 415.36 22.78
4 5 -5 415.32 23.56
4 -5 -5 451.77 23.86
4 -5 -5 448.96 23.99
4 5 -5 411.38 20.27
4 5 -4 112.34 7
4 -5 -4 145.3 11.41
4 -5 -4 132.82 10.91
4 -5 -4 145.75 9.1
4 -5 -4 134.4 11.23
4 5 -4 116.69 7.7
4 5 -4 130.06 10.15
4 5 -4 121.39 10.68
4 -5 -4 136.6 7.55
4 5 -4 116.77 7.87
4 -5 -4 134.11 10.72
4 -5 -3 25.71 5.23
4 5 -3 36.71 6.07
4 5 -3 45.81 6.73
4 5 -3 44.4 4.62
4 -5 -3 22.02 5.69
4 -5 -3 34.39 4.46
4 -5 -2 30.4 5.28
4 5 -2 20.31 2.13
4 5 -2 28.65 5.52
4 5 -2 26.2 4.1
4 -5 -2 33.43 4.48
4 5 -2 22.08 4.77
4 -5 -1 190.84 11.71
4 5 -1 194.81 11.95
4 5 -1 186.06 13.81
4 -5 0 67.42 7.4
4 -5 0 71.32 6.79
4 -5 0 73.84 7.84
4 5 0 83.21 7.33
4 5 0 70.23 6.76
4 -5 1 199.03 13.91
4 5 1 230.3 11
4 -5 1 182.08 12.85
4 -5 1 185.52 13.89
4 5 1 220.24 13.77
4 5 1 236.22 14.46
4 5 1 215.38 13.36
4 -5 2 121 10.22
4 5 2 115.99 7.56
4 5 2 118.87 11.12
4 -5 2 116.81 9.73
4 -5 2 106.26 10.01
4 5 2 134.06 10.22
4 5 2 121.49 10.12
4 5 2 130.64 10.29
4 5 3 281.21 14.65
4 -5 3 255.4 16.9
4 5 3 308.54 19.05
4 -5 3 230.41 16.65
4 5 3 301.1 17.46
4 5 3 287.92 17.6
4 5 4 186.08 11.47
4 -5 4 162.43 13.01
4 5 4 191.82 14.76
4 5 4 184.4 13.08
4 5 4 176.95 13.74
4 -5 5 781.32 38.79
4 5 5 792.14 39.68
4 5 5 773.36 38.51
4 5 5 827.21 40.56
4 -5 6 87.4 9.84
4 -5 6 94.48 9.74
4 5 6 105.66 10.89
4 5 6 124.42 10.28
4 5 6 104.7 11.14
4 -5 7 248.54 17.04
4 -5 7 238.72 16.07
4 5 7 209.27 16.78
4 5 7 216.33 14.86
4 5 7 229.09 17.86
4 -5 7 243.61 17.42
4 5 8 40.77 9.09
4 -5 8 43.57 8.17
4 5 8 40.46 8.29
4 -5 8 30.26 7.55
4 -5 8 35.17 6.57
4 5 8 34.01 8.46
4 5 9 167.47 15.55
4 -6 -11 3.74 5.33
4 6 -10 42.16 7.42
4 -6 -10 24.44 7.06
4 -6 -9 3.41 4.89
4 -6 -9 3.43 5.39
4 -6 -9 5.12 5.43
4 6 -9 12.06 4.72
4 6 -9 10.19 6.48
4 -6 -9 3.43 5.54
4 6 -9 13.43 5.95
4 -6 -8 148.72 12.89
4 -6 -8 165.95 13.37
4 -6 -8 127.64 11.25
4 6 -8 140.69 12.88
4 -6 -8 145.07 12.56
4 6 -8 167.25 12.98
4 6 -8 139.31 11.38
4 -6 -8 136.9 11.79
4 -6 -7 65.79 8.1
4 -6 -7 63.66 8.2
4 -6 -7 52.62 8.3
4 -6 -7 64.77 8
4 -6 -7 65.25 7.53
4 6 -7 54.59 8.34
4 6 -7 47.67 7.63
4 -6 -6 251.25 16.94
4 -6 -6 255.89 17.69
4 -6 -6 247.25 15.33
4 -6 -6 264.74 16.99
4 6 -6 266.29 17.14
4 6 -6 234.43 16.94
4 -6 -6 248.85 16.91
4 -6 -5 4.56 5.01
4 -6 -5 10.61 4.67
4 6 -5 9.14 2.32
4 6 -5 9.06 2.36
4 -6 -5 1 4.93
4 -6 -5 11.06 4.81
4 6 -5 8.61 2.6
4 -6 -5 10.05 4.3
4 6 -5 7.33 5.33
4 6 -5 6.77 4.98
4 6 -4 744.62 31.77
4 -6 -4 759.74 37.3
4 -6 -4 726.27 35.17
4 -6 -4 707.68 37.58
4 6 -4 758.62 33.81
4 6 -4 825.38 37.59
4 6 -4 778.64 38.17
4 -6 -4 733.82 37.72
4 6 -4 745.06 32.7
4 -6 -4 735.13 36.77
4 -6 -3 158.91 10.92
4 -6 -3 136.15 12.36
4 6 -3 173.66 10.37
4 6 -3 176.28 12.61
4 6 -3 163.82 12.83
4 -6 -3 133.64 11.32
4 -6 -2 887.98 41.59
4 6 -2 916.03 41.29
4 6 -2 958.07 43.86
4 6 -2 916.53 44.33
4 -6 -2 859.33 42.51
4 -6 -1 114.75 8.88
4 -6 -1 122.94 10.67
4 6 -1 86.92 8.03
4 6 -1 87.19 9.77
4 -6 -1 113.75 9.51
4 -6 0 751.22 37.23
4 -6 0 758.83 36.12
4 -6 0 743.64 37.56
4 6 0 751.67 35.97
4 6 1 6.76 4.06
4 -6 1 6.11 4.24
4 -6 1 5.47 4.63
4 6 1 9.76 4.35
4 -6 1 2.27 3.49
4 6 1 8.2 4.87
4 -6 2 655.18 36.26
4 6 2 765.62 38.25
4 -6 2 774.65 36.59
4 -6 2 747.72 37.17
4 6 2 754.62 36.46
4 6 2 728.49 36.43
4 6 2 727.81 36.11
4 6 3 188.91 14.9
4 -6 3 194.11 13.74
4 -6 3 189.84 13.69
4 6 3 151.23 12.53
4 6 3 157.47 12.47
4 6 3 165.55 13.28
4 -6 4 200.58 15.23
4 -6 4 220.98 15.22
4 6 4 213.27 16.48
4 6 4 230.99 15.26
4 6 4 205.47 15.48
4 -6 5 134.23 11.62
4 6 5 120.64 11.53
4 6 5 122.36 12.1
4 6 5 122.99 10.78
4 6 5 129.98 12.65
4 -6 5 126.67 11.88
4 -6 6 121.5 11.03
4 6 6 112.44 11.94
4 6 6 116.95 10.44
4 6 6 116.74 12.92
4 -6 6 124.91 11.74
4 6 7 9.51 7.05
4 -6 7 19.87 6.37
4 -6 7 13.59 5.91
4 -6 7 18.48 5.81
4 6 7 6.9 6.1
4 6 7 10.15 4.63
4 6 8 11.19 7.83
4 -6 8 7.09 5.99
4 -6 8 6.06 6.41
4 6 8 15.59 7.92
4 6 8 6.2 5.58
4 6 9 19.3 6.63
4 -7 -10 59.95 8.76
4 -7 -10 68.55 9.69
4 -7 -9 58.42 8.78
4 -7 -9 63.22 9.57
4 -7 -9 60.76 8.85
4 7 -9 75.13 10.17
4 7 -9 68.21 9.75
4 -7 -8 26.01 6.74
4 -7 -8 43.55 7.95
4 -7 -8 32.67 7.73
4 -7 -8 23.05 6.17
4 -7 -8 32.27 6.76
4 7 -8 26.76 7.61
4 7 -8 22.8 7.57
4 -7 -7 91.63 10.14
4 -7 -7 83.69 9.89
4 7 -7 114.7 11.67
4 7 -7 101.51 10.96
4 -7 -7 73.44 9.73
4 -7 -7 77.11 9.38
4 -7 -7 88.01 9.28
4 -7 -6 170.43 13.46
4 -7 -6 172.37 12.69
4 -7 -6 164.78 14.18
4 -7 -6 175.32 13.6
4 7 -6 170.22 14.04
4 7 -6 161.74 14.09
4 -7 -6 176.08 13.94
4 -7 -5 474.6 27.28
4 -7 -5 486.82 27.47
4 -7 -5 492.12 26.43
4 7 -5 543.01 23.79
4 -7 -5 478.67 28.39
4 7 -5 544.33 28.79
4 7 -5 538.29 29.16
4 -7 -5 456.21 27.9
4 -7 -4 82.7 9.64
4 -7 -4 69.34 8.21
4 -7 -4 71.37 7.75
4 7 -4 52.57 6.01
4 -7 -4 67.55 8.37
4 -7 -4 67.6 8.93
4 7 -4 61.68 8.68
4 7 -4 58.26 8.63
4 7 -4 51.56 3.6
4 -7 -3 493.56 26.56
4 7 -3 512.35 25.55
4 7 -3 527.29 28.57
4 7 -3 556.53 29.71
4 7 -3 525.92 23.12
4 -7 -3 492.91 27.19
4 7 -2 74.13 9.16
4 7 -2 72.33 7.44
4 -7 -2 66.6 7.49
4 -7 -2 75.32 8.29
4 7 -2 82.77 9.51
4 -7 -1 1107.48 50.46
4 -7 -1 1071.62 52.18
4 7 -1 1102.15 49.92
4 7 -1 1082.46 52.63
4 -7 -1 1078.29 50.21
4 -7 0 44.03 6.54
4 -7 0 24.72 6.44
4 7 0 37.16 6.07
4 -7 0 46.39 6.53
4 -7 1 588.85 28.79
4 -7 1 600.37 28
4 -7 1 583 29.05
4 7 1 569.86 27.69
4 7 1 522.61 28.96
4 7 2 18.01 6.12
4 7 2 9.23 5.75
4 -7 2 18.12 6.13
4 7 2 17.85 5.61
4 -7 2 14.25 5.06
4 7 2 15.87 2.72
4 7 3 508.63 28.04
4 -7 3 501.79 26.52
4 -7 3 491.73 26.36
4 7 3 461.21 26.05
4 7 3 432.44 21.7
4 7 3 461.04 25.78
4 7 3 405.71 25.46
4 7 4 11.57 5.87
4 -7 4 10.76 5.6
4 7 4 13.05 5.96
4 -7 4 8.05 5.17
4 -7 4 24.23 6.13
4 7 4 15.63 5.91
4 7 4 14.84 3.79
4 7 4 15.33 5.62
4 7 5 46.81 8.73
4 -7 5 45.23 7.53
4 7 5 39.59 8.42
4 -7 5 59.75 8.15
4 7 5 40.94 5.69
4 7 5 46.39 7.05
4 7 6 17.98 8.15
4 -7 6 16.74 6.32
4 -7 6 19.36 6.28
4 7 6 30.26 7.68
4 7 6 20.88 4.87
4 7 6 19.77 5.98
4 7 7 26.82 8.28
4 -7 7 39.14 7.97
4 7 7 39.71 8.37
4 -7 7 44.47 7.94
4 -7 7 38.21 7.31
4 7 7 29.24 8.46
4 7 7 29.98 6.21
4 7 7 27.05 6.11
4 7 8 26.58 6.36
4 7 9 72.27 9.63
4 8 -9 149.23 14.9
4 8 -9 132.82 13.68
4 -8 -9 172.72 14.64
4 -8 -8 243.14 17.57
4 -8 -8 213.83 16.27
4 -8 -8 226.96 17.73
4 8 -8 213.98 17.68
4 8 -8 217.14 17.57
4 -8 -8 237.51 17.04
4 -8 -8 260.69 17.99
4 -8 -7 16.64 6.61
4 -8 -7 18.44 6.47
4 -8 -7 20.12 7.46
4 -8 -7 20.55 6.35
4 -8 -7 22.29 6.25
4 8 -7 17.85 7.18
4 8 -7 9.78 7.14
4 -8 -6 233.8 16.1
4 8 -6 202.08 9.97
4 -8 -6 231.28 15.82
4 -8 -6 222.02 17.06
4 -8 -6 226.25 15.95
4 8 -6 247.19 17.65
4 8 -6 238.64 17.81
4 -8 -6 225.15 16.95
4 -8 -5 66.08 9.27
4 -8 -5 75.65 8.87
4 8 -5 48.75 5.33
4 -8 -5 83.38 10.13
4 -8 -5 69.42 8.37
4 -8 -5 79.77 8.95
4 8 -5 39.19 8.63
4 8 -5 49.65 8.99
4 -8 -4 49.16 8.74
4 -8 -4 44.42 7.02
4 -8 -4 47.6 7.36
4 -8 -4 48.49 8.22
4 8 -4 39.23 5.4
4 -8 -4 53.07 7.4
4 8 -4 42.47 8.29
4 8 -4 50.33 8.64
4 8 -3 57.93 9
4 -8 -3 65.07 8.17
4 8 -3 64.05 7.03
4 -8 -3 66.02 8.01
4 8 -3 66.94 9.26
4 -8 -2 208.73 14.36
4 -8 -2 211.04 15.81
4 8 -2 174.31 12.99
4 8 -2 206.92 15.82
4 8 -2 198.64 16.05
4 -8 -2 190.89 13.57
4 -8 -1 10.66 4.94
4 -8 -1 7.23 5.69
4 8 -1 0.8 4.41
4 -8 -1 11.87 4.89
4 -8 0 39.98 6.11
4 -8 0 40.26 7.62
4 8 0 34.86 6.58
4 -8 0 43.01 6.74
4 -8 1 34.43 5.77
4 -8 1 24.72 7.06
4 8 1 23.61 6.24
4 -8 1 34.68 6.67
4 8 1 32.41 7.31
4 -8 2 300.83 19.03
4 8 2 266.82 13.26
4 -8 2 287.36 19.52
4 8 2 319.92 19.7
4 8 2 321.18 20.92
4 8 3 10.95 5.54
4 8 3 8.35 5.78
4 -8 3 4.92 6.27
4 8 3 7.95 2.85
4 8 3 8.26 5.57
4 -8 3 4.34 4.89
4 8 4 88.99 11.22
4 -8 4 69.69 9.23
4 8 4 89.35 7.16
4 -8 4 75.91 9.65
4 -8 4 79.21 9.74
4 8 4 77.13 10.21
4 8 4 82.84 9.51
4 8 4 90.21 11.08
4 8 5 34.38 8.93
4 -8 5 54.17 8.13
4 -8 5 30.51 7.54
4 -8 5 44.47 8.07
4 8 5 32.49 5.27
4 8 5 42.87 8.64
4 8 5 32.34 6.98
4 8 6 123.86 14.28
4 8 6 117.88 11.85
4 8 6 131.55 13.49
4 8 6 125.75 10.08
4 8 6 139.29 13.93
4 -8 6 114.66 12.02
4 8 6 128.52 11.78
4 -8 6 110.5 12.25
4 8 7 39.76 8.48
4 -8 7 41.76 8.23
4 8 7 32.03 6.08
4 9 -9 421.19 27.72
4 -9 -8 24.64 7.47
4 9 -8 37.37 9.14
4 9 -8 30.34 9.54
4 -9 -7 209.56 16.66
4 -9 -7 228.23 16.48
4 -9 -7 220.72 17.78
4 -9 -7 227.73 16.54
4 9 -7 206.77 17.79
4 9 -7 215.15 18.16
4 -9 -7 216.8 17.59
4 -9 -6 29.36 7.89
4 -9 -6 18.92 6.6
4 -9 -6 22 7.42
4 -9 -6 19.9 6.19
4 -9 -6 18.32 6.94
4 9 -6 29.53 8.45
4 9 -6 14.63 7.7
4 -9 -5 194.52 14.47
4 -9 -5 183.37 14.45
4 9 -5 182.86 11.38
4 -9 -5 196.94 14.63
4 -9 -5 185.78 15.83
4 9 -5 188.82 16.11
4 9 -5 170.73 16.17
4 -9 -5 168.47 15.57
4 -9 -4 103.26 10.18
4 -9 -4 105.57 12.16
4 -9 -4 97.25 10.47
4 -9 -4 97.78 10.42
4 9 -4 97.73 8.69
4 9 -4 104.48 12.18
4 9 -4 93.65 11.85
4 9 -3 47.02 8.89
4 -9 -3 60.21 9.5
4 -9 -3 59.35 7.64
4 -9 -3 63.53 8.56
4 9 -3 50.67 7.06
4 -9 -3 52.68 8.16
4 9 -3 51.74 9.39
4 9 -2 39.81 2.91
4 -9 -2 55.16 7.37
4 9 -2 52.37 8.94
4 -9 -2 50.87 8.41
4 9 -2 46.72 7.15
4 -9 -2 57.69 7.8
4 9 -2 60.92 9.96
4 9 -1 130.49 7.95
4 -9 -1 154.09 12.63
4 -9 -1 149.11 13.7
4 9 -1 131.9 11.7
4 -9 -1 154.21 11.59
4 9 0 143.01 9
4 -9 0 147.28 12.73
4 -9 0 130.78 12.98
4 9 0 135.4 11.85
4 9 0 137.54 13.63
4 -9 0 136.57 11
4 -9 1 73.25 10.1
4 9 1 86.52 9.99
4 9 1 90.34 11.01
4 -9 1 62.54 8.85
4 -9 1 76.84 8.22
4 9 2 105.79 8.89
4 -9 2 116.54 11.63
4 9 2 112.62 11.59
4 -9 2 108.36 11.97
4 9 2 127.11 13.17
4 -9 2 92.68 9.34
4 9 3 154.03 14.28
4 -9 3 99.26 11.76
4 9 3 147.42 10.68
4 -9 3 113.22 11.87
4 9 3 117.09 12.52
4 -9 3 103.57 11.76
4 9 4 17.47 7.16
4 -9 4 14.82 6.13
4 9 4 12.39 5.04
4 -9 4 15.18 6.36
4 9 4 12.34 3.78
4 9 4 16.23 7.41
4 -9 4 8.79 5.94
4 9 4 9.88 7.63
4 9 4 12.91 6.12
4 -9 5 154.78 13.83
4 9 5 129.97 14.8
4 9 5 125.04 11.9
4 -9 5 140.7 13.85
4 9 5 141.78 14.54
4 -9 5 147.42 13.53
4 9 5 132.06 14.17
4 9 5 152.68 13.19
4 9 6 42.5 10.78
4 9 6 42.64 8.08
4 -9 6 36.1 8.1
4 9 6 36.91 7.64
4 9 6 39.52 9.62
4 10 -8 131.98 15.51
4 -10 -7 20.3 7.29
4 10 -7 25.71 10.03
4 -10 -6 141.91 13.12
4 -10 -6 135.57 13.12
4 -10 -6 133.07 12.57
4 10 -6 154.13 15.92
4 -10 -6 126.67 14.09
4 10 -6 146.82 15.54
4 -10 -5 43.5 9.06
4 -10 -5 35.03 6.96
4 -10 -5 38.21 8.75
4 -10 -5 22.1 6.47
4 -10 -5 17.62 6.83
4 10 -5 23.8 8.41
4 10 -5 29.86 9.21
4 -10 -4 123.01 11.44
4 -10 -4 124.14 13.67
4 -10 -4 118.98 12.08
4 -10 -4 131.21 12.02
4 10 -4 136.19 10.75
4 10 -4 140.96 14.7
4 10 -4 143.58 14.87
4 10 -3 4.44 6.15
4 -10 -3 9.89 6.9
4 -10 -3 11.31 5.13
4 -10 -3 4.11 5.32
4 10 -3 6.72 5.1
4 -10 -3 7.99 6.77
4 -10 -3 7.75 5.78
4 10 -3 2.82 6.99
4 -10 -2 216.04 16.21
4 -10 -2 191.6 16.89
4 10 -2 218.53 15.46
4 10 -2 226.75 18.6
4 10 -2 214.39 18.05
4 -10 -2 206.91 14.65
4 -10 -1 117.25 11.33
4 10 -1 115.07 11.03
4 -10 -1 112.81 12.36
4 -10 -1 110.8 9.79
4 10 -1 89.21 5.88
4 10 0 128.11 8.4
4 -10 0 130.99 12.52
4 -10 0 141.95 13.85
4 10 0 133.36 12.4
4 10 0 137.92 14
4 -10 0 116.84 10.48
4 -10 1 61.21 7.34
4 10 1 50.78 5.88
4 -10 1 63.55 10.19
4 10 1 56.88 9.24
4 10 1 46.82 9.25
4 -10 1 66.71 9.19
4 -10 2 257.72 18.95
4 10 2 240.88 14.86
4 -10 2 236.54 18.2
4 -10 2 251.74 18.97
4 10 2 248.86 18.91
4 10 2 251.09 19.92
4 -10 2 246.33 15.58
4 -10 3 19.22 5.22
4 10 3 23.54 8.06
4 10 3 14.09 5.09
4 -10 3 23.39 6.89
4 -10 3 26.38 8.05
4 10 3 12.57 6.97
4 -10 3 19.31 6.75
4 -10 4 63.43 9.9
4 10 4 51.11 7.7
4 -10 4 69.2 10.18
4 10 4 47.26 9.91
4 10 4 53.73 10.05
4 -10 4 52.71 9.01
4 10 5 21.22 6.72
4 -10 5 27.17 7.58
4 10 5 26 7.46
4 10 6 60.78 9.25
4 -11 -6 22.89 8.09
4 11 -6 36.78 10.7
4 -11 -5 220.49 16.29
4 -11 -5 195.11 16.67
4 -11 -5 217.89 16.16
4 11 -5 260.72 20.66
4 -11 -4 8.31 5.8
4 -11 -4 4.33 5.66
4 11 -4 17.36 9.08
4 -11 -3 300.86 20.15
4 -11 -3 342.48 22.43
4 -11 -3 340.74 21.48
4 11 -3 362.31 21.13
4 11 -3 383.25 25.85
4 -11 -2 17.48 8.11
4 -11 -2 22.68 6.05
4 11 -2 19.94 8.9
4 -11 -2 25.47 6.91
4 11 -2 22.55 6.66
4 -11 -2 19.04 8
4 -11 -2 32.64 8.13
4 11 -2 26.85 9.53
4 -11 -1 372.52 23.91
4 11 -1 397.64 23.66
4 -11 -1 386.12 25.46
4 -11 -1 350.86 21.09
4 -11 0 3.54 4.46
4 11 0 10.94 7.89
4 -11 0 0.69 7
4 11 0 9.54 6.62
4 -11 0 3.79 5.72
4 -11 1 278.89 19.42
4 -11 1 262.09 19.88
4 11 1 219.11 18.32
4 -11 1 246.9 15.84
4 -11 2 12.47 6.91
4 -11 2 2.03 7.05
4 11 2 9.5 6.99
4 -11 2 10.03 6.58
4 -11 3 174.82 16.1
4 -11 3 190.17 16.52
4 11 3 175.63 16.71
4 -11 4 44.13 9.52
4 -12 -5 27.32 8.64
4 -12 -4 111.72 11.4
4 -12 -4 125 11.77
4 -12 -4 116.36 13.19
4 -12 -3 23.02 6.78
4 -12 -3 29.06 8.33
4 -12 -2 165.11 15.41
4 -12 -2 172.89 14.14
4 12 -2 157.81 14.05
4 12 -1 18.8 7.61
4 -12 -1 14.94 7.19
4 12 0 70.29 10.67
4 -12 0 51.05 9.46
4 12 1 35.5 9.44
4 -12 1 21.18 7.87
4 13 -1 20.22 8.29
5 0 -11 286.42 21.94
5 0 -10 -0.99 4.84
5 0 -10 0.95 5.05
5 0 -10 -0.67 6.2
5 0 -9 311.58 18.53
5 0 -9 303.17 15.06
5 0 -9 248.37 12.73
5 0 -9 311.1 15.91
5 0 -9 313.73 20.34
5 0 -9 287.98 14.1
5 0 -8 -0.54 1.65
5 0 -8 -0.87 4.18
5 0 -8 2.72 5.2
5 0 -8 -1.28 3.32
5 0 -8 -1.56 3.58
5 0 -7 913.15 40.04
5 0 -7 980.29 42.77
5 0 -7 981.59 44.43
5 0 -7 941.04 43.44
5 0 -7 975.75 46.03
5 0 -7 916.68 39.68
5 0 -7 963.78 44.72
5 0 -6 2.53 1.21
5 0 -6 7.13 4.4
5 0 -6 0.87 4.37
5 0 -6 1.2 3.78
5 0 -6 2.85 3.6
5 0 -6 1.04 3.33
5 0 -5 490.78 22.2
5 0 -5 544.27 25.87
5 0 -5 520.05 26.27
5 0 -5 525.78 22.26
5 0 -5 515.03 26.35
5 0 -5 527.45 27
5 0 -4 2.57 1.62
5 0 -4 1.1 3.68
5 0 -4 1.07 1.2
5 0 -4 0.3 3.18
5 0 -4 1.32 3.46
5 0 -4 5.1 3.94
5 0 -3 1012.79 45.29
5 0 -3 957.54 46.01
5 0 -3 996.83 42.23
5 0 -2 1.55 1.69
5 0 -2 7.65 3.6
5 0 -2 1.53 3.3
5 0 -1 137.12 10.18
5 0 -1 145.9 8.74
5 0 0 3.22 2.35
5 0 1 90.87 8.76
5 0 1 77.48 6.97
5 0 2 -1.9 3.12
5 0 2 1.74 4.33
5 0 3 330.55 19.94
5 0 3 322.6 18.82
5 0 4 3.73 3.69
5 0 4 -0.57 4.39
5 0 4 0.92 4.01
5 0 5 338.52 22.4
5 0 5 355.29 20.93
5 0 5 324.79 20.39
5 0 6 0.52 4.31
5 0 6 -2.61 6.19
5 0 6 -2.26 4.47
5 0 6 1.87 4.28
5 0 7 348.38 21.21
5 0 7 349.65 23.7
5 0 7 334.2 20.84
5 0 7 365 22.65
5 0 8 -1.28 5.11
5 0 8 -0.53 5.41
5 0 8 3.64 6.81
5 0 8 -3.66 5.49
5 0 9 268.33 18.91
5 -1 -11 42.57 9.39
5 1 -11 33.11 7.25
5 1 -10 179.23 13.1
5 -1 -10 139.38 12.6
5 -1 -10 134.12 9.54
5 -1 -10 133.11 13.73
5 1 -10 173.45 15.62
5 -1 -10 139.49 9.47
5 1 -9 83 8.53
5 -1 -9 66.94 9.29
5 -1 -9 81.47 9.08
5 1 -9 89.5 10.78
5 -1 -9 81.13 7.17
5 1 -9 81.09 6.99
5 -1 -9 80.52 6.03
5 -1 -8 85.09 9.23
5 1 -8 104.24 9.27
5 -1 -8 79.78 9.58
5 -1 -8 85.02 7.91
5 1 -8 98.3 6.82
5 -1 -8 95.15 9.39
5 1 -8 107.68 8.52
5 -1 -8 82.43 7.69
5 1 -8 105.97 10.93
5 -1 -8 80.77 6.37
5 1 -7 301.4 14.88
5 -1 -7 252.93 15.76
5 -1 -7 245.98 16.41
5 1 -7 306.88 16.73
5 1 -7 294.63 16.34
5 -1 -7 244.62 15.7
5 -1 -7 253.33 17.12
5 1 -7 300.47 18.72
5 -1 -7 235.76 13.27
5 -1 -7 246.24 16.96
5 1 -7 292.12 16.91
5 -1 -6 698.79 30.78
5 1 -6 719.4 32.67
5 -1 -6 681.22 33.73
5 -1 -6 693.67 34.37
5 1 -6 689.97 32.13
5 1 -6 714.75 33.83
5 1 -6 701.64 33.89
5 -1 -6 696.38 33.96
5 -1 -6 711.77 34.77
5 -1 -6 699.93 31.02
5 1 -6 697.8 34.19
5 -1 -6 713.6 35.07
5 1 -6 682.33 35.67
5 -1 -5 494.07 23.99
5 1 -5 537.89 25.18
5 -1 -5 476.35 25.77
5 -1 -5 506.03 26.47
5 1 -5 526.74 25.89
5 1 -5 533.95 25.15
5 1 -5 514.46 26.3
5 -1 -5 494.63 26.2
5 -1 -5 500.29 23.38
5 1 -5 536.33 26.6
5 -1 -5 516.93 27.08
5 -1 -5 523.38 26.25
5 -1 -4 140.71 7.9
5 -1 -4 145.1 9.18
5 -1 -4 141.65 10.34
5 1 -4 111.02 8.92
5 1 -4 112.51 9.18
5 -1 -4 145.12 10.21
5 1 -4 113.32 9.14
5 1 -4 104.5 9.57
5 -1 -4 137.29 10.48
5 -1 -4 133.57 8.09
5 1 -4 111.9 9.7
5 -1 -4 141.39 10.82
5 -1 -3 163.82 9.69
5 -1 -3 168.72 11.17
5 1 -3 181.24 11.33
5 -1 -3 174.43 11.87
5 1 -3 188.32 12.67
5 -1 -3 171.7 12.27
5 1 -3 179.42 8.36
5 -1 -2 332.28 16.21
5 -1 -2 328.85 17.98
5 -1 -2 352 18.55
5 1 -2 291.77 18.28
5 -1 -2 343.94 19.11
5 1 -2 307.66 15.01
5 -1 -1 320.89 18.4
5 -1 -1 310.3 17.96
5 1 -1 316.26 15.56
5 -1 -1 314.23 16.32
5 -1 0 60.11 7.55
5 -1 0 72.23 7.57
5 1 0 92.7 8.46
5 1 0 102.37 6.89
5 -1 0 68.81 6.42
5 -1 1 243.24 15.61
5 1 1 205.59 14.45
5 -1 1 233.84 15.25
5 1 1 214.24 12.86
5 -1 1 215.85 13.22
5 -1 2 403.14 24.74
5 1 2 470.31 24.78
5 -1 2 441.31 24.62
5 1 2 455.51 22.95
5 -1 2 441.55 23.22
5 1 3 247.8 16.67
5 -1 3 252.98 16.74
5 1 3 253 15.78
5 -1 3 260.17 15.88
5 1 4 289.97 19.49
5 -1 4 290.04 19.64
5 1 4 290.59 18.15
5 -1 4 269.7 18.09
5 1 4 303.8 17.93
5 -1 4 280.37 17.82
5 1 5 174.72 12.88
5 1 5 166.69 14.44
5 -1 5 175.61 15.21
5 1 5 170.3 13.23
5 -1 5 175.53 13.59
5 1 5 181.5 13.7
5 -1 5 189.6 13.82
5 1 6 211.03 14.06
5 -1 6 162.31 13.49
5 1 6 187.57 15.84
5 -1 6 185.01 15.79
5 1 6 193.72 13.91
5 -1 6 165.84 13.67
5 1 6 196.08 14.75
5 -1 6 159.18 13.53
5 1 7 25.77 7.28
5 -1 7 30.75 6.96
5 1 7 44.35 7.31
5 1 7 37.87 8.58
5 -1 7 35.69 6.78
5 -1 7 36.25 8.27
5 1 7 37.89 7.07
5 1 7 39.69 6.85
5 1 8 70.94 10.33
5 -1 8 100.76 10.44
5 1 8 87.95 9.93
5 1 8 61.23 10.62
5 -1 8 99.35 12.62
5 1 8 73.83 9.67
5 1 9 79.7 10.18
5 -1 9 68.21 9.43
5 2 -11 159.15 13.02
5 -2 -11 141 14.39
5 -2 -10 25.71 4.72
5 -2 -10 21.95 6.98
5 -2 -10 25.16 7.22
5 2 -10 46.12 7.05
5 2 -10 45.85 9.86
5 -2 -10 28.84 5.3
5 -2 -9 31.48 4.74
5 -2 -9 26.61 6.51
5 -2 -9 31.35 7.09
5 2 -9 23.57 5.55
5 2 -9 32.17 6.02
5 2 -9 28.71 7.75
5 2 -9 30.35 3.65
5 -2 -9 27.25 2.54
5 -2 -9 36.72 5.96
5 2 -9 27.05 4.83
5 -2 -8 0.25 2.78
5 -2 -8 0.49 4.47
5 -2 -8 2.39 4.7
5 2 -8 12.49 4.85
5 2 -8 11.19 6.48
5 -2 -8 2.2 4.46
5 2 -8 7.93 1.99
5 -2 -8 2.28 4.46
5 2 -8 5.23 2.81
5 2 -8 9.52 3.86
5 2 -8 6.74 2.56
5 2 -7 82.12 7.83
5 2 -7 74.67 6.58
5 -2 -7 80.1 8.98
5 2 -7 81.22 10.17
5 2 -7 80.87 6.11
5 -2 -7 81.77 8.37
5 -2 -7 75.9 8.43
5 2 -7 76.21 4.84
5 2 -7 78.98 7.67
5 -2 -7 77.78 7.81
5 -2 -7 79.09 8.57
5 -2 -7 76.02 6.53
5 -2 -6 67.23 8.44
5 2 -6 105.31 7.8
5 -2 -6 58.67 7.36
5 2 -6 96.34 6.98
5 2 -6 98.75 7.95
5 -2 -6 67.09 7.82
5 -2 -6 63.29 7.76
5 2 -6 109.6 8.66
5 -2 -6 67.22 7.69
5 -2 -6 63.29 6.11
5 2 -6 98.9 8.4
5 2 -5 268.37 15.15
5 -2 -5 250.46 13.33
5 2 -5 271.9 14.15
5 -2 -5 263.32 16.17
5 -2 -5 248.31 15.87
5 2 -5 265.15 14.84
5 2 -5 273.41 15.98
5 -2 -5 243.26 13.83
5 -2 -5 233.33 15.48
5 2 -5 256.94 15.41
5 -2 -5 238.11 16.17
5 -2 -5 237.68 14.75
5 2 -4 70.85 7.17
5 -2 -4 72.31 6.49
5 2 -4 68.91 6.28
5 -2 -4 84.5 8.06
5 2 -4 65.89 6.65
5 2 -4 68.47 7.47
5 -2 -4 84.23 8.17
5 -2 -4 77.01 6.71
5 2 -4 72.56 7.3
5 -2 -4 87.06 8.43
5 -2 -3 778.89 35.85
5 -2 -3 806.2 36.9
5 2 -3 812.86 38.02
5 -2 -3 821.4 38.18
5 2 -3 784.68 38.09
5 -2 -3 760.48 38.25
5 -2 -2 89.71 7.23
5 -2 -2 101.38 8.45
5 -2 -2 109.84 9.01
5 2 -2 99.54 8.87
5 2 -2 89.69 8.51
5 -2 -2 93.94 8.86
5 2 -2 93.11 5.57
5 -2 -1 1074.95 48.81
5 -2 -1 1074.72 50.57
5 -2 -1 1083.62 50.52
5 2 -1 1101.12 51.05
5 2 -1 1136.56 47.37
5 2 0 1.73 2.38
5 -2 0 6.33 3.13
5 -2 0 4.18 3.88
5 2 0 2.04 3.87
5 -2 1 1881.71 82.78
5 2 1 1835.63 81.81
5 -2 1 1833.03 82.43
5 2 1 1870.18 79.64
5 -2 1 1851.19 80.35
5 -2 2 176.5 13.24
5 -2 2 173.98 11.94
5 2 2 108.97 10.64
5 -2 2 172.5 12.73
5 2 2 116.6 9.75
5 -2 2 158.04 10.96
5 -2 3 809.44 39.59
5 2 3 825.91 39.99
5 -2 3 793.38 40.35
5 2 3 817.55 38.91
5 -2 3 820.56 39.31
5 2 4 24.71 5.64
5 -2 4 30.15 5.83
5 -2 4 43.51 7.68
5 2 4 22.07 5.44
5 -2 4 33.73 6.64
5 2 5 503.59 25.73
5 2 5 458.88 28.17
5 -2 5 474.19 28.57
5 2 5 458.43 26.17
5 -2 5 488.14 27.07
5 2 5 479.81 26.7
5 -2 5 505.62 27.09
5 2 6 3.75 5.42
5 -2 6 10.24 4.68
5 2 6 2.09 4.03
5 2 6 7.8 6.3
5 -2 6 14.07 6.54
5 2 6 2.5 4.78
5 2 6 5.57 4.63
5 2 7 22.17 7.15
5 -2 7 16.55 5.99
5 2 7 15.63 5.9
5 2 7 21.98 7.58
5 -2 7 25.49 6.47
5 -2 7 19.27 7.48
5 2 7 23.43 6.87
5 2 7 23.98 5.85
5 2 8 -1.33 5.47
5 2 8 7.11 5.06
5 -2 8 -2.22 5.65
5 2 8 5.09 6.69
5 -2 8 -3.8 6.65
5 2 8 0.57 5.96
5 -2 9 11.84 6.49
5 2 9 6.66 6.57
5 -2 9 1.56 5.56
5 -3 -11 52.08 9.84
5 3 -11 55.72 8.11
5 3 -10 99.51 9.64
5 -3 -10 99.79 10.96
5 -3 -10 97.49 11.27
5 3 -10 79.1 12.25
5 -3 -10 101.02 9.24
5 -3 -10 105.62 9.02
5 -3 -9 128.56 11.72
5 3 -9 89.79 8.58
5 3 -9 101.84 8.99
5 3 -9 100.49 12.6
5 -3 -9 115.87 9.86
5 -3 -9 82.94 5.82
5 3 -9 93.62 8.16
5 3 -9 92.39 8.36
5 -3 -9 117.36 11.01
5 -3 -9 115.94 8.87
5 3 -9 85.1 7.44
5 -3 -8 66.94 8.22
5 -3 -8 66.73 8.55
5 3 -8 65.58 7.35
5 3 -8 54.78 6.54
5 3 -8 55.72 9.31
5 -3 -8 55.3 3.43
5 3 -8 55.66 5.84
5 -3 -8 77.97 8.76
5 -3 -8 64.96 7.82
5 3 -8 62.13 7.08
5 -3 -8 69.56 6.66
5 3 -8 61.23 6.4
5 3 -7 303.47 17.13
5 3 -7 262.33 13.88
5 -3 -7 331.24 18.83
5 -3 -7 336.74 19.08
5 3 -7 274.64 14.99
5 3 -7 278.38 17.2
5 -3 -7 310.75 18.01
5 -3 -7 335.87 17.14
5 3 -7 295.96 16.78
5 -3 -7 321.55 19.39
5 3 -6 423.07 19.46
5 -3 -6 385.22 22.49
5 -3 -6 386.92 22.54
5 3 -6 400 19.05
5 3 -6 383.22 21.69
5 -3 -6 405.5 21.31
5 -3 -6 377.2 20.53
5 3 -6 387.21 21.21
5 3 -6 427.2 21.48
5 -3 -6 405.12 23.2
5 3 -5 117.62 8.01
5 -3 -5 134.35 10.96
5 -3 -5 114.16 10.62
5 3 -5 116.41 8.46
5 3 -5 110.53 9.68
5 -3 -5 137.02 10.77
5 -3 -5 129.6 9.4
5 -3 -5 132.55 9.01
5 3 -5 100.75 8.91
5 3 -5 130.05 9.98
5 3 -4 565.07 27.67
5 -3 -4 488.54 25.52
5 3 -4 551.6 25.61
5 -3 -4 487.09 27.69
5 3 -4 598.15 25.96
5 3 -4 578.87 28.19
5 -3 -4 481.9 27.66
5 3 -4 540.22 26.58
5 3 -3 151.37 11.68
5 -3 -3 179.88 11.26
5 3 -3 142.32 9.74
5 -3 -3 165.36 12.09
5 3 -3 151.79 11.68
5 -3 -3 169.65 12.53
5 -3 -2 739.54 34.43
5 3 -2 785.63 36.51
5 -3 -2 651.9 34.71
5 -3 -2 719.86 35.97
5 3 -2 786.74 36.33
5 -3 -2 709.56 36.31
5 3 -2 739.07 31.57
5 -3 -1 62.59 6.55
5 -3 -1 66.51 7.51
5 -3 -1 62.41 7.55
5 -3 -1 59.12 7.84
5 3 -1 77.8 5.54
5 -3 0 447.36 22.4
5 -3 0 408.75 23.31
5 3 0 413.16 23.71
5 3 0 399.78 22.93
5 3 0 411.46 20.52
5 -3 1 108.59 9.27
5 -3 1 110.11 10.35
5 -3 1 95.19 9.36
5 3 1 115.65 9.89
5 -3 1 89.38 9.8
5 3 1 134.19 9.08
5 -3 2 1382.22 63.06
5 -3 2 1310.9 61.27
5 3 2 1300.69 61.4
5 -3 2 1342.49 62.53
5 3 2 1359.36 60.01
5 -3 2 1384.65 61.01
5 3 3 33.43 6.12
5 -3 3 42.95 6.24
5 -3 3 41.49 6.59
5 3 3 36.97 6.47
5 -3 3 42.23 7.12
5 3 4 344.26 19.04
5 -3 4 323.82 22.36
5 -3 4 366.78 20.98
5 3 4 322.97 20.18
5 3 4 328.06 20.28
5 3 4 338.41 20.49
5 -3 4 363.67 21.05
5 3 5 27.18 6.36
5 -3 5 27.65 6.01
5 3 5 30.27 5.86
5 -3 5 25.95 7.25
5 -3 5 24.45 5.79
5 3 5 32.08 6.33
5 3 5 29.67 6.07
5 3 6 93.89 9.37
5 3 6 86.35 9.94
5 3 6 73.04 10.58
5 -3 6 105.31 12.06
5 -3 6 114.86 10.69
5 3 6 87.78 10
5 3 6 81.64 9.08
5 -3 6 109.5 11.04
5 3 7 108.67 10.4
5 3 7 127.98 12.52
5 3 7 121.41 13.16
5 -3 7 116.25 13.21
5 -3 7 100.23 10.58
5 3 7 105.69 11.43
5 3 7 101.74 10.09
5 3 8 56.26 9.57
5 3 8 41.65 7.46
5 3 8 33.51 8.76
5 -3 8 45.49 7.8
5 3 8 40.72 8.5
5 4 -11 138.86 11.97
5 -4 -11 150.36 14.16
5 -4 -10 8.39 5.63
5 -4 -10 9.95 4.51
5 4 -10 18.96 5.73
5 -4 -10 12.75 5.47
5 -4 -9 451.49 26.13
5 4 -9 461.85 23.38
5 -4 -9 392.19 20.41
5 -4 -9 460.28 24.86
5 4 -9 436.57 23.08
5 4 -9 450.26 23.38
5 -4 -9 416.49 24.68
5 4 -9 428.59 22.85
5 -4 -9 457.64 23.62
5 4 -9 430.17 28.38
5 4 -8 82.19 7.46
5 4 -8 90.73 7.63
5 -4 -8 66.87 8.03
5 -4 -8 71.07 9.02
5 -4 -8 65.87 4.67
5 -4 -8 70.89 5.26
5 -4 -8 90.05 9.5
5 4 -8 81.81 7.63
5 4 -8 83.6 8.14
5 4 -8 88.72 8.17
5 -4 -8 75.42 7.62
5 4 -7 714.67 29.78
5 4 -7 708.76 30.2
5 -4 -7 607.38 26.52
5 -4 -7 698.18 33.02
5 4 -7 684.47 29.75
5 4 -7 676.38 31.47
5 -4 -7 698.94 31.11
5 4 -7 710.15 31.38
5 -4 -7 699.72 30.88
5 -4 -6 229.36 10
5 4 -6 187.29 10.76
5 -4 -6 246.3 15.84
5 4 -6 187 10.39
5 4 -6 162.99 11.9
5 4 -6 191.73 13.81
5 4 -6 182.68 13.45
5 -4 -6 259.1 13.55
5 -4 -6 260.87 14.5
5 4 -6 195.27 12.56
5 -4 -5 470.24 20.87
5 4 -5 489.49 22.64
5 -4 -5 471.62 26.38
5 4 -5 470.29 23.36
5 4 -5 481.27 25.52
5 4 -5 477.22 25.39
5 -4 -5 459.5 24.78
5 -4 -5 482.16 22.99
5 4 -5 485.29 23.94
5 4 -4 52.43 6.29
5 -4 -4 89.62 4.95
5 -4 -4 93.9 9.42
5 4 -4 52.57 5.27
5 4 -4 50.94 6.95
5 4 -4 55.38 7.48
5 -4 -4 80.71 8.7
5 -4 -3 718.92 30.72
5 -4 -3 692.88 35.17
5 4 -3 667.79 31.27
5 4 -3 699.59 34.67
5 -4 -3 697.98 34.98
5 4 -3 688.1 34.82
5 -4 -2 3.09 3.63
5 4 -2 5.34 4.13
5 -4 -2 4.1 4.18
5 -4 -2 6.23 4.75
5 -4 -2 2.67 2.52
5 4 -2 9.64 4.58
5 -4 -1 170.98 12.13
5 4 -1 177.9 13.29
5 -4 -1 165.45 10.43
5 -4 -1 172.72 12.87
5 4 -1 178.28 10.19
5 -4 0 140.52 10.77
5 4 0 129.41 11.47
5 -4 0 131.74 11.35
5 4 0 126.27 10.83
5 4 0 123.24 9.02
5 4 1 5.46 3.36
5 -4 1 6.29 4.23
5 -4 1 9.55 5.18
5 -4 1 8.48 4.58
5 4 1 10.64 4.79
5 4 2 46.59 6.45
5 -4 2 55.43 6.97
5 -4 2 53.04 8.03
5 -4 2 54.35 7.4
5 4 2 44.28 7.61
5 4 2 38.77 6.19
5 4 2 36.56 6.42
5 4 3 30.98 5.89
5 -4 3 20.81 5.3
5 4 3 29.59 4.81
5 -4 3 15.17 5.22
5 4 3 29.97 6.27
5 4 4 11.58 4.99
5 -4 4 15.18 5.15
5 4 4 8.71 3.78
5 -4 4 16.07 5.67
5 4 4 6.6 4.52
5 4 5 196.61 12.9
5 -4 5 160.35 15.37
5 -4 5 171.93 13.81
5 4 5 202.19 14.69
5 4 5 173.17 13.56
5 4 5 193.12 14.84
5 -4 5 163.24 13.92
5 4 6 3.47 5.2
5 4 6 1.58 4.34
5 -4 6 4.05 4.84
5 4 6 0.55 4.82
5 4 6 5.77 4.43
5 4 7 141.96 12.18
5 -4 7 135.67 13.18
5 4 7 147.47 14.95
5 -4 7 139.74 12.85
5 4 7 155.87 14.15
5 4 7 168.65 12.67
5 4 7 156.74 14.51
5 4 8 5.16 6.4
5 -4 8 0.55 5.36
5 4 8 3.81 6.33
5 5 -10 194.11 13.17
5 -5 -10 186.73 14.66
5 -5 -10 179.1 14.63
5 -5 -10 179.99 13.58
5 -5 -9 61.04 8.27
5 -5 -9 65.27 8.17
5 -5 -9 54.28 9.37
5 5 -9 64.32 7.1
5 5 -9 72.64 8.28
5 -5 -9 53.5 8.79
5 5 -9 63.51 7.54
5 5 -9 79.16 8.91
5 5 -8 265.44 14.83
5 -5 -8 241.46 13.55
5 -5 -8 251.78 17.36
5 -5 -8 224.53 16.96
5 5 -8 256.31 16.25
5 5 -8 255.94 16.3
5 5 -8 250.96 16.33
5 -5 -8 248.8 16.01
5 -5 -8 264.17 16.45
5 -5 -7 24.27 5.47
5 -5 -7 23.92 4.94
5 5 -7 39.43 5.03
5 5 -7 27.33 4.46
5 5 -7 32.66 6.06
5 -5 -7 26.49 6.88
5 -5 -7 27.17 6.39
5 -5 -7 24.6 3.91
5 5 -7 28.38 5.84
5 5 -7 36.7 6.41
5 5 -6 700.22 30.26
5 5 -6 644.04 28.99
5 -5 -6 637.3 29.5
5 -5 -6 626.97 33.92
5 -5 -6 632.75 34.34
5 5 -6 657.79 28.84
5 5 -6 691.75 32.3
5 5 -6 694.94 33.69
5 5 -6 604.7 33.12
5 -5 -6 621.53 30.68
5 -5 -6 598.49 32.73
5 -5 -6 694.05 34.8
5 5 -6 740.46 31.18
5 -5 -5 57.25 7.77
5 -5 -5 68.29 8.51
5 -5 -5 70.19 5.43
5 5 -5 73.5 5.66
5 5 -5 67.71 8.15
5 -5 -5 60.87 8.12
5 -5 -5 69.01 8.84
5 5 -5 67.83 7.87
5 -5 -5 66.41 5.53
5 5 -5 65.65 7.21
5 5 -5 73.91 6.47
5 -5 -4 390.06 17.71
5 -5 -4 354.62 21.77
5 5 -4 334.6 17.87
5 5 -4 350.8 19.59
5 5 -4 324.68 20.4
5 5 -4 341.06 21.06
5 5 -4 360.36 18.45
5 -5 -4 362.64 21.39
5 -5 -3 44.09 6.83
5 5 -3 45.29 3.92
5 -5 -3 35.95 6.96
5 5 -3 51.12 5.58
5 -5 -3 39.95 4.61
5 5 -3 54.36 7.79
5 5 -3 45.8 6.66
5 -5 -2 693.46 31.74
5 5 -2 647.6 29.86
5 -5 -2 677.99 35.08
5 5 -2 689.97 32.53
5 5 -2 676.07 34.39
5 -5 -2 759.53 35.07
5 5 -2 682.06 35.16
5 5 -1 84.79 9.54
5 -5 -1 95.17 9.11
5 -5 -1 86.16 7.34
5 5 -1 90.63 8.11
5 5 -1 76.31 6.64
5 -5 0 127.85 11.05
5 5 0 166.28 13.07
5 -5 0 120.49 9.77
5 -5 0 138.81 11.93
5 5 0 162.33 11.27
5 5 0 154.22 12.04
5 5 0 155.66 10.38
5 -5 1 125.23 10.93
5 5 1 134.63 8.53
5 -5 1 147.92 10.61
5 -5 1 141.38 12.01
5 5 1 130.55 10.87
5 5 1 126.06 11.14
5 5 1 137.27 10.4
5 5 2 90.93 6.76
5 -5 2 76.07 8.94
5 5 2 83.06 8.8
5 -5 2 57.21 8.18
5 5 2 95.57 9.62
5 5 2 87.58 10.17
5 5 2 90.19 8.87
5 5 3 147.45 9.72
5 -5 3 145.68 12.27
5 5 3 138.33 13
5 5 3 130.18 11.68
5 5 3 151.44 12.2
5 5 3 137.04 11.7
5 -5 3 141.67 12.21
5 5 4 133.56 9.32
5 -5 4 102.85 10.96
5 5 4 128.17 11.09
5 5 4 117.5 11.03
5 -5 4 97.85 10.54
5 5 5 62.44 7.12
5 5 5 63.83 8.76
5 -5 5 57.42 8.61
5 -5 5 56.78 8.2
5 5 5 65.71 8.77
5 5 5 65.52 8.36
5 5 6 161.46 11.6
5 -5 6 118.84 11.99
5 5 6 127.51 12.83
5 5 6 145.15 12.4
5 5 6 160.02 14.43
5 5 7 71.4 11.04
5 -5 7 47.46 8.56
5 -5 7 57.82 9.19
5 5 7 64.53 10.21
5 5 7 61.08 8.19
5 -5 8 275.84 19.05
5 -6 -10 14.31 6.93
5 -6 -9 24.3 5.93
5 -6 -9 33.83 6.61
5 6 -9 30.42 7.04
5 -6 -9 21.87 7.5
5 6 -9 33.01 6.26
5 -6 -8 27.4 5.84
5 -6 -8 37.09 6.83
5 -6 -8 33.5 7.64
5 6 -8 43.01 7.55
5 6 -8 47.53 5.47
5 -6 -8 35.48 7.79
5 -6 -8 37.86 7.49
5 -6 -8 29.58 5.35
5 6 -8 44.66 6.99
5 6 -8 45.47 7.66
5 6 -7 61.53 5.44
5 -6 -7 50.41 6.28
5 -6 -7 45.84 7.34
5 6 -7 53.75 5.36
5 -6 -7 43.4 7.52
5 6 -7 50.89 7.82
5 -6 -7 53.52 8.75
5 -6 -7 50.46 7.85
5 -6 -7 38.37 5.58
5 6 -7 61.35 7.75
5 6 -7 53.88 7.78
5 -6 -6 7.45 4.9
5 -6 -6 8.5 3.39
5 -6 -6 8.41 5.36
5 6 -6 11.07 3.24
5 6 -6 10.17 2.88
5 6 -6 8.48 5.4
5 6 -6 10.75 2.22
5 -6 -6 14.57 6.49
5 6 -6 10.1 2.39
5 -6 -6 17.54 5.68
5 -6 -6 12.82 3.84
5 6 -6 13.59 5.13
5 6 -6 15.79 5.67
5 6 -5 149.82 8.38
5 -6 -5 143.84 9.85
5 -6 -5 149.69 12.71
5 -6 -5 158.75 13.65
5 6 -5 153.43 9.42
5 6 -5 165.19 12.2
5 6 -5 151.92 12.46
5 6 -5 148.03 12.86
5 -6 -5 148 8.49
5 -6 -5 149.37 12.55
5 6 -5 162.41 9.58
5 -6 -5 151.39 12.69
5 -6 -4 29.29 7.2
5 6 -4 19.71 3.82
5 -6 -4 25.57 6.15
5 6 -4 20.38 2.46
5 6 -4 24.63 6.31
5 -6 -4 25.05 6.38
5 -6 -4 30.43 6.65
5 6 -4 17.82 4.06
5 -6 -4 31.55 4.6
5 6 -4 21.39 5.43
5 6 -4 26.87 5.98
5 -6 -3 726.52 32.75
5 -6 -3 681.91 36.31
5 6 -3 665.78 32.6
5 6 -3 704.05 35.41
5 6 -3 681.3 36.1
5 -6 -3 693.21 35.34
5 -6 -2 16.27 5.35
5 6 -2 12.89 4.29
5 -6 -2 16.7 4.26
5 6 -2 12.08 1.65
5 6 -2 18.74 5.9
5 6 -2 14.6 5.25
5 -6 -1 1053.11 49.21
5 6 -1 1041.51 43.12
5 -6 -1 1112.12 47.34
5 6 -1 967.17 43.27
5 -6 -1 908.84 49.41
5 6 -1 1134.18 48.02
5 6 -1 1139.17 51.04
5 6 0 32.52 6.01
5 6 0 38.4 3.38
5 -6 0 37.2 6.7
5 -6 0 43.09 7.33
5 -6 0 44.42 6.07
5 6 0 44.04 6.56
5 6 0 45.72 7.02
5 -6 1 806.21 40.68
5 6 1 823.55 35.52
5 -6 1 820 39.38
5 -6 1 799.34 41.18
5 6 1 877.12 40.19
5 6 1 798.45 40.61
5 6 1 766.01 38.86
5 -6 2 99.52 10.02
5 6 2 72.86 5.97
5 6 2 72.89 8.39
5 6 2 79.57 10.2
5 -6 2 84.47 8.73
5 -6 2 93.85 10.18
5 6 2 88.03 9.35
5 6 2 71.55 8.79
5 -6 3 327.89 21.49
5 6 3 343.59 17.91
5 -6 3 335.13 21.64
5 6 3 384.39 23.88
5 6 3 354.89 21.52
5 6 3 367.95 21.78
5 6 3 351.64 21.61
5 6 4 1.08 4.53
5 -6 4 7.76 5.03
5 6 4 4.22 3.29
5 6 4 2 5.68
5 -6 4 13.4 5.79
5 6 4 5.7 5.34
5 -6 5 402.15 23.76
5 6 5 382.61 23.03
5 6 5 356.45 23.89
5 6 6 7.91 6.83
5 -6 6 12.2 5.78
5 6 6 8.23 6.63
5 6 6 -0.53 4.68
5 6 7 98.84 12.71
5 -6 7 104.18 11.35
5 -7 -10 53.74 8.33
5 -7 -9 78.1 9.88
5 7 -9 73.53 9.94
5 -7 -9 99.57 11.52
5 7 -9 86.18 9.63
5 -7 -8 65.37 9.11
5 -7 -8 56.99 9.56
5 7 -8 63.31 9.3
5 -7 -8 57.02 9.6
5 -7 -8 66.3 9.49
5 7 -8 86.91 9.52
5 7 -8 79.44 9.89
5 -7 -7 9.46 3.81
5 -7 -7 11.99 6.15
5 -7 -7 9.64 5.99
5 7 -7 6.19 5.19
5 -7 -7 2.43 5.52
5 -7 -7 9.36 5.56
5 -7 -7 3.63 4.41
5 7 -7 5.71 4.83
5 7 -7 9.1 6.11
5 7 -6 44.1 3.9
5 -7 -6 34.29 7.48
5 -7 -6 31.73 4.51
5 -7 -6 42.75 7.84
5 7 -6 44.59 8.01
5 7 -6 39.71 3.54
5 7 -6 38.19 3.76
5 -7 -6 40.52 8.78
5 -7 -6 42.06 7.59
5 -7 -6 36.72 5.7
5 7 -6 55.48 8.05
5 7 -6 49.07 8.09
5 -7 -5 78.08 9.61
5 -7 -5 88.15 9.63
5 7 -5 51.62 8.52
5 -7 -5 68.09 7.05
5 7 -5 71.21 6.45
5 -7 -5 75.02 9.22
5 -7 -5 91.41 10.57
5 7 -5 60.85 8.8
5 7 -5 65.37 5.15
5 -7 -4 295.93 18.87
5 -7 -4 260.23 15.9
5 -7 -4 245.22 18.74
5 7 -4 317.45 16.06
5 7 -4 310.26 18.8
5 7 -4 282.39 19.35
5 -7 -4 229.94 18.08
5 7 -4 272.81 14.16
5 -7 -4 265.36 18.04
5 -7 -3 169.53 11.74
5 -7 -3 194.26 15.05
5 7 -3 170.95 11.63
5 7 -3 151.58 13.95
5 -7 -3 170.26 13.37
5 -7 -2 484.5 26.29
5 7 -2 531.54 26.7
5 7 -2 552.23 30.24
5 -7 -2 517.26 28.18
5 -7 -1 18.36 5.83
5 -7 -1 8.53 5.05
5 -7 -1 8.6 5.53
5 7 -1 12.58 4.79
5 -7 -1 8.37 4.22
5 7 -1 13.18 5.4
5 -7 0 814.02 33.58
5 -7 0 774.32 31.4
5 -7 0 762.38 34.06
5 7 0 745.33 31.51
5 7 0 747.77 32.99
5 -7 1 83.2 9.44
5 -7 1 75.29 8.54
5 7 1 84.95 10.7
5 7 1 96.66 9.72
5 -7 1 72.97 9.67
5 7 1 89.88 9.97
5 7 1 84.73 8.88
5 -7 2 597.85 32.36
5 7 2 616.64 33.92
5 -7 2 603.37 31.69
5 -7 2 644.15 33.26
5 7 2 570.21 31.43
5 7 2 571.92 31.9
5 7 2 562.46 31.48
5 7 3 75.2 9.53
5 -7 3 51.3 8.17
5 7 3 62.93 9.64
5 -7 3 62.24 9.28
5 -7 3 50.32 7.96
5 7 3 66.83 8.9
5 7 3 70.88 8.98
5 -7 4 234.63 16.59
5 7 4 180.02 16.43
5 7 4 198 15.69
5 7 4 175.91 14.75
5 7 4 192.85 16.05
5 7 5 59.11 9.97
5 -7 5 41.26 8.34
5 7 5 66.21 9
5 7 6 130.32 14.75
5 -7 6 164.81 14.1
5 7 6 134.22 13.77
5 7 6 128.75 10.83
5 -7 6 157.74 14.24
5 7 7 33.97 6.6
5 -8 -8 15 6.85
5 8 -8 12.02 6.81
5 -8 -7 188.15 15.38
5 -8 -7 172.24 12.71
5 -8 -7 165.03 15.63
5 -8 -7 177.27 14.73
5 8 -7 173.11 14.74
5 8 -7 166.02 15.27
5 8 -7 175.05 14.55
5 -8 -7 187.23 15.16
5 -8 -6 77.31 10.19
5 -8 -6 83.69 9.87
5 8 -6 62.06 9.71
5 -8 -6 74.13 10.6
5 -8 -6 64.62 9.52
5 -8 -6 75.91 8.3
5 8 -6 75.87 10.25
5 -8 -5 169.29 12.33
5 -8 -5 179.5 14.59
5 -8 -5 153.22 14.64
5 8 -5 172.88 10.99
5 8 -5 185.41 14.82
5 8 -5 166.64 14.89
5 -8 -5 161.96 14.58
5 -8 -5 162.7 13.97
5 -8 -4 33.45 8.05
5 8 -4 18.18 2.54
5 -8 -4 28.54 6.4
5 8 -4 13.34 6.22
5 -8 -4 24.15 6.59
5 -8 -4 26.7 7.1
5 8 -4 23.48 5.04
5 -8 -4 23.38 5.56
5 8 -4 23.2 7.16
5 -8 -3 152.02 11.7
5 8 -3 135.97 10.76
5 8 -3 145.42 13.55
5 8 -3 160.26 14.28
5 8 -3 135.39 8.41
5 -8 -3 152.93 12.76
5 -8 -2 55.83 7.85
5 8 -2 54.73 9
5 -8 -2 40.48 8.11
5 8 -2 37.62 6.23
5 -8 -2 54.28 7.12
5 -8 -1 34.89 6.5
5 -8 -1 45.31 7.9
5 -8 -1 45.82 8.42
5 8 -1 45.3 7.09
5 -8 -1 52.72 7.13
5 8 -1 54.27 8.93
5 -8 0 47.19 7.89
5 -8 0 42.67 8.21
5 -8 0 44.4 8.37
5 8 0 62.53 8.27
5 -8 0 42.57 6.73
5 -8 1 68.16 8.92
5 8 1 51.74 8.93
5 -8 1 62.25 9.56
5 8 1 43.09 7.49
5 -8 1 62.01 8.11
5 8 1 48.27 8.09
5 8 2 73.66 9.46
5 -8 2 69.2 9.43
5 8 2 67.05 4.83
5 -8 2 88.16 11.04
5 8 2 72.31 10.49
5 -8 2 75.06 9.07
5 8 2 80.65 9.88
5 8 2 67.88 9.52
5 8 3 28.36 8.07
5 8 3 27.71 7.23
5 -8 3 20.59 6.37
5 -8 3 19.17 7.48
5 -8 3 12.51 5.81
5 8 3 26.68 7.36
5 8 3 20.1 3.58
5 8 3 25.65 6.83
5 8 4 52.98 9.9
5 -8 4 58.95 9.18
5 8 4 56.08 9.52
5 8 4 45.59 5.56
5 8 4 48.69 9.7
5 8 4 51.79 8.4
5 8 5 128.76 13.97
5 8 5 117.5 14.12
5 -8 5 111.22 12.5
5 8 5 126.95 12.66
5 8 6 24.19 9.04
5 -8 6 43.6 8.77
5 8 6 26.03 6.98
5 9 -8 171.89 16.07
5 -9 -7 59.35 10.15
5 9 -7 60.04 10.73
5 9 -7 56.33 10.33
5 -9 -6 496.94 29.24
5 -9 -6 491.73 27.35
5 -9 -6 523.52 29.51
5 -9 -6 515.96 31.02
5 9 -6 530.68 30.48
5 9 -6 515.02 31
5 -9 -6 491.53 30.22
5 -9 -5 8.61 7.27
5 -9 -5 10.36 6.16
5 9 -5 15.45 7.96
5 9 -5 11.92 4.61
5 -9 -5 4.13 6.34
5 -9 -5 5.15 6.32
5 -9 -5 2.23 4.62
5 9 -5 12.58 7.39
5 9 -4 118.57 13.25
5 -9 -4 148.96 11.72
5 -9 -4 135.11 12.75
5 9 -4 123.92 10.47
5 9 -4 151.56 14.03
5 -9 -4 121.41 13.37
5 -9 -4 142.05 14.16
5 -9 -4 121.21 11.87
5 -9 -3 19.6 6.32
5 9 -3 12.64 6.89
5 9 -3 25.66 5.66
5 -9 -3 15.58 5.87
5 9 -3 12.12 7.15
5 -9 -2 230.11 15.78
5 -9 -2 242.21 18.26
5 9 -2 189.21 14.51
5 9 -2 199.46 17.35
5 -9 -2 240.24 16.19
5 -9 -1 18.33 5.74
5 -9 -1 21.34 7.63
5 9 -1 15.04 6.14
5 9 -1 27 7.96
5 -9 -1 17.72 5.74
5 -9 0 -0.47 4.96
5 -9 0 -0.61 5.67
5 -9 0 -2.66 6.3
5 9 0 5.23 5.78
5 -9 0 4.12 4.81
5 9 1 20.44 7.11
5 -9 1 19.81 6.08
5 -9 1 16.16 6.74
5 -9 1 12.58 7.54
5 9 1 16.9 6.71
5 -9 1 16.35 5.72
5 -9 2 26.55 7.12
5 9 2 10.48 7.08
5 -9 2 21.16 8.01
5 9 2 12.1 6.78
5 -9 2 27.09 6.83
5 9 2 8.65 5.9
5 -9 3 3.3 6.71
5 -9 3 1.23 5.44
5 9 3 5.83 6.95
5 9 3 6.93 6.98
5 9 3 8.11 6.38
5 9 4 97.13 12.06
5 -9 4 91.65 11.91
5 -9 4 94.61 11.36
5 9 4 98.52 12.7
5 9 4 86.02 10.69
5 9 5 17.87 8.31
5 9 5 6.79 5.84
5 -9 5 8.54 7.49
5 9 5 6.93 5.95
5 10 -6 21.44 9.73
5 -10 -5 84.66 10.33
5 -10 -5 70.52 10.24
5 -10 -5 82.52 9.72
5 10 -5 86.56 11.68
5 -10 -4 62.57 10.83
5 -10 -4 47.44 8.29
5 10 -4 43.18 10.08
5 -10 -4 43.84 8.45
5 10 -4 50.46 7.24
5 -10 -4 47.97 7.95
5 10 -4 54.31 10.1
5 -10 -3 213.64 15.61
5 -10 -3 200.72 16.24
5 -10 -3 194.45 17.5
5 10 -3 216.51 14.93
5 10 -3 210.6 18.24
5 10 -3 198.43 18.2
5 -10 -3 199.02 17.7
5 -10 -3 189.19 15.09
5 -10 -2 2.97 4.83
5 10 -2 1.54 6.26
5 -10 -2 6.47 7.02
5 10 -2 0.49 5.47
5 -10 -2 7.42 5.28
5 -10 -1 133.5 12.58
5 -10 -1 132.37 14.12
5 10 -1 164.99 13.47
5 -10 -1 146.47 12.16
5 -10 0 4.76 5.34
5 -10 0 1.34 5.8
5 -10 0 8.54 7.09
5 10 0 1.15 6.07
5 -10 0 3.98 5.15
5 10 0 -0.78 6.98
5 -10 1 129.53 13.02
5 10 1 111.46 9.11
5 -10 1 119.31 12.18
5 10 1 113.46 12.32
5 -10 1 94.97 12.67
5 -10 1 111.54 10.87
5 -10 2 67.71 8.37
5 10 2 44.03 6.46
5 -10 2 68.44 10.99
5 10 2 37.67 9.01
5 -10 2 69.49 9.75
5 10 3 39.4 6.7
5 -10 3 50.51 10.08
5 10 3 38.09 9.42
5 -10 3 33.13 8.43
5 10 4 12.37 5.92
5 10 5 77.23 10.2
5 11 -5 0.78 8.66
5 -11 -4 61.74 9.38
5 -11 -4 57.35 9.14
5 11 -4 83.08 12.41
5 -11 -3 47.31 8.5
5 -11 -3 43.39 8.86
5 -11 -3 57.91 8.8
5 -11 -2 329.71 21.88
5 11 -2 342.15 21.61
5 -11 -2 348.75 21.26
5 -11 -1 40.07 7.38
5 -11 -1 33.31 8.92
5 11 -1 28.5 7.73
5 -11 -1 35.73 8
5 -11 0 191.4 15.9
5 11 0 177.07 15.69
5 -11 0 179.9 14.03
5 11 1 -3.34 7.22
5 -11 1 -4.55 6.17
5 -11 2 221.57 17.91
5 -12 -3 63.23 10.03
5 -12 -2 72.1 10.67
5 12 -1 23.38 8.63
5 -12 -1 37.77 8.64
5 12 0 0.68 6.86
6 0 -10 116.68 11.6
6 0 -10 102.74 12.65
6 0 -9 -2.02 5.49
6 0 -9 -1.29 5.75
6 0 -9 -0.56 3.63
6 0 -9 -1.51 3.9
6 0 -8 410.81 24.07
6 0 -8 420.02 22.05
6 0 -8 418.28 23.49
6 0 -8 409.52 22.92
6 0 -8 405.38 25.07
6 0 -7 1.88 4.69
6 0 -7 0.21 2.49
6 0 -7 -0.36 4.12
6 0 -7 -2.09 3.91
6 0 -7 3.42 4.56
6 0 -6 287 16.65
6 0 -6 256.52 16.58
6 0 -6 257.22 17.06
6 0 -6 279.11 17.72
6 0 -5 0.08 1.03
6 0 -5 3.1 4.62
6 0 -5 0.65 0.93
6 0 -5 1.47 3.82
6 0 -5 1.18 3.53
6 0 -5 1.78 4.13
6 0 -4 478.22 24.53
6 0 -4 464.2 25.45
6 0 -4 443.05 20.72
6 0 -4 458.95 25.07
6 0 -4 460.67 20.38
6 0 -3 3.67 2.08
6 0 -3 5.34 4.21
6 0 -3 1.39 4.2
6 0 -2 804.48 38.85
6 0 -2 809.06 40.08
6 0 -2 804.84 35.83
6 0 -1 2.34 2.61
6 0 -1 3.65 4.43
6 0 0 163.73 13.38
6 0 0 175.05 11.04
6 0 1 -0.32 3.26
6 0 1 0.54 4.7
6 0 1 0.51 4.22
6 0 2 37.56 5.69
6 0 2 40.83 7.59
6 0 2 34.35 6.64
6 0 3 2.92 4.48
6 0 3 -1.63 5.03
6 0 4 145.28 13.88
6 0 4 142.74 13.02
6 0 4 150.42 12
6 0 5 -1.55 4.77
6 0 5 1.42 5.36
6 0 5 -2.8 5.16
6 0 6 38.06 7.58
6 0 6 33.98 8.54
6 0 6 35.31 7.59
6 0 6 32.74 7.57
6 0 7 3.82 5.38
6 0 7 -1.07 5.79
6 -1 -10 127.69 12.27
6 1 -10 116.1 11.44
6 1 -10 115.74 13.46
6 -1 -10 138.76 13.94
6 -1 -9 108.16 11.24
6 1 -9 149.94 12.03
6 -1 -9 106.89 11.97
6 -1 -9 102.98 9.51
6 1 -9 137.29 10.54
6 -1 -9 106.56 9.69
6 1 -9 147.5 13.9
6 -1 -8 117.57 11.76
6 1 -8 135.34 11.32
6 1 -8 124.29 8.94
6 -1 -8 117.79 10.15
6 -1 -8 105.73 10.8
6 1 -8 124.9 10.5
6 -1 -8 112 10.26
6 -1 -8 121.11 11.89
6 -1 -8 111.71 6.89
6 1 -8 129.35 12.71
6 -1 -7 210.76 11.86
6 1 -7 289.16 15.24
6 -1 -7 252.56 15.82
6 -1 -7 235 15.95
6 1 -7 271.29 15.85
6 1 -7 269.52 16.54
6 -1 -7 237.96 15.8
6 -1 -7 232.39 11.92
6 1 -7 265.85 16.37
6 -1 -7 235.69 16.53
6 -1 -7 217.2 16.11
6 -1 -6 117.91 7.38
6 -1 -6 129.17 8.8
6 1 -6 143.18 10.15
6 -1 -6 130.38 10.9
6 -1 -6 121.74 10.71
6 1 -6 150.05 10.93
6 1 -6 134.48 11.18
6 -1 -6 117.46 10.7
6 -1 -6 120.99 7.49
6 1 -6 147.07 11.38
6 -1 -6 114.68 11.06
6 -1 -5 69.02 4.96
6 1 -5 49.03 7.05
6 -1 -5 62.62 7.99
6 -1 -5 62.39 6.25
6 1 -5 44.57 6.18
6 -1 -5 63.64 7.41
6 -1 -5 67.16 7.84
6 1 -5 41.04 6.22
6 1 -5 55.02 7.61
6 -1 -5 61.73 7.73
6 -1 -5 60 5.02
6 -1 -4 286.91 15.2
6 -1 -4 312.51 17.61
6 1 -4 322.98 18.11
6 1 -4 318.87 17.84
6 -1 -4 311.65 18.58
6 1 -4 340.29 19.58
6 -1 -4 292.61 18.93
6 1 -4 328.94 18.91
6 -1 -4 300.11 18.96
6 -1 -3 590.13 29.56
6 1 -3 586.75 29.35
6 -1 -3 587.21 30.05
6 1 -3 579.24 30.76
6 -1 -3 573.11 30.86
6 1 -3 581.94 25.45
6 -1 -3 589.36 27.05
6 -1 -2 159.26 12.45
6 1 -2 180.34 12.54
6 -1 -2 165.31 12.6
6 1 -2 174.5 13.17
6 -1 -2 157.63 13.1
6 1 -2 186.4 9.66
6 -1 -2 153.37 10.1
6 -1 -1 403.01 22.69
6 -1 -1 391.21 22.13
6 1 -1 358.85 19.01
6 -1 -1 413.88 20.08
6 -1 0 128.11 11.46
6 -1 0 128.94 11.04
6 1 0 125.43 11.56
6 1 0 134.05 9.28
6 -1 0 138.61 9.74
6 -1 1 271.73 18.4
6 1 1 246.65 17.57
6 -1 1 279.51 18.46
6 1 1 260.73 15.56
6 -1 1 287.32 16.24
6 1 2 44.15 6.19
6 -1 2 70.81 9.17
6 1 2 51.59 8.08
6 -1 2 56.91 8.33
6 -1 2 70.29 7.4
6 1 3 263.81 18.21
6 -1 3 238.08 17.9
6 1 3 288.5 16.93
6 -1 3 251.31 16.64
6 1 4 13.89 4.98
6 -1 4 10.99 4.74
6 1 4 4.66 5.27
6 -1 4 4.73 6.09
6 1 4 9.82 5.52
6 -1 4 9.04 5.33
6 1 5 155.8 14.3
6 -1 5 88.49 11.81
6 1 5 138.94 12.13
6 -1 5 95.93 11.52
6 1 5 140.49 12.13
6 -1 5 111.56 11.21
6 -1 6 92.29 10.66
6 1 6 112.08 10.84
6 1 6 107.77 12.89
6 -1 6 97.81 12.69
6 1 6 100.42 10.79
6 -1 6 102.45 11.25
6 1 6 106.81 11.17
6 1 7 151.71 13.08
6 -1 7 118.91 12.65
6 1 7 162.35 14.21
6 1 7 155.05 13.24
6 1 7 140.19 13.8
6 -1 7 133.52 13.57
6 -2 -11 38.02 9.29
6 2 -10 130.88 11.54
6 2 -10 144.04 12.27
6 2 -10 139.61 15.27
6 -2 -9 34.95 7.51
6 2 -9 31.18 6.42
6 -2 -9 38.14 7.75
6 2 -9 28.95 8.47
6 -2 -9 37.4 6.23
6 -2 -9 35.62 7.3
6 2 -9 27.42 5.61
6 -2 -8 119.54 11.55
6 2 -8 107.34 10.1
6 -2 -8 89.79 10.18
6 2 -8 104.34 7.5
6 -2 -8 122.89 10.58
6 -2 -8 88.07 9.78
6 2 -8 107.28 9.72
6 -2 -8 98.77 7.37
6 -2 -7 5.55 2.96
6 -2 -7 9.41 5.86
6 2 -7 -0.41 4.19
6 -2 -7 5.73 4.89
6 2 -7 0.62 3.62
6 2 -7 -0.54 3.1
6 -2 -7 9.77 5.16
6 -2 -7 7.53 5.05
6 2 -7 -1.47 4.13
6 2 -7 -0.44 4.15
6 -2 -7 4.4 4.42
6 -2 -6 5.05 3.12
6 2 -6 8.51 4.72
6 -2 -6 6.57 4.97
6 -2 -6 4.24 2.67
6 2 -6 3.84 3.64
6 -2 -6 2.68 4.75
6 -2 -6 7.34 4.63
6 2 -6 6.87 3.86
6 2 -6 7.27 3.89
6 2 -6 4.91 4.45
6 -2 -6 3.63 4.67
6 -2 -5 25.21 4.25
6 2 -5 22.93 5.33
6 -2 -5 23.56 6.4
6 -2 -5 20 4.03
6 -2 -5 22.76 4.32
6 2 -5 23.38 4.64
6 -2 -5 20.1 5.77
6 -2 -5 24.86 5.95
6 2 -5 24.67 4.74
6 2 -5 24.08 5.11
6 2 -5 23.61 5.75
6 -2 -5 18.07 5.64
6 -2 -4 281.66 15.28
6 -2 -4 281.67 16.49
6 2 -4 278.06 16.22
6 2 -4 273.4 16.32
6 -2 -4 282.68 17.99
6 2 -4 288.32 17.55
6 2 -4 283.3 17.97
6 -2 -4 277.64 18.09
6 -2 -4 284.72 18.3
6 -2 -3 169.01 9.83
6 -2 -3 158.75 11.18
6 2 -3 147.89 10.52
6 -2 -3 181.53 12.62
6 2 -3 145.68 11.56
6 2 -3 132.91 11.55
6 -2 -3 175.7 13.07
6 2 -3 118.04 6.43
6 -2 -2 467.94 23.09
6 -2 -2 434.03 24.68
6 -2 -2 471.49 25.65
6 2 -2 437.35 25.47
6 -2 -2 445.7 26.01
6 2 -2 472.19 21.07
6 2 -1 3.09 2.58
6 -2 -1 2.68 3.36
6 -2 -1 0.46 4.42
6 -2 -1 7.74 4.57
6 -2 0 611.71 32.02
6 2 0 595.3 31.82
6 2 0 587.74 28.41
6 -2 0 604.36 29.64
6 2 1 9.35 3.82
6 -2 1 13.89 4.57
6 -2 1 2.75 5.15
6 2 1 10.68 4.91
6 -2 1 13.59 5.21
6 -2 2 1218.14 58.76
6 -2 2 1241.08 57.17
6 2 2 1234.45 57.6
6 -2 2 1185.19 57.94
6 2 2 1223.38 55.19
6 -2 2 1195.86 55.62
6 2 3 33.67 5.74
6 -2 3 25.32 5.63
6 -2 3 26.67 6
6 2 3 34.6 6.76
6 -2 3 12.59 5.91
6 -2 4 609.2 33.4
6 2 4 594.01 33.29
6 -2 4 684.36 35.15
6 2 4 657.6 33.23
6 -2 4 624.54 33.11
6 2 5 30.71 6.57
6 -2 5 21.72 6.13
6 2 5 31.26 8.04
6 -2 5 23.23 7.37
6 2 5 35.37 6.37
6 -2 5 18.01 6.22
6 2 5 41.5 7.37
6 -2 5 23.76 6.58
6 2 6 435.6 24.46
6 2 6 402.33 27.24
6 -2 6 430.44 28.01
6 -2 6 432.28 25.7
6 2 6 441.74 25.92
6 2 6 403.49 24.94
6 2 6 435.83 26.14
6 -2 6 421.68 25.94
6 2 7 8.51 6.93
6 -2 7 14.9 6.69
6 2 7 7.56 5.83
6 -2 7 33.98 7.81
6 -2 7 19.72 7.04
6 2 7 13.27 6.76
6 2 7 15.51 5.91
6 3 -10 94.56 9.51
6 3 -10 89.86 9.52
6 -3 -10 93.83 11.27
6 3 -9 90.58 9.07
6 -3 -9 119.73 12.24
6 3 -9 94.34 9.43
6 -3 -9 119.15 10.71
6 -3 -9 115.68 11.32
6 3 -9 91.6 9.02
6 -3 -9 103.59 10.84
6 -3 -9 114.74 8.67
6 -3 -8 50.45 5.75
6 3 -8 33.94 5.58
6 -3 -8 44.93 8.31
6 3 -8 39.28 6.54
6 -3 -8 34.01 6.94
6 -3 -8 48.56 7.62
6 -3 -8 45.97 7.76
6 3 -8 34.8 6.11
6 3 -7 170.75 12.64
6 3 -7 184.66 11.25
6 -3 -7 210.95 15.14
6 -3 -7 197.22 14.66
6 3 -7 189.33 13.97
6 -3 -7 195.65 12.18
6 -3 -7 188.86 13.48
6 -3 -7 221.06 16.03
6 3 -7 194.83 13.38
6 3 -6 232.85 15.4
6 3 -6 235.1 13.91
6 -3 -6 262.44 17.24
6 -3 -6 307.88 17.94
6 3 -6 234.2 14.52
6 3 -6 224.28 16.01
6 -3 -6 253.81 17
6 -3 -6 271.58 14.95
6 3 -6 229.02 15.4
6 -3 -6 262.91 17.68
6 3 -5 252.04 15.65
6 3 -5 237.9 13.68
6 -3 -5 227.49 16
6 -3 -5 222.85 15.84
6 3 -5 233.11 13.77
6 3 -5 230.55 15.76
6 -3 -5 201.33 15.23
6 -3 -5 213.19 13.66
6 3 -5 232.63 14.75
6 -3 -5 197.41 15.65
6 -3 -4 333.21 18.01
6 -3 -4 340.86 18.68
6 3 -4 342.08 20.02
6 3 -4 307.82 17.92
6 -3 -4 348.74 20.64
6 3 -4 327.65 17.89
6 3 -4 325.87 20.26
6 -3 -4 310.61 20.08
6 -3 -3 268.35 16.05
6 -3 -3 279.02 17.19
6 -3 -3 266.97 18.26
6 3 -3 319.19 18.97
6 3 -3 334.01 19.22
6 -3 -3 276.65 18.73
6 -3 -2 391.69 20.47
6 -3 -2 403.35 21.84
6 -3 -2 400.45 22.73
6 3 -2 374.59 22.4
6 3 -2 371.77 22.2
6 -3 -2 374.73 22.75
6 3 -2 353.67 17.4
6 -3 -1 367.47 19.89
6 -3 -1 351.53 21.4
6 -3 -1 348.62 21.51
6 3 -1 379.67 22.41
6 -3 -1 312.02 21.54
6 3 -1 367.4 17.94
6 -3 0 240.16 16.83
6 3 0 247.33 16.89
6 3 0 231.46 13.97
6 -3 0 260.16 15.6
6 -3 1 537.07 30.51
6 -3 1 510.92 29.28
6 3 1 572.23 30.26
6 -3 1 538.78 30.55
6 3 1 584.39 27.8
6 -3 1 536.92 28.35
6 -3 2 109.4 11.63
6 -3 2 107.51 10.57
6 3 2 127.31 11.58
6 -3 2 104.6 11.2
6 3 2 121.99 9.96
6 -3 2 98.75 10.07
6 -3 3 286.96 19.86
6 -3 3 259.15 17.68
6 3 3 216.62 16.88
6 -3 3 284.27 19.28
6 3 3 217.6 15.95
6 -3 3 299.34 18.06
6 3 4 230.96 14.87
6 -3 4 211.93 16.23
6 3 4 235.08 16.87
6 3 4 242.97 16.56
6 -3 4 226.65 16.41
6 3 5 337.44 20.36
6 -3 5 357.86 24.29
6 -3 5 395.84 23.03
6 3 5 324.63 21.86
6 3 5 315.41 21.61
6 3 5 346.09 22.28
6 -3 5 397.65 23.08
6 3 6 33.37 7.72
6 -3 6 37.36 7.95
6 3 6 45.68 7.32
6 3 6 44.77 9.46
6 -3 6 37.29 9.36
6 -3 6 31.34 7.61
6 3 6 47.26 8.15
6 3 6 44.33 7.94
6 3 7 113.31 11.21
6 3 7 97.13 12.04
6 -3 7 147.89 13.48
6 3 7 114.33 12.44
6 3 7 123.9 11.82
6 4 -10 101.4 9.42
6 4 -9 27.09 5.69
6 -4 -9 23.31 6.51
6 4 -9 26.51 5.77
6 -4 -9 27.1 6.74
6 4 -9 24.05 5.54
6 -4 -8 425.53 25.6
6 4 -8 422.27 21.9
6 4 -8 425 22.41
6 4 -8 387.67 22.38
6 -4 -8 423.62 24.93
6 -4 -8 422.27 24.84
6 4 -8 407.71 23.55
6 -4 -8 386.96 23.04
6 -4 -8 421.28 22.37
6 -4 -7 27.01 5.15
6 -4 -7 32.53 7.11
6 4 -7 18 5.02
6 -4 -7 32.19 5.9
6 4 -7 25.57 5.66
6 4 -7 23.95 3.73
6 -4 -7 31 6.92
6 -4 -7 26.88 6.35
6 4 -7 20.65 3.08
6 4 -7 21.79 5.62
6 4 -6 524.29 27.76
6 4 -6 523.57 24.98
6 -4 -6 520.09 28.95
6 -4 -6 521.07 29.12
6 4 -6 511.97 28.18
6 -4 -6 519.53 26.76
6 4 -6 524.56 26.65
6 -4 -5 41.07 6.2
6 4 -5 24.92 5.12
6 4 -5 28.65 6.12
6 4 -5 26.8 4.59
6 -4 -5 37.04 7.14
6 -4 -5 32.19 7.19
6 4 -5 34.74 4.78
6 4 -5 31.31 5.92
6 4 -4 1002.66 47.63
6 -4 -4 939.59 47.91
6 4 -4 1001.92 44.08
6 4 -4 984.63 47.64
6 -4 -3 217.13 13.72
6 4 -3 174.31 14.26
6 -4 -3 197.53 13.69
6 4 -3 159.78 11.28
6 -4 -3 250.73 16.21
6 4 -3 168.78 13.86
6 -4 -3 220.12 15.66
6 -4 -3 215.6 15.08
6 -4 -2 289.28 17.85
6 -4 -2 292.96 18.71
6 4 -2 291.88 19.62
6 -4 -2 320.99 20.08
6 4 -2 342.61 20.14
6 -4 -2 304.7 20.4
6 4 -2 312.13 14.98
6 -4 -1 70.65 7.38
6 -4 -1 68.34 8.53
6 4 -1 47.14 7.93
6 4 -1 48.03 5.43
6 -4 -1 78.81 9.24
6 -4 0 212.22 14.53
6 -4 0 225.07 16.19
6 4 0 211.2 16.2
6 4 0 204.83 15.4
6 4 0 219.2 13.19
6 4 1 37.47 5.96
6 4 1 36.02 7.84
6 -4 1 65.45 7.65
6 -4 1 78.37 9.57
6 -4 1 67.99 8.75
6 4 1 41.52 7.38
6 4 2 61.37 7.54
6 -4 2 66.43 8.57
6 -4 2 63.49 9.26
6 -4 2 65.64 8.65
6 4 2 54.25 8.04
6 4 3 12.67 4.76
6 -4 3 8.05 4.69
6 4 3 16.28 4.31
6 -4 3 12.88 6.3
6 -4 3 11.39 5.49
6 4 3 6.59 4.73
6 4 3 9.9 5.12
6 4 4 27.02 6.39
6 -4 4 18.39 6.04
6 4 4 24.22 5.52
6 -4 4 20.03 6.41
6 4 4 29.16 6.59
6 4 5 16.46 6.26
6 -4 5 28.02 6.78
6 4 5 11.77 4.65
6 -4 5 18.54 7.25
6 -4 5 13.76 6.12
6 4 5 11.59 6.22
6 4 5 16.51 6.18
6 4 6 93.35 9.5
6 4 6 82.96 10.99
6 -4 6 75.03 10.28
6 -4 6 74.9 10.2
6 4 6 84.09 10.76
6 4 6 79.19 10.29
6 4 7 1.92 5.09
6 5 -9 241.84 14.77
6 5 -9 253.99 16.61
6 -5 -9 222.1 15.38
6 -5 -8 53.01 7.13
6 5 -8 61.25 6.83
6 5 -8 58.81 6.46
6 -5 -8 47.69 6.99
6 -5 -8 47.7 8.96
6 5 -8 61.94 8.19
6 5 -8 56.29 7.64
6 5 -7 316.69 16.94
6 5 -7 288.73 15.84
6 5 -7 290.22 14.18
6 -5 -7 245.23 19.09
6 5 -7 284.85 13.83
6 5 -7 309.7 16.26
6 5 -7 301.97 19.04
6 -5 -7 270.52 17.48
6 -5 -7 265.63 16.32
6 5 -7 317.48 18.75
6 5 -6 51.51 7.57
6 -5 -6 38.42 6.6
6 5 -6 46.74 6.13
6 -5 -6 42.14 7.88
6 5 -6 50.19 5.18
6 5 -6 47.11 4.89
6 -5 -6 44.97 8.35
6 5 -6 57.92 7.79
6 -5 -5 305.96 13.99
6 5 -5 316.31 16.68
6 -5 -5 314.29 20.75
6 5 -5 313.54 16.56
6 5 -5 315.2 19.94
6 -5 -5 328.82 19.36
6 5 -5 297.12 17.36
6 -5 -5 307.98 20.41
6 5 -5 303.21 19.61
6 5 -4 150.25 12.65
6 -5 -4 128.1 7.71
6 -5 -4 122.52 12.48
6 5 -4 140.66 8.68
6 5 -4 154.51 10.2
6 5 -4 150.3 12.63
6 5 -4 140.64 10.33
6 -5 -4 128.04 12.18
6 -5 -3 757.17 37.96
6 5 -3 788.35 39.95
6 -5 -3 801.3 34.75
6 -5 -3 779.1 40.19
6 5 -3 756.97 34.63
6 5 -3 784.45 36.78
6 5 -3 756.59 39.23
6 -5 -3 777.14 39.44
6 -5 -2 98.43 9.47
6 5 -2 90.25 10.24
6 5 -2 91.48 7.02
6 -5 -2 113.07 11.08
6 5 -2 103.79 8.96
6 5 -2 75.75 9.18
6 -5 -2 98.63 10.22
6 -5 -1 169.47 12.78
6 5 -1 142.12 13.16
6 5 -1 146 11.53
6 5 -1 157.31 10.29
6 5 0 46.21 6.28
6 -5 0 47.54 7.11
6 5 0 64.13 8.88
6 -5 0 52.2 8.4
6 5 0 43.75 6.82
6 5 0 44.84 7.61
6 -5 1 204.9 14.87
6 -5 1 227 16.27
6 5 1 189.73 14.23
6 5 1 210.36 15.67
6 5 1 184.73 13.36
6 5 2 148.4 10.2
6 -5 2 154.35 13.43
6 5 2 144.71 12.58
6 5 2 145.81 13.19
6 5 2 176.66 12.7
6 -5 2 170.98 13.33
6 5 3 21.8 6
6 -5 3 15.08 5.63
6 5 3 21.4 4.45
6 -5 3 19.99 6.68
6 5 3 14.3 5.67
6 5 3 21.19 6.33
6 5 4 43.57 8.26
6 -5 4 42.04 7.41
6 5 4 45.52 6.07
6 -5 4 48.21 8.18
6 5 4 55.12 8.54
6 5 5 29.48 7.95
6 -5 5 14.69 6.48
6 5 5 36.74 6.12
6 -5 5 23.87 7.26
6 5 5 30.97 7.61
6 5 5 39.39 7.74
6 5 6 52.61 9.77
6 -5 6 35.4 8.29
6 5 6 45.97 7.06
6 -5 6 36.29 8.26
6 5 6 51.31 8.96
6 5 6 30.1 7.05
6 -6 -9 30.08 8.82
6 -6 -8 128.48 13.34
6 6 -8 133.42 12.01
6 6 -8 127.7 11.68
6 -6 -8 130.28 11.48
6 -6 -7 4.22 4.93
6 -6 -7 4.88 5.93
6 6 -7 15.68 4.07
6 6 -7 18.63 3.87
6 -6 -7 3.75 6.32
6 -6 -7 7.58 5.59
6 6 -7 13.1 5.77
6 6 -7 9.71 5.32
6 6 -7 8.21 5.02
6 -6 -6 44.58 7.42
6 -6 -6 36.33 7.44
6 6 -6 39.43 5.34
6 6 -6 32.77 4.25
6 -6 -6 45.29 3.83
6 6 -6 32.1 4.19
6 -6 -6 34.8 8.19
6 -6 -6 35.86 7.21
6 6 -6 31.48 4.36
6 6 -6 35.42 7.03
6 6 -6 31.22 6.8
6 6 -5 129.87 7.63
6 -6 -5 102.59 7.33
6 -6 -5 108.98 11.34
6 6 -5 138.29 9.11
6 -6 -5 105.76 12.28
6 6 -5 131.88 11.85
6 -6 -5 112.98 11.35
6 6 -5 126.53 11.88
6 6 -5 123.69 9.11
6 -6 -5 133.98 12.54
6 -6 -4 132.1 8.26
6 -6 -4 126.4 12.67
6 6 -4 114.8 9.08
6 6 -4 118.22 11.52
6 6 -4 103.71 8.92
6 -6 -4 114.31 11.82
6 6 -4 119.16 11.86
6 -6 -3 41.94 7.52
6 6 -3 62.98 9.1
6 6 -3 58.28 4.31
6 -6 -3 40.73 8.17
6 -6 -3 43.68 5.23
6 6 -3 56.93 6.58
6 6 -3 65.96 8.32
6 -6 -2 99.68 9.93
6 6 -2 108.52 11.44
6 -6 -2 97.5 8.03
6 6 -2 97.86 6.3
6 6 -2 107.31 9.18
6 -6 -2 82.63 10.89
6 6 -2 113.97 10.94
6 -6 -2 104.25 10.63
6 -6 -1 44.73 7.23
6 -6 -1 51.59 6.4
6 6 -1 39.67 6.52
6 6 -1 45.64 8.37
6 -6 0 345.94 21.68
6 6 0 346.43 16.93
6 6 0 394.79 24.15
6 -6 0 338 22.49
6 6 0 361.72 21.06
6 6 0 356.49 22.36
6 6 0 338.49 19.53
6 6 1 73.55 6.12
6 -6 1 78.61 9.53
6 -6 1 93.03 10.78
6 6 1 64.66 8.37
6 6 1 73.27 9.46
6 6 1 80.96 8.69
6 -6 2 309.96 20.77
6 6 2 331.84 16.91
6 -6 2 301.25 21.22
6 6 2 331.18 22.89
6 6 2 322.11 20.61
6 6 2 313.29 21.09
6 6 2 321.14 19.89
6 6 3 22.95 6.34
6 -6 3 39.14 7.25
6 6 3 27.81 4.72
6 -6 3 35.8 7.73
6 6 3 25.68 6.95
6 6 3 24.97 6.63
6 6 4 225.2 13.98
6 -6 4 226.83 17.49
6 6 4 235.78 17.64
6 6 4 221.1 17.21
6 6 4 236.53 17.59
6 -6 4 216.88 16.92
6 6 5 54.63 9.79
6 -6 5 63.23 9.1
6 6 5 58.14 9
6 -6 6 147.55 14.4
6 6 6 159.6 14.29
6 6 6 164.24 15.83
6 -7 -8 32.27 7.24
6 7 -8 29.41 7.39
6 7 -8 39.23 7.71
6 -7 -7 123.22 13.47
6 7 -7 97.4 11.31
6 7 -7 116.66 11.94
6 -7 -7 128.94 11.91
6 -7 -6 30.83 7.71
6 -7 -6 30.2 7.38
6 -7 -6 25.32 7.65
6 -7 -6 36.51 7.82
6 7 -6 11.35 6.55
6 7 -6 23.67 6.61
6 7 -6 16.01 5.98
6 -7 -5 32.98 7.56
6 7 -5 49.53 5.46
6 -7 -5 47.75 8.28
6 -7 -5 37.98 7.76
6 -7 -5 27.08 8.53
6 7 -5 53.67 6.27
6 -7 -5 39.34 5.18
6 7 -5 38.93 8.1
6 7 -5 45.85 7.91
6 7 -4 12.36 3.9
6 -7 -4 13.62 6.29
6 -7 -4 17.69 7.25
6 7 -4 9.52 4.53
6 -7 -4 16.85 4.24
6 7 -4 13.73 5.95
6 7 -4 17.98 7.23
6 -7 -3 105.88 8.88
6 7 -3 135.27 10.25
6 -7 -3 103.67 12.14
6 7 -3 120.61 11.71
6 7 -3 126.54 12.7
6 -7 -3 98.71 11.09
6 -7 -2 58.69 8.66
6 7 -2 49.42 8.87
6 -7 -2 61.7 8.51
6 -7 -2 48.56 6.38
6 7 -2 48.23 6.99
6 7 -2 45.2 7.76
6 -7 -1 160.85 13.23
6 7 -1 122.45 6.26
6 7 -1 155.43 14.14
6 -7 -1 133.32 10.63
6 -7 -1 145.44 13.71
6 7 -1 162.16 11.95
6 -7 -1 147.58 12.69
6 7 0 33.72 3.08
6 -7 0 52.66 7.98
6 -7 0 36.98 8.22
6 -7 0 42.85 6.46
6 7 0 40.24 7.09
6 7 0 50.61 9.08
6 7 0 37.58 7.58
6 7 1 221.51 11.55
6 -7 1 246.93 17.36
6 -7 1 215.77 15.37
6 -7 1 212.26 17.19
6 7 1 232.52 16.46
6 7 1 209.3 16.76
6 7 1 238.26 15.94
6 7 2 11.57 5.79
6 -7 2 2.94 6.07
6 -7 2 7.72 6.29
6 7 2 11.1 5.9
6 7 2 4.47 5.94
6 7 2 10.49 5.37
6 -7 3 205.55 16.89
6 7 3 206.4 18.03
6 7 3 213.86 16.7
6 7 3 215.57 16.75
6 7 3 196.15 16.21
6 -7 3 225.83 16.82
6 7 4 24.26 7.7
6 -7 4 12.91 6.29
6 -7 4 12.39 7.22
6 7 4 15.39 6.71
6 7 4 13.33 6.52
6 -7 5 311.42 21.9
6 7 5 281.85 20.76
6 7 5 308.39 21.96
6 8 -8 193.77 15.89
6 8 -8 171.52 15.65
6 -8 -8 182.99 15.2
6 -8 -7 23.63 7.28
6 8 -7 5.22 6.52
6 8 -7 13.91 6.4
6 -8 -6 187.09 17.09
6 8 -6 211.47 15.96
6 8 -6 221.25 16.8
6 8 -6 204.85 17.09
6 -8 -6 198 16.17
6 -8 -5 20.47 7.37
6 -8 -5 15.51 7.02
6 -8 -5 12.27 6.68
6 -8 -5 14.12 7.85
6 8 -5 12.87 4.68
6 8 -5 15.41 7.17
6 -8 -5 12.5 4.38
6 8 -5 12.93 6.04
6 -8 -4 276.53 16.19
6 -8 -4 255.49 18.8
6 -8 -4 261.45 20.17
6 8 -4 267.56 16.27
6 8 -4 254.47 18.71
6 8 -4 270 20.11
6 -8 -4 272.75 19.58
6 -8 -4 280.33 19.13
6 -8 -3 55.22 8.61
6 -8 -3 52.99 9.97
6 8 -3 35.59 6.11
6 -8 -3 46.34 6.49
6 8 -3 32.47 7.18
6 8 -3 38.67 8.68
6 -8 -2 65.59 9.24
6 -8 -2 66.76 9.38
6 8 -2 68.42 8.45
6 -8 -2 61.24 7.51
6 8 -2 63.61 9.46
6 8 -2 76.51 10.56
6 -8 -1 50.25 8.5
6 -8 -1 56.84 8.77
6 8 -1 48.95 9.29
6 -8 -1 50.58 9.65
6 -8 -1 52.62 7.2
6 8 -1 42.64 7.44
6 -8 0 45.25 8.18
6 -8 0 60.23 9.17
6 8 0 46.59 9.61
6 -8 0 53.23 9.62
6 -8 0 52.06 7.39
6 8 0 45.98 7.91
6 8 0 45.01 8.17
6 -8 1 1.85 5.45
6 -8 1 -0.69 6.55
6 -8 1 5.09 5.03
6 8 1 5.06 5.78
6 8 1 -0.64 5.96
6 8 2 28.12 7.28
6 -8 2 22.79 7.03
6 8 2 34.77 9.06
6 -8 2 31.81 8.71
6 8 2 30.1 7.81
6 8 2 16.95 6.83
6 8 3 39.43 8.76
6 -8 3 45.24 8.85
6 -8 3 34.54 9.31
6 8 3 43.96 8.92
6 8 3 38.36 8.66
6 8 4 50.89 9.85
6 8 4 53.97 9.31
6 8 5 5.11 8.01
6 9 -5 192.69 17.4
6 -9 -5 175.18 16.49
6 -9 -4 5.54 7.77
6 -9 -4 2.37 6.05
6 -9 -4 4.44 6.81
6 9 -4 12.13 5.31
6 -9 -4 4.04 4.58
6 9 -4 2.23 7.16
6 -9 -3 316.08 18.99
6 9 -3 327.05 19.38
6 9 -3 293.6 21.25
6 9 -3 280.49 22.18
6 -9 -3 327.26 21.39
6 -9 -2 46.8 8.39
6 -9 -2 39.02 8.88
6 -9 -2 55.53 10.17
6 9 -2 43.81 7.6
6 -9 -2 55.6 7.48
6 9 -2 54.22 9.07
6 9 -2 58.56 10.22
6 9 -1 24.75 8.28
6 -9 -1 33.82 7.4
6 -9 -1 36.8 8.58
6 -9 -1 32.48 8.82
6 9 -1 25.92 6.8
6 -9 -1 29.68 6.46
6 9 -1 22.7 7.14
6 -9 0 7.26 6.27
6 -9 0 7.84 6.29
6 -9 0 5.89 7.24
6 9 0 2.28 5.98
6 -9 0 6.74 5.24
6 -9 1 67.12 9.42
6 -9 1 80.33 10.76
6 -9 1 81.88 10.09
6 9 1 61.58 9.9
6 -9 2 14.91 7.01
6 -9 2 14.32 6.51
6 9 2 21.52 8.04
6 9 4 11.34 7.71
6 -10 -3 33.26 8.03
6 10 -3 42.08 7.47
6 -10 -3 35.95 6.98
6 -10 -2 208.19 17.37
6 -10 -2 178.99 14.5
6 10 -2 196.02 15.31
6 -10 -1 53.45 9.22
6 -10 -1 75.6 11.12
6 10 -1 56.81 9.37
6 -10 -1 65.3 9.06
6 -10 0 167.57 14.13
6 10 0 185.69 15.68
6 -10 0 158.26 14.47
6 -10 1 8.36 6.46
6 10 1 11.91 7.74
6 -10 1 13.93 6.88
6 -10 2 244.69 18.59
6 -11 -1 232.87 18.21
6 11 -1 268.6 19.33
6 11 0 18.65 8.1
6 -11 0 14.3 6.96
7 0 -9 355.13 22.55
7 0 -8 -3.79 5.61
7 0 -8 0.8 4.71
7 0 -8 4.34 5.05
7 0 -8 1.01 4.89
7 0 -7 389.73 20.64
7 0 -7 409.47 22.86
7 0 -7 393.35 23.09
7 0 -7 433.96 24.52
7 0 -7 396.63 24.11
7 0 -6 -3.11 5.34
7 0 -6 1.37 3.77
7 0 -6 -1.73 4.25
7 0 -6 0.46 4.1
7 0 -6 -2.66 4.97
7 0 -5 935.58 42.03
7 0 -5 937.48 43.04
7 0 -5 970.34 42.98
7 0 -5 965.53 44.55
7 0 -5 973.62 44.16
7 0 -5 829.2 36.28
7 0 -4 2.95 5.31
7 0 -4 -0.78 1.66
7 0 -4 -2.22 4.33
7 0 -4 2.75 5.02
7 0 -3 870.04 42.77
7 0 -3 866.7 44.23
7 0 -3 887.17 38.67
7 0 -2 1.38 2.68
7 0 -2 2.06 4.22
7 0 -2 -0.47 4.31
7 0 -2 0.57 4.55
7 0 -1 591.1 33.12
7 0 -1 618.25 32.67
7 0 -1 634.32 29.72
7 0 0 -0.97 3.29
7 0 0 -0.59 5.07
7 0 0 1.01 4.23
7 0 0 1.8 5.15
7 0 1 575.38 32.01
7 0 1 514.23 30.86
7 0 1 557.99 28.22
7 0 2 -0.42 3.91
7 0 2 6.1 5.99
7 0 2 -5.02 5.54
7 0 3 101.22 11.84
7 0 3 105.13 10.18
7 0 4 3.11 5.26
7 0 4 3.26 6.23
7 0 5 34.37 7.68
7 0 5 20.42 7.19
7 0 6 -3.8 6.59
7 0 6 2.24 6.5
7 0 6 3.32 6.3
7 1 -10 121.92 11.9
7 -1 -10 110.08 13.02
7 -1 -9 54.08 9.24
7 1 -9 68.25 8.97
7 -1 -9 65.06 9.18
7 1 -9 68.04 8.61
7 -1 -8 100.41 11.49
7 1 -8 110.22 9.37
7 -1 -8 92.88 10.04
7 -1 -8 108.03 10.82
7 1 -8 104.59 10.35
7 1 -8 116.66 11.02
7 -1 -8 117.79 10.93
7 1 -8 106.03 10.88
7 -1 -7 169.33 10.12
7 1 -7 159.88 11.81
7 -1 -7 153.4 12.65
7 -1 -7 176.09 13.35
7 1 -7 153.16 12.17
7 1 -7 164.43 13.39
7 -1 -7 171.19 13.73
7 1 -7 185.45 13.61
7 -1 -7 161.2 13.74
7 -1 -7 141.78 7.61
7 -1 -6 256.14 15.53
7 1 -6 296.77 17.26
7 -1 -6 297.3 18.24
7 -1 -6 269.54 17.69
7 1 -6 268.32 17.03
7 1 -6 307.3 18.95
7 -1 -6 259.06 18.42
7 -1 -6 253.9 12.86
7 1 -6 296.45 18.38
7 -1 -6 264.33 18.49
7 -1 -6 254.98 12.73
7 -1 -5 135.53 11.08
7 -1 -5 153.74 12.79
7 1 -5 191.26 12.76
7 -1 -5 134.81 12.28
7 1 -5 207.98 13.28
7 1 -5 168.99 13.75
7 -1 -5 142.57 13.04
7 -1 -5 150.91 9.19
7 1 -5 182.64 13.61
7 -1 -5 141.11 12.93
7 -1 -5 151.16 8.74
7 -1 -4 455.59 25.22
7 1 -4 448.04 25.04
7 1 -4 484.04 25.54
7 -1 -4 463.27 25.96
7 1 -4 497.69 27.52
7 -1 -4 456.85 27.05
7 -1 -4 453.4 26.45
7 -1 -4 474.49 22.05
7 -1 -3 150.54 12.91
7 1 -3 188.73 13.17
7 -1 -3 141.19 12.68
7 1 -3 181.49 14.51
7 -1 -3 149.64 13.61
7 1 -3 195.71 9.41
7 -1 -3 163.97 10.35
7 -1 -2 284.98 18.49
7 1 -2 265.59 17.81
7 -1 -2 291.16 18.83
7 1 -2 268.24 19.08
7 -1 -2 284.6 19.33
7 1 -2 271.21 14.62
7 -1 -2 311.95 15.88
7 -1 -1 122.01 11.83
7 1 -1 134.62 11.65
7 -1 -1 120.38 11.62
7 1 -1 133.75 9.07
7 -1 -1 136.57 9.69
7 -1 0 212.77 16.54
7 -1 0 237.31 16.25
7 1 0 200.27 16.15
7 -1 0 211.78 16.69
7 1 0 194.97 12.99
7 -1 0 231.07 13.99
7 -1 1 211.64 16.88
7 1 1 225.3 16.8
7 -1 1 184.15 16.11
7 1 1 225.32 14.01
7 -1 1 200.01 13.85
7 1 2 214.03 18.26
7 -1 2 273.07 19.78
7 1 2 234.34 18.2
7 -1 2 283.34 19.65
7 1 2 242.46 16.11
7 -1 2 287.37 17.16
7 -1 3 162.3 15.42
7 -1 3 146.32 13.65
7 1 3 158.7 14.47
7 -1 3 186.72 15.6
7 1 3 150.54 12.55
7 -1 3 192.52 13.83
7 1 4 86.67 9.93
7 -1 4 86.76 9.77
7 1 4 74.83 11.14
7 1 4 104.37 11.59
7 -1 4 97.69 11.92
7 1 5 20.65 6.63
7 -1 5 19.15 6.2
7 1 5 13.03 6.53
7 -1 5 16.2 7.27
7 1 6 125.92 11.74
7 1 6 115.08 12.88
7 -1 6 89.17 12.07
7 1 6 112.29 12.59
7 2 -10 8.66 5.87
7 2 -9 257.9 17.4
7 2 -9 251.95 17.23
7 -2 -8 19.79 7.04
7 2 -8 30.84 6.64
7 -2 -8 22.37 6.94
7 -2 -8 27.12 6.99
7 2 -8 15.96 5.95
7 -2 -8 35.56 6.89
7 -2 -7 216.05 12.17
7 2 -7 236.58 14.48
7 -2 -7 228.05 16.51
7 -2 -7 208.78 16.02
7 2 -7 247.67 15.28
7 2 -7 226.31 16.31
7 -2 -7 219.45 16.42
7 -2 -7 225.3 12.26
7 2 -7 216.79 15.43
7 -2 -7 213.81 16.82
7 -2 -6 69.11 5.92
7 2 -6 55.53 7.65
7 -2 -6 72.59 9.4
7 -2 -6 71.97 6.76
7 2 -6 58.85 7.03
7 -2 -6 66.32 8.87
7 -2 -6 63.25 8.47
7 2 -6 49.75 7.09
7 2 -6 48.98 7.74
7 -2 -6 78.68 9.51
7 -2 -6 67.43 5.98
7 -2 -5 70.16 6.09
7 2 -5 54.94 7.84
7 -2 -5 70.39 9.18
7 -2 -5 79.51 7.79
7 2 -5 70.33 7.63
7 -2 -5 74.39 8.94
7 -2 -5 76.96 9.19
7 2 -5 70.04 7.78
7 2 -5 74.7 9.41
7 -2 -5 69.39 6.61
7 -2 -5 54.92 8.35
7 -2 -4 30.42 6.62
7 -2 -4 27.83 4.29
7 -2 -4 35.4 6.08
7 2 -4 43.66 6.18
7 -2 -4 40.63 7.12
7 2 -4 41.34 6.39
7 2 -4 38.24 7.07
7 -2 -4 30.51 6.96
7 -2 -3 39.98 5.16
7 -2 -3 49.41 7.38
7 2 -3 38.62 6.47
7 -2 -3 42.07 7.4
7 2 -3 49.08 7.87
7 -2 -3 46.12 8.33
7 2 -3 41.75 3.14
7 2 -2 0.72 2.42
7 -2 -2 -0.3 3.34
7 -2 -2 -0.5 5.06
7 -2 -2 -0.53 4.21
7 2 -2 2.87 4.85
7 -2 -2 0.59 4.8
7 -2 -1 350.28 22.21
7 -2 -1 346.87 22.07
7 2 -1 378.57 18.51
7 -2 -1 336.65 19.38
7 2 0 15.73 4.12
7 -2 0 15.23 4.74
7 -2 0 24.36 7.06
7 -2 0 12.02 5.22
7 2 0 12.52 5.61
7 -2 0 15.57 6.44
7 -2 1 375.32 25.22
7 2 1 413.08 25.32
7 -2 1 391.21 25.38
7 2 1 422.84 22.2
7 -2 1 414.73 22.77
7 2 2 23.91 5.5
7 -2 2 39.2 6.34
7 -2 2 30.35 7.58
7 -2 2 31.56 7.21
7 2 2 25.39 6.72
7 -2 2 35.49 7.77
7 -2 3 203.74 17.32
7 -2 3 205.7 16.28
7 2 3 215.28 16.91
7 -2 3 204.43 17.28
7 2 3 205.04 14.72
7 -2 3 194.3 14.78
7 2 4 4.2 5.13
7 -2 4 12.57 5.94
7 2 4 3.85 6.02
7 -2 4 12.86 6.03
7 2 4 3.21 6.02
7 -2 4 19.26 7.52
7 2 5 642.68 32.5
7 2 5 578.6 33.91
7 -2 5 608.98 34.85
7 2 5 601.71 33.64
7 -2 5 610.01 33.85
7 2 6 9.67 6.6
7 2 6 6.67 5.32
7 2 6 2.62 6.69
7 3 -9 61.25 8.26
7 -3 -9 59.93 9.01
7 -3 -8 69.58 10
7 3 -8 65.63 8.3
7 -3 -8 63.76 9.34
7 -3 -8 70.84 9.54
7 3 -8 67.72 8.82
7 -3 -7 25.46 4.58
7 3 -7 14.98 5.41
7 -3 -7 12.74 6.34
7 -3 -7 21.49 4.61
7 3 -7 22.2 5.31
7 3 -7 18.16 4.63
7 -3 -7 26.57 7.28
7 -3 -7 27.32 7.05
7 3 -7 23.48 5.41
7 3 -7 24.3 6.51
7 -3 -6 99.07 8.17
7 3 -6 89.62 8.2
7 -3 -6 105.06 10.82
7 -3 -6 103.84 11.01
7 3 -6 94.67 8.69
7 3 -6 86.07 9.24
7 -3 -6 96.57 10.59
7 3 -6 86.66 10
7 -3 -6 93.67 8.1
7 3 -6 96.67 9.71
7 -3 -6 102.96 11.35
7 -3 -5 60.3 7.07
7 3 -5 51.8 7.48
7 -3 -5 68.37 9.27
7 -3 -5 53.33 6.14
7 -3 -5 61.13 7.16
7 3 -5 45.47 6.29
7 -3 -5 59.71 8.68
7 -3 -5 42.92 8.1
7 3 -5 44.64 6.08
7 3 -5 42.12 7.67
7 -3 -5 64.85 9
7 3 -5 38.74 6.91
7 -3 -4 159.46 11.06
7 -3 -4 179.2 12.82
7 3 -4 173.24 12.16
7 3 -4 157.41 11.55
7 -3 -4 163.63 14.08
7 3 -4 174.34 14.03
7 3 -4 147.62 13.4
7 -3 -4 160.73 14.04
7 -3 -4 155.86 13.9
7 -3 -3 126.23 9.86
7 -3 -3 136.15 11.65
7 -3 -3 153.16 13.18
7 3 -3 119.22 12.02
7 -3 -3 142.83 13.25
7 -3 -2 236.04 14.81
7 -3 -2 217.83 16.3
7 -3 -2 227.03 17.1
7 3 -2 262.62 18.03
7 -3 -2 217.33 17.42
7 3 -2 257.42 12.69
7 -3 -1 121.37 11.4
7 -3 -1 125.23 11.86
7 -3 -1 114.48 12.36
7 3 -1 114.67 8.33
7 -3 -1 113.22 9.66
7 -3 0 70.08 7.96
7 -3 0 59.67 9.04
7 3 0 70.47 9.37
7 3 0 91.41 7.67
7 -3 1 155.06 14.35
7 3 1 162.72 13.98
7 -3 1 147.06 14.17
7 3 1 157.34 11.42
7 -3 1 129.39 11.67
7 -3 2 144.65 14.32
7 -3 2 147.57 13.61
7 3 2 138.48 13.31
7 -3 2 141.31 14.1
7 3 2 160.36 12.15
7 -3 2 154.58 12.57
7 3 3 70.54 8.4
7 -3 3 69.72 8.83
7 -3 3 65.77 10.46
7 -3 3 51.13 8.87
7 3 3 61.13 9.22
7 -3 3 63.68 10.13
7 3 4 202.23 14.17
7 -3 4 211.96 16.71
7 3 4 173.94 15.76
7 3 4 184.81 15.14
7 -3 4 202.01 15.64
7 3 5 52.12 8.56
7 -3 5 30.27 8.01
7 3 5 57.88 7.95
7 3 5 51.14 9.18
7 3 5 41.26 8.33
7 3 6 128.26 11.93
7 3 6 119.16 13.01
7 -4 -9 163.31 14.24
7 4 -8 60.1 7.67
7 -4 -8 55.64 9.16
7 4 -8 51.44 8.25
7 4 -7 140.03 11.85
7 -4 -7 136.97 13.45
7 -4 -7 141.2 13.17
7 4 -7 141.25 12.62
7 -4 -7 144.19 10.8
7 4 -7 150.8 11.66
7 -4 -7 145.74 13.67
7 -4 -6 -1.1 4.41
7 4 -6 1.65 4.49
7 -4 -6 1.84 5.08
7 -4 -6 3.26 4.12
7 4 -6 2.49 4.89
7 4 -6 1.55 3.45
7 -4 -6 -1.2 6
7 -4 -6 -3.4 5.53
7 4 -6 3.15 3.6
7 4 -6 5.65 4.82
7 -4 -5 238.56 15.05
7 4 -5 208.06 14.17
7 -4 -5 224.49 17
7 4 -5 234.51 16.72
7 -4 -5 241.55 17.9
7 4 -5 240.32 14.15
7 4 -5 242.53 17.4
7 -4 -5 254.96 15.67
7 4 -5 236.24 15.5
7 -4 -4 20.6 5.23
7 4 -4 9.49 4.27
7 -4 -4 12.65 5.86
7 4 -4 10.69 4.07
7 4 -4 18.19 6.1
7 4 -4 9.25 5.51
7 -4 -3 288.9 17.15
7 -4 -3 269.61 17.9
7 4 -3 293.66 16.42
7 -4 -3 274.65 19.71
7 4 -3 258.83 18.98
7 4 -3 270.57 19.1
7 -4 -3 269 19.74
7 -4 -3 282 19.19
7 4 -2 13.81 3.17
7 -4 -2 28.08 5.43
7 -4 -2 32.34 6.7
7 4 -2 22.32 6.89
7 -4 -2 34.93 7.31
7 4 -2 10.73 5.38
7 -4 -2 30.89 7.38
7 -4 -1 264.53 16.48
7 -4 -1 238.06 17.6
7 -4 -1 263.35 18.5
7 4 -1 257.89 18.76
7 -4 -1 255.02 18.93
7 4 -1 236.75 13.92
7 4 0 31.84 5.37
7 -4 0 12.1 4.75
7 -4 0 17.21 6.87
7 4 0 29.58 6.93
7 -4 1 115.7 12.61
7 -4 1 120.73 12.19
7 4 1 118.65 12.01
7 4 1 108.69 9.59
7 -4 1 107.03 10.6
7 4 2 42.15 6.91
7 -4 2 52.12 7.6
7 -4 2 35.83 8.49
7 -4 2 62.66 9.16
7 4 2 39.46 8.07
7 4 3 9.47 5.53
7 -4 3 2.76 4.84
7 -4 3 10.78 7.36
7 4 3 10.91 4.81
7 -4 3 2.52 5.67
7 4 3 9.26 5.89
7 4 3 7.77 6.15
7 4 4 0.56 5.56
7 -4 4 7.71 5.91
7 4 4 0.4 4.5
7 -4 4 3.87 6.21
7 4 4 1.32 5.91
7 4 5 45.1 8.67
7 -4 5 46.69 9.02
7 4 5 46.69 7.39
7 4 5 45.33 9.01
7 4 6 10.88 5.92
7 4 6 5.35 6.26
7 -5 -9 14.29 8.39
7 -5 -8 204.13 17.2
7 5 -8 220.75 16.56
7 -5 -7 79.05 8.94
7 -5 -7 82.31 11.29
7 5 -7 90.54 9.86
7 5 -7 98.81 10.93
7 5 -7 106 9.19
7 5 -6 135.39 12.35
7 5 -6 118.29 9.24
7 -5 -6 107.24 11.81
7 5 -6 132.14 9.17
7 -5 -6 111.26 12.58
7 5 -6 127.51 12.28
7 -5 -6 118.9 10.62
7 5 -6 128.49 10.31
7 -5 -5 66.61 8.19
7 5 -5 69.49 8.05
7 -5 -5 52.54 8.85
7 -5 -5 60.53 7.85
7 5 -5 68.29 7.1
7 5 -5 68.14 7.1
7 5 -5 67.61 6.4
7 -5 -5 54 9.61
7 5 -5 76.46 9.53
7 5 -5 67.37 9.06
7 -5 -4 157.99 12.59
7 5 -4 169.71 14.53
7 -5 -4 159.16 14.8
7 5 -4 175.2 10.8
7 5 -4 182.77 12.34
7 5 -4 159.17 14.05
7 -5 -4 165.11 14.31
7 -5 -3 48.07 8.32
7 -5 -3 69.82 8.1
7 5 -3 79.53 10.08
7 5 -3 63.58 6.44
7 -5 -3 56.35 9.45
7 5 -3 66.51 7.72
7 5 -3 59.53 8.9
7 -5 -2 80.62 8.77
7 -5 -2 78.09 10.26
7 5 -2 80.22 8.88
7 5 -2 73.12 9.91
7 5 -2 66.51 9.26
7 -5 -1 232.53 16.68
7 5 -1 260.2 19.53
7 5 -1 258.88 16.98
7 5 -1 259.45 14.75
7 -5 0 354.31 20.71
7 5 0 309.71 19.75
7 5 0 311.92 22.17
7 5 0 305.44 21.17
7 5 0 300.61 17.83
7 -5 1 141.68 13.83
7 5 1 158.99 13.32
7 5 1 142.85 13.74
7 5 1 157.59 11.97
7 -5 1 145.91 12.88
7 5 2 65.85 8.44
7 -5 2 53.67 8.48
7 5 2 57.88 6.8
7 -5 2 60.47 9.54
7 5 2 54.76 8.58
7 5 2 53.76 9.07
7 5 3 28.01 6.67
7 -5 3 27.14 6.95
7 5 3 22.93 5.15
7 -5 3 21.68 7.11
7 5 3 21.5 6.62
7 5 3 19.93 6.82
7 5 4 29.46 7.59
7 -5 4 25.63 7.4
7 5 4 24.43 5.65
7 5 4 31.19 8.09
7 5 4 17.54 7.06
7 5 5 41.07 9.14
7 5 5 32.23 6.62
7 6 -8 36.3 8.29
7 -6 -7 90.29 9.91
7 6 -7 87.64 10.63
7 6 -7 89.98 10.84
7 -6 -6 24.57 6.73
7 6 -6 19.46 6.74
7 -6 -6 20.64 8.58
7 6 -6 28.26 7.67
7 -6 -5 24.21 6.79
7 6 -5 19.94 5.39
7 -6 -5 29.24 8.13
7 -6 -5 24.48 6.19
7 6 -5 20.16 4.78
7 -6 -5 28.85 8.26
7 6 -5 14.66 6.47
7 6 -5 29.26 5.36
7 6 -5 17.19 6.61
7 6 -4 4.84 4.47
7 -6 -4 8.1 6.29
7 -6 -4 13.82 5.71
7 -6 -4 -0.69 6.85
7 6 -4 -0.37 3.64
7 6 -4 2.73 2.79
7 6 -4 3.8 5.6
7 6 -4 3.08 4.91
7 -6 -3 0.61 5.5
7 -6 -3 -1 4.95
7 -6 -3 -0.69 6.45
7 6 -3 3.86 2.75
7 6 -3 -1.22 4.28
7 6 -3 0.62 4.91
7 6 -3 1.97 5.77
7 -6 -2 51.63 8.77
7 -6 -2 54.72 7.91
7 6 -2 52.64 9.29
7 -6 -2 57.42 9.79
7 6 -2 47.05 5
7 6 -2 49.09 7.1
7 6 -2 42.93 8.14
7 -6 -1 26.79 6.74
7 6 -1 34.75 8.47
7 6 -1 24.33 6.21
7 6 0 44.78 6.74
7 -6 0 51.5 8.14
7 6 0 55.79 9.8
7 -6 0 46.62 9.15
7 6 0 52.64 8.06
7 6 0 52.28 8.68
7 -6 1 333.57 22.51
7 6 1 376.63 18.68
7 -6 1 324.64 23.46
7 6 1 383.3 23.07
7 6 1 369.61 25.17
7 6 1 358.37 23.93
7 6 1 353.35 21.15
7 6 2 24.74 6.47
7 -6 2 39.19 7.51
7 6 2 26.45 4.9
7 -6 2 46.66 9.11
7 6 2 24.53 7.15
7 6 2 25.85 7.39
7 6 3 146.16 10.98
7 6 3 167.2 14.77
7 6 3 169.78 15.49
7 6 3 158.57 14.51
7 -6 3 178.59 15.13
7 6 4 -2.49 6.77
7 6 5 313.52 22.59
7 -7 -7 58.46 9.22
7 7 -7 49.39 9.1
7 -7 -6 45.9 8.16
7 7 -6 24.43 7.3
7 7 -6 35.17 7.94
7 -7 -5 69.78 9.73
7 7 -5 71.46 10.41
7 7 -5 63.62 9.7
7 -7 -4 82.18 10.74
7 -7 -4 86.42 9.92
7 7 -4 90.07 11.46
7 7 -4 89.6 8.63
7 -7 -4 73.94 11.43
7 7 -4 69.55 10.15
7 7 -4 75.05 7.99
7 -7 -3 127.88 12.14
7 7 -3 116.18 10.65
7 -7 -3 118.71 13.67
7 7 -3 116.83 12.97
7 7 -3 106 11.99
7 -7 -3 121.52 12.73
7 -7 -2 29.72 7.8
7 -7 -2 29.43 7.48
7 7 -2 51.56 7.55
7 7 -2 43.02 8.25
7 7 -2 44.39 9.57
7 -7 -1 117.14 11.99
7 -7 -1 106.9 12.47
7 7 -1 114.55 13.32
7 7 -1 115.75 11.35
7 -7 0 133.45 13.15
7 7 0 147.25 15.32
7 -7 0 138.09 14.61
7 7 0 156.99 13.43
7 7 0 171.54 15
7 7 1 85.75 9.88
7 7 1 95.16 11.05
7 7 1 85.94 11.13
7 7 2 249.44 18.77
7 7 2 267.32 18.83
7 -7 2 263.24 19.1
7 7 3 54.03 9.37
7 7 4 119.12 13.78
7 -8 -6 35.66 9.01
7 -8 -5 212.42 17.47
7 -8 -4 110.62 12.69
7 -8 -4 112.47 12.29
7 8 -4 101.36 9.72
7 -8 -3 197.39 16.35
7 8 -3 215.7 15.1
7 -8 -2 42.23 8.97
7 -8 -2 63.92 9.97
7 -8 -2 45.25 6.63
7 8 -2 42.38 7.78
7 -8 -1 103.96 12.12
7 -8 -1 91.09 11.31
7 8 -1 98.56 11.16
7 -8 0 229.4 17.55
7 8 0 174.75 15.51
7 -8 0 229.22 17.64
7 -8 1 136.67 13.75
7 8 1 158.26 14.36
7 -9 -4 225.14 18.18
7 -9 -3 4 6.43
7 9 -3 4.42 5.54
7 -9 -2 156.09 14.86
7 9 -2 147.99 13.18
7 9 -1 -4.06 6.26
7 9 0 124.93 13.07
7 10 -1 67.57 11.04
8 0 -8 32.68 6.92
8 0 -8 35.96 7.77
8 0 -7 -0.59 5.53
8 0 -7 3.43 5.28
8 0 -7 2.07 4.61
8 0 -7 -3.09 6.27
8 0 -6 543.6 28.61
8 0 -6 564.04 29.86
8 0 -6 565.46 30.07
8 0 -6 526.36 31.29
8 0 -6 521.83 30.62
8 0 -5 2.84 5.69
8 0 -5 4.26 4.58
8 0 -5 2.55 5.37
8 0 -5 2.05 5.08
8 0 -5 0.64 6.07
8 0 -4 530.62 29.45
8 0 -4 533.38 29.5
8 0 -4 565.13 31.7
8 0 -4 556.78 30.54
8 0 -4 522.17 23.81
8 0 -3 0.62 2.63
8 0 -3 -2.25 4.98
8 0 -3 -2.15 4.91
8 0 -3 -1.32 5.9
8 0 -2 352.67 22.77
8 0 -2 346.35 22.29
8 0 -2 344.53 23.31
8 0 -2 353.28 18.39
8 0 -1 -0.32 3.35
8 0 -1 1.3 5.27
8 0 -1 -0.57 5.33
8 0 0 442.25 27.5
8 0 0 420.67 25.89
8 0 0 436.97 27.24
8 0 0 425.16 23.04
8 0 1 0.41 3.88
8 0 1 5.12 6.36
8 0 1 3.06 5.27
8 0 1 5 6.37
8 0 2 205.93 17.86
8 0 2 206.31 17.59
8 0 2 193.22 14.45
8 0 3 -0.52 5.09
8 0 3 -1.48 6.71
8 0 4 138.97 13.4
8 1 -8 17.58 6.78
8 1 -8 17.45 5.97
8 1 -8 11.42 6.29
8 -1 -7 189.3 15.01
8 -1 -7 176.99 15.05
8 1 -7 211.15 15.17
8 1 -7 226.69 16.96
8 -1 -7 188.69 15.94
8 1 -7 218.86 16.07
8 -1 -7 191.71 16.07
8 1 -6 5.01 5.76
8 -1 -6 13.92 6.67
8 -1 -6 17.52 5.32
8 1 -6 11.59 5.56
8 -1 -6 21.08 6.46
8 -1 -6 23.23 6.67
8 1 -6 17.86 6.24
8 1 -6 15.74 6.79
8 -1 -6 30.39 7.63
8 -1 -5 235.82 16
8 -1 -5 226.04 17.06
8 1 -5 241.81 16.56
8 1 -5 254.87 16.83
8 -1 -5 234.14 17.17
8 1 -5 271.45 19.08
8 -1 -5 223.79 17.97
8 1 -5 277.39 18.1
8 -1 -5 202.15 17
8 -1 -4 41.39 8.25
8 -1 -4 36.18 4.33
8 -1 -4 43.77 7.35
8 1 -4 36.28 6.73
8 -1 -4 40.45 7.86
8 1 -4 50.11 8.77
8 -1 -4 32.05 8.08
8 -1 -3 57.67 8.54
8 1 -3 52.33 8.14
8 -1 -3 46.97 8.1
8 1 -3 68.08 9.69
8 -1 -3 49.9 8.9
8 1 -3 60.67 4.84
8 -1 -3 61.52 6.07
8 -1 -2 126.61 12.71
8 1 -2 160.73 13.28
8 -1 -2 133.42 12.82
8 1 -2 156.1 14.09
8 -1 -2 133.08 13.54
8 1 -2 146.71 9.33
8 -1 -2 129.03 9.81
8 -1 -1 197.62 15.98
8 1 -1 169.9 14.24
8 -1 -1 167.47 14.39
8 1 -1 159.37 11.13
8 -1 -1 178.95 12.1
8 1 0 94.56 11.8
8 -1 0 93.95 11.69
8 1 0 98.53 11.03
8 -1 0 81.2 10.24
8 1 0 122.16 12.56
8 -1 0 76.04 11.06
8 1 0 110.47 8.93
8 -1 0 77.1 8.36
8 -1 1 128.87 13.88
8 1 1 97.06 12.66
8 -1 1 132.51 12.96
8 1 1 128.12 13.42
8 -1 1 140.07 14.12
8 1 1 107.79 9.98
8 -1 1 135.8 11.18
8 1 2 79.78 11.37
8 -1 2 103.15 12.93
8 1 2 85.48 11.5
8 -1 2 84.45 11.73
8 1 2 84.03 9.3
8 -1 2 96.01 9.63
8 1 3 67.83 9.06
8 -1 3 72.76 9.26
8 1 3 52.9 9.92
8 1 4 153.7 13.51
8 -1 4 146.76 13.38
8 -2 -8 203.14 15.62
8 2 -8 172.47 13.72
8 2 -8 177.16 15.1
8 -2 -8 191.53 15.7
8 2 -8 173.13 14.68
8 2 -7 -0.53 5.52
8 -2 -7 3.44 6.36
8 2 -7 -0.45 4.43
8 2 -7 0.62 5.69
8 -2 -7 6.98 6.49
8 2 -6 288.81 18.62
8 -2 -6 301.84 20.56
8 -2 -6 346.14 21.54
8 2 -6 319.47 19.23
8 2 -6 314.38 21.36
8 2 -6 292.11 19.84
8 -2 -6 312.27 21.59
8 2 -5 64.21 8.95
8 -2 -5 80.17 10.31
8 -2 -5 65.23 8.26
8 2 -5 56.31 7.92
8 -2 -5 70.17 9.67
8 -2 -5 66.9 9.45
8 2 -5 64.9 8.24
8 2 -5 66.98 9.69
8 -2 -5 62 6.47
8 -2 -5 67.95 10.1
8 -2 -5 69.07 6.01
8 -2 -4 112.68 10.89
8 2 -4 107.66 10.71
8 2 -4 106.04 10.53
8 -2 -4 131.25 12.63
8 2 -4 117.83 12.59
8 -2 -4 124.02 12.76
8 -2 -4 111.88 11.96
8 -2 -4 126.7 8.77
8 2 -3 13.86 2.13
8 -2 -3 11.77 3.96
8 -2 -3 9.79 5.55
8 2 -3 14.64 5.97
8 -2 -3 10.23 6.33
8 2 -3 23.99 7.04
8 -2 -3 0.68 5.95
8 2 -2 18.22 3.61
8 -2 -2 17.14 4.41
8 -2 -2 17.15 6.49
8 2 -2 11.14 5.63
8 -2 -2 18.35 6.78
8 2 -2 18.28 6.55
8 -2 -2 15.9 6.87
8 2 -1 4.75 3.51
8 -2 -1 0.75 3.62
8 -2 -1 -1.92 5.6
8 -2 -1 3.73 5.73
8 2 0 31.27 5.3
8 -2 0 29.31 5.63
8 -2 0 21.29 7.24
8 -2 0 24.72 6.97
8 2 0 31.54 7.9
8 -2 0 23.2 7.77
8 2 1 20.6 5.59
8 -2 1 13.19 5.24
8 -2 1 11.78 6.96
8 2 1 16.36 7.44
8 -2 1 17.82 7.27
8 2 2 56.39 7.79
8 -2 2 61.55 8.25
8 2 2 60.22 10.31
8 -2 2 46.25 9.89
8 2 2 53.44 9.66
8 -2 2 51.72 10.3
8 2 3 51.4 8.01
8 -2 3 51.19 8.18
8 2 4 400.75 24.68
8 -2 4 394.82 24.77
8 3 -8 75.68 9.39
8 3 -8 65.78 9.92
8 3 -7 71.42 9.22
8 -3 -7 70.26 10.9
8 3 -7 79.07 8.43
8 3 -7 69.03 9.9
8 3 -6 83.5 9.6
8 3 -6 98.6 9.12
8 3 -6 83.2 8.93
8 -3 -6 106.06 11.83
8 -3 -6 91.25 10.92
8 3 -6 84.08 10.73
8 -3 -6 87.68 11.45
8 -3 -5 57.63 7.28
8 3 -5 30.73 6.98
8 -3 -5 59.14 9.78
8 -3 -5 54.93 6.17
8 -3 -5 59.43 7.86
8 3 -5 37.84 6.47
8 -3 -5 49.24 8.57
8 -3 -5 65.66 10.29
8 3 -5 44.71 6.82
8 3 -5 55.27 9.23
8 -3 -5 58.73 9.85
8 -3 -4 203.66 14.9
8 3 -4 176.14 13.89
8 3 -4 190.08 13.66
8 -3 -4 204.75 16.41
8 3 -4 181.91 15.81
8 -3 -4 192.46 16.44
8 -3 -4 178.87 15.66
8 -3 -4 210.33 12.87
8 -3 -3 113.92 11.27
8 3 -3 95.25 10.22
8 -3 -3 106.96 12.35
8 3 -3 110.55 12.35
8 -3 -3 107.21 12.67
8 -3 -3 124.97 9.6
8 -3 -2 101.4 11.25
8 -3 -2 109.48 11.86
8 3 -2 116.44 12.41
8 3 -2 106.43 7.33
8 -3 -2 112.43 12.39
8 -3 -2 105.72 9.4
8 -3 -1 54.1 7.14
8 -3 -1 37.58 8.34
8 -3 -1 38.68 8.3
8 -3 -1 40.85 9.07
8 3 -1 63.26 6.31
8 3 0 51.45 6.69
8 -3 0 61.62 7.64
8 -3 0 63.17 10.16
8 -3 0 65.1 9.58
8 3 0 52.87 9.21
8 -3 0 53.3 9.93
8 -3 1 118.89 13.53
8 3 1 122.04 13.12
8 -3 1 107.91 13.16
8 3 1 119.88 10.39
8 -3 1 106.51 10.62
8 3 2 184.79 13.95
8 -3 2 185.63 14.86
8 3 3 70.58 9.15
8 -3 3 67.3 9.37
8 3 4 63.2 9.76
8 3 4 59.89 8.8
8 3 5 118.51 11.67
8 -4 -8 18.9 8.81
8 4 -8 35.1 8.41
8 4 -7 -0.94 4.81
8 -4 -7 2.65 7.1
8 4 -7 9.08 5.97
8 -4 -6 141.57 14.45
8 4 -6 139.62 14.05
8 4 -6 180.39 13.35
8 -4 -5 42 6.96
8 4 -5 33.28 6.94
8 -4 -5 41.06 6.02
8 4 -5 36.41 6.64
8 -4 -5 37.07 8.83
8 4 -5 34.71 5.79
8 -4 -4 414.9 23.15
8 4 -4 428.6 24.4
8 -4 -4 400.28 26.57
8 4 -4 463.87 23.43
8 4 -4 424.69 26.74
8 -4 -3 10.91 4.36
8 -4 -3 12.79 6.32
8 4 -3 12.6 5.43
8 -4 -3 12.31 7.18
8 4 -3 12.5 4.74
8 4 -3 6.79 5.81
8 -4 -3 13.72 6.91
8 -4 -2 252.97 18.66
8 -4 -2 269.36 20.09
8 4 -2 272.06 20.05
8 -4 -2 262.26 20.48
8 -4 -2 276.06 17.19
8 4 -1 24.61 4.99
8 -4 -1 33.32 6.17
8 -4 -1 29.96 7.7
8 -4 -1 31.93 8.23
8 -4 -1 34.08 8.53
8 -4 0 293.33 21.67
8 4 0 283.88 21.5
8 4 0 318.16 17.93
8 -4 0 308.71 19.57
8 4 1 5.82 4.76
8 -4 1 2.61 5.27
8 -4 1 -0.75 6.61
8 4 2 104.4 10.44
8 -4 2 107.27 11.14
8 4 3 31.58 7.96
8 -4 3 46.82 8.67
8 4 3 33.97 6.52
8 4 4 118.76 11.13
8 4 4 123.5 13.01
8 5 -6 71.29 9.66
8 -5 -5 264.49 17.22
8 5 -5 285.98 17.24
8 5 -5 275.58 19.78
8 5 -5 275.14 16.72
8 -5 -5 256.36 17.8
8 5 -5 254.89 17.35
8 5 -4 87.57 10.82
8 -5 -4 64.37 8.14
8 5 -4 91.8 9.03
8 5 -4 75.11 8.8
8 -5 -4 63.79 10.92
8 -5 -3 264.92 17.73
8 -5 -3 302.23 21.55
8 5 -3 282.66 18.27
8 5 -3 286.55 20.9
8 -5 -2 52.91 7.73
8 -5 -2 45.32 9.87
8 5 -1 172.53 14.29
8 -5 -1 168.79 13.56
8 -5 0 70.25 9.35
8 5 0 93.36 10.55
8 5 1 244.1 18.45
8 5 1 252.85 16.79
8 -5 1 263.93 18.22
8 5 2 50.57 8.13
8 -5 2 40.66 8.29
8 5 3 46.14 8.67
8 5 4 44.5 9.45
8 6 -6 90.03 11.64
8 -6 -5 30.5 6.72
8 6 -5 22.44 7.33
8 -6 -4 86.76 9.93
8 6 -4 76.62 8.85
8 6 -4 79.25 11.34
8 -6 -3 59.36 8.62
8 6 -3 82.94 11.66
8 6 -3 86.6 9.32
8 -6 -2 23.59 6.83
8 6 -2 16.81 6.12
8 -6 -1 40.04 7.92
8 6 -1 32.11 7.75
8 -6 0 103.11 11.25
8 6 0 100.32 11.28
8 -6 1 7.91 5.52
8 6 1 3.08 6.14
8 -7 -5 51.72 8.52
8 -7 -4 13.71 6.95
8 -7 -3 50.92 8.88
8 7 -3 38.17 7.29
8 -7 -2 20.15 6.55
8 7 -2 16.94 6.52
8 -7 -1 55.89 9.49
8 7 -1 70.77 9.84
8 -7 0 140.27 13.68
8 7 0 126.63 12.85
8 -8 -4 91.25 11.19
8 -8 -3 31.89 8.4
8 8 -2 187.36 15.46
8 8 -1 31.8 8.47
9 0 -6 0.57 5.43
9 0 -5 210.35 16.4
9 0 -5 218.94 16.68
9 0 -4 0.6 5.65
9 0 -4 -3.65 6.25
9 0 -3 110.9 12.57
9 0 -3 95.92 11.47
9 0 -2 -1.4 7.1
9 0 -2 4.54 6.29
9 0 -1 465.72 29.57
9 0 0 3.24 4.61
9 0 1 199.1 14.68
9 0 2 0.51 5.19
9 0 3 295.58 20.12
9 -1 -6 40.95 8.83
9 1 -6 41.61 8.23
9 1 -5 64.87 9.02
9 1 -5 55.52 8.99
9 -1 -5 56.64 9.73
9 1 -5 63.02 9.23
9 1 -4 57.06 9.55
9 -1 -4 60.26 9.52
9 1 -4 46.71 8.46
9 -1 -4 56.83 9.68
9 1 -4 65.1 9.3
9 1 -3 36.96 8.56
9 -1 -3 39.7 8.21
9 -1 -3 47.7 9.11
9 -1 -2 117.07 12.93
9 1 -2 115.28 13.23
9 1 -2 108.14 12.32
9 -1 -1 60.04 7.33
9 -1 -1 45.68 9.62
9 -1 0 91.06 9.11
9 -1 1 76.5 8.91
9 1 2 80.19 9.85
9 -1 2 134.84 11.74
9 1 3 45.31 8.79
9 2 -6 22.06 7.3
9 2 -5 117.29 12.05
9 2 -5 145.19 12.47
9 -2 -4 -2.31 5.27
9 2 -4 2.27 5.51
9 2 -4 2.07 5.46
9 -2 -3 216.3 16.88
9 2 -3 184.7 15.53
9 -2 -2 1.36 6.06
9 2 -2 0.63 5.93
9 -2 -1 54.9 7.19
9 -2 -1 48.96 9.78
9 -2 0 4.55 4.86
9 -2 1 2.51 5
9 -2 2 11.61 6.22
9 3 -5 28.33 7.34
9 3 -4 140.96 13.12
9 -3 -3 10.07 6.37
9 3 -3 7.72 5.81
9 -3 -2 88.29 11.56
9 -3 -1 161.28 12.62
9 -3 0 87.4 10.25
9 -3 1 83.36 10.1
9 -3 2 16.62 5.97
9 4 -5 154.32 13.67
9 4 -4 2.78 5.35
9 -4 -3 152.08 14.22
9 4 -3 165.44 14.46
9 -4 -2 56.96 7.78
9 -4 -2 53.14 9.92
9 -4 -1 458.1 25.89
9 -4 0 69.55 9.34
9 -4 1 236.38 17.32
9 5 -3 77.88 10.56
9 5 -3 87.91 10.27
9 5 -2 253.4 18.49
9 -5 -2 256.05 17.55
9 -5 -1 47.68 8.36
9 -5 0 204.61 16.06
9 -6 -1 10.54 6.19
