#------------------------------------------------------------------------------
#$Date: 2017-07-25 13:32:03 +0300 (Tue, 25 Jul 2017) $
#$Revision: 199275 $
#$URL: file:///home/coder/svn-repositories/cod/cif/1/54/66/1546681.cif $
#------------------------------------------------------------------------------
#
# This file is available in the Crystallography Open Database (COD),
# http://www.crystallography.net/. The original data for this entry
# were provided by IUCr Journals, http://journals.iucr.org/.
#
# The file may be used within the scientific community so long as
# proper attribution is given to the journal article from which the
# data were obtained.
#
data_1546681
loop_
_publ_author_name
'Medjroubi, Mohamed Larbi'
'Boudjada, Ali'
'Hamdouni, Noudjoud'
'Jeannin, Olivier'
'Meinnel, Jean'
_publ_section_title
;
 2,6-Dichloro-4-nitrotoluene
;
_journal_coeditor_code           LH4019
_journal_issue                   5
_journal_name_full               IUCrData
_journal_page_first              x170672
_journal_paper_doi               10.1107/S2414314617006721
_journal_volume                  2
_journal_year                    2017
_chemical_formula_iupac          'C7 H5 Cl2 N1 O2'
_chemical_formula_moiety         'C7 H5 Cl2 N1 O2'
_chemical_formula_structural     'C7 H5 Cl2 N1 O2'
_chemical_formula_sum            'C7 H5 Cl2 N O2'
_chemical_formula_weight         206.02
_chemical_name_common
;
2,6-Dichloro-4-nitrotoluene
;
_chemical_name_systematic
;
1,3-Dichloro-2-methyl-5-nitrobenzene
;
_space_group_crystal_system      orthorhombic
_space_group_IT_number           19
_space_group_name_Hall           'P 2ac 2ab'
_space_group_name_H-M_alt        'P 21 21 21'
_symmetry_space_group_name_Hall  'P 2ac 2ab'
_symmetry_space_group_name_H-M   'P 21 21 21'
_atom_sites_solution_hydrogens   geom
_atom_sites_solution_primary     direct
_atom_sites_solution_secondary   difmap
_cell_angle_alpha                90
_cell_angle_beta                 90
_cell_angle_gamma                90
_cell_formula_units_Z            4
_cell_length_a                   3.8145(3)
_cell_length_b                   12.4829(10)
_cell_length_c                   17.4438(15)
_cell_measurement_reflns_used    2377
_cell_measurement_temperature    150(2)
_cell_measurement_theta_max      27.28
_cell_measurement_theta_min      2.85
_cell_volume                     830.60(12)
_computing_cell_refinement
;
SAINT (Bruker, 2006)
;
_computing_data_collection
;
APEX2 (Bruker, 2006)
;
_computing_data_reduction
;
SAINT (Bruker, 2006)
;
_computing_molecular_graphics
;
CAMERON (Watkin <i>et al.</i>,  1996) and Mercury (Macrae <i>et al.</i>,
 2008)
;
_computing_publication_material
;
WinGX (Farrugia, 2012) and PLATON (Spek, 2009)
;
_computing_structure_refinement
;
SHELXL2013 (Sheldrick, 2015)
;
_computing_structure_solution
;
SIR2003 (Burla <i>et al.</i>,  2005)
;
_diffrn_ambient_temperature      150(2)
_diffrn_measured_fraction_theta_full 0.997
_diffrn_measured_fraction_theta_max 0.995
_diffrn_measurement_device       Area
_diffrn_measurement_device_type  'Bruker APEXII'
_diffrn_measurement_method       'CCD rotation images, thin slices'
_diffrn_radiation_monochromator  graphite
_diffrn_radiation_type           MoK\a
_diffrn_radiation_wavelength     0.7107
_diffrn_reflns_av_R_equivalents  0.0281
_diffrn_reflns_limit_h_max       4
_diffrn_reflns_limit_h_min       -3
_diffrn_reflns_limit_k_max       15
_diffrn_reflns_limit_k_min       -16
_diffrn_reflns_limit_l_max       22
_diffrn_reflns_limit_l_min       -19
_diffrn_reflns_number            4472
_diffrn_reflns_theta_full        25.241
_diffrn_reflns_theta_max         27.582
_diffrn_reflns_theta_min         2.849
_exptl_absorpt_coefficient_mu    0.734
_exptl_absorpt_correction_T_max  0.964
_exptl_absorpt_correction_T_min  0.876
_exptl_absorpt_correction_type   multi-scan
_exptl_crystal_colour            colourless
_exptl_crystal_density_diffrn    1.647
_exptl_crystal_density_method    'not measured'
_exptl_crystal_description       needle
_exptl_crystal_F_000             416
_exptl_crystal_size_max          0.260
_exptl_crystal_size_mid          0.150
_exptl_crystal_size_min          0.050
_refine_diff_density_max         0.228
_refine_diff_density_min         -0.195
_refine_ls_abs_structure_details
;
Flack <i>x</i> determined using 640 quotients
[(<i>I</i>^+^)-(<i>I</i>^-^)]/[(<i>I</i>^+^)+(<i>I</i>^-^)]
(Parsons et al., 2013)
;
_refine_ls_abs_structure_Flack   -0.03(5)
_refine_ls_extinction_method     none
_refine_ls_goodness_of_fit_ref   1.068
_refine_ls_hydrogen_treatment    constr
_refine_ls_matrix_type           full
_refine_ls_number_parameters     110
_refine_ls_number_reflns         1879
_refine_ls_number_restraints     0
_refine_ls_restrained_S_all      1.068
_refine_ls_R_factor_all          0.0327
_refine_ls_R_factor_gt           0.0301
_refine_ls_shift/su_max          0.001
_refine_ls_shift/su_mean         0.000
_refine_ls_structure_factor_coef Fsqd
_refine_ls_weighting_details
'w=1/[\s^2^(Fo^2^)+(0.0243P)^2^+0.1882P] where P=(Fo^2^+2Fc^2^)/3'
_refine_ls_weighting_scheme      calc
_refine_ls_wR_factor_gt          0.0645
_refine_ls_wR_factor_ref         0.0659
_reflns_number_gt                1756
_reflns_number_total             1879
_reflns_threshold_expression     'I > 2\s(I)'
_cod_data_source_file            lh4019sup1.cif
_cod_data_source_block           I
_cod_original_formula_sum        'C7 H5 Cl2 N1 O2'
_cod_database_code               1546681
_shelx_hkl_file
;
  -1   0   0   -0.13    0.43
   1   0   0    2.25    0.93
  -2   0   0  270.90   11.81
  -2   0   0  276.63   10.66
   2   0   0  261.42   12.00
   3   0   0   -0.90    1.53
   4   0   0  141.48   10.73
   0   1   0   -2.31    0.08
   0  -1   0   -2.35    0.07
   0   1   0   -2.28    0.09
   0  -1   0   -2.29    0.09
  -1  -1   0 2872.00   92.09
   1  -1   0 2981.52   88.24
  -1   1   0 2915.28   91.81
   1  -1   0 3029.99   92.31
   1   1   0 3093.09   91.34
   1   1   0 2967.55   91.89
  -1   1   0 2871.34   88.01
  -2   1   0  447.17   17.15
   2   1   0  462.23   17.53
  -2  -1   0  461.04   16.84
   2  -1   0  433.10   18.16
  -2   1   0  461.58   15.89
   3  -1   0  147.78    9.68
   3   1   0  132.19    8.79
   4  -1   0   23.46    5.19
   4   1   0   26.39    5.53
   0  -2   0 1581.03   47.67
   0  -2   0 1452.77   48.35
   0   2   0 1510.99   48.45
   0   2   0 1621.97   47.69
  -1   2   0 1273.19   37.44
   1   2   0 1205.63   39.06
   1  -2   0 1167.50   37.43
   1   2   0 1185.21   37.64
  -1  -2   0 1217.42   39.22
  -1   2   0 1178.90   37.21
   1  -2   0 1197.02   39.59
  -2  -2   0    7.00    1.90
  -2   2   0    6.04    1.97
   2  -2   0    2.51    1.74
  -2   2   0    7.33    1.27
   2   2   0    7.71    1.83
   3  -2   0    5.15    2.82
   3   2   0    3.95    1.96
   4  -2   0  273.43   16.40
   4   2   0  272.60   14.83
   0  -3   0   -6.33    0.83
   0  -3   0   -3.41    0.92
   0   3   0   -5.13    0.83
   0   3   0   -6.45    0.84
   1   3   0 1292.94   44.23
  -1   3   0 1391.86   42.32
   1  -3   0 1383.70   44.69
   1   3   0 1382.72   41.65
  -1   3   0 1389.55   42.64
  -1  -3   0 1288.84   44.28
   1  -3   0 1343.88   42.15
  -2  -3   0 3021.45  100.00
   2  -3   0 3094.96  100.98
   2   3   0 3093.27   97.64
  -2   3   0 3301.72   97.40
  -2   3   0 3184.63   95.36
   2  -3   0 3105.24   96.09
   3   3   0  150.89    8.49
   3  -3   0  144.22   10.40
   4  -3   0    5.63    3.79
   4   3   0    4.88    2.71
   0  -4   0  987.46   32.21
   0   4   0 1010.59   33.33
   0  -4   0 1006.47   33.17
  -1   4   0  480.64   16.42
   1  -4   0  503.25   19.06
  -1  -4   0  513.87   18.78
  -1   4   0  496.24   17.08
   1   4   0  500.75   18.74
  -2   4   0  630.95   20.71
   2  -4   0  648.78   23.34
   2  -4   0  631.53   25.04
  -2  -4   0  597.01   23.58
   2   4   0  610.35   20.92
   3  -4   0   10.64    3.94
   3   4   0   14.22    2.74
   4   4   0   51.66    6.18
   4  -4   0   43.99    7.75
   0  -5   0    0.47    0.66
   0  -5   0    3.57    1.21
   0   5   0    0.11    0.88
   1   5   0  350.64   14.94
  -1  -5   0  343.90   14.84
   1  -5   0  367.33   12.09
   1  -5   0  373.28   15.26
   1  -5   0  384.77   11.98
  -1   5   0  345.73   12.60
  -1   5   0  355.49   13.54
   2   5   0  662.78   21.15
   2  -5   0  668.06   24.64
  -2   5   0  673.65   21.94
   2  -5   0  672.69   26.51
   2   5   0  604.60   24.61
   3   5   0   31.13    3.50
   3  -5   0   39.48    6.70
   4  -5   0   -1.26    2.89
   0  -6   0 5633.09  179.25
   0  -6   0 5894.31  176.78
   0   6   0 5717.76  179.79
   1  -6   0 2231.94   69.03
   1  -6   0 2164.86   71.99
  -1  -6   0 2151.08   72.49
   1  -6   0 2261.05   69.30
   1   6   0 2292.57   72.95
  -1   6   0 2170.37   70.94
   2   6   0   69.87    6.10
   2  -6   0   78.26    7.03
   2  -6   0   98.11    6.92
  -2   6   0   83.31    4.30
   3  -6   0   12.00    4.27
   3  -6   0   17.88    4.43
   4  -6   0  234.20   16.41
   0  -7   0   -1.55    0.93
   0   7   0   -1.42    1.12
   0  -7   0   -1.80    1.07
  -1  -7   0   52.36    5.75
   1   7   0   48.38    5.82
   1  -7   0   45.84    5.36
  -1   7   0   41.02    4.47
   1  -7   0   44.87    2.91
   1  -7   0   44.61    3.04
   2   7   0    4.19    2.27
   2  -7   0    0.20    1.95
   2  -7   0    0.39    1.52
   3  -7   0    3.45    3.12
   3  -7   0    1.46    2.13
   4  -7   0  184.12   14.85
   0  -8   0  697.79   25.15
   0   8   0  728.30   27.34
   0  -8   0  711.88   26.56
   1   8   0  424.65   18.51
  -1  -8   0  397.95   18.00
   1  -8   0  409.45   14.89
  -1   8   0  410.33   16.99
   1  -8   0  384.39   17.56
   1  -8   0  418.90   15.18
   2  -8   0   11.88    3.89
   2  -8   0   21.76    4.07
   3  -8   0   16.88    4.75
   3  -8   0   17.52    4.76
   4  -8   0   51.80    9.02
   0  -9   0    1.52    1.48
   0   9   0    0.49    1.57
   0  -9   0    0.00    1.11
   1   9   0  195.75   11.75
   1  -9   0  189.88    8.82
   1  -9   0  208.15   11.39
  -1   9   0  207.82   10.94
  -1  -9   0  205.65   11.68
   1  -9   0  193.80    8.73
   2  -9   0  292.57   15.37
   2  -9   0  308.16   16.61
   3  -9   0  204.07   13.65
   3  -9   0  200.65   14.49
   4  -9   0   17.53    6.41
   0 -10   0   33.78    4.86
   0 -10   0   32.77    4.08
   0  10   0   23.59    4.56
   1 -10   0   11.65    2.30
   1  10   0   11.91    3.69
  -1 -10   0   10.96    3.82
   1 -10   0   13.38    3.48
   1 -10   0   12.33    2.35
   2 -10   0  121.64    9.54
   2 -10   0  112.55    9.84
   3 -10   0   11.09    4.83
   3 -10   0    7.11    3.75
   0 -11   0    1.20    1.58
   0  11   0    4.28    2.73
   1 -11   0    3.41    1.59
   1 -11   0    3.15    2.31
   1 -11   0    3.02    1.50
   1  11   0    2.12    2.63
   2 -11   0  619.18   27.96
   2 -11   0  609.13   26.93
   3 -11   0   -0.86    3.08
   3 -11   0    1.67    2.72
   0 -12   0  194.93   10.21
   1 -12   0   90.94    6.04
   1 -12   0  103.25    8.62
   2 -12   0   -3.29    1.84
   2 -12   0   -0.93    1.77
   3 -12   0   -2.25    3.31
   3 -12   0    3.35    3.18
   0 -13   0    3.47    2.03
   1 -13   0    6.62    2.15
   1 -13   0    1.39    2.20
   2 -13   0  192.70   14.19
   2 -13   0  198.56   14.28
   0 -14   0  693.05   26.83
   1 -14   0  216.76   10.39
   1 -14   0  200.86   13.02
   2 -14   0    0.99    2.67
   2 -14   0    1.87    3.13
   0 -15   0    8.96    2.94
   1 -15   0  126.01    7.48
   0 -16   0   38.72    5.56
   0   0   1   -0.01    0.03
   0   0  -1    0.01    0.04
   0   0   1    0.01    0.04
  -1   0   1   13.58    1.85
   1   0   1    8.61    1.12
  -1   0  -1   10.35    1.37
   1   0  -1    8.09    1.39
  -2   0  -1  378.10   14.79
  -2   0   1  372.69   15.17
   2   0  -1  355.76   15.15
   2   0   1  396.01   15.69
  -2   0   1  369.40   13.55
  -2   0  -1  379.34   14.15
   3   0   1  276.26   14.10
   3   0  -1  258.49   13.48
   4   0   1   29.38    5.85
   4   0  -1   22.94    5.20
   0   1   1   -0.01    0.10
   0  -1  -1   -0.04    0.10
   0  -1   1    0.04    0.11
   1   1  -1 5746.61  179.61
   1  -1   1 5600.10  172.77
  -1  -1  -1 5661.35  182.35
  -1   1   1 5769.43  168.73
   1  -1   1 6052.89  178.55
   1  -1  -1 5537.28  168.79
   1   1   1 5993.54  184.17
  -1  -1   1 5470.34  178.62
  -1  -1   1 5873.24  180.24
   1  -1  -1 5773.53  182.63
  -1   1  -1 5657.16  179.16
  -1   1  -1 5646.30  170.49
   2   1  -1    5.90    1.90
   2  -1   1    7.64    2.22
  -2   1   1    8.34    2.15
  -2  -1  -1    6.10    1.70
  -2   1   1    8.00    1.28
  -2  -1   1    9.69    1.95
   2  -1  -1    7.26    2.06
  -2   1  -1   12.95    1.91
   2   1   1   11.47    2.40
   2   1   1   13.07    1.86
  -2   1  -1    7.51    1.88
   3  -1   1  328.96   16.48
   3   1  -1  334.92   15.29
   3  -1  -1  328.88   16.11
   3   1   1  321.85   15.49
   4   1  -1  363.02   18.17
   4  -1   1  351.80   19.19
   4  -1  -1  376.45   19.31
   4   1   1  348.78   18.26
   0   2   1   -1.07    0.65
   0  -2   1   -1.53    0.62
   0  -2  -1   -1.75    0.54
   0   2   1   -1.73    0.52
  -1  -2  -1  899.92   30.99
  -1   2   1  947.02   31.37
  -1   2   1  903.98   29.50
   1  -2   1  917.87   29.33
   1   2  -1  917.53   29.38
  -1   2  -1  962.95   29.73
  -1  -2   1  955.33   30.90
   1  -2  -1  938.28   31.36
   1  -2  -1  913.29   29.84
   1   2   1  980.00   31.12
  -2   2   1  358.07   11.75
   2   2  -1  352.30   13.63
   2  -2   1  369.72   15.72
  -2   2   1  324.42   13.97
  -2  -2  -1  350.46   14.29
  -2   2  -1  359.85   12.87
   2  -2  -1  332.29   15.13
  -2  -2   1  347.11   13.97
  -2   2  -1  352.99   13.84
   2   2   1  352.86   13.56
   2   2   1  343.81   13.87
   3  -2   1   93.38    9.75
   3   2  -1   74.85    6.08
   3   2   1   81.34    6.44
   3  -2  -1   82.80    8.78
   4   2  -1   57.67    7.19
   4  -2   1   46.50    7.95
   4  -2  -1   55.66    8.36
   4   2   1   55.95    7.18
   0  -3  -1 4863.13  139.53
   0   3   1 4749.94  141.49
   0   3   1 4326.93  143.07
   0  -3   1 4493.24  141.87
   0   3  -1 4346.56  141.88
   0  -3  -1 4347.19  141.17
  -1  -3  -1   11.55    2.04
  -1   3   1   13.24    2.21
   1  -3   1   13.89    1.04
   1  -3   1   14.71    2.05
   1  -3   1   11.85    0.95
   1  -3   1    8.68    1.95
  -1   3   1   10.99    0.77
   1   3   1   11.55    1.96
   1  -3  -1   12.66    2.07
  -1   3  -1   11.94    1.34
  -1  -3   1   13.04    2.16
   1  -3  -1   11.89    2.26
  -2   3   1  339.82   13.38
   2   3  -1  321.49   12.09
  -2  -3  -1  326.30   13.75
   2  -3   1  310.57   13.27
   2  -3   1  315.16   14.81
  -2  -3   1  295.59   13.25
   2  -3  -1  310.83   14.57
   2   3   1  295.05   12.25
   2   3   1  314.72   13.13
  -2   3  -1  325.05   11.66
   2  -3  -1  312.94   13.76
   3   3  -1   42.97    4.88
   3  -3   1   41.40    6.48
   3  -3  -1   44.74    6.40
   3   3   1   39.48    4.85
   4   3  -1   68.94    7.24
   4  -3   1   67.64    9.27
   4   3   1   68.78    7.72
   4  -3  -1   60.54    8.87
   0  -4  -1   55.55    3.31
   0   4   1   62.90    3.92
   0  -4   1   58.66    3.86
   0   4  -1   61.35    3.96
   0   4   1   64.69    3.52
   0  -4   1   56.25    3.33
   0  -4  -1   67.77    3.87
  -1   4   1 1342.34   41.72
  -1  -4  -1 1343.85   44.52
  -1   4   1 1304.76   42.26
   1  -4   1 1337.31   44.54
   1  -4   1 1347.31   41.85
  -1   4   1 1339.59   44.43
   1   4  -1 1252.94   44.12
   1  -4   1 1362.46   42.08
  -1  -4   1 1328.35   44.43
   1  -4  -1 1333.72   44.47
  -1   4  -1 1382.04   42.33
   1   4   1 1320.69   44.54
   2  -4   1  423.50   17.34
   2   4  -1  441.23   15.28
   2  -4   1  450.01   19.42
  -2  -4  -1  497.66   18.70
  -2   4   1  457.91   14.75
   2   4   1  407.92   17.52
   2  -4  -1  430.71   17.86
   2  -4  -1  447.29   19.22
   2   4   1  435.25   15.77
  -2  -4   1  439.93   18.07
  -2   4  -1  448.36   15.60
   3  -4   1   37.51    6.30
   3   4  -1   44.61    4.01
   3   4   1   39.87    4.56
   3  -4  -1   41.20    6.49
   4  -4   1   86.53   11.22
   4   4   1   86.33    7.24
   4  -4  -1   97.95   11.76
   0  -5  -1  216.70    9.36
   0  -5   1  220.39    9.63
   0   5   1  225.83    9.74
   0   5  -1  211.48    9.67
   0  -5   1  232.88    8.92
   0   5   1  214.41    8.84
   0  -5  -1  201.66    8.66
  -1   5   1 1279.18   40.96
  -1   5   1 1196.94   42.43
  -1  -5  -1 1256.23   42.89
   1  -5   1 1339.81   40.15
   1  -5   1 1268.05   42.87
   1   5  -1 1260.63   42.85
   1  -5   1 1267.19   40.38
   1   5   1 1309.04   43.13
  -1   5  -1 1252.90   40.38
  -1  -5   1 1230.09   42.82
   1  -5  -1 1204.13   42.60
   2  -5   1  253.85   11.85
   2  -5   1  244.25   13.13
  -2   5   1  250.58    8.93
   2  -5  -1  242.23   13.01
   2   5   1  247.22   12.06
  -2   5  -1  245.22    9.59
   2  -5  -1  231.08   11.88
   2   5   1  240.55    9.07
   3  -5   1    5.80    2.97
   3  -5  -1    5.24    2.92
   3   5   1   10.01    2.17
   4  -5   1  475.38   25.63
   4  -5  -1  529.05   26.21
   0  -6   1   91.68    5.64
   0  -6  -1  101.05    5.71
   0  -6   1   76.41    4.78
   0   6   1   84.27    5.69
   0   6  -1   93.00    5.89
   0   6   1   83.85    4.86
   0  -6  -1   76.98    4.75
   1   6  -1   95.66    6.52
   1  -6   1   92.28    4.51
   1  -6   1   84.28    6.31
  -1  -6  -1   81.95    6.13
  -1   6   1   83.93    5.15
  -1  -6   1  114.57    6.91
   1   6   1   99.50    6.65
   1  -6  -1   85.39    6.21
   2  -6   1  754.77   27.23
  -2   6   1  746.02   24.10
   2  -6   1  736.47   29.42
   2  -6  -1  724.61   29.10
   2   6   1  698.35   27.94
   2  -6  -1  715.10   27.29
   3  -6   1  241.96   13.76
   3  -6   1  240.18   15.17
   3  -6  -1  255.86   15.30
   3  -6  -1  247.24   14.24
   3   6   1  256.39   10.05
   4  -6   1  141.56   12.76
   4  -6  -1  153.26   13.13
   0  -7   1 2657.57   84.14
   0  -7  -1 2491.73   81.81
   0   7   1 2650.55   82.21
   0   7   1 2555.14   84.30
   0   7  -1 2637.73   84.60
   0  -7  -1 2636.53   83.80
   0  -7   1 2584.74   82.04
  -1   7   1  277.45   11.93
  -1  -7  -1  268.51   13.03
   1   7  -1  282.24   13.38
   1  -7   1  275.51   10.62
   1  -7   1  290.08   13.35
   1   7   1  265.89   13.28
   1  -7  -1  268.72    9.84
   1  -7  -1  264.75    9.69
  -1  -7   1  269.05   13.08
   1  -7  -1  249.04   12.63
   2  -7   1  118.11    9.20
   2  -7   1  125.24    8.27
   2  -7  -1  120.56    9.17
   2  -7  -1  125.15    8.63
   2   7   1  127.51    8.85
   3  -7   1  647.31   27.47
   3  -7   1  655.42   29.98
   3  -7  -1  695.26   30.26
   3  -7  -1  700.98   28.57
   4  -7   1   11.62    5.14
   4  -7  -1   23.34    6.13
   0   8   1  425.09   18.38
   0  -8   1  462.63   18.22
   0   8  -1  430.86   18.50
   0  -8   1  429.07   16.63
   0  -8  -1  427.27   17.65
   1  -8   1    6.85    2.37
  -1   8   1    7.51    2.19
  -1  -8  -1   11.59    2.97
   1  -8   1   10.85    2.03
   1  -8  -1   13.27    1.85
   1  -8  -1   12.09    1.76
   1   8   1    8.50    2.83
   1  -8  -1   11.77    3.01
  -1  -8   1    9.55    2.80
   2  -8   1  475.31   20.60
   2  -8   1  476.13   22.16
   2  -8  -1  464.23   20.71
   2  -8  -1  485.96   22.14
   2   8   1  514.54   22.04
   3  -8   1   42.06    6.64
   3  -8   1   47.77    8.14
   3  -8  -1   32.00    6.85
   3  -8  -1   50.29    7.35
   4  -8   1   70.22   10.40
   4  -8  -1   59.32   10.08
   0  -9   1  277.89   12.18
   0  -9   1  292.73   13.59
   0  -9  -1  291.51   13.34
   0   9   1  261.64   13.75
   1  -9   1  333.58   16.03
  -1  -9  -1  337.25   16.31
  -1   9   1  346.26   15.47
   1  -9   1  335.37   13.60
  -1  -9   1  332.84   16.35
   1  -9  -1  328.42   12.77
   1  -9  -1  334.10   15.95
   1  -9  -1  350.22   13.03
   1   9   1  370.23   17.21
   2  -9   1   78.58    8.82
   2  -9   1   88.43    7.59
   2  -9  -1   75.83    8.35
   2   9   1  100.10    8.45
   2  -9  -1   75.46    8.76
   3  -9   1   28.32    6.34
   3  -9   1   54.89    7.78
   3  -9  -1   49.86    7.86
   3  -9  -1   42.44    7.86
   4  -9   1  118.58   14.96
   4  -9  -1   64.59   10.61
   0 -10   1  279.87   13.72
   0  10   1  271.14   14.26
   0 -10  -1  262.24   13.12
   0 -10   1  266.38   12.19
   1 -10   1  512.44   21.57
  -1  10   1  479.71   20.83
  -1 -10  -1  471.08   21.59
   1 -10   1  482.82   18.69
   1 -10  -1  459.90   17.71
   1 -10  -1  492.65   21.40
   1  10   1  529.72   22.90
   1 -10  -1  517.41   18.17
   2 -10   1  158.37   11.83
   2 -10   1  159.71   11.01
   2 -10  -1  161.98   11.18
   2  10   1  160.53   11.60
   2 -10  -1  154.59   11.61
   3 -10   1   35.47    6.73
   3 -10   1   24.45    6.20
   3 -10  -1   44.91    8.41
   3 -10  -1   28.75    6.43
   0 -11  -1  390.67   18.02
   0 -11   1  406.78   18.59
   0 -11   1  403.80   16.86
   0 -11   1  431.10   17.20
   0  11   1  416.39   19.66
  -1  11   1   87.11    7.42
   1 -11   1   83.14    7.40
   1 -11   1   73.50    5.46
   1 -11  -1   89.06    5.28
   1  11   1   96.43   10.68
   1 -11  -1   79.31    5.02
   1 -11  -1   74.61    8.36
   2 -11   1  115.97   10.17
   2 -11   1  118.44    9.80
   2 -11  -1  116.42    9.82
   2 -11  -1  103.21   11.35
   3 -11   1   56.08    8.94
   3 -11   1   61.92    9.89
   3 -11  -1   60.74    9.42
   3 -11  -1   74.78   10.75
   0 -12   1  144.16    8.64
   0  12   1  138.86   10.58
   1 -12   1  130.66    9.82
   1 -12   1  130.17    7.66
   1 -12  -1  128.46    6.99
   1 -12  -1  138.79    9.89
   1  12   1  125.90   10.66
   2 -12   1   74.81    9.41
   2 -12  -1   82.72   10.15
   2 -12  -1   69.39    9.34
   3 -12   1  123.86   13.96
   3 -12   1   98.26   12.24
   3 -12  -1  101.71   13.17
   3 -12  -1   79.54   10.99
   0 -13  -1    8.26    2.59
   0 -13   1    5.73    2.52
   0  13   1    1.27    2.42
   1 -13   1  196.31    9.94
   1 -13   1  190.21   12.33
   1 -13  -1  187.21    9.06
   2 -13   1  200.39   14.24
   2 -13  -1  171.44   13.47
   2 -13  -1  179.67   13.46
   0 -14  -1   91.13    7.23
   0 -14   1  106.87    7.67
   1 -14   1   40.12    5.03
   1 -14   1   38.74    6.69
   1 -14  -1   35.10    4.15
   2 -14   1   24.34    6.55
   2 -14  -1   21.99    5.71
   2 -14  -1   37.19    7.74
   0 -15  -1   94.09    7.15
   0 -15   1   88.79    7.36
   1 -15   1   57.53    7.87
   1 -15   1   71.61    5.68
   1 -15  -1   54.08    4.51
   0 -16   1  194.08   11.36
   0 -16  -1  191.04   11.03
   0   0   2   -0.18    0.11
  -1   0  -2  699.15   23.76
  -1   0   2  719.61   24.00
   1   0   2  725.39   23.71
   1   0  -2  717.96   23.92
  -2   0  -2  161.24    7.62
   2   0   2  157.25    6.64
   2   0  -2  148.92    8.20
  -2   0   2  180.06    8.68
  -2   0  -2  151.22    7.77
  -2   0   2  165.19    6.68
  -2   0   2  157.86    8.54
  -3   0  -2  290.84   13.81
   3   0   2  276.96   14.65
   3   0  -2  311.31   14.73
   4   0  -2   73.76    8.81
   4   0   2   81.60    9.54
   0   1  -2 1460.78   42.18
   0   1   2 1165.54   42.06
   0  -1  -2 1428.28   42.98
  -1   1   2 6443.29  199.40
   1  -1   2 6357.90  200.61
  -1  -1  -2 6184.63  202.35
  -1   1   2 6116.25  187.02
   1  -1  -2 6190.13  191.95
  -1  -1   2 6768.64  201.41
   1   1   2 6572.41  202.06
   1  -1  -2 6515.91  199.56
  -1   1  -2 6336.63  187.61
  -1   1  -2 6086.25  200.24
  -2   1   2 1732.24   57.33
  -2  -1  -2 1663.55   56.46
  -2   1   2 1752.60   55.24
   2   1  -2 1744.32   56.29
  -2   1  -2 1716.72   54.09
   2  -1  -2 1697.56   57.21
  -2  -1   2 1711.35   55.68
   2   1   2 1780.23   55.77
  -2   1  -2 1809.53   55.99
   3  -1   2  340.42   17.32
   3   1  -2  402.30   16.74
   3  -1  -2  336.15   16.85
  -3   1  -2  356.10   15.73
   3   1   2  368.89   16.82
   4  -1   2   21.58    5.39
   4   1  -2   33.59    5.81
   4   1   2   26.64    5.61
   4  -1  -2   21.84    5.67
   0   2   2   -3.44    0.97
   0  -2  -2   -4.67    0.82
   0  -2   2   -2.26    1.00
  -1   2   2 9609.54  280.73
  -1  -2  -2 8216.24  289.47
  -1   2   2 9569.95  296.72
   1  -2   2 9188.30  293.59
   1  -2   2 9454.23  281.84
  -1  -2   2 9995.35  291.58
   1   2   2 9262.86  300.74
   1  -2  -2 9594.21  283.33
   1  -2  -2 9999.99  300.22
  -1   2  -2 9243.03  294.21
  -2   2   2  237.01   10.71
   2  -2   2  201.64   11.14
  -2  -2  -2  215.84   10.32
   2   2  -2  230.46    9.78
  -2   2   2  216.99   11.11
  -2   2  -2  227.61    9.76
   2  -2  -2  224.18   11.23
  -2   2  -2  229.62    9.36
  -2  -2   2  227.18    9.97
   2   2   2  235.92   10.07
   3   2  -2  173.71    9.45
   3  -2   2  165.46   11.06
   3   2   2  176.30    9.96
  -3   2  -2  171.57    9.61
   3  -2  -2  134.73   10.12
   4  -2   2   73.87    9.45
   4   2  -2   67.84    7.53
   4  -2  -2   52.99    8.01
   4   2   2   72.59    8.36
   0   3   2   11.86    1.62
   0  -3  -2   12.13    1.63
   0   3   2   14.38    1.69
  -1   3   2   66.00    4.57
  -1  -3  -2   54.55    4.07
   1  -3   2   62.47    3.19
  -1  -3   2   63.16    4.17
   1  -3  -2   68.10    4.59
   1  -3  -2   71.02    4.40
  -1  -3   2   62.90    2.80
   1   3   2   69.42    4.49
  -1   3  -2   62.85    3.34
  -2   3   2  875.02   32.16
  -2   3   2  898.98   30.24
   2  -3   2  872.96   29.79
   2  -3   2  859.76   32.36
  -2  -3  -2  839.38   31.19
  -2  -3   2  896.19   31.02
   2  -3  -2  891.16   32.22
  -2   3  -2  908.09   29.37
   2   3   2  855.70   30.81
   2  -3  -2  874.97   30.94
   3   3  -2  464.95   18.49
  -3   3   2  472.39   16.50
   3  -3   2  467.56   21.95
   3  -3  -2  494.48   21.93
   3   3   2  463.23   19.27
   4  -3   2  124.85   13.34
   4  -3  -2  107.39   11.54
   4   3   2  109.14    8.75
   0   4   2 2274.10   72.85
   0  -4  -2 2304.22   72.55
   0  -4   2 2273.32   73.08
   0   4   2 2334.31   71.78
  -1   4   2  893.33   29.04
  -1   4   2  947.54   28.60
  -1  -4  -2  893.18   31.48
  -1   4   2  919.18   31.66
   1  -4   2  925.80   29.49
  -1  -4   2  927.01   31.59
  -1   4  -2  879.70   29.55
   1  -4  -2  878.50   29.96
   1   4   2  895.51   31.62
   1  -4  -2  923.64   31.64
  -2  -4  -2  226.15   11.52
   2  -4   2  228.16   10.88
   2  -4   2  244.69   12.77
   2  -4  -2  243.88   12.50
   2  -4  -2  249.65   11.98
  -2  -4   2  240.11   11.53
  -2   4  -2  235.59    9.60
   2   4   2  253.68   11.69
  -3   4   2  303.39   11.54
   3  -4   2  300.28   16.67
   3   4   2  289.36   13.35
   3  -4  -2  314.76   16.59
   4  -4   2  108.20   12.37
   4   4   2   89.84    7.40
   4  -4  -2   75.24    9.76
   0   5   2 2192.52   71.69
   0  -5  -2 2188.63   71.21
   0   5   2 2350.61   70.58
   0  -5   2 2207.50   71.86
  -1  -5  -2 1055.70   38.15
  -1   5   2 1156.53   38.45
  -1   5   2 1111.04   36.13
   1  -5   2 1154.40   36.12
   1  -5   2 1114.32   38.34
   1  -5  -2 1070.34   38.06
  -1  -5   2 1042.40   38.09
  -1   5  -2 1125.72   36.12
   1   5   2 1171.12   38.80
   2  -5   2    4.63    2.20
  -2   5   2    5.49    1.07
   2  -5   2    4.43    1.81
  -2   5   2    5.09    0.88
  -2   5  -2    7.95    1.65
   2   5   2    4.83    2.12
   2  -5  -2    5.89    2.17
   2  -5  -2    4.36    2.36
   3  -5   2  900.96   37.58
   3   5   2  948.00   32.44
   3  -5  -2  961.67   37.63
   4  -5   2   46.60    8.37
   4  -5  -2   52.79    8.83
   0   6   2   49.94    4.22
   0  -6   2   47.62    4.11
   0   6   2   57.16    3.88
   0  -6  -2   48.10    3.84
   0  -6   2   51.14    3.68
  -1   6   2  115.60    7.53
  -1  -6  -2  130.03    7.78
  -1   6   2  135.49    6.55
   1  -6   2  131.48    7.95
   1  -6   2  128.69    6.09
   1  -6  -2  132.92    7.96
   1   6   2  137.83    8.18
   1   6   2  131.49    5.28
  -1   6  -2  120.84    5.98
  -1  -6   2  129.80    7.87
  -2   6   2   14.84    2.08
  -2   6   2   15.22    1.75
   2  -6   2   16.61    3.34
   2  -6   2   12.92    3.58
   2   6   2   14.93    1.71
   2   6   2   13.19    3.31
   2  -6  -2   20.74    4.08
   2  -6  -2    8.67    3.18
   3  -6   2   26.07    5.98
   3  -6   2   50.53    6.89
   3  -6  -2   35.80    6.00
   3   6   2   48.09    3.74
   3  -6  -2   51.59    7.38
   4  -6   2   11.35    4.87
   4  -6  -2    8.11    4.48
   0  -7   2   24.16    3.16
   0  -7  -2   33.13    3.86
   0   7   2   27.81    3.94
   0  -7   2   28.10    3.95
   0   7   2   28.62    3.37
   1  -7   2  645.89   24.77
  -1  -7  -2  747.82   27.37
   1  -7   2  727.20   24.68
  -1   7   2  700.80   26.86
  -1   7   2  708.25   25.49
   1  -7   2  696.82   27.01
  -1  -7   2  737.73   27.52
   1   7   2  726.90   23.25
   1  -7  -2  707.08   26.91
   1   7   2  733.12   27.64
   2  -7   2  551.51   23.70
   2  -7   2  520.10   21.15
  -2   7   2  532.67   19.22
   2  -7  -2  504.80   22.90
   2   7   2  527.59   22.67
   2  -7  -2  525.79   22.06
   3  -7   2   47.32    7.23
   3  -7   2   65.46    7.88
   3  -7  -2   48.74    7.48
   3  -7  -2   40.26    6.84
   4  -7   2   12.89    5.13
   4  -7  -2    7.69    4.34
   0   8   2  584.44   21.86
   0  -8   2  600.72   21.78
   0  -8  -2  633.48   22.80
   0   8   2  565.98   23.31
   0  -8   2  592.73   23.22
  -1  -8  -2  564.73   22.57
  -1   8   2  538.97   20.96
   1  -8   2  534.54   20.21
   1  -8   2  559.53   22.47
   1  -8   2  562.04   19.97
   1   8   2  519.06   18.25
  -1  -8   2  516.74   22.36
   1   8   2  535.21   22.76
   1  -8  -2  559.32   22.31
   1  -8  -2  543.16   18.15
   1  -8  -2  551.83   18.10
   2  -8   2  103.21    8.99
  -2   8   2  109.58    6.48
   2  -8   2  111.83    8.09
   2  -8  -2   96.63    8.52
   2  -8  -2  105.92    8.30
   2   8   2  114.51    8.92
   3  -8   2   39.44    6.30
   3  -8   2   50.30    8.38
   3  -8  -2   28.25    6.16
   3  -8  -2   29.74    5.91
   4  -8   2    7.39    3.86
   4  -8  -2    0.66    2.98
   0  -9   2   13.38    3.07
   0   9   2   11.51    3.17
   0  -9   2   11.76    2.40
   0  -9  -2   15.80    3.09
   0  -9   2   12.21    2.43
  -1   9   2  230.76   11.84
   1  -9   2  250.94   11.14
  -1  -9  -2  231.26   12.70
   1  -9   2  215.59   12.36
   1  -9   2  242.47   10.71
   1  -9  -2  233.79    9.13
  -1  -9   2  279.10   15.21
   1   9   2  227.08   13.22
   1  -9  -2  234.20    9.16
   1  -9  -2  230.79   12.49
   2  -9   2   40.34    6.56
  -2   9   2   39.16    4.69
   2  -9   2   29.59    5.21
   2  -9  -2   34.00    5.58
   2  -9  -2   37.42    6.18
   2   9   2   32.88    5.97
   3  -9   2  252.22   16.55
   3  -9   2  223.94   14.40
   3  -9  -2  240.40   15.32
   3  -9  -2  252.34   16.39
   4  -9   2   26.09    7.51
   4  -9  -2   19.14    5.91
   0 -10   2  334.19   15.92
   0 -10  -2  320.17   15.10
   0 -10   2  355.81   14.68
   0  10   2  340.11   16.63
   0 -10   2  330.83   14.31
  -1  10   2  204.76   11.35
   1 -10   2  201.90    9.83
  -1 -10  -2  226.63   12.37
   1 -10   2  204.74   11.83
   1 -10   2  190.01    9.88
   1 -10  -2  203.24    8.43
   1 -10  -2  188.18   11.35
   1 -10  -2  196.15    8.35
   1  10   2  196.41   12.46
  -2  10   2   95.49    7.00
   2 -10   2   83.63    9.03
   2 -10   2   90.65   10.16
   2  10   2   86.22    9.65
   2 -10  -2   88.78    9.76
   2 -10  -2   90.94   10.47
   3 -10   2  109.53   12.53
   3 -10   2   94.28   11.22
   3 -10  -2  121.40   13.69
   3 -10  -2  129.76   14.00
   0 -11   2   29.96    4.15
   0 -11   2   33.56    4.50
   0 -11  -2   35.52    5.05
   0 -11   2   26.13    4.61
   0  11   2   27.60    5.22
   1 -11   2  116.81    7.05
   1 -11   2  103.49    8.42
  -1  11   2  100.50    8.05
   1  11   2  101.36    9.16
   1 -11  -2  104.63    5.58
   1 -11  -2  107.59    5.62
   1 -11  -2  101.06    8.17
   2 -11   2   30.45    6.19
   2 -11  -2   26.47    5.59
   2  11   2   27.13    5.68
   2 -11  -2   33.10    6.16
   3 -11   2  264.55   17.54
   3 -11   2  240.95   15.87
   3 -11  -2  222.74   16.44
   3 -11  -2  233.30   16.14
   0  12   2  210.37   13.64
   0 -12   2  242.53   11.92
   0 -12   2  230.36   11.55
   1 -12   2  402.36   19.76
   1 -12   2  421.21   17.58
  -1  12   2  445.30   20.43
   1 -12  -2  405.98   15.77
   1  12   2  465.45   22.22
   2 -12   2   42.28    7.55
   2  12   2   55.55    8.61
   2 -12  -2   67.33    8.79
   2 -12  -2   43.26    7.25
   3 -12   2   30.72    7.36
   3 -12   2   40.31    7.81
   3 -12  -2   32.62    7.12
   3 -12  -2   28.43    6.70
   0 -13  -2  187.87   10.09
   0 -13   2  201.18   10.81
   0 -13   2  196.28   10.47
   0  13   2  171.03   12.69
  -1  13   2  102.03    8.94
   1 -13   2  107.75    7.05
   1 -13   2   88.36    9.53
   1 -13  -2   82.45    5.25
   1  13   2  100.31   11.74
   2 -13   2   88.75   10.93
   2 -13  -2  103.55   11.76
   2 -13  -2   76.52   10.12
   0  14   2   22.34    5.67
   0 -14  -2   21.52    4.07
   0 -14   2   23.07    4.35
   1 -14   2   69.42    5.95
   1 -14   2   78.17    9.30
   1 -14  -2   65.99    4.49
   1  14   2   49.20    8.13
   2 -14   2   42.65    7.62
   2 -14  -2   32.44    6.58
   0 -15  -2   77.26    6.56
   0 -15   2   86.21    7.26
   1 -15   2   97.50    7.09
   1 -15   2   95.24   10.35
   0 -16  -2   -1.16    1.78
   0 -16   2    2.28    2.30
   0   0  -3   -6.47    0.80
  -1   0   3 3216.14  100.02
   1   0   3 3256.55  100.73
  -1   0  -3 3199.91  100.69
  -2   0   3  288.19   12.67
  -2   0   3  271.24   12.26
  -2   0  -3  280.73   11.70
   2   0  -3  275.47   12.20
   2   0   3  278.94   10.97
  -2   0  -3  262.87   11.16
  -3   0  -3   30.07    4.58
   3   0  -3   38.83    5.25
   3   0   3   34.21    5.57
   4   0   3   30.28    6.10
   4   0  -3   33.98    5.81
   0  -1   3  811.63   26.39
   0  -1  -3  836.11   26.31
   0   1   3  784.57   26.39
   0   1  -3  865.44   26.41
  -1  -1  -3 2453.23   77.08
   1  -1   3 2383.59   76.46
  -1   1   3 2484.94   76.79
  -1   1   3 2298.41   73.55
  -1   1  -3 2386.64   72.02
  -1  -1   3 2445.69   75.84
  -1   1  -3 2508.04   76.54
   1   1   3 2545.62   77.16
   2   1  -3  585.99   22.16
  -2   1   3  604.57   23.37
   2  -1   3  622.82   21.01
  -2  -1  -3  615.48   22.69
  -2   1   3  679.80   23.17
  -2   1  -3  605.95   21.98
  -2   1  -3  603.15   21.20
   2  -1  -3  642.95   23.59
  -2  -1   3  615.80   22.57
   2   1   3  598.95   22.04
  -2  -1   3  643.08   21.57
  -3  -1  -3  228.90   11.53
   3   1  -3  209.98   11.31
   3  -1   3  226.76   12.90
  -3   1  -3  215.46   10.87
   3  -1  -3  192.58   11.88
   3   1   3  207.67   11.85
   4  -1   3   53.95    8.19
   4   1  -3   37.98    5.83
   4  -1  -3   44.21    7.15
   4   1   3   40.26    6.73
   0  -2   3 3842.58  124.56
   0   2   3 4116.14  126.39
   0  -2  -3 4044.25  125.39
  -1   2   3  189.56    8.51
  -1   2   3  183.86    7.95
   1  -2   3  180.56    7.36
   1  -2   3  185.39    7.01
  -1   2  -3  178.40    7.38
   1  -2  -3  178.88    8.19
   1   2   3  190.50    8.41
  -1  -2   3  188.43    7.15
  -2   2   3 1880.45   60.53
  -2  -2  -3 1948.25   62.91
  -2   2   3 1933.51   63.48
   2  -2   3 1965.45   59.99
  -2  -2   3 1892.49   61.44
  -2   2  -3 1889.27   58.88
  -2  -2   3 1869.93   61.85
  -2   2  -3 1971.55   61.55
   2   2   3 1867.30   62.35
   2  -2  -3 1919.63   63.38
  -3   2   3  224.97    8.55
   3  -2   3  246.04   13.54
   3   2   3  202.65    9.55
  -3   2  -3  199.86   10.45
   3  -2  -3  194.45   12.22
   3   2   3  197.01   11.30
   4  -2   3    7.49    3.71
   4   2   3    6.58    3.24
   4  -2  -3    8.89    3.96
   0   3   3 1019.67   33.37
   0  -3  -3 1021.68   33.07
   1  -3   3   58.97    3.29
  -1   3   3   55.27    4.19
  -1  -3  -3   56.86    4.08
   1   3   3   48.85    3.94
  -1   3  -3   47.99    3.09
   1  -3  -3   47.71    3.95
   2  -3   3   50.02    4.04
  -2  -3  -3   50.73    4.56
  -2   3   3   53.28    5.93
   2   3   3   36.52    4.44
  -2  -3   3   45.33    4.10
  -2  -3   3   48.28    3.52
   2  -3  -3   36.95    4.61
   2  -3  -3   43.47    5.01
  -2   3  -3   40.02    3.33
   3  -3   3  717.25   30.78
   3   3   3  760.81   27.55
   3  -3  -3  782.94   30.89
   3   3   3  754.47   28.36
   4  -3   3   51.09    8.43
   4  -3  -3   53.34    7.96
   4   3   3   60.26    7.45
   0  -4   3  561.27   19.19
   0   4   3  517.84   19.60
   0   4   3  557.65   19.25
   0  -4  -3  585.61   19.49
  -1   4   3   20.41    1.52
  -1  -4  -3   23.78    3.22
  -1   4   3   12.79    2.37
   1  -4   3   18.09    2.17
  -1   4  -3   18.71    2.11
  -1  -4   3   20.99    3.02
   1  -4  -3   14.58    2.40
   1  -4  -3   19.26    3.06
   1   4   3   28.51    3.65
  -2  -4  -3  220.88   11.03
   2  -4   3  213.94    9.91
   2  -4   3  209.01   11.65
   2   4   3  187.58   10.38
  -2   4  -3  205.30    8.94
   2  -4  -3  206.56   10.94
  -2  -4   3  212.08   11.51
   3  -4   3  260.32   15.40
   3   4   3  261.05   12.46
   3   4   3  264.43   12.86
   3  -4  -3  279.12   15.38
   4  -4   3   12.65    4.73
   4   4   3   13.67    3.69
   4  -4  -3   20.72    6.12
   0  -5   3  210.28    8.67
   0   5   3  209.41    8.86
   0  -5  -3  194.60    8.75
   0  -5   3  205.33    9.50
   0   5   3  200.74    9.26
   1  -5   3 2076.03   64.69
   1  -5   3 2151.56   64.33
  -1   5   3 2006.20   65.97
  -1  -5  -3 1932.74   65.92
  -1   5   3 2047.93   63.74
  -1  -5   3 1985.11   66.21
  -1   5  -3 1983.13   63.99
   1   5   3 1892.61   66.22
   1  -5  -3 2068.94   65.93
   2  -5   3  417.89   18.49
   2  -5   3  405.05   16.03
   2   5   3  378.75   17.15
   2  -5  -3  395.14   17.97
   2  -5  -3  364.33   16.92
   3  -5   3  243.95   15.55
   3  -5  -3  292.77   16.20
   3   5   3  278.29   12.41
   3   5   3  276.90   13.83
   4  -5   3  137.92   12.55
   4  -5  -3  155.58   12.93
   0  -6  -3  404.52   15.30
   0   6   3  381.17   14.95
   0   6   3  377.52   15.71
   0  -6   3  402.42   16.13
   1  -6   3 1667.31   53.85
  -1  -6  -3 1700.08   56.03
  -1   6   3 1663.47   55.83
  -1   6   3 1612.99   53.80
   1  -6   3 1639.01   54.28
   1   6   3 1670.64   56.45
   1  -6  -3 1694.45   55.74
  -1   6  -3 1630.06   53.62
  -1  -6   3 1737.29   56.43
   2  -6   3  551.39   24.02
  -2   6   3  557.22   18.38
   2  -6   3  564.59   21.64
  -2   6   3  529.66   19.02
   2   6   3  601.32   23.56
   2  -6  -3  576.61   23.97
   2  -6  -3  569.63   22.79
   3  -6   3  649.30   29.19
   3  -6   3  656.88   26.04
   3  -6  -3  674.42   29.09
   3  -6  -3  674.64   27.89
   3   6   3  636.88   26.37
   3   6   3  615.75   23.11
   4  -6   3    6.48    3.87
   4  -6  -3    1.62    3.23
   0  -7   3   15.05    3.01
   0  -7   3   11.00    2.28
   0   7   3    8.67    2.38
   0  -7  -3   14.84    2.65
   0  -7   3   14.61    2.49
   0   7   3   11.69    2.29
  -1  -7  -3  177.64    9.72
  -1   7   3  176.69    9.84
   1  -7   3  178.25    8.21
   1  -7   3  163.79    9.67
  -1   7   3  170.24    8.37
   1  -7   3  165.38    8.37
  -1  -7   3  168.61    9.81
   1   7   3  168.56    7.17
   1   7   3  180.14   10.24
   1  -7  -3  166.12    9.52
   2  -7   3  317.29   14.53
  -2   7   3  322.88   12.49
   2  -7   3  293.43   16.16
   2  -7  -3  318.63   16.42
   2  -7  -3  314.92   15.54
   2   7   3  318.47   15.92
   3  -7   3   44.78    7.88
   3  -7   3   41.63    6.37
   3  -7  -3   43.00    7.00
   3   7   3   44.92    6.66
   3  -7  -3   48.47    7.44
   4  -7   3    3.51    3.64
   4  -7  -3   11.51    4.74
   0  -8   3   12.79    2.41
   0  -8   3    8.88    2.47
   0   8   3    5.06    2.13
   0  -8  -3    9.26    2.27
   0   8   3   10.86    2.35
   0  -8   3    7.34    2.04
   1  -8   3 1093.59   38.38
   1  -8   3 1113.54   40.59
  -1   8   3 1129.64   39.27
   1  -8   3 1143.88   39.00
  -1  -8  -3 1211.11   41.10
   1  -8  -3 1128.14   40.29
   1   8   3 1168.97   41.74
   1   8   3 1115.06   36.76
  -1  -8   3 1131.91   41.29
  -2   8   3  589.71   22.08
   2  -8   3  621.14   26.65
   2  -8   3  634.29   24.28
   2   8   3  608.90   26.03
   2  -8  -3  587.36   25.93
   2  -8  -3  590.59   24.95
   3  -8   3   68.49   10.12
   3  -8   3   46.83    7.03
   3  -8  -3   60.97    8.36
   3  -8  -3   54.50    8.34
   3   8   3   64.20    8.12
   4  -8   3   23.99    6.65
   4  -8  -3   25.55    6.89
   0   9   3   19.14    3.79
   0  -9   3   21.58    3.39
   0  -9   3   26.47    4.33
   0   9   3   17.09    3.10
   0  -9  -3   23.46    3.62
   0  -9   3   17.84    3.11
   1  -9   3  458.65   19.74
   1  -9   3  450.69   17.48
  -1  -9  -3  426.72   19.31
  -1   9   3  401.04   18.10
   1  -9   3  439.63   17.83
   1  -9  -3  450.45   19.33
   1   9   3  451.08   20.33
   1   9   3  440.43   15.89
   1  -9  -3  438.51   14.77
   2  -9   3  456.26   20.34
  -2   9   3  427.86   18.34
   2  -9   3  448.07   22.23
   2   9   3  500.30   22.55
   2  -9  -3  490.47   22.32
   2  -9  -3  479.29   21.44
   3  -9   3   78.46    9.23
   3  -9   3   92.19   11.61
   3  -9  -3  104.93   11.80
   3  -9  -3   66.48    9.05
   3   9   3   79.33    9.68
   4  -9   3   54.50   10.07
   4  -9  -3   59.09   10.48
   0 -10   3   81.77    6.91
   0  10   3   70.66    5.80
   0 -10   3   79.52    6.11
   0 -10  -3   96.05    6.64
   0  10   3   85.14    7.28
   0 -10   3   76.75    5.86
  -1 -10  -3   46.51    6.26
   1 -10   3   55.72    4.85
  -1  10   3   48.88    6.09
   1 -10   3   47.83    5.35
   1 -10   3   44.80    6.18
   1 -10  -3   54.05    3.05
   1  10   3   47.56    6.50
   1 -10  -3   47.42    3.01
   2 -10   3    4.76    3.00
  -2  10   3    6.73    2.57
   2 -10  -3    5.48    3.15
   2  10   3    4.63    2.90
   2 -10  -3   10.63    4.10
   3 -10   3   47.09    7.76
   3 -10   3   33.55    7.02
   3 -10  -3   38.64    7.86
   3  10   3   31.06    6.06
   3 -10  -3   36.86    7.09
   0 -11  -3  246.61   12.63
   0 -11   3  248.79   12.02
   0 -11   3  234.32   12.02
   0  11   3  268.58   14.57
   0 -11   3  264.03   13.82
  -1  11   3  192.84   11.75
   1 -11   3  180.03   10.14
   1 -11   3  214.78   12.48
  -1 -11  -3  206.35   12.42
   1  11   3  221.42   13.73
   1 -11  -3  200.49    8.14
   1 -11  -3  214.28    8.33
   2 -11   3   43.52    7.20
   2 -11  -3   42.59    7.40
   2  11   3   27.47    6.15
   2 -11  -3   26.56    5.41
   3 -11   3  239.05   16.98
   3 -11   3  218.75   15.08
   3 -11  -3  232.22   16.28
   3 -11  -3  239.92   16.58
   0  12   3  367.07   18.93
   0 -12   3  358.24   15.96
   0 -12   3  370.12   16.36
  -1  12   3   64.12    8.13
   1 -12   3   60.02    5.38
   1 -12   3   45.79    6.68
   1 -12  -3   61.44    3.79
   1  12   3   54.73    7.84
   2 -12   3   41.16    7.83
   2 -12  -3   47.35    7.65
   2 -12  -3   38.61    6.79
   2  12   3   46.63    8.35
   3 -12   3  250.08   17.02
   3 -12   3  283.58   18.98
   3 -12  -3  276.24   18.35
   3 -12  -3  292.01   18.72
   0 -13   3   29.95    4.64
   0  13   3   31.24    6.27
   0 -13   3   22.08    4.12
   1 -13   3   29.92    4.57
   1 -13   3   27.39    5.43
  -1  13   3   39.41    6.69
   1  13   3   33.89    6.82
   1 -13  -3   38.73    3.01
   2 -13   3    6.88    4.37
   2 -13  -3    8.64    3.93
   2  13   3   -2.10    2.64
   0  14   3   68.52    9.85
   0 -14   3   62.66    7.06
   0 -14  -3   82.94    6.36
   0 -14   3   75.09    6.45
   1 -14   3  183.20   12.54
   1 -14   3  195.04   10.72
   1  14   3  171.07   13.87
   2 -14   3  175.39   13.89
   2 -14  -3  177.78   14.10
   2  14   3  183.74   14.82
   0  15   3    2.93    3.81
   0 -15   3   -0.19    2.06
   0 -15  -3   -0.03    1.94
   1 -15   3   73.55    9.24
   1 -15   3   68.08    6.25
   1  15   3   61.36   10.03
  -1 -15   3   63.24    7.88
   0 -16  -3   -1.02    1.64
   0 -16   3    2.10    2.23
   0   0  -4  118.21    4.76
   0   0   4  115.57    4.34
   0   0   4  107.69    4.79
  -1   0   4 1144.76   36.70
  -1   0   4 1115.70   35.83
  -1   0  -4 1120.16   36.87
   1   0   4 1114.52   36.99
  -2   0   4 1095.21   36.74
  -2   0   4 1077.89   37.28
  -2   0  -4 1076.76   34.54
  -2   0  -4 1053.71   36.61
   2   0   4 1078.12   36.23
   3   0  -4  465.01   19.97
  -3   0  -4  462.12   18.63
   3   0   4  472.65   16.61
   4   0   4   21.72    5.30
   0  -1   4 2411.31   76.83
   0  -1  -4 2521.71   76.68
   0   1  -4 2459.33   76.74
   0  -1  -4 2527.07   72.98
   0   1   4 2415.86   76.86
   1  -1   4  688.34   23.90
  -1  -1  -4  699.07   24.30
  -1   1   4  696.94   23.50
  -1   1   4  726.07   24.45
   1   1   4  702.15   24.43
  -1   1  -4  712.67   23.88
  -2   1   4 1497.89   49.33
  -2   1   4 1493.96   47.64
   2  -1   4 1450.27   47.25
  -2  -1  -4 1403.94   48.44
  -2   1  -4 1435.69   45.15
  -2  -1   4 1444.54   48.20
   2   1   4 1412.58   48.08
  -2   1  -4 1514.29   47.99
   2  -1  -4 1410.32   48.62
   3  -1   4  146.96   10.31
  -3  -1  -4  143.24    8.86
  -3   1  -4  157.19    8.67
   3   1   4  155.15    7.68
   3  -1  -4  156.37   10.01
   4  -1   4   21.47    5.32
   4   1   4   19.90    4.99
   0   2  -4 1330.78   43.80
   0  -2   4 1322.79   43.89
   0  -2  -4 1418.56   43.81
   0   2   4 1454.42   44.18
  -1   2   4 1086.43   37.90
   1  -2   4 1121.06   34.62
  -1  -2  -4 1162.00   38.12
   1  -2   4 1181.49   37.33
  -1   2   4 1121.11   36.29
   1   2   4 1134.60   38.17
  -1   2  -4 1154.17   37.19
   1  -2  -4 1166.63   36.81
   2  -2   4 1220.13   38.62
  -2  -2  -4 1157.48   40.53
  -2   2   4 1198.28   41.36
  -2   2   4 1185.64   39.46
  -2   2  -4 1229.48   39.51
   2   2   4 1116.77   40.14
   2  -2  -4 1172.21   40.97
  -2  -2   4 1183.35   39.49
  -2   2  -4 1144.34   37.11
  -3   2   4  187.57    7.54
   3  -2   4  198.24   12.34
   3  -2  -4  194.95   11.76
  -3   2  -4  197.68    9.86
   3   2   4  186.31    9.60
   4  -2   4  129.21   11.50
   4  -2  -4  149.90   11.32
   4   2   4  144.58   10.75
   0  -3  -4  391.00   14.05
   0  -3   4  409.44   14.28
   0   3   4  396.36   14.52
  -1   3   4  294.72   12.50
   1  -3   4  307.01   11.42
   1  -3  -4  276.89   11.90
  -1   3  -4  284.19   11.16
   1   3   4  310.05   12.65
  -2   3   4  363.27   17.96
  -2  -3  -4  391.33   16.52
   2  -3   4  368.18   13.93
  -2   3   4  385.26   16.02
  -2  -3   4  389.22   15.81
  -2   3  -4  394.39   14.99
   2  -3  -4  399.94   16.98
  -2  -3   4  390.19   14.87
   2   3   4  396.00   16.46
   2  -3  -4  423.90   17.46
   3  -3   4  464.02   22.02
   3  -3  -4  478.63   21.46
   3   3   4  445.79   18.84
   4  -3   4   50.52    8.45
   4   3   4   57.27    7.34
   4  -3  -4   44.15    7.28
   0   4   4 5955.49  186.03
   0  -4   4 5892.28  188.34
   0  -4  -4 5862.43  182.65
  -1   4   4   48.20    2.54
  -1   4   4   51.53    4.31
  -1  -4  -4   49.74    4.18
   1  -4   4   49.89    3.46
   1   4   4   47.98    4.28
  -1   4  -4   52.47    3.40
   1  -4  -4   46.62    4.02
   2  -4   4 1076.73   35.07
   2  -4   4 1090.72   35.66
   2  -4   4 1113.42   35.14
   2  -4  -4 1029.44   37.59
  -2  -4   4 1103.43   35.53
   2  -4  -4 1060.52   38.99
   2   4   4 1096.40   38.63
   3  -4   4  115.94   10.00
   3   4   4  117.83    8.22
   3  -4  -4  133.27    9.99
   4  -4   4  289.46   18.58
   4  -4  -4  294.51   17.74
   4   4   4  282.81   14.97
   0  -5   4    1.27    1.00
   0   5   4    1.59    1.04
   0   5   4   -0.22    0.74
   0  -5  -4    2.95    1.15
  -1   5   4  177.50    7.21
  -1  -5  -4  168.65    8.94
  -1   5   4  163.85    9.06
   1  -5   4  178.31    7.95
   1  -5  -4  164.10    8.62
   1   5   4  162.73    9.15
  -1   5  -4  169.91    7.63
  -1  -5   4  176.39    9.17
   2  -5   4  195.25    7.86
   2  -5   4  204.02    7.96
   2  -5   4  209.18    9.91
   2   5   4  198.73   11.08
   2  -5  -4  187.91   10.98
   2  -5  -4  213.07   11.76
   3  -5   4  147.24   11.53
   3   5   4  155.09    9.92
   3   5   4  153.99    8.66
   3  -5  -4  167.19   11.67
   4  -5   4   21.77    6.10
   4  -5  -4   29.27    6.29
   0  -6  -4  132.85    6.87
   0  -6   4  137.25    7.74
   0  -6   4  133.85    6.86
   0   6   4  138.21    7.10
   0   6   4  130.47    7.44
   1  -6   4   69.17    4.94
  -1   6   4   75.16    4.58
  -1   6   4   74.28    5.84
   1  -6   4   72.74    4.77
  -1  -6  -4   69.69    5.53
   1   6   4   74.09    5.98
  -1  -6   4   86.11    6.20
  -1   6  -4   87.99    4.87
  -2   6   4  206.87    7.60
   2  -6   4  209.73   10.66
   2  -6   4  214.39    8.28
   2  -6   4  214.48    8.32
  -2   6   4  215.89    8.25
   2  -6   4  229.84   12.96
   2   6   4  235.65   12.47
   2  -6  -4  203.18   12.10
   2  -6  -4  209.16   11.86
   3  -6   4  110.92    8.12
   3  -6   4  117.24   12.22
   3   6   4   99.75    8.33
   3   6   4  105.29    6.57
   3  -6  -4  122.93    9.83
   3  -6  -4   99.81   10.69
   4  -6   4   94.85   12.50
   4  -6  -4   96.35   12.02
   0  -7   4   18.12    3.22
   0   7   4   24.30    3.61
   0  -7  -4   20.67    3.07
   0  -7   4   18.12    2.85
   0   7   4   24.37    3.39
   1  -7   4  255.94   11.48
  -1   7   4  253.72   11.08
   1  -7   4  256.13   11.13
  -1   7   4  250.97   12.77
  -1  -7  -4  256.55   12.51
  -1  -7   4  239.11   12.61
   1   7   4  244.15   12.87
  -2   7   4 1511.13   50.71
   2  -7   4 1600.41   51.84
   2  -7   4 1527.92   49.82
   2  -7   4 1558.28   56.11
   2  -7   4 1554.29   49.89
   2  -7  -4 1587.28   53.59
   2   7   4 1606.92   55.87
   2  -7  -4 1666.55   56.00
   3  -7   4   74.65    9.86
   3  -7   4   78.40    8.24
   3   7   4   54.31    7.27
   3  -7  -4   65.10    8.81
   3  -7  -4   50.03    7.45
   4  -7   4   12.08    4.78
   4  -7  -4   14.57    4.68
   0  -8  -4   82.03    5.70
   0  -8   4   80.14    6.31
   0  -8   4   79.36    5.52
   0  -8   4   81.31    5.55
   0   8   4   93.56    6.74
   0   8   4   86.11    5.82
   1  -8   4  554.66   21.34
   1  -8   4  533.37   20.71
  -1   8   4  535.05   21.05
  -1  -8  -4  572.03   22.72
   1  -8   4  568.71   22.80
  -1  -8   4  543.29   18.13
   1   8   4  548.40   23.27
   1   8   4  540.79   19.44
  -2   8   4  159.38    8.14
   2  -8   4  156.77    9.74
   2  -8   4  168.29    6.86
   2  -8   4  171.66    6.82
   2  -8   4  154.26   11.31
   2   8   4  172.60   11.29
   2  -8  -4  149.57   10.55
   2  -8  -4  164.84   11.19
   3  -8   4   36.25    6.03
   3  -8   4   43.18    7.60
   3  -8  -4   44.56    7.77
   3   8   4   26.89    5.48
   3  -8  -4   36.30    7.17
   4  -8   4    4.26    3.65
   4  -8  -4    4.51    4.01
   0  -9  -4    4.93    1.98
   0  -9   4    0.78    1.56
   0  -9   4    6.77    2.06
   0   9   4    4.87    2.01
   0   9   4    2.23    1.89
   0  -9   4    1.32    1.53
   1  -9   4   67.99    7.43
  -1   9   4   63.23    5.50
   1  -9   4   60.79    5.19
   1  -9   4   52.72    4.77
  -1  -9  -4   54.46    6.63
  -1  -9   4   58.10    3.09
   1   9   4   56.77    4.07
   1   9   4   45.41    6.16
   2  -9   4  255.52    9.58
   2  -9   4  246.52   13.51
   2  -9   4  263.25   15.52
  -2   9   4  260.24   11.88
   2  -9  -4  252.49   14.69
   2  -9  -4  255.33   14.48
   2   9   4  247.67   14.88
   3  -9   4  149.55   12.99
   3  -9   4  156.11   11.38
   3  -9  -4  186.17   13.24
   3   9   4  159.42   11.96
   3  -9  -4  175.45   13.23
   4  -9   4   32.19    7.55
   4  -9  -4   32.87    7.82
   0  10   4 1345.20   47.43
   0 -10  -4 1298.52   45.22
   0 -10   4 1293.58   46.87
   0 -10   4 1264.06   44.47
   0  10   4 1318.29   45.05
   0 -10   4 1310.18   44.92
   1 -10   4   46.03    6.42
  -1  10   4   51.06    6.07
   1 -10   4   50.56    5.80
  -1 -10  -4   54.16    6.71
   1 -10   4   51.71    4.77
   1  10   4   46.98    3.87
   1  10   4   52.60    7.61
  -1 -10   4   48.37    2.76
  -2  10   4    1.19    1.82
   2 -10   4   -0.80    2.23
   2 -10  -4    2.69    2.63
   2 -10  -4    3.66    2.32
   2  10   4   -0.54    2.14
   3 -10   4  217.66   14.15
   3 -10   4  222.66   15.95
   3 -10  -4  216.73   15.32
   3  10   4  211.01   14.57
   3 -10  -4  229.66   15.70
   0 -11  -4   -0.05    1.24
   0 -11   4   -0.89    1.40
   0 -11   4    1.44    1.41
   0  11   4   -0.37    1.34
   0 -11   4    2.09    1.82
   0  11   4   -0.38    1.94
   1 -11   4  225.05   11.42
  -1  11   4  212.64   12.37
  -1 -11  -4  225.40   13.04
   1 -11   4  213.59   12.97
   1  11   4  228.86   14.16
   2 -11   4  115.66   10.30
   2 -11  -4  102.28   11.11
   2  11   4   99.57   11.50
   3 -11   4   28.94    6.86
   3 -11   4   39.62    7.09
   3  11   4   32.20    6.75
   3 -11  -4   22.91    5.94
   0  12   4  210.88   13.19
   0 -12   4  180.37   10.64
   0 -12   4  198.04   10.67
   1 -12   4    5.32    2.39
   1 -12   4    1.98    2.71
  -1  12   4    4.28    2.72
   1  12   4    3.17    2.93
   2 -12   4   48.00    8.35
   2 -12  -4   34.87    7.17
   2  12   4   33.15    7.22
   3 -12   4   31.73    7.24
   3 -12   4   24.43    6.15
   3  12   4   37.35    8.09
   3 -12  -4   27.82    7.15
   0 -13   4    9.01    3.05
   0 -13   4    6.09    2.61
   0  13   4    3.09    2.87
   1 -13   4  171.29   11.73
  -1  13   4  157.15   11.45
   1 -13   4  156.07    9.81
   1  13   4  200.75   13.98
   2 -13   4  227.01   15.88
   2  13   4  245.86   16.81
   2 -13  -4  251.62   16.52
   0 -14   4    9.65    3.30
   0 -14  -4    6.83    2.54
   0  14   4   10.50    4.38
   0 -14   4    9.32    3.24
   1 -14   4  110.64    8.12
   1 -14   4  120.55    9.95
  -1 -14   4  121.60    9.20
   1  14   4  123.17   14.10
   2 -14   4   54.00    8.74
   2  14   4   51.96    9.26
   2 -14  -4   76.46   10.65
   0 -15  -4   39.33    5.07
   0  15   4   36.42    7.54
   0 -15   4   36.39    5.65
   1 -15   4   15.63    4.95
   1 -15   4   11.68    3.36
  -1 -15   4   10.53    3.76
   1  15   4   12.41    5.10
   0   0  -5    0.00    0.44
   0   0   5    0.31    0.52
  -1   0   5 1873.10   56.88
  -1   0  -5 1832.93   58.94
   1   0   5 1805.87   59.15
  -2   0  -5  211.70    8.64
  -2   0   5  195.94   10.39
  -2   0   5  218.45   10.41
  -2   0  -5  194.90    9.66
   2   0   5  199.90    9.57
   3   0   5   16.63    2.77
  -3   0  -5   15.68    3.08
   4   0   5  104.95   11.57
   0  -1  -5 2288.44   72.69
   0  -1  -5 2352.90   69.19
   0   1   5 2212.56   72.93
   0  -1   5 2322.43   73.01
   0   1  -5 2459.02   72.87
  -1   1   5  422.96   15.39
   1  -1   5  404.60   15.49
   1   1   5  406.46   15.93
  -1   1  -5  444.36   15.54
  -2   1   5  687.43   24.20
  -2   1   5  632.83   24.30
  -2  -1  -5  632.01   23.77
   2  -1   5  610.86   22.78
  -2   1  -5  641.54   23.29
  -2  -1   5  694.59   23.91
   2   1   5  600.78   23.47
  -2   1  -5  619.54   21.13
  -3  -1  -5   81.06    6.15
   3  -1   5   83.32    4.59
   3   1   5   74.24    5.58
  -3   1  -5   81.82    5.84
   4  -1   5  169.77   12.82
   4   1   5  178.16   12.45
   0   2   5  130.38    6.12
   0  -2   5  134.28    6.05
   0  -2  -5  145.62    5.92
   0   2  -5  140.12    5.98
  -1  -2  -5  126.39    6.77
   1  -2   5  137.15    6.50
  -1   2   5  119.78    6.43
  -1   2   5  135.61    4.56
   1  -2   5  132.16    5.02
   1   2   5  126.29    6.93
  -1   2  -5  146.19    6.47
   1  -2  -5  127.30    6.84
  -2   2   5  498.77   20.14
  -2   2   5  497.64   19.31
   2  -2   5  503.82   18.08
  -2  -2  -5  484.64   19.42
  -2  -2   5  493.19   18.57
   2   2   5  463.04   19.23
  -2   2  -5  469.55   18.32
   3   2   5  259.13   12.45
  -3   2  -5  267.58   11.71
   4  -2   5  120.96   10.69
   4   2   5   67.44    8.56
   0  -3   5 1696.36   53.96
   0   3   5 1671.68   54.22
   0  -3  -5 1696.76   53.66
  -1   3   5 1259.43   36.78
  -1   3   5 1134.72   39.73
   1  -3   5 1174.09   38.91
  -1  -3  -5 1203.22   39.84
   1   3   5 1209.65   40.16
   1  -3  -5 1138.27   38.25
  -1   3  -5 1103.09   38.53
   2  -3   5  812.81   28.30
  -2   3   5  838.54   29.51
   2   3   5  884.03   30.83
   2  -3  -5  824.68   30.44
  -2  -3   5  801.45   28.51
   3  -3  -5  833.34   33.37
   3   3   5  865.54   31.66
   4  -3   5  226.60   15.53
   4   3   5  184.84   12.31
   0  -4   5  474.01   16.76
   0   4   5  432.47   16.98
   0  -4  -5  466.50   16.46
  -1  -4  -5  543.85   20.97
  -1   4   5  587.75   18.45
   1  -4   5  527.80   19.86
  -1   4   5  546.98   21.18
   1   4   5  560.02   21.44
  -1   4  -5  539.31   19.60
   1  -4  -5  568.21   20.55
   2  -4   5 1962.77   63.50
   2  -4   5 1892.59   61.36
   2  -4  -5 1968.62   64.47
  -2  -4   5 1956.51   63.08
   2   4   5 2153.79   67.02
   3  -4   5  159.48   11.66
   3  -4  -5  163.94   11.11
   3   4   5  155.54    9.76
   4  -4   5  137.46   14.67
   4   4   5  136.68    9.95
   0  -5  -5   95.82    5.31
   0   5   5  108.12    6.15
   0  -5   5  103.14    5.68
   1  -5   5  743.36   26.16
  -1   5   5  742.84   25.00
  -1  -5  -5  720.48   27.26
  -1   5   5  715.23   27.33
   1   5   5  783.46   28.10
   1  -5  -5  774.98   26.59
  -1   5  -5  741.06   25.68
   2  -5   5   78.29    4.60
   2  -5   5   70.11    4.42
   2  -5   5   67.53    5.09
   2  -5  -5   82.74    6.85
   2   5   5   75.42    6.46
  -2  -5   5   75.75    4.31
   3  -5   5   49.29    7.30
   3   5   5   45.73    6.15
   3  -5  -5   50.62    7.04
   4  -5   5  224.35   16.53
   0   6   5  276.29   12.35
   0  -6  -5  276.93   11.44
   0   6   5  277.35   11.88
   0  -6   5  266.15   11.50
   1  -6   5  358.89   14.66
  -1   6   5  348.29   15.61
  -1   6   5  358.11   13.54
  -1  -6  -5  358.53   15.42
   1  -6   5  350.84   14.16
  -1   6  -5  329.48   13.57
  -1  -6   5  352.26   15.68
   1   6   5  326.90   15.59
  -2   6   5  156.82    6.47
   2  -6   5  165.63    8.87
   2  -6   5  161.89    7.45
   2  -6   5  162.34    7.54
   2   6   5  157.00   10.27
  -2  -6   5  163.77    6.51
   2  -6  -5  165.57   10.33
   3  -6   5   28.58    5.94
   3   6   5   21.15    4.72
   3  -6  -5   31.89    6.50
   3  -6  -5   16.20    4.35
   4  -6   5   35.60    8.49
   0  -7  -5 2506.16   80.89
   0   7   5 2523.72   80.87
   0   7   5 2448.78   82.22
   0  -7   5 2598.52   81.11
   0  -7   5 2532.24   82.70
   1  -7   5  406.25   16.99
  -1  -7  -5  409.99   17.86
  -1   7   5  421.36   16.34
   1  -7   5  398.17   16.49
  -1  -7   5  449.31   18.83
   1   7   5  411.58   18.49
   2  -7   5   97.78    5.48
  -2   7   5  101.00    5.36
   2  -7   5   93.00    6.82
   2  -7   5   88.87    9.39
   2  -7   5  102.27    5.47
   2   7   5   89.11    8.02
   2  -7  -5  108.69    8.27
   3  -7   5   43.12    5.80
   3  -7   5   36.56    6.58
   3  -7  -5   31.83    6.25
   3  -7  -5   31.41    6.17
   3   7   5   50.27    7.46
   4  -7   5  141.18   15.99
   0   8   5  190.70    9.98
   0  -8   5  212.83   11.30
   0  -8  -5  210.81    9.89
   0  -8   5  194.63    9.78
   0   8   5  193.32   10.77
  -1   8   5   14.17    2.92
  -1  -8  -5   14.19    3.36
   1  -8   5    9.73    2.41
   1  -8   5   15.64    3.08
   1   8   5   10.22    3.03
   1   8   5   14.70    2.49
  -2   8   5  186.79    8.74
   2  -8   5  176.67   10.22
   2  -8   5  186.86    8.24
   2  -8   5  166.22   11.92
   2  -8   5  183.41    8.28
   2  -8  -5  159.88   11.09
   2   8   5  189.17   12.14
   3  -8   5  167.58   10.78
   3  -8   5  157.65   12.92
   3  -8  -5  147.14   11.90
   3   8   5  170.82   12.01
   4  -8   5   29.28    7.29
   0  -9  -5 1089.30   38.19
   0  -9   5 1085.88   38.22
   0   9   5 1149.47   40.28
   0  -9   5 1083.55   37.95
   0   9   5 1127.54   38.59
   0  -9   5 1035.99   39.76
   1  -9   5  348.37   15.31
   1  -9   5  347.19   16.78
  -1  -9  -5  351.87   16.68
  -1   9   5  359.76   15.76
   1  -9   5  341.46   15.65
   1   9   5  360.64   14.16
   1   9   5  348.39   17.53
  -1  -9   5  346.42   12.70
  -2   9   5   39.95    4.59
   2  -9   5   37.60    6.54
   2  -9   5   31.21    5.17
   2  -9   5   33.61    3.57
   2  -9   5   34.38    3.65
   2   9   5   28.02    5.48
   2  -9  -5   31.24    5.74
   3  -9   5   58.11    9.29
   3  -9   5   57.30    7.69
   3   9   5   63.33    8.90
   3  -9  -5   63.40    9.55
   0 -10   5   13.48    3.08
   0  10   5   11.93    3.50
   0  10   5    7.87    2.67
   0 -10   5   14.06    3.15
   0 -10   5   13.30    3.66
   0 -10  -5   14.45    3.06
  -1 -10  -5  291.16   15.22
   1 -10   5  304.76   14.12
  -1  10   5  261.43   14.10
   1 -10   5  304.49   15.65
   1 -10   5  290.80   14.27
  -1 -10   5  326.18   11.30
   1  10   5  288.61   16.27
   1  10   5  315.24   12.84
   2 -10   5  807.59   34.09
   2 -10   5  772.43   27.55
   2 -10  -5  819.15   32.90
   2  10   5  834.48   34.36
   3 -10   5  106.57   13.32
   3 -10   5   95.50   10.50
   3 -10  -5   94.80   11.56
   3  10   5  101.61   11.64
   0 -11   5   16.21    3.99
   0 -11   5   21.32    3.84
   0  11   5   25.92    5.21
   0 -11   5   17.42    3.46
   1 -11   5   59.65    6.71
   1 -11   5   54.92    7.20
  -1  11   5   54.91    6.74
   1  11   5   62.88    8.19
  -1 -11   5   53.31    3.34
   2 -11   5  233.49   15.21
   2 -11   5  212.78    9.47
   2  11   5  213.61   14.91
   2 -11  -5  238.55   14.82
   3 -11   5   80.48   11.29
   3 -11   5   91.57   10.60
   3 -11  -5   68.17   10.03
   3  11   5   76.49   10.14
   0 -12   5   97.00    7.24
   0 -12   5  101.00    7.62
   0  12   5  103.33    9.07
   1 -12   5   59.98    7.80
  -1  12   5   65.37    8.04
   1 -12   5   66.88    6.09
   1  12   5   63.98    8.60
   2 -12   5  150.78    6.99
   2 -12   5  137.42   11.90
   2  12   5  132.10   12.03
   2 -12  -5  139.24   11.62
   3 -12   5   -0.15    2.89
   3 -12   5    0.78    3.18
   3 -12  -5   -0.56    2.53
   3  12   5    0.06    3.20
   0  13   5  181.66   12.70
   0 -13   5  162.17   10.18
   0 -13   5  156.76    9.68
  -1  13   5  172.13   12.98
   1 -13   5  173.27   12.19
   1 -13   5  202.35   11.26
   1  13   5  196.08   14.31
   2 -13   5   -2.53    2.13
   2 -13  -5    2.02    2.84
   2  13   5    1.88    3.11
   0 -14   5    1.31    2.21
   0  14   5    1.26    3.20
   1 -14   5   42.61    5.96
   1 -14   5   64.08    8.52
   1  14   5   46.20    8.10
  -1 -14   5   39.54    6.00
   2 -14   5   53.38    9.00
   2 -14  -5   47.03    9.02
   2  14   5   46.72    8.65
   0  15   5  409.07   22.59
   0 -15  -5  384.70   16.92
   0 -15   5  405.11   18.96
   1 -15   5   47.25    7.54
   1 -15   5   38.16    5.83
  -1 -15   5   36.06    6.35
   1  15   5   28.30    7.15
   0   0   6 8338.38  245.18
   0   0  -6 8577.79  259.89
   0   0   6 7794.98  259.49
   1   0   6  258.79   11.55
  -1   0   6  298.46   11.58
  -1   0  -6  284.42   11.50
  -2   0   6    1.58    1.43
  -2   0  -6    3.20    1.14
  -2   0  -6    0.57    1.24
  -2   0   6    9.49    2.42
   2   0   6    2.48    1.47
  -3   0  -6  576.28   21.21
   3   0   6  571.24   21.63
   4   0   6   77.64    9.84
   0  -1  -6  794.88   25.22
   0  -1   6  788.72   26.83
   0   1   6  760.21   26.76
   0  -1  -6  839.50   26.52
   0   1  -6  833.30   26.58
  -1   1   6   64.50    2.89
  -1   1   6   63.87    4.33
   1  -1   6   54.58    4.08
  -1  -1  -6   62.48    4.31
   1   1   6   55.95    4.36
  -1   1  -6   55.90    3.96
  -2   1   6  155.71    9.11
  -2   1   6  165.01    9.26
  -2  -1  -6  163.57    8.86
   2  -1   6  152.31    8.18
  -2  -1   6  162.88    8.64
  -2   1  -6  172.95    6.86
   2   1   6  153.35    8.69
  -2   1  -6  165.75    9.14
  -3  -1  -6  179.62    9.38
   3  -1   6  176.84    8.56
   3   1   6  175.85    9.50
  -3   1  -6  178.65    8.86
   4  -1   6   80.15   10.16
   4   1   6   93.71   10.49
   0   2   6 1146.25   38.42
   0  -2  -6 1209.99   36.40
   0  -2  -6 1175.23   37.88
   0   2  -6 1187.99   38.11
   0  -2   6 1153.59   38.28
   1  -2   6  755.24   23.81
  -1   2   6  836.38   25.12
  -1   2   6  821.82   26.65
   1  -2   6  729.04   27.11
  -1  -2  -6  764.71   27.54
   1   2   6  821.58   28.26
  -1   2  -6  787.75   27.02
   1  -2  -6  788.21   27.00
   2  -2   6  288.17   12.38
  -2  -2   6  297.43   12.68
   2   2   6  292.76   13.53
   3  -2   6   90.70    5.07
   3   2   6   81.27    6.59
   4  -2   6   48.47    8.44
   4   2   6   34.56    6.25
   0  -3  -6   45.65    3.07
   0  -3   6   48.28    3.44
   0   3   6   45.99    3.49
   0   3  -6   47.55    3.24
  -1   3   6 3548.35  109.80
  -1  -3  -6 3594.06  112.69
  -1   3   6 3540.54  112.12
   1  -3   6 3380.55  111.92
   1  -3  -6 3632.91  108.00
  -1   3  -6 3645.78  111.77
   2  -3   6  720.11   26.45
   2   3   6  767.14   28.57
  -2  -3   6  767.87   26.55
  -3  -3   6   55.29    5.91
   3   3   6   50.79    6.26
   4  -3   6   71.16   10.27
   4   3   6   75.47    8.86
   4   3   6   65.75    5.56
   0   4   6  883.44   31.11
   0  -4  -6  941.92   30.33
   0  -4   6  894.21   30.69
  -1  -4  -6   11.64    2.44
   1  -4   6    8.47    2.03
  -1   4   6   12.53    1.61
  -1   4   6   11.72    2.75
  -1   4  -6   14.08    2.28
   1  -4  -6   15.89    2.99
   1   4   6   11.93    2.71
   2  -4   6  109.10    6.01
   2  -4   6  105.25    6.18
  -2  -4   6  123.60    6.31
   2   4   6  108.05    7.77
   2  -4  -6  109.18    7.94
   3   4   6   50.19    6.36
   4  -4   6  140.96   14.94
   4   4   6  118.15    8.21
   4   4   6  116.75    9.34
   0  -5  -6  145.89    7.02
   0  -5   6  154.16    7.52
   0   5   6  150.20    7.86
  -1  -5  -6  810.23   30.53
  -1   5   6  825.97   28.32
   1  -5   6  898.30   30.02
  -1   5   6  824.87   30.86
   1  -5  -6  854.68   29.81
   1   5   6  841.86   31.35
  -1   5  -6  890.29   29.33
   2  -5   6  176.81    8.42
   2  -5   6  165.61    8.12
  -2  -5   6  163.07    7.56
   2   5   6  157.47   10.11
   2  -5  -6  156.55   10.08
   3  -5   6  266.94   16.31
   3   5   6  277.44   14.74
   4  -5   6   81.88   11.02
   4   5   6   81.24    8.50
   0   6   6  701.34   26.08
   0  -6   6  723.10   25.42
   0  -6  -6  696.36   24.78
  -1  -6  -6  980.67   35.27
   1  -6   6  952.02   34.06
  -1   6   6  954.87   33.10
   1   6   6 1009.66   36.20
   1  -6  -6 1024.97   34.25
  -2   6   6  296.61   11.00
   2  -6   6  290.34   12.59
   2  -6   6  302.43   13.20
   2   6   6  316.00   15.82
  -2  -6   6  320.10   11.61
   2  -6  -6  314.77   15.63
   3  -6   6  142.94   11.78
   3   6   6  166.49   11.06
   4  -6   6  127.57   14.56
   4   6   6   96.93    8.47
   0  -7  -6   10.61    2.17
   0  -7   6   13.18    2.70
   0   7   6    7.18    2.39
   0  -7   6    7.10    2.36
   0   7   6    8.81    2.29
   1  -7   6   38.11    4.78
  -1   7   6   36.49    4.09
   1  -7   6   34.18    4.21
  -1  -7  -6   30.88    4.59
   1   7   6   28.13    4.79
   2  -7   6   28.63    4.24
  -2   7   6   23.52    2.75
   2  -7   6   15.13    2.67
   2  -7   6   22.97    3.31
   2  -7  -6   22.32    4.54
   2   7   6   22.15    4.61
   3  -7   6  124.68   11.07
   3  -7   6  108.69    8.11
   3   7   6  113.42    9.59
   3  -7  -6  121.95   10.48
   4  -7   6   76.52   11.65
   4   7   6   45.86    7.02
   0   8   6  951.07   34.49
   0   8   6  974.83   35.65
   0  -8   6  948.27   35.83
   0  -8   6 1002.88   34.38
   0  -8  -6  969.08   33.71
  -1  -8  -6  730.16   28.07
   1  -8   6  678.89   26.59
  -1   8   6  691.37   26.40
   1  -8   6  733.08   27.37
   1   8   6  762.57   29.34
   2  -8   6    7.97    3.44
   2  -8   6   11.48    3.12
   2  -8   6    9.95    2.29
   2  -8   6    9.32    2.20
  -2   8   6   15.24    2.69
   2  -8  -6    7.43    3.03
   2   8   6   12.93    4.17
   3  -8   6  205.28   14.98
   3  -8   6  218.86   12.40
   3   8   6  212.34   13.88
   3  -8  -6  203.57   14.11
   4  -8   6   63.19   10.37
   4   8   6   48.52    7.54
   0  -9  -6  537.38   21.05
   0   9   6  540.56   23.00
   0  -9   6  541.82   21.59
   0  -9   6  574.35   23.57
   0   9   6  543.31   22.00
  -1  -9  -6  868.12   34.21
   1  -9   6  909.58   33.68
  -1   9   6  930.03   33.39
   1  -9   6  957.03   33.43
   1   9   6  907.48   31.84
   1   9   6  884.80   35.56
   2  -9   6   23.58    3.42
   2  -9   6   13.35    3.49
   2  -9   6   21.12    5.25
  -2   9   6   18.93    3.26
   2  -9  -6   21.96    4.91
   2   9   6   19.05    4.81
   3  -9   6   27.03    6.52
   3  -9   6   38.57    6.00
   3  -9  -6   37.64    7.59
   3   9   6   18.82    5.33
   0 -10   6   36.87    5.80
   0 -10   6   35.86    5.06
   0  10   6   49.09    6.75
   0 -10  -6   37.38    4.72
   0 -10   6   38.03    4.94
   1 -10   6  238.06   13.03
   1 -10   6  250.81   12.80
  -1  10   6  254.09   13.18
   1 -10   6  269.68   14.46
  -1 -10  -6  271.09   14.11
  -1 -10   6  263.27   10.37
   1  10   6  250.37   11.63
   1  10   6  248.20   14.91
   2 -10   6   16.86    5.34
   2 -10   6   23.59    3.46
   2  10   6   25.24    6.00
   2 -10  -6   21.53    5.36
   3 -10   6    0.57    2.51
   3 -10   6    2.40    3.66
   3 -10  -6   -0.62    2.55
   3  10   6    0.43    2.98
   0 -11   6   77.51    6.42
   0 -11   6   80.34    6.69
   0  11   6   94.44    8.27
   0 -11   6   85.02    9.36
  -1  11   6  144.02    9.80
   1 -11   6  134.49    9.01
   1 -11   6  149.05   10.49
   1  11   6  148.89   11.39
  -1 -11   6  139.67    6.60
   2 -11   6  404.40   21.47
   2 -11   6  372.88   15.89
   2 -11  -6  409.15   20.91
   2  11   6  418.21   21.91
   3 -11   6  141.08   11.27
   3 -11   6  140.97   15.73
   3  11   6  138.65   12.58
   3 -11  -6  151.30   15.69
   0 -12   6  118.80    8.43
   0 -12   6  138.95    9.01
   0  12   6  132.94   10.46
  -1  12   6  242.15   14.20
   1 -12   6  238.81   14.47
   1 -12   6  260.23   13.35
  -1 -12   6  249.75   13.43
   1  12   6  257.83   16.02
   2 -12   6  234.41   15.81
   2 -12   6  227.38   10.69
   2 -12  -6  227.30   15.33
   2  12   6  232.74   16.17
   3 -12   6   13.91    4.77
   3 -12   6    8.71    4.74
   3  12   6    3.01    3.84
   0 -13   6   -1.71    1.62
   0 -13   6    1.81    2.01
   0  13   6   -0.32    2.09
   1 -13   6    3.09    3.01
   1 -13   6    8.28    2.97
   1  13   6    5.10    3.81
  -1 -13   6   13.10    3.77
   2 -13   6   36.33    4.18
   2 -13   6   39.04    7.71
   2  13   6   28.66    7.21
   2 -13  -6   44.92    8.16
   0  14   6  249.95   16.29
   0 -14   6  240.47   13.49
   1 -14   6   95.24    8.01
   1 -14   6  107.39    9.65
   1  14   6  100.31   12.42
  -1 -14   6  101.68    8.79
   2 -14   6   88.06   11.28
   2  14   6   63.80   10.19
   0 -15  -6   82.50    6.51
   0 -15   6   89.60    8.01
   0  15   6   96.39   12.80
   1 -15   6   26.67    5.01
   1 -15   6   39.60    7.06
  -1 -15   6   20.88    5.05
   1  15   6   33.58    7.73
   0   0   7   -0.43    0.74
   0   0  -7   -0.23    0.64
   0   0   7   -0.36    0.52
  -1   0   7   72.71    4.79
  -1   0   7   70.13    3.61
   1   0   7   67.80    4.84
  -1   0  -7   70.98    4.66
  -2   0   7  216.15   10.89
   2   0   7  203.34   10.43
  -2   0  -7  211.22    8.11
   3   0   7   82.81    6.12
  -3   0  -7   82.93    5.61
   4   0   7  112.99   10.34
   0   1  -7 2093.02   63.25
   0  -1   7 1882.07   63.46
   0  -1  -7 1982.74   60.02
   0   1   7 1847.83   63.44
   0  -1  -7 2156.83   63.27
  -1   1   7 1330.51   42.02
  -1  -1  -7 1325.25   43.77
  -1   1   7 1353.59   41.63
   1  -1   7 1260.08   43.78
  -1   1  -7 1315.05   43.45
   1   1   7 1287.81   44.20
  -2   1   7   98.16    7.53
   2  -1   7   86.83    5.95
   2   1   7   80.03    6.07
  -2  -1   7   82.70    6.00
   3  -1   7  214.73   10.30
  -3  -1  -7  211.34   10.15
  -3   1  -7  207.57    9.54
   3   1   7  204.59   10.99
   4  -1   7  103.36   12.21
   4   1   7  109.21   11.78
   4   1   7   91.84    5.70
   0  -2  -7  336.47   12.28
   0  -2   7  318.98   12.96
   0   2  -7  340.05   12.76
   0   2   7  346.94   13.19
   0  -2  -7  350.09   12.58
  -1  -2  -7 2417.69   79.12
  -1   2   7 2508.13   75.59
  -1   2   7 2573.92   76.75
   1  -2   7 2553.15   79.21
   1  -2  -7 2335.44   75.91
   1   2   7 2331.98   79.61
  -1   2  -7 2512.89   78.64
   2  -2   7  232.34   11.20
  -2  -2   7  255.36   11.50
   2   2   7  246.59   12.29
   3  -2   7  603.55   22.38
   3   2   7  618.16   24.53
   4  -2   7   98.41   11.84
   4   2   7   85.37    6.30
   4   2   7   96.76   10.61
   0  -3   7 1951.25   60.97
   0   3  -7 1947.83   60.66
   0  -3  -7 1859.86   60.26
   0   3   7 1816.26   61.04
  -1   3   7  207.47    7.89
   1  -3   7  209.17    9.70
  -1  -3  -7  223.17   10.12
  -1   3   7  207.71   10.18
   1   3   7  182.81   10.00
   1  -3  -7  216.18   10.20
  -1   3  -7  198.86    9.19
   2  -3   7  110.78    6.74
   2   3   7  115.97    7.89
  -2  -3   7  109.59    6.61
   3  -3   7   49.22    3.94
   3   3   7   50.87    6.50
   4  -3   7   69.26   10.73
   4   3   7   64.34    6.92
   4   3   7   74.51    8.97
   0  -4  -7   39.90    3.07
   0   4   7   31.58    3.65
   0  -4   7   42.35    3.57
  -1   4   7  111.26    7.19
  -1   4   7  113.41    5.33
   1  -4   7  111.73    6.64
  -1  -4  -7  112.34    6.93
  -1   4  -7  124.60    6.44
   1   4   7  119.61    7.57
   1  -4  -7  120.60    7.24
   2  -4   7  183.79    8.21
   2  -4   7  214.70    9.75
   2  -4  -7  200.38   11.39
  -2  -4   7  178.27    8.89
   2   4   7  170.81   10.60
   3  -4   7  250.53   10.02
   3   4   7  238.42   13.44
  -3  -4   7  250.12   12.09
   4  -4   7  129.25   14.43
   4   4   7  118.20    9.63
   4   4   7  129.56    9.09
   0   5   7   68.22    5.12
   0  -5  -7   71.55    4.43
   0  -5   7   71.48    4.86
  -1   5   7 1007.70   33.71
  -1  -5  -7 1012.61   35.98
   1  -5   7  972.31   35.19
   1   5   7 1055.38   36.94
  -1   5  -7 1024.58   34.58
   1  -5  -7 1021.57   35.02
   2  -5   7  185.75    9.41
   2  -5   7  190.94    8.85
   2  -5  -7  193.13   11.46
  -2  -5   7  192.97    8.81
   2   5   7  192.34   11.49
   3   5   7   11.76    3.57
   4  -5   7   26.03    6.90
   4   5   7   21.46    4.63
   0  -6   7    6.24    1.97
   0  -6  -7    6.45    1.74
   0   6   7    5.77    2.11
   1  -6   7  272.36   11.85
  -1   6   7  245.11   10.59
  -1  -6  -7  250.99   12.14
   1   6   7  220.78   12.45
   1  -6  -7  228.56   11.82
   2  -6   7  145.01    7.91
  -2   6   7  144.49    6.15
   2  -6   7  143.42    7.79
   2   6   7  135.40    9.82
  -2  -6   7  139.76    6.86
   2  -6  -7  140.39    9.85
   3  -6   7  125.14   11.06
   3   6   7  135.29   10.21
   4  -6   7   28.72    7.28
   4   6   7   33.36    6.15
   0  -7   7  524.27   20.07
   0  -7  -7  516.84   19.29
   0   7   7  499.12   20.85
   0   7   7  517.63   20.37
  -1  -7  -7  257.28   12.76
   1  -7   7  264.11   12.25
  -1   7   7  238.79   11.26
   1   7   7  258.18   13.66
   1  -7  -7  251.92   12.61
   2  -7   7   45.62    5.05
   2  -7   7   47.63    4.96
  -2   7   7   40.99    3.29
   2  -7   7   42.02    4.99
   2  -7  -7   33.37    5.54
   2   7   7   32.74    5.56
  -2  -7   7   40.41    2.98
   3  -7   7  269.67   16.84
   3  -7   7  241.63   12.69
   3  -7  -7  257.06   16.01
   3   7   7  256.84   15.33
   4  -7   7    2.65    3.87
   4   7   7    7.17    3.30
   0  -8   7 1716.89   55.99
   0   8   7 1672.07   56.27
   0  -8   7 1650.23   57.66
   0   8   7 1661.79   57.32
   0  -8  -7 1630.81   54.95
  -1   8   7  639.12   24.01
   1  -8   7  629.76   24.42
  -1  -8  -7  639.18   25.25
   1  -8   7  580.44   24.49
   1   8   7  651.15   26.60
   2  -8   7  101.31    7.22
   2  -8   7   98.01    6.59
  -2   8   7  102.21    6.16
   2  -8  -7  109.61    8.97
   2   8   7  106.10    9.24
   3  -8   7  109.74   13.01
   3  -8   7  110.80    8.34
   3   8   7  119.51   10.28
   3  -8  -7  113.23   12.47
   4  -8   7   28.94    7.48
   4   8   7   40.56    7.34
   0  -9   7  508.13   20.68
   0   9   7  504.29   22.09
   0  -9   7  537.13   22.65
   0  -9  -7  500.24   19.76
  -1  -9  -7  158.64   10.12
  -1   9   7  156.35    9.55
   1  -9   7  166.93    9.77
   1  -9   7  167.54   10.11
   1   9   7  166.01   11.30
   1   9   7  173.42    9.10
   2  -9   7    4.86    2.36
   2  -9   7    5.51    2.03
  -2   9   7    3.12    1.94
   2  -9   7    4.57    2.95
   2   9   7    0.15    2.38
   2  -9  -7    4.52    2.92
   3  -9   7   28.46    5.35
   3  -9   7   33.72    7.24
   3  -9  -7   42.58    7.86
   3   9   7   50.90    8.53
   0 -10   7  401.52   17.46
   0  10   7  433.63   19.38
   0 -10   7  378.17   18.88
   0 -10  -7  372.18   16.24
   1 -10   7  179.85   10.71
  -1  10   7  212.15   11.48
  -1 -10  -7  193.62   11.62
   1  10   7  172.08   12.24
   2 -10   7   29.80    6.26
   2 -10   7   35.15    4.66
   2 -10  -7   41.28    7.54
   2  10   7   22.58    5.84
   3 -10   7  149.94   10.74
   3 -10   7  135.55   14.43
   3 -10  -7  132.50   14.42
   3  10   7  104.23   12.26
   0 -11   7    7.73    2.87
   0  11   7    5.27    2.88
   0 -11   7    2.15    1.81
   1 -11   7  151.72    9.64
   1 -11   7  141.77   10.41
  -1  11   7  130.04    9.50
  -1 -11   7  141.46    9.40
  -1 -11   7  148.19    7.19
   1  11   7  126.60   10.81
   2 -11   7   92.79    6.67
   2 -11   7  106.37   11.94
   2  11   7  111.22   12.71
   2 -11  -7   74.32    9.71
   3 -11   7    4.41    4.07
   3  11   7   11.59    4.94
   3 -11  -7    9.51    4.76
   0 -12   7   42.90    5.74
   0 -12   7   44.41    5.97
   0  12   7   42.42    6.88
   1 -12   7   44.60    6.90
   1 -12   7   32.39    5.38
  -1  12   7   39.56    6.29
  -1 -12   7   42.72    5.99
   1  12   7   48.30    8.00
   2 -12   7   30.28    4.47
   2 -12   7   56.79    9.22
   2 -12  -7   41.57    8.02
   2  12   7   21.29    6.14
   0 -13   7   79.70    7.25
   0  13   7   69.60    9.10
   0 -13   7   69.67    7.52
   1 -13   7  277.70   16.14
   1 -13   7  257.26   14.28
   1  13   7  280.79   17.54
  -1 -13   7  263.00   14.68
   2 -13   7   58.56    9.37
   2 -13   7   66.92    5.61
   2 -13  -7   85.17   11.15
   2  13   7   49.37    9.26
   0 -14   7  310.14   16.37
   0  14   7  341.63   19.60
   1 -14   7   31.14    5.30
   1 -14   7   29.92    6.17
  -1 -14   7   37.18    6.28
   1  14   7   28.61    6.88
   2 -14   7   27.89    6.69
   0 -15  -7   -0.40    1.64
   0 -15   7   -0.41    2.08
   0  15   7    4.92    3.95
   1 -15   7   54.85    8.15
   1 -15   7   37.50    6.11
  -1 -15   7   56.35    7.70
   1  15   7   45.99    8.70
   0   0   8  782.29   24.58
   0   0  -8  790.72   26.20
   0   0   8  753.27   26.69
  -1   0   8   42.43    4.34
  -1   0   8   33.77    2.57
  -1   0  -8   35.87    3.99
   1   0   8   34.91    4.01
   2   0   8    5.09    2.04
  -2   0  -8    3.80    1.05
  -2   0   8    3.05    1.85
  -3   0  -8   25.82    3.25
   3   0   8   30.34    4.44
   4   0   8   34.94    3.78
   0   1   8   40.85    3.33
   0  -1   8   40.20    2.67
   0  -1  -8   36.28    2.85
   0   1  -8   37.23    2.93
   0  -1  -8   35.27    2.74
   0  -1   8   34.65    3.13
  -1   1   8  975.30   31.97
   1  -1   8  986.38   33.73
  -1   1   8  977.79   31.28
  -1  -1  -8  981.35   33.31
   1   1   8  957.42   33.88
  -1   1  -8  965.01   32.99
  -1  -1   8  892.99   31.51
   2  -1   8  205.66   10.37
  -2  -1   8  180.73   10.02
   2   1   8  189.74   10.44
   3  -1   8   75.78    6.02
  -3  -1  -8   84.33    5.50
   3   1   8   75.70    6.52
   4  -1   8    4.97    3.66
   4   1   8    6.64    2.27
   0   2   8   39.50    3.42
   0  -2   8   39.39    3.42
   0  -2  -8   44.71    3.17
   0   2  -8   36.24    3.06
   0  -2  -8   44.44    3.14
   1  -2   8 1048.17   37.46
  -1   2   8 1090.64   35.87
  -1   2   8 1109.96   35.37
  -1  -2  -8 1039.84   37.30
  -1  -2   8 1086.84   35.97
   1   2   8 1114.43   38.34
  -1   2  -8 1113.38   37.04
   1  -2  -8 1136.40   36.74
   2  -2   8  241.57   11.90
  -2  -2   8  258.51   12.01
   2   2   8  252.39   12.76
   3  -2   8   89.94    6.25
   3   2   8   92.31    7.44
   4  -2   8  236.10   16.23
   4   2   8  235.59   12.16
   0   3   8 2744.50   91.15
   0  -3   8 2968.65   91.20
   0  -3  -8 2829.09   86.46
   0   3  -8 2927.12   90.64
   0  -3  -8 2866.67   90.17
  -1   3   8    1.20    0.77
   1  -3   8    0.66    1.05
  -1  -3  -8    2.28    1.33
   1   3   8    0.72    1.19
   1  -3  -8   -0.51    1.10
  -1   3  -8    2.29    1.16
  -1  -3   8    0.24    0.77
   2  -3   8  387.11   16.71
   2   3   8  422.24   18.39
  -2  -3   8  401.41   16.49
   3  -3   8  185.92    9.31
   3   3   8  177.59   11.13
   4  -3   8   24.58    6.50
   4   3   8   13.54    3.78
   0   4   8  364.67   14.87
   0  -4  -8  364.30   13.72
   0  -4   8  354.25   14.41
   1  -4   8 1225.97   41.66
  -1  -4  -8 1191.02   41.79
  -1   4   8 1219.59   39.61
  -1   4  -8 1142.12   40.61
   1   4   8 1252.12   42.91
   1  -4  -8 1262.07   40.95
  -2   4   8    1.05    0.63
   2  -4   8   -0.95    1.02
  -2  -4   8    0.01    1.07
   2   4   8    0.24    1.63
   2  -4  -8    3.24    2.07
   3  -4   8  303.62   12.68
  -3  -4   8  284.26   13.90
   3   4   8  304.51   15.74
   4  -4   8  147.49   13.34
   4   4   8  148.05   10.29
   0  -5   8 2056.77   66.68
   0  -5  -8 2059.01   65.70
   0   5   8 2030.45   67.32
   1  -5   8   44.01    5.10
  -1  -5  -8   44.84    5.17
  -1   5   8   45.59    3.48
   1  -5  -8   45.67    5.33
   1   5   8   37.13    5.12
   2  -5   8  457.48   18.24
  -2   5   8  453.92   15.00
   2  -5   8  435.23   16.15
   2  -5  -8  435.24   19.91
   2   5   8  452.73   20.44
  -2  -5   8  418.34   16.96
   3  -5   8  107.35    6.04
   3   5   8  111.57    9.09
   4  -5   8    4.18    3.58
   4   5   8    6.99    3.50
   0   6   8  402.96   16.75
   0  -6   8  349.45   15.67
   0  -6  -8  414.36   15.22
   1  -6   8  211.68   10.92
  -1   6   8  229.79   10.11
  -1  -6  -8  230.42   11.43
   1   6   8  213.63   12.08
   1  -6  -8  207.85   11.22
   2  -6   8  117.98    7.40
  -2   6   8  117.07    5.50
   2  -6   8  113.71    6.66
   2  -6  -8  126.86    9.29
   2   6   8  117.06    9.14
  -2  -6   8  109.82    6.33
   3  -6   8   15.56    2.28
   3   6   8    9.92    3.59
   4  -6   8   79.21   11.32
   4   6   8   88.85   10.21
   0   7   8  301.73   14.45
   0  -7   8  310.14   13.81
   0  -7  -8  316.24   12.90
  -1  -7  -8  474.91   19.66
  -1   7   8  477.67   18.37
   1  -7   8  487.95   19.43
   1  -7  -8  416.93   19.06
   1   7   8  443.99   20.58
   2  -7   8   58.69    4.91
  -2   7   8   52.71    3.96
   2  -7   8   57.34    5.13
   2   7   8   53.32    7.18
   2  -7  -8   69.02    8.53
  -2  -7   8   52.33    3.93
   3  -7   8   75.71    9.79
   3  -7  -8   67.79    9.24
   3   7   8   71.06    9.50
   4  -7   8   20.27    6.57
   4   7   8   19.88    5.03
   0  -8  -8  842.98   29.55
   0  -8   8  867.04   30.88
   0   8   8  797.14   31.71
   1  -8   8   74.79    6.15
   1  -8   8   72.69    7.55
  -1  -8  -8   53.04    6.39
  -1   8   8   61.48    5.50
  -1  -8   8   73.72    5.99
   1  -8  -8   79.96    6.74
   1   8   8   52.25    6.86
  -2   8   8   82.62    5.52
   2  -8   8   71.42    6.02
   2  -8   8   72.88    6.04
   2   8   8   76.20    9.22
  -2  -8   8   86.56    4.57
   2  -8  -8   89.09    9.74
   3  -8   8   10.77    4.55
   3  -8   8   14.96    3.41
   3  -8  -8    5.54    3.70
   3   8   8    4.77    3.27
   0  -9   8  865.52   35.40
   0  -9   8  853.64   31.50
   0   9   8  864.72   33.09
   0  -9  -8  811.62   30.03
  -1  -9  -8  832.15   31.24
  -1   9   8  784.03   30.12
   1  -9   8  801.77   30.54
   1  -9   8  779.91   30.87
   1  -9  -8  791.80   30.72
   1   9   8  803.47   32.71
  -1  -9   8  791.33   29.96
   2  -9   8  193.49   10.70
   2  -9   8  203.45   11.26
   2   9   8  212.52   13.99
   2  -9  -8  188.65   12.87
   3  -9   8  133.73   14.43
   3  -9  -8  137.68   12.00
   3   9   8  132.32   11.57
   0  10   8   59.61    7.55
   0 -10   8   73.96    6.37
   1 -10   8  561.14   23.34
  -1  10   8  568.21   23.43
  -1 -10   8  555.65   22.89
   1  10   8  527.60   25.25
   2 -10   8  222.71   14.86
   2 -10   8  200.76   11.32
   2  10   8  238.52   15.40
   2 -10  -8  220.14   14.28
   3 -10   8  117.69   13.63
   3 -10  -8  109.15   12.66
   3  10   8   95.05   11.91
   0  11   8  249.78   14.90
   0 -11   8  270.69   13.83
  -1  11   8  260.55   14.38
   1 -11   8  265.98   14.18
   1 -11   8  272.58   15.34
   1  11   8  260.48   16.09
  -1 -11   8  266.43   11.58
  -1 -11   8  268.47   14.08
   2 -11   8  128.11    8.67
   2 -11   8  150.35   12.30
   2 -11  -8  147.24   11.94
   2  11   8  141.02   12.23
   3 -11   8   40.42    8.63
   3  11   8   39.59    8.65
   3 -11  -8   37.43    7.67
   0 -12   8    8.16    3.17
   0  12   8   12.73    4.40
   0 -12   8   16.74    3.81
   1 -12   8  136.50   10.75
   1 -12   8  136.67    9.83
  -1 -12   8  154.26   10.16
   1  12   8  143.15   12.01
   2 -12   8   14.10    3.51
   2 -12   8   15.05    5.25
   2 -12  -8    7.16    3.68
   2  12   8   12.29    5.12
   0  13   8  226.15   15.57
   0 -13   8  258.22   13.72
   0 -13   8  268.47   14.31
   1 -13   8   95.34    8.04
   1 -13   8   84.80   10.21
   1  13   8   70.62   10.26
  -1 -13   8   74.61    8.60
   2 -13   8   67.50    6.17
   2 -13   8   79.09   11.33
   2  13   8   89.67   12.12
   2 -13  -8   62.52    9.34
   0 -14   8  135.14   10.02
   0  14   8  128.90   11.93
   1 -14   8    4.40    2.86
   1 -14   8   20.40    5.26
   1  14   8   18.01    6.13
  -1 -14   8   15.07    4.36
   0 -15   8    5.87    2.93
   0 -15  -8    6.14    2.24
   0   0   9   -0.53    0.80
   0   0   9    0.32    0.71
   0   0  -9    0.84    0.91
   1   0   9   39.71    4.79
  -1   0  -9   39.91    4.39
  -1   0   9   38.22    2.95
  -1   0   9   38.02    4.35
   2   0   9 2665.95   87.61
   3   0   9    3.35    1.93
  -3   0  -9    5.59    1.64
   4   0   9   10.45    2.76
   0  -1   9 1088.77   35.78
   0   1  -9 1076.22   35.09
   0  -1  -9 1026.03   34.79
   0   1   9 1059.02   35.77
   0  -1   9 1017.45   32.77
  -1   1   9  790.60   27.33
  -1   1   9  784.54   26.63
  -1  -1  -9  798.42   28.40
   1  -1   9  802.39   29.04
  -1  -1   9  820.11   27.05
  -1   1  -9  850.68   28.49
   1   1   9  786.74   29.23
  -1  -1   9  738.58   27.35
   2  -1   9   23.65    3.95
  -2  -1  -9   28.17    2.17
   2   1   9   38.76    5.27
  -3  -1  -9   19.49    2.90
   3  -1   9   25.94    4.47
   3   1   9   26.76    4.79
   4  -1   9   13.20    2.50
   4   1   9   15.88    3.57
   0   2   9    4.68    1.62
   0  -2  -9    8.47    1.68
   0  -2  -9    6.04    1.49
   0  -2   9    8.86    2.12
   0   2  -9    5.20    1.60
  -1  -2  -9  144.90    7.81
  -1   2   9  133.82    6.28
  -1   2   9  131.52    7.37
   1  -2   9  121.27    7.63
  -1  -2   9  148.95    6.92
   1   2   9  148.93    8.53
  -1   2  -9  140.14    7.53
  -2   2   9  253.48    8.95
   2  -2   9  241.01   12.17
  -2  -2   9  235.19   11.81
   2   2   9  228.30   12.57
  -3  -2  -9  289.43   12.34
   3  -2   9  288.89   13.77
   3   2   9  299.50   15.20
   4   2   9    3.92    2.70
   0  -3  -9 2621.13   80.81
   0   3   9 2498.56   81.93
   0  -3  -9 2451.56   77.49
   0  -3   9 2596.15   81.89
   0   3  -9 2579.64   81.20
  -1   3   9  309.27   11.62
   1  -3   9  304.12   13.44
  -1  -3  -9  299.92   13.26
  -1  -3   9  304.74   12.23
   1   3   9  306.59   14.20
  -1   3  -9  266.17   12.34
   1  -3  -9  292.69   13.31
   2  -3   9    5.70    2.26
  -2   3   9    6.91    1.16
   2   3   9   11.50    3.36
  -2  -3   9    8.85    2.63
   3  -3   9  116.60    7.61
   3   3   9  125.05    9.28
   4  -3   9  423.89   23.81
   4   3   9  423.78   19.56
   0  -4  -9   26.67    3.00
   0   4   9   26.25    3.62
   0  -4  -9   25.61    3.35
   0  -4   9   21.01    3.18
   1  -4   9  189.15    9.92
  -1  -4  -9  199.43   10.03
  -1   4   9  181.87    8.34
   1   4   9  188.18   10.64
  -1   4  -9  177.93    9.15
  -1  -4   9  195.69    9.22
   1  -4  -9  219.43   10.74
   2  -4   9   40.64    5.29
  -2   4   9   41.56    2.58
   2   4   9   43.24    6.25
  -2  -4   9   36.81    4.52
   2  -4  -9   39.50    5.66
   3  -4   9  291.09   13.23
   3   4   9  294.96   15.87
   4  -4   9  131.77   14.09
   4   4   9  134.95   10.05
   0  -5   9  121.62    6.96
   0   5   9  113.09    7.25
   0  -5  -9  102.67    5.86
   1  -5   9  336.79   14.86
  -1   5   9  321.81   13.12
  -1  -5  -9  320.75   14.61
   1  -5  -9  332.43   14.90
   1   5   9  347.51   15.97
  -1  -5   9  314.99   13.71
  -2   5   9   75.18    3.94
   2  -5   9   75.21    6.06
   2  -5   9   75.50    4.54
   2   5   9   48.68    6.57
  -2  -5   9   72.62    5.35
   2  -5  -9   81.97    8.74
   3  -5   9   15.40    3.10
   3   5   9   10.56    3.62
   4  -5   9   78.94   11.39
   4   5   9   96.35   10.52
   0  -6   9  138.85    8.09
   0   6   9  140.12    8.57
   0  -6  -9  139.10    7.08
   1  -6   9  414.84   17.64
  -1   6   9  400.50   16.24
  -1  -6  -9  415.02   17.67
   1   6   9  426.34   19.02
  -1  -6   9  382.96   16.52
   1  -6  -9  420.46   18.02
  -2   6   9  666.42   22.71
   2  -6   9  648.02   25.61
   2  -6   9  643.09   22.83
  -2  -6   9  650.65   23.89
   2   6   9  677.91   28.37
   2  -6  -9  684.88   27.65
   3  -6   9  118.72    6.92
   3   6   9  124.70   10.39
   4  -6   9   10.43    5.15
   4   6   9    7.60    3.62
   0   7   9   28.46    4.52
   0  -7  -9   38.73    4.14
   0  -7   9   38.36    5.01
  -1  -7  -9  353.13   15.83
  -1   7   9  341.37   14.71
   1  -7   9  340.96   15.60
  -1  -7   9  329.44   14.86
   1  -7  -9  326.57   15.76
   1   7   9  336.61   16.98
   2  -7   9  133.82    8.69
  -2   7   9  135.70    7.06
   2  -7   9  133.60    7.62
   2   7   9  143.81   10.78
  -2  -7   9  131.58    7.14
   2  -7  -9  163.86   11.12
   3  -7   9   12.27    2.40
   3   7   9   12.66    4.09
   4  -7   9   11.78    5.19
   4   7   9    5.59    3.46
   0  -8   9  250.04   12.43
   0   8   9  243.41   13.14
   0  -8  -9  234.86   10.86
   1  -8   9  190.83   10.92
  -1  -8  -9  193.32   10.98
  -1   8   9  183.48   10.20
  -1  -8   9  184.34   10.36
   1  -8  -9  187.14   11.39
   1   8   9  210.58   12.67
  -2   8   9  284.52   13.39
   2  -8   9  264.11   12.90
   2  -8   9  294.25   14.22
   2  -8  -9  303.63   16.44
   2   8   9  282.69   16.56
   3  -8   9   14.75    2.33
   3  -8   9   10.33    4.72
   3  -8  -9    8.55    3.89
   3   8   9   15.15    4.47
   0  -9   9  360.14   16.65
   0   9   9  378.36   18.05
   0  -9  -9  367.13   15.22
   1  -9   9  133.13    9.31
   1  -9   9  126.15    8.94
  -1  -9  -9  159.11    9.71
  -1   9   9  137.98    9.00
   1  -9  -9  125.53    9.33
   1   9   9  149.35   10.83
  -1  -9   9  129.49    8.77
   2  -9   9   21.46    4.27
   2  -9   9   26.70    4.32
   2   9   9   30.62    6.06
   2  -9  -9   18.18    4.73
   3  -9   9   41.07    7.98
   3  -9  -9   44.55    8.24
   3   9   9   45.99    7.89
   0  10   9   99.14    8.55
   0 -10   9   97.69    7.63
  -1  10   9  124.65    9.10
   1 -10   9  134.80    9.27
  -1 -10   9  137.67    9.18
   1  10   9  119.08   10.34
   1 -10  -9  133.79    9.90
   2 -10   9   32.45    5.14
   2 -10  -9   47.40    7.71
   2  10   9   49.87    8.58
   3 -10   9    7.92    4.38
   3 -10  -9   16.05    5.02
   3  10   9   12.26    4.54
   0 -11   9  479.81   21.33
   0  11   9  503.33   23.33
  -1  11   9   70.08    8.01
   1 -11   9   60.46    7.29
  -1 -11   9   58.37    6.98
   1  11   9   79.71   10.40
   1 -11  -9   68.50    8.45
   2 -11   9   87.11    7.32
   2 -11   9  103.97   12.21
   2 -11  -9   87.47   10.85
   2  11   9   78.17   10.65
   3 -11   9   23.85    7.01
   3  11   9   18.69    6.02
   0 -12   9   44.41    6.29
   0 -12   9   62.71    7.23
   0  12   9   56.02    8.10
   1 -12   9   41.69    7.11
   1 -12   9   41.17    6.49
   1  12   9   27.98    6.15
  -1 -12   9   27.36    5.23
   2 -12   9  107.36    8.42
   2 -12   9  121.47   13.18
   2 -12  -9  125.04   14.00
   2  12   9  180.88   13.99
   0  13   9   71.46    9.74
   0 -13   9   53.63    7.10
   0 -13   9   46.61    6.83
   1 -13   9   30.05    6.21
   1 -13   9   28.47    5.68
  -1 -13   9   27.28    5.45
   1  13   9   32.82    6.89
   2 -13   9   43.95    8.17
   2 -13   9   47.30    6.43
  -2 -13   9   41.94    6.83
   2  13   9   36.78    7.97
   2 -13  -9   48.05    9.32
   0  14   9    2.52    3.60
   0 -14   9    2.11    2.42
   1 -14   9   38.95    7.24
   1 -14   9   49.94    7.22
   1  14   9   41.13    7.87
  -1 -14   9   40.14    6.66
   0   0  10   43.75    3.05
   0   0  10   47.68    4.04
   0   0 -10   46.55    3.51
   1   0  10   -0.31    1.27
  -1   0 -10    0.37    1.15
  -1   0  10    0.38    1.17
  -1   0  10    0.04    0.83
   2   0  10    3.00    2.09
   3   0  10   80.61    7.12
   4   0  10   37.75    5.22
   0   1 -10  991.58   32.22
   0  -1  10  909.84   32.75
   0   1  10  980.33   33.08
   0  -1 -10  936.39   31.83
   0  -1  10  925.87   29.96
   1  -1  10  921.61   34.10
  -1  -1 -10  959.38   33.48
  -1   1  10  963.44   32.23
  -1   1  10  948.47   31.86
  -1   1 -10  920.43   33.17
   1   1  10  969.72   34.50
  -1  -1  10  969.60   32.10
  -1  -1  10  956.02   32.33
   2  -1  10  660.84   26.58
  -2   1  10  675.35   22.80
   2   1  10  688.72   27.13
   3  -1  10   64.87    7.39
   3   1  10   49.26    6.65
   4  -1  10   12.34    3.05
   4   1  10    6.96    3.07
   0  -2 -10  612.81   21.18
   0  -2 -10  620.41   21.83
   0  -2  10  633.04   22.94
   0   2  10  612.93   22.92
   0   2 -10  614.97   22.14
   1  -2  10   77.72    5.87
  -1  -2 -10   74.02    5.44
  -1  -2 -10   73.69    3.58
  -1   2  10   78.26    5.41
  -1   2  10   68.61    4.34
   1   2  10   76.12    6.09
  -1   2 -10   66.77    5.08
  -1  -2  10   66.25    4.65
  -2   2  10  198.46    7.87
   2  -2  10  196.14   11.02
   2   2  10  190.26   11.42
   3  -2  10  237.35   12.11
   3   2  10  189.17   12.25
   4  -2  10   52.91    4.36
   4   2  10   69.18    7.80
   0  -3 -10  142.51    6.81
   0  -3  10  141.69    7.75
   0   3  10  131.12    7.64
   0   3 -10  127.45    6.93
   0  -3 -10  134.59    6.92
  -1  -3 -10  165.34    9.13
  -1   3  10  191.94    8.16
   1  -3  10  160.52    9.35
   1   3  10  177.04   10.22
  -1   3 -10  174.21    8.79
  -1  -3  10  167.32    8.41
   1  -3 -10  176.68    9.63
  -2   3  10  126.90    5.48
   2  -3  10  111.56    7.98
   2   3  10  118.87    8.81
   3  -3  10   21.17    3.92
   3   3  10   15.41    4.29
   4   3  10   17.58    4.53
   0  -4 -10  826.03   28.61
   0   4  10  829.85   30.61
   0  -4  10  863.26   30.41
   0  -4 -10  860.95   29.00
   1  -4  10  325.24   14.65
  -1   4  10  318.79   12.83
  -1  -4 -10  355.58   14.66
  -1  -4  10  305.48   13.24
   1  -4 -10  287.27   14.09
   1   4  10  315.30   15.38
   2  -4  10   11.88    3.02
  -2   4  10   16.65    2.09
   2   4  10   18.27    4.41
   3  -4  10  220.17   11.61
   3   4  10  234.13   13.99
   4   4  10  124.26   10.06
   0  -5 -10  318.59   13.38
   0  -5  10  326.08   14.13
   0   5  10  313.36   14.43
   0  -5 -10  307.33   12.61
  -1   5  10    5.27    1.78
  -1  -5 -10    6.87    2.38
   1  -5  10   10.09    2.86
   1   5  10   10.06    3.14
   1  -5 -10   11.73    3.08
  -1  -5  10   11.77    2.82
   2  -5  10  386.53   14.00
   2  -5  10  413.30   17.99
   2   5  10  389.84   19.47
   2  -5 -10  420.18   19.51
   3  -5  10   25.18    4.20
   3   5  10   28.55    5.76
   4  -5  10   15.15    6.01
   4   5  10   20.36    5.11
   0  -6  10  112.15    7.28
   0   6  10  113.95    7.79
   0  -6 -10  108.61    6.18
   1  -6  10  298.11   14.57
  -1  -6 -10  312.51   14.47
  -1   6  10  303.67   13.29
  -1  -6  10  317.01   13.92
   1  -6 -10  307.16   14.79
   1   6  10  292.30   15.43
   2  -6  10  376.63   17.24
  -2   6  10  388.00   14.36
   2  -6  10  362.82   14.07
   2  -6 -10  357.59   18.41
   2   6  10  383.17   19.26
   3  -6  10   24.95    4.05
   3   6  10   22.00    5.20
   4  -6  10   62.17   10.70
   4   6  10   45.34    7.84
   0  -7 -10   83.68    5.40
   0  -7  10   91.16    6.66
   0   7  10   76.33    6.69
   1  -7  10  893.55   33.55
  -1   7  10  935.35   32.46
  -1  -7 -10  895.24   33.27
   1   7  10  893.63   35.12
  -1  -7  10  859.12   32.35
   1  -7 -10  865.44   33.08
   2  -7  10  528.03   22.74
  -2   7  10  535.98   20.19
   2  -7  10  518.75   19.86
   2  -7 -10  566.95   24.69
   2   7  10  584.90   25.80
   3  -7  10   27.32    4.11
   3   7  10   33.97    6.90
   0   8  10  922.36   35.42
   0  -8 -10  954.62   32.48
   0  -8  10  912.18   34.23
   1  -8  10   76.68    8.05
  -1  -8 -10   71.82    6.47
  -1   8  10   65.80    5.92
  -1  -8  10   78.02    6.43
   1  -8 -10   69.41    7.64
   1   8  10   71.86    8.70
   2  -8  10  307.08   13.44
   2  -8  10  289.21   14.93
   2  -8 -10  279.10   16.54
   2   8  10  315.71   17.74
   3  -8  10   78.09    5.65
   3   8  10   77.46   10.70
   3  -8 -10   92.68   11.52
   0  -9  10   31.04    4.78
   0   9  10   25.85    5.00
  -1   9  10   74.39    7.70
   1  -9  10   74.58    8.26
  -1  -9  10   69.24    7.43
   1  -9 -10   73.70    8.37
   1   9  10   66.75    9.03
   2  -9  10   44.33    5.54
   2  -9  10   49.06    6.46
   2   9  10   49.17    8.44
   2  -9 -10   38.50    6.90
   3  -9  10   63.64    4.65
   3  -9  10   55.18    9.17
   3  -9 -10   52.63    8.79
   3   9  10   47.25    8.57
   0 -10  10  305.04   15.81
   0  10  10  360.82   17.91
   1 -10  10   49.21    6.68
  -1  10  10   45.91    6.38
  -1 -10  10   52.36    6.64
   1 -10 -10   64.30    8.46
   1  10  10   52.32    7.76
   2 -10  10  179.79   11.16
   2  10  10  157.13   13.16
   2 -10 -10  180.69   13.07
   3 -10  10   95.08   12.97
   3 -10 -10  114.21   13.98
   3  10  10  101.73   12.69
   0 -11  10   18.55    4.20
   0  11  10   16.76    4.64
   1 -11  10   23.22    4.92
  -1 -11  10   24.70    4.87
   1 -11 -10   27.31    5.72
   1  11  10   15.50    4.69
   2 -11  10  153.40   10.60
   2 -11  10  191.64   14.14
   2 -11 -10  189.05   13.74
   2  11  10  166.57   13.80
   0  12  10    2.69    2.85
   0 -12  10    3.31    2.23
   1 -12  10  141.85   10.39
   1  12  10  122.45   13.68
  -1 -12  10  129.13    9.95
   1 -12 -10  152.15   11.55
   2 -12  10  209.56   12.75
   2 -12  10  216.35   15.74
  -2 -12  10  222.84   13.82
   2  12  10  238.65   17.01
   2 -12 -10  236.95   16.10
   0 -13  10  230.20   13.18
   0 -13  10  208.54   13.08
   0  13  10  210.25   14.91
   1 -13  10  105.12   11.69
   1 -13  10  116.95    9.51
  -1 -13  10  119.42    9.66
   1  13  10   99.47   12.04
   1 -13 -10  119.63   12.93
   2 -13  10   67.10   10.27
   2 -13  10   67.57    8.10
   2  13  10   52.03    9.42
   0 -14  10   44.22    6.70
   1 -14  10  111.83   12.41
   1 -14  10  121.09    9.83
  -1 -14  10  103.26   11.04
   1  14  10  108.42   13.14
   1 -14 -10  100.68   12.61
   0   0 -11   -0.34    0.76
   0   0  11    0.73    1.16
   0   0  11   -0.16    0.70
   1   0  11  763.25   28.48
  -1   0  11  773.67   26.51
  -1   0 -11  683.23   26.91
  -1   0  11  763.11   26.11
  -2   0  11   22.26    2.87
   2   0  11   21.98    4.42
   3   0  11   56.28    7.23
   4   0  11  147.06    9.65
   0   1 -11  960.83   31.78
   0  -1  11  919.64   32.60
   0  -1  11  886.75   29.40
   0  -1 -11  929.04   31.41
   0   1  11  930.20   32.71
  -1  -1 -11  778.34   27.47
  -1   1  11  764.62   26.11
  -1   1  11  703.92   26.17
   1  -1  11  720.30   28.19
   1   1  11  765.79   28.63
  -1  -1  11  746.35   26.52
  -1   1 -11  746.09   27.27
  -1  -1  11  742.81   26.19
   2  -1  11  173.50   10.60
  -2   1  11  179.36    7.67
  -2  -1  11  171.14    8.05
   2   1  11  149.48   10.34
   3  -1  11  196.94   11.76
   3   1  11  196.53   12.25
   4  -1  11   34.07    5.06
   4   1  11   32.50    5.61
   0  -2 -11  128.06    6.46
   0  -2  11  119.82    5.95
   0  -2  11  119.75    7.22
   0   2 -11  120.64    6.65
   0   2  11  120.12    7.27
   0  -2 -11  120.88    6.42
  -1   2  11  235.21   10.73
   1  -2  11  230.69   11.76
  -1  -2 -11  220.35    8.17
  -1   2  11  217.05    9.75
  -1  -2 -11  218.67   10.93
  -1  -2  11  230.28   10.19
  -1   2 -11  223.21   10.77
   1   2  11  232.69   12.12
   2  -2  11  162.78   10.33
  -2   2  11  175.64    7.58
   2   2  11  180.94   11.19
   3  -2  11  629.15   25.23
   3   2  11  577.31   26.02
   4  -2  11   31.78    4.50
   4   2  11   32.70    5.74
   0   3 -11   87.86    5.71
   0  -3  11   91.87    6.35
   0  -3 -11   92.66    5.75
   0  -3 -11  103.69    5.66
   0   3  11  106.07    6.81
  -1   3  11  118.28    6.50
   1  -3  11  126.33    8.14
  -1  -3 -11  133.46    7.77
  -1  -3  11  113.03    6.76
   1  -3 -11  127.51    8.11
   1   3  11  121.38    8.44
   2  -3  11  423.13   19.26
  -2   3  11  451.45   15.71
   2   3  11  411.87   19.98
   3  -3  11   18.94    4.25
   3   3  11   20.10    4.96
   4   3  11   11.71    4.13
   0  -4  11  251.04   12.00
   0   4  11  260.29   12.27
   0  -4 -11  229.62   10.39
   0  -4 -11  249.95   11.14
  -1  -4 -11  247.93   11.68
   1  -4  11  205.57   11.58
  -1   4  11  242.56   10.48
  -1  -4  11  218.20   10.69
   1   4  11  214.99   12.36
   1  -4 -11  232.53   11.88
  -2   4  11  439.72   16.20
   2  -4  11  488.66   20.34
   2   4  11  427.00   20.87
   3  -4  11  171.14   10.39
   3   4  11  166.35   11.97
   4   4  11    9.16    3.85
   0  -5 -11    0.05    0.98
   0  -5 -11    0.23    1.05
   0  -5  11    2.46    1.72
   0   5  11   -0.35    1.24
  -1  -5 -11  387.93   17.05
   1  -5  11  411.43   17.86
  -1   5  11  399.27   16.02
   1  -5 -11  392.81   17.57
   1   5  11  401.24   18.68
  -1  -5  11  380.74   16.38
   2  -5  11  274.27   14.00
  -2   5  11  261.19   10.75
   2   5  11  251.41   15.04
   2  -5 -11  268.63   15.09
   3  -5  11  142.98    9.20
   3   5  11  132.23   10.94
   4   5  11   17.21    5.11
   0  -6 -11   -0.47    1.24
   0  -6  11    0.79    1.36
   0  -6 -11   -1.34    0.92
   0   6  11    0.26    1.55
  -1   6  11  165.64    8.88
   1  -6  11  157.56    9.87
  -1  -6 -11  139.62    9.09
   1   6  11  156.71   10.67
   1  -6 -11  168.94   10.17
  -1  -6  11  149.86    8.97
  -2   6  11  147.08    7.33
   2  -6  11  141.93    9.62
   2  -6  11  132.13    6.58
   2  -6 -11  149.24   10.84
   2   6  11  136.51   10.74
   3  -6  11  133.74    8.70
   3   6  11  126.01   10.89
   0  -7  11  699.38   27.20
   0  -7 -11  710.37   25.16
   0   7  11  688.52   27.86
  -1  -7 -11  146.21    9.13
   1  -7  11  145.16    9.58
  -1   7  11  135.84    8.50
   1  -7 -11  145.57    9.84
  -1  -7  11  129.19    8.63
   1   7  11  152.91   10.68
   2  -7  11  169.20    8.37
   2  -7  11  178.70   11.17
   2  -7 -11  181.49   12.34
   2   7  11  168.99   12.39
   3  -7  11   43.56    5.54
   3   7  11   33.22    6.85
   0  -8 -11    0.08    1.23
   0   8  11    0.26    1.97
   0  -8  11    0.11    1.56
   1  -8  11   16.19    3.87
  -1   8  11   16.98    3.60
  -1  -8 -11   16.25    3.61
  -1  -8  11   21.92    4.11
   1  -8 -11   11.71    3.50
   1   8  11   13.15    4.25
   2  -8  11   60.77    5.10
   2  -8  11   63.45    7.63
   2   8  11   75.89   10.11
   2  -8 -11   61.66    8.88
   3  -8  11  190.33   10.60
   3   8  11  218.36   15.19
   0  -9  11    3.02    2.17
   0   9  11    4.19    2.81
   1  -9  11  284.38   15.39
  -1   9  11  313.03   15.19
   1   9  11  329.59   17.71
   1  -9 -11  291.25   15.87
  -1  -9  11  289.37   14.91
   2  -9  11   29.64    5.42
   2   9  11   30.23    6.78
   2  -9 -11   33.04    6.64
   3  -9  11   70.51    5.88
   3   9  11   86.36   11.75
   3  -9 -11   75.26   11.11
   0 -10  11   51.23    7.07
   0  10  11   48.93    7.21
   1 -10  11   69.75    8.03
  -1  10  11   85.24    9.04
   1  10  11   85.21   10.39
  -1 -10  11   88.53    7.60
   1 -10 -11   83.48    9.24
   2 -10  11  233.76   13.88
   2 -10 -11  240.02   15.77
   2  10  11  250.59   16.82
  -2 -10  11  251.49   14.02
   3 -10  11   14.68    5.39
   3  10  11   25.54    6.56
   0 -11  11   35.87    5.70
   0  11  11   36.62    6.54
   1 -11  11  117.16    9.28
   1  11  11  106.41   12.00
  -1 -11  11  104.39    8.73
   1 -11 -11  119.99   10.11
   2 -11  11   72.94    8.60
   2  11  11   63.04    9.93
  -2 -11  11   71.25    8.24
   2 -11 -11   55.27    8.67
   0 -12  11   79.30    8.90
   0  12  11   87.08   10.49
   1 -12  11  123.34    9.88
   1  12  11  130.96   12.01
   1 -12 -11  126.44   12.92
  -1 -12  11  121.83    9.81
   2 -12  11   23.99    6.39
   2 -12  11   19.61    4.59
   2  12  11   20.68    6.28
   2 -12 -11   22.45    6.18
  -2 -12  11   19.90    5.11
   0  13  11  122.97   12.89
   0 -13  11  108.07    9.19
   0 -13  11  112.90    9.56
   1 -13  11   98.64   11.22
   1 -13  11   98.46   10.55
   1  13  11   85.53   11.03
  -1 -13  11   71.56    8.77
   1 -13 -11   93.23   11.75
   0 -14  11    5.29    3.26
   0   0 -12   19.96    2.92
   0   0  12   18.89    3.31
  -1   0  12  712.93   25.70
  -1   0 -12  713.18   26.69
  -1   0  12  724.82   25.80
   1   0  12  722.09   28.02
  -2   0  12  290.08   11.81
   2   0  12  275.83   14.98
   3   0  12  295.30   15.89
   4   0  12    2.31    2.19
   0   1 -12  223.72    9.97
   0  -1  12  225.50    8.94
   0  -1 -12  207.96    9.58
   0  -1  12  206.50   10.62
   0   1  12  217.52   10.82
  -1  -1 -12   89.65    6.24
   1  -1  12   86.08    6.90
  -1   1  12   81.63    5.40
  -1   1  12   81.57    5.91
   1   1  12   85.28    6.89
  -1  -1  12   78.28    5.89
  -1  -1  12   81.82    5.53
  -1   1 -12   87.08    6.15
   2  -1  12  306.37   15.90
  -2   1  12  319.92   12.49
   2   1  12  307.62   16.15
  -2  -1  12  314.51   12.90
   3  -1  12   36.72    5.96
   3   1  12   55.81    7.65
   4  -1  12   40.78    5.94
   4   1  12   35.58    6.06
   0  -2  12  151.74    8.59
   0  -2 -12  150.80    7.42
   0   2 -12  149.81    7.79
   0  -2  12  152.25    6.96
   0   2  12  142.94    8.48
  -1  -2 -12  129.35    7.84
  -1   2  12  150.17    8.05
  -1  -2 -12  126.09    5.38
   1  -2  12  133.79    8.68
  -1   2  12  129.02    7.09
  -1  -2  12  122.63    7.22
  -1   2 -12  123.51    8.38
   1   2  12  140.37    9.11
  -1  -2  12  122.98    7.84
  -2   2  12  512.27   18.41
   2  -2  12  484.90   22.05
  -2  -2  12  539.01   19.45
   2   2  12  483.89   22.60
   3  -2  12   16.59    4.03
   3   2  12   22.18    4.97
   4  -2  12   70.86    7.40
   4   2  12   72.49    8.80
   0   3 -12    0.26    1.00
   0   3  12    0.35    1.28
   0  -3 -12   -0.22    1.03
   0  -3  12    1.69    1.55
   0  -3 -12   -0.07    0.80
  -1  -3 -12  671.01   22.87
  -1   3  12  713.81   25.37
   1  -3  12  730.02   27.73
  -1  -3 -12  676.50   26.38
  -1  -3  12  707.41   25.76
   1   3  12  715.94   28.31
   2  -3  12   50.73    6.72
  -2   3  12   49.86    3.86
  -2  -3  12   59.98    4.91
   2   3  12   53.25    6.99
   3  -3  12  109.92    8.60
   3   3  12  107.46    9.58
   4  -3  12   24.35    3.96
   4   3  12   26.27    5.70
   0   4  12   28.07    4.24
   0  -4  12   23.82    3.92
   0  -4 -12   27.88    3.51
   0  -4 -12   20.26    3.14
  -1  -4 -12    4.43    2.09
  -1   4  12    5.21    1.91
   1  -4  12    3.29    1.96
   1   4  12    7.27    2.94
   1  -4 -12    7.48    2.78
  -1  -4  12    6.02    2.24
   2  -4  12  117.72    8.89
  -2   4  12  121.74    6.39
   2   4  12  137.19   10.25
  -2  -4  12  125.06    7.60
   3  -4  12   32.98    5.50
   3   4  12   44.11    7.72
   4   4  12   37.75    6.96
   0  -5 -12  117.51    6.47
   0   5  12  114.29    8.01
   0  -5  12  112.03    7.78
   0  -5 -12  114.86    7.32
  -1   5  12  272.91   12.59
   1  -5  12  272.36   14.11
  -1  -5 -12  248.12   13.11
   1  -5 -12  285.12   14.15
   1   5  12  299.23   15.42
  -1  -5  12  296.16   13.25
  -2   5  12  124.36    6.63
   2  -5  12  125.40    9.18
   2   5  12  134.40   10.43
  -2  -5  12  114.02    7.74
   3  -5  12  320.82   15.90
   3   5  12  298.21   17.78
   0   6  12   -1.06    1.40
   0  -6 -12   -0.82    1.07
   0  -6 -12    1.92    1.68
   0  -6  12    2.76    2.03
  -1   6  12  594.58   23.12
   1  -6  12  597.81   24.75
  -1  -6 -12  584.64   23.74
   1   6  12  595.44   25.88
   1  -6 -12  575.28   24.21
  -1  -6  12  604.49   23.50
   2  -6  12  153.34   10.66
   2   6  12  184.40   12.69
  -2  -6  12  164.87    9.69
   2  -6 -12  170.75   11.98
   3  -6  12  370.51   17.32
   3   6  12  328.12   19.46
   0   7  12   22.19    4.67
   0  -7  12   16.44    3.72
   0  -7 -12   22.57    4.07
   0  -7 -12   15.78    2.84
  -1   7  12   30.60    4.68
   1  -7  12   35.70    5.73
  -1  -7 -12   35.22    4.99
  -1  -7  12   29.49    4.87
   1   7  12   37.08    6.29
   1  -7 -12   24.17    5.03
   2  -7  12    5.70    3.08
   2   7  12   10.30    4.06
   2  -7 -12    5.62    3.18
  -2  -7  12    1.19    2.17
   3  -7  12   33.39    5.54
   3   7  12   32.12    6.90
   0  -8  12   36.10    5.39
   0   8  12   34.11    5.76
   1  -8  12  316.95   16.28
  -1   8  12  311.37   15.28
  -1  -8  12  304.90   15.28
   1  -8 -12  321.01   16.51
   1   8  12  320.53   17.69
   2  -8  12    1.04    2.05
  -2  -8  12    2.92    2.38
   2   8  12    2.14    2.98
   2  -8 -12   -1.15    1.84
   3  -8  12   84.88    7.24
   3   8  12   86.89   12.12
   0  -9  12  398.57   19.16
   0   9  12  441.37   20.63
  -1   9  12  182.77   11.24
   1  -9  12  194.16   12.06
   1  -9 -12  179.09   12.16
  -1  -9  12  176.78   11.14
   1   9  12  177.21   12.95
   2  -9  12   43.48    6.92
   2  -9 -12   45.39    7.65
   2   9  12   55.19    8.99
  -2  -9  12   50.22    6.87
   3  -9  12   76.62    6.79
   3   9  12   86.42   11.59
   3  -9 -12  114.99   14.08
   0 -10  12   -1.85    1.69
   0  10  12    0.12    2.20
   1 -10  12   18.49    4.61
  -1 -10  12   21.92    4.57
   1 -10 -12   31.00    6.07
   1  10  12   25.80    5.63
   2 -10  12    7.57    3.48
   2 -10 -12   10.97    4.52
  -2 -10  12    8.40    3.45
   2  10  12    6.61    4.06
   0 -11  12   31.26    5.78
   0  11  12   35.19    6.86
   1 -11  12  221.27   14.19
  -1 -11  12  246.83   14.20
   1 -11 -12  279.96   16.03
   1  11  12  249.23   16.52
   2 -11  12  115.76    9.67
   2 -11 -12  137.32   14.62
   2  11  12  114.23   13.75
  -2 -11  12  105.85    9.36
   0  12  12   -0.01    2.81
   0 -12  12    3.02    2.96
   1 -12  12   11.21    3.91
   1  12  12   21.53    6.04
   1 -12 -12   18.70    5.28
  -1 -12  12   25.74    5.52
   2 -12  12  108.50   12.97
   2 -12  12  126.28   10.34
  -2 -12  12  137.26   10.90
   2  12  12  153.99   13.88
   0 -13  12    8.68    3.92
   1 -13  12   25.40    5.46
  -1 -13  12   30.81    6.34
   1 -13 -12   28.53    6.51
   1  13  12   32.62    7.84
   0   0 -13    0.27    1.23
   0   0  13    0.13    1.39
  -1   0  13 1410.63   47.45
  -1   0 -13 1385.96   48.28
   1   0  13 1411.06   49.96
  -1   0  13 1434.59   46.36
  -2   0  13  183.30    8.80
   2   0  13  182.07   11.87
   3   0  13    4.45    2.82
   4   0  13  128.19    9.91
   0   1  13  771.99   30.34
   0  -1 -13  803.52   28.87
   0  -1  13  850.45   30.79
   0  -1  13  841.69   27.10
   0   1 -13  873.89   29.37
   1  -1  13  293.98   14.64
  -1   1  13  299.89   12.68
  -1  -1 -13  277.51   13.15
  -1   1  13  276.82   12.75
   1   1  13  268.14   14.28
  -1   1 -13  295.55   14.50
  -1  -1  13  273.65   12.86
  -1  -1  13  277.96   12.63
   2  -1  13  126.77    9.83
  -2   1  13  148.12    7.42
   2   1  13  136.84   10.31
  -2  -1  13  151.80    7.85
   3  -1  13  108.07    9.11
   3   1  13   99.64    9.13
   4  -1  13   76.36    8.59
   4   1  13   45.57    7.39
   0  -2 -13  141.34    7.29
   0  -2  13  140.65    6.79
   0   2 -13  128.52    7.51
   0  -2  13  148.43    8.68
   0   2  13  144.04    8.68
  -1   2  13   85.95    5.88
  -1  -2 -13   89.58    6.50
   1  -2  13   78.87    7.01
   1   2  13   87.53    7.39
  -1  -2  13   87.73    6.14
  -1  -2  13   81.43    6.32
  -2   2  13  106.46    6.08
   2  -2  13   99.92    8.43
  -2  -2  13  101.77    6.56
   2   2  13  103.00    8.91
   3  -2  13  196.11   12.63
   3   2  13  213.30   13.76
   4  -2  13   18.88    4.39
   4   2  13   12.83    4.29
   0   3  13    8.02    2.70
   0  -3  13    9.46    2.64
   0   3 -13   10.97    2.57
   0  -3 -13   10.80    2.25
   0  -3 -13    9.36    2.26
   1  -3  13  108.89    8.19
  -1  -3 -13  119.11    5.62
  -1  -3 -13  104.32    7.28
  -1   3  13  108.16    6.80
   1   3  13  109.62    8.62
  -1  -3  13  116.56    7.27
   2  -3  13   61.29    7.71
  -2   3  13   68.38    4.73
   2   3  13   52.32    7.56
  -2  -3  13   67.52    5.31
   3  -3  13   27.97    5.57
   3   3  13   46.98    7.68
   0   4  13  106.22    7.62
   0  -4 -13  102.88    6.05
   0  -4 -13  102.15    6.70
   0  -4  13  104.10    7.37
  -1  -4 -13   61.14    6.42
  -1  -4 -13   62.63    4.35
  -1   4  13   65.67    5.26
   1  -4  13   61.36    6.89
   1   4  13   81.98    8.86
  -1  -4  13   62.32    6.44
   1  -4 -13   49.57    6.22
  -2   4  13  338.73   13.77
   2  -4  13  341.86   17.26
   2   4  13  351.29   18.46
  -2  -4  13  327.58   14.86
   3  -4  13   40.29    6.23
   3   4  13   25.66    5.85
   0   5  13  182.77   10.83
   0  -5  13  183.31   10.55
   0  -5 -13  174.82    9.57
   0  -5 -13  177.36    8.74
  -1   5  13  484.73   19.71
   1  -5  13  493.72   21.60
  -1  -5 -13  497.65   20.45
  -1  -5  13  470.08   19.96
   1  -5 -13  479.55   20.88
   1   5  13  500.23   22.65
   2  -5  13   40.25    6.54
   2   5  13   45.49    7.21
  -2  -5  13   44.77    5.64
   3  -5  13   73.88    8.89
   3   5  13   72.90   10.31
   0  -6 -13  174.32    9.89
   0  -6  13  178.25   10.51
   0   6  13  186.29   11.10
   0  -6 -13  152.56    8.17
   1  -6  13  102.19    8.24
  -1   6  13   92.61    6.97
  -1  -6 -13   94.43    7.23
   1  -6 -13   96.14    8.06
  -1  -6  13  102.36    7.47
   1   6  13   99.79    8.77
   2  -6  13  186.46   12.15
   2   6  13  194.40   13.63
  -2  -6  13  189.56   10.82
   2  -6 -13  201.65   13.31
   3  -6  13  118.73    9.50
   3   6  13  142.24   12.04
   0   7  13  624.78   26.36
   0  -7  13  590.37   25.44
   0  -7 -13  651.52   24.66
   1  -7  13    4.03    2.68
  -1   7  13    1.12    1.86
   1  -7 -13   -1.05    1.64
   1   7  13    0.69    2.10
  -1  -7  13    2.31    1.93
   2  -7  13   42.29    6.79
  -2  -7  13   62.60    7.10
   2  -7 -13   60.32    8.31
   2   7  13   65.12    9.79
   3  -7  13   36.87    6.15
   3   7  13   48.13    8.75
   0   8  13    1.45    2.17
   0  -8 -13   -0.69    1.46
   0  -8  13    5.37    2.56
   1  -8  13  106.74    8.93
  -1   8  13  101.77    8.05
  -1  -8  13  103.35    8.19
   1   8  13  106.29    9.70
   1  -8 -13  112.53    9.12
   2  -8  13   29.00    5.93
   2   8  13   33.32    7.10
   2  -8 -13   28.65    5.95
  -2  -8  13   31.31    5.43
   3  -8  13  106.63    8.71
   3   8  13  100.93   12.43
   0  -9 -13   25.48    4.97
   0   9  13   22.52    4.85
   0  -9  13   31.38    5.61
   1  -9  13   73.75    8.83
   1   9  13   78.06   10.47
  -1  -9  13   74.34    8.06
   1  -9 -13   74.79    9.07
   2  -9  13   19.33    4.94
   2   9  13   32.09    7.28
  -2  -9  13   19.52    4.64
   2  -9 -13   24.86    6.21
   3  -9  13    6.33    3.19
   3   9  13    8.39    5.68
   0 -10  13   87.73    9.74
   0  10  13   87.64   10.27
   1 -10  13   70.41    8.99
   1 -10 -13   73.19    9.90
  -1 -10  13   58.59    7.70
   1  10  13   71.54    9.90
   2 -10  13  229.76   14.47
   2 -10 -13  220.65   15.59
   2  10  13  214.04   16.15
  -2 -10  13  237.29   14.02
   0 -11  13    1.70    2.46
   0  11  13   11.50    4.49
   1 -11  13  128.79   10.43
   1 -11 -13  144.72   11.63
  -1 -11  13  136.97   10.35
   1  11  13   97.87   11.72
   2 -11  13   14.34    4.52
   2 -11 -13   21.19    6.25
  -2 -11  13   30.34    5.91
   2  11  13   21.24    6.14
   0  12  13    7.34    4.28
   0 -12  13    2.46    2.96
   1 -12  13   24.91    5.48
   1 -12 -13   26.67    6.33
   1  12  13   20.19    5.87
  -1 -12  13   37.11    6.67
   0 -13  13  275.15   16.46
   0   0  14  431.44   18.48
   0   0 -14  414.10   16.75
  -1   0  14  721.77   27.09
  -1   0  14  747.24   26.80
   1   0  14  733.71   29.46
   2   0  14    1.88    2.54
  -2   0  14    7.44    2.18
   3   0  14   21.91    5.02
   0   1 -14 1398.54   48.66
   0  -1  14 1477.14   50.56
   0  -1  14 1486.08   45.55
   0  -1 -14 1491.37   48.55
   0   1  14 1438.90   50.53
  -1   1  14  161.97   10.07
   1  -1  14  167.16   10.70
  -1  -1 -14  180.76    9.74
  -1   1  14  170.27    9.02
   1   1  14  154.15   10.46
  -1  -1  14  159.77    9.15
  -1  -1  14  159.91    9.04
   2  -1  14  339.19   18.00
  -2   1  14  368.62   14.67
   2   1  14  360.20   18.57
  -2  -1  14  335.83   14.66
   3  -1  14   14.03    4.51
   3   1  14    8.28    3.69
   0   2 -14  134.82    7.80
   0  -2  14  134.32    8.78
   0   2  14  141.33    8.95
   0  -2 -14  141.20    7.43
   0  -2  14  137.14    6.79
  -1   2  14   89.77    6.41
  -1  -2 -14  106.15    7.20
   1  -2  14   93.03    7.76
  -1  -2  14  105.26    6.98
  -1  -2  14   93.00    6.85
   1   2  14   94.35    8.04
   2  -2  14  118.70    9.49
  -2   2  14  115.78    6.76
   2   2  14  107.56    9.47
  -2  -2  14  109.47    7.06
   3  -2  14    1.00    2.50
   3   2  14    0.32    2.80
   0  -3  14   95.63    7.20
   0  -3  14   96.93    5.53
   0   3  14   90.94    7.23
   0  -3 -14   86.71    5.61
   0  -3 -14   90.26    6.13
  -1  -3 -14  193.05    8.08
  -1  -3 -14  180.29   10.34
  -1   3  14  210.99   10.37
   1  -3  14  209.98   12.05
  -1  -3  14  185.82   10.25
   1   3  14  187.06   12.04
   2  -3  14  136.50   10.31
  -2   3  14  124.99    7.22
   2   3  14  131.81   10.61
  -2  -3  14  142.04    8.33
   3  -3  14   60.43    8.48
   3   3  14   66.22    9.52
   0  -4 -14  554.33   19.99
   0  -4 -14  533.10   20.39
   0   4  14  508.30   22.19
   0  -4  14  522.08   22.13
  -1  -4 -14   67.35    4.49
  -1  -4 -14   63.20    6.52
   1  -4  14   55.32    7.03
  -1   4  14   63.03    5.48
  -1  -4  14   65.48    5.74
   1   4  14   66.38    7.91
   2  -4  14   72.34    8.82
   2   4  14   53.10    7.73
  -2  -4  14   60.28    6.27
   3  -4  14   23.82    5.15
   3   4  14   20.40    5.54
   0  -5 -14  494.53   19.15
   0   5  14  453.88   20.58
   0  -5 -14  453.95   17.78
   0  -5  14  452.80   20.14
  -1  -5 -14   15.94    3.54
  -1   5  14   21.78    3.97
   1  -5  14   13.90    3.82
  -1  -5 -14   18.03    2.92
   1   5  14   10.84    3.59
  -1  -5  14   15.06    3.56
   1  -5 -14   14.57    3.65
   2  -5  14  147.60   10.94
  -2  -5  14  172.24    9.87
   2   5  14  153.87   11.96
   3  -5  14   93.42   10.50
   3   5  14  100.61   11.94
   0   6  14  311.07   16.40
   0  -6  14  332.03   16.22
   0  -6 -14  333.69   15.13
  -1   6  14   29.94    4.65
  -1  -6 -14   23.80    3.69
   1  -6  14   31.65    5.61
   1   6  14   24.01    5.23
   1  -6 -14   33.27    5.71
  -1  -6  14   27.95    4.59
   2  -6  14  111.59    9.35
   2   6  14   92.81   11.42
  -2  -6  14   92.60    7.46
   3  -6  14   30.15    5.87
   3   6  14   18.91    5.82
   0   7  14   93.67    8.10
   0  -7  14   65.81    7.56
   0  -7 -14   79.88    6.93
   1  -7  14  200.23   12.70
  -1   7  14  212.84   11.92
  -1  -7  14  217.22   12.13
   1  -7 -14  205.91   12.83
   1   7  14  197.83   13.56
   2  -7  14  314.87   17.18
  -2  -7  14  297.67   15.11
   2   7  14  320.74   18.82
   2  -7 -14  263.62   16.81
   3  -7  14   17.82    4.85
   3   7  14   25.31    6.89
   0   8  14  110.78    9.25
   0  -8 -14  101.72    8.08
   0  -8  14  111.25    8.87
  -1   8  14   12.67    3.62
   1  -8  14   12.05    4.01
   1  -8 -14    8.64    3.51
   1   8  14    8.86    3.83
  -1  -8  14   12.17    3.93
   2  -8  14   94.29   10.48
   2   8  14   79.71   10.61
  -2  -8  14   94.09    8.08
   2  -8 -14  100.25   11.23
   3  -8  14   11.73    4.17
   3   8  14   11.01    4.68
   0  -9  14  105.73    9.03
   0   9  14  108.08    9.45
   0  -9 -14  116.37    9.04
   1  -9  14   38.53    6.71
  -1  -9  14   31.52    5.66
   1   9  14   25.48    6.25
   1  -9 -14   29.55    5.88
   2  -9  14  127.32   10.69
  -2  -9  14  131.74    9.99
   2   9  14  134.82   12.39
   2  -9 -14  137.05   14.31
   0 -10  14  168.34   11.71
   0 -10 -14  151.93   10.80
   0  10  14  153.95   12.12
   1 -10  14  136.88   11.18
   1  10  14  153.26   12.84
   1 -10 -14  160.79   11.98
  -1 -10  14  161.02   11.24
   2 -10  14    2.00    2.55
  -2 -10  14    0.86    2.75
   2  10  14    2.83    3.34
   2 -10 -14   -0.38    2.59
   0 -11  14   65.39    8.85
   0  11  14   64.16    9.37
   0 -11 -14   67.32    8.63
   1 -11  14   19.79    5.03
  -1 -11  14   19.72    5.15
   1  11  14   25.51    6.51
   1 -11 -14   17.12    5.34
   2  11  14   36.50    8.49
   0 -12 -14  103.02   11.13
   0 -12  14  117.44   10.39
   1 -12  14   11.34    4.01
  -1 -12  14    2.56    2.93
   1  12  14    2.09    3.69
   1 -12 -14    8.46    4.20
   0   0 -15    1.40    1.51
   0   0  15    4.39    2.23
  -1   0  15    0.61    1.53
   1   0  15   -1.22    1.70
  -2   0  15  393.17   16.77
   2   0  15  438.53   21.17
   3   0  15   28.63    6.32
   0  -1  15  364.89   16.59
   0  -1 -15  350.52   14.54
   0   1 -15  349.06   14.78
   0  -1  15  342.19   13.10
   0   1  15  334.87   16.31
  -1   1  15   11.31    2.80
   1  -1  15   20.06    4.59
   1   1  15   12.23    3.62
  -1  -1  15   16.00    3.41
   2  -1  15   13.49    4.09
  -2   1  15   10.91    2.69
   2   1  15    7.06    3.42
  -2  -1  15   11.06    2.97
   3  -1  15    5.26    3.16
   3   1  15    1.00    2.54
   0   2  15  475.46   19.77
   0  -2  15  454.61   19.50
   0  -2 -15  405.60   16.85
   0  -2  15  406.00   15.66
   0   2 -15  440.23   17.66
   1  -2  15  223.30   13.20
  -1   2  15  226.05   11.55
  -1  -2 -15  244.74   12.15
  -1  -2  15  215.60   11.64
   1   2  15  245.33   13.96
   2  -2  15   74.20    9.54
   2   2  15   86.03   10.28
  -2  -2  15   76.02    6.07
   3  -2  15  110.74    9.95
   3   2  15   90.50   11.26
   0  -3  15  189.88    8.72
   0   3  15  203.62   11.57
   0  -3  15  189.07   11.12
   0  -3 -15  181.50    9.14
   1  -3  15  338.61   17.24
  -1   3  15  325.13   15.19
  -1  -3 -15  337.58   15.61
   1   3  15  346.90   17.81
  -1  -3  15  353.74   15.81
   2  -3  15   49.73    7.75
   2   3  15   53.05    8.09
  -2  -3  15   47.20    5.59
   3  -3  15   43.05    7.10
   3   3  15   56.97    8.70
   0  -4  15   79.80    7.18
   0  -4 -15   90.67    6.48
   0   4  15   91.67    7.67
  -1  -4 -15    5.82    1.77
  -1  -4 -15    7.36    2.71
   1  -4  15    2.32    2.66
  -1   4  15    8.29    2.64
  -1  -4  15    7.65    2.74
   1   4  15    9.12    3.65
   2  -4  15   15.76    4.60
  -2  -4  15   11.97    3.21
   2   4  15   21.59    5.41
   3  -4  15   90.33   10.68
   3   4  15   86.38   11.15
   0  -5 -15   17.54    3.54
   0  -5  15   20.65    4.51
   0   5  15   16.27    4.20
  -1  -5 -15   40.43    4.41
   1  -5  15   33.85    5.69
  -1   5  15   39.93    5.38
  -1  -5  15   51.50    6.25
   1   5  15   41.64    6.81
   1  -5 -15   45.54    6.43
   2  -5  15   16.57    4.70
   2   5  15   20.62    5.50
  -2  -5  15   21.52    4.13
   3  -5  15   82.46   10.08
   3   5  15   68.15   10.19
   0  -6  15   81.71    7.45
   0  -6 -15   82.66    6.79
   0   6  15   80.14    8.82
  -1   6  15   45.78    5.82
  -1  -6 -15   47.48    5.14
   1  -6  15   36.45    5.95
   1   6  15   36.46    6.78
  -1  -6  15   37.42    5.45
   1  -6 -15   39.11    6.19
   2  -6  15  170.22   12.21
  -2  -6  15  163.40   10.49
   2   6  15  172.01   13.27
   3  -6  15   41.66    7.25
   3   6  15   31.67    6.88
   0  -7 -15   60.20    7.04
   0   7  15   47.91    6.93
   0  -7  15   60.47    7.69
  -1   7  15   24.22    4.60
   1  -7  15   22.20    4.91
  -1  -7 -15   24.34    4.00
  -1  -7  15   17.63    4.26
   1   7  15   20.50    5.43
   1  -7 -15   14.30    4.21
   2   7  15   51.80    9.16
  -2  -7  15   37.75    5.89
   2  -7 -15   20.66    5.59
   3  -7  15    7.65    4.08
   3   7  15    4.65    3.77
   0   8  15   13.43    4.08
   0  -8 -15    7.79    2.91
   0  -8  15    3.67    2.97
   1  -8  15  264.60   15.36
  -1  -8  15  240.87   13.92
   1   8  15  249.95   16.05
   1  -8 -15  233.15   14.50
   2  -8  15   81.07   10.07
  -2  -8  15   80.99    9.18
   2  -8 -15   96.84   11.31
   2   8  15   82.16   11.90
   0   9  15   49.63    7.63
   0  -9  15   54.62    7.78
   0  -9 -15   63.06    7.61
   1  -9  15   51.46    7.98
   1   9  15   65.17   10.00
  -1  -9  15   50.43    7.34
   1  -9 -15   46.67    7.32
   2  -9  15   96.69   11.45
  -2  -9  15   93.94   10.07
   2   9  15  105.30   13.52
   2  -9 -15  137.25   14.55
   0 -10  15   36.53    6.44
   0  10  15   26.62    5.91
   0 -10 -15   33.33    6.21
   1 -10  15   12.37    4.58
   1  10  15    3.80    3.57
   1 -10 -15   17.94    5.26
  -1 -10  15   11.49    3.99
   2 -10  15    1.41    2.60
   2 -10 -15    2.76    3.18
  -2 -10  15    1.15    2.90
   2  10  15    4.03    3.94
   0 -11  15  372.86   19.91
   0 -11 -15  386.17   19.75
   1 -11  15  170.93   12.64
  -1 -11  15  137.64   11.23
   1  11  15  150.20   13.44
   1 -11 -15  150.52   12.20
   0 -12  15  257.14   15.96
   0 -12 -15  234.29   15.28
   0   0  16  827.86   31.48
   0   0 -16  778.33   28.95
  -1   0  16   13.20    3.29
   1   0  16   17.02    4.24
   2   0  16    9.15    3.64
   3   0  16    7.44    3.89
   0  -1  16    0.62    1.84
   0   1  16    1.91    2.08
   0   1 -16    3.24    1.79
   1  -1  16  496.61   22.00
  -1   1  16  444.70   19.28
  -1  -1  16  436.83   19.23
   1   1  16  445.31   21.42
   2  -1  16   12.02    4.16
  -2  -1  16   14.31    3.16
   2   1  16   11.44    4.16
   3  -1  16   94.08   11.49
   3   1  16  121.48   10.92
   0   2 -16  203.04   10.38
   0   2  16  201.70   11.99
   0  -2  16  197.32   11.67
   1  -2  16  517.36   23.11
  -1   2  16  487.18   20.77
  -1  -2  16  502.68   21.12
   1   2  16  498.10   23.31
   2  -2  16  193.27   13.23
  -2  -2  16  184.79   10.21
   2   2  16  176.05   13.07
   3  -2  16  106.10   11.89
   3   2  16   98.20   12.14
   0   3  16  111.97    8.53
   0  -3  16   98.06    8.01
  -1   3  16   68.08    6.17
   1  -3  16   76.51    8.94
  -1  -3  16   79.17    6.77
   1   3  16   76.82    8.95
   2  -3  16   43.72    7.61
  -2  -3  16   50.96    6.06
   2   3  16   31.19    6.23
   3  -3  16   20.67    5.39
   3   3  16   31.84    7.35
   0  -4  16    2.76    2.21
   0   4  16    2.64    2.26
  -1  -4 -16  225.55    9.86
   1  -4  16  243.35   14.21
  -1   4  16  218.76   12.16
   1   4  16  236.60   14.62
  -1  -4  16  239.37   12.77
   2  -4  16  145.68   11.30
   2   4  16  134.57   11.65
  -2  -4  16  129.04    8.92
   3  -4  16  104.43   11.90
   3   4  16   88.17   11.09
   0  -5 -16  270.73   13.14
   0  -5  16  262.15   14.47
   0   5  16  267.75   14.97
  -1  -5 -16  169.78    8.69
   1  -5  16  177.06   12.00
  -1   5  16  162.15   10.31
   1   5  16  206.85   13.36
  -1  -5  16  162.06   10.61
   2  -5  16   36.45    6.64
  -2  -5  16   45.34    6.02
   2   5  16   49.85    8.49
   3  -5  16   79.08   10.29
   3   5  16   73.85   11.37
   0   6  16  185.50   12.08
   0  -6  16  183.48   11.65
   0  -6 -16  154.00    9.98
  -1  -6 -16  120.75    7.49
   1  -6  16  130.97   10.27
  -1   6  16  110.05    8.57
   1  -6 -16  125.52    9.74
  -1  -6  16  122.78    9.14
   1   6  16  129.62   10.86
   2  -6  16    1.81    2.84
  -2  -6  16    1.54    2.42
   2   6  16   -0.38    2.43
   3  -6  16   19.82    5.75
   3   6  16    8.52    5.18
   0  -7  16   38.49    6.28
   0  -7 -16   46.25    6.34
   0   7  16   55.94    7.65
  -1  -7 -16  240.20   11.97
   1  -7  16  242.57   14.88
   1  -7 -16  219.01   13.88
  -1  -7  16  240.36   13.76
   1   7  16  240.90   15.70
   2  -7  16    0.66    2.25
   2   7  16    6.08    4.52
  -2  -7  16   -0.34    2.16
   0   8  16   48.81    7.58
   0  -8 -16   61.83    7.70
   0  -8  16   48.58    7.05
   1  -8  16   78.69    9.70
  -1  -8 -16   78.68    6.79
   1   8  16   87.34   10.80
   1  -8 -16   75.63    9.23
  -1  -8  16   77.68    9.00
   2  -8  16  175.54   13.33
   2   8  16  174.74   14.37
   2  -8 -16  167.62   13.43
  -2  -8  16  164.74   11.52
   0   9  16   18.94    5.21
   0  -9 -16    7.62    3.29
   0  -9  16   16.59    4.90
   1  -9  16   11.49    4.36
  -1  -9 -16   10.57    3.37
  -1  -9  16    8.86    3.67
   1   9  16    8.56    4.24
   1  -9 -16   22.85    5.51
   2  -9  16    7.07    4.01
   2  -9 -16   16.55    5.61
   2   9  16    7.43    4.31
  -2  -9  16   14.91    4.91
   0 -10 -16   -0.65    2.42
   0 -10  16   -0.60    2.51
   1 -10  16   62.87    9.07
  -1 -10 -16   74.38    8.60
   1  10  16   60.55    9.86
   1 -10 -16   87.38   11.01
  -1 -10  16   84.50    9.81
   0 -11 -16   52.93    7.72
   0 -11  16   37.80    6.89
   1 -11 -16    3.80    3.23
   1  11  16    6.31    4.50
   0   0  17    7.54    2.91
  -1   0  17    6.50    2.83
   1   0  17    3.35    2.75
   2   0  17   42.66    7.54
   3   0  17   29.67    6.99
   0   1  17    1.48    1.80
   0  -1  17    1.24    2.02
   1  -1  17  218.93   13.88
  -1   1  17  226.27   12.25
  -1  -1  17  230.75   12.43
   1   1  17  225.12   14.11
   2  -1  17   65.09    8.80
   2   1  17   58.68    8.91
   3  -1  17   54.36    8.77
   3   1  17   65.50    9.58
   0   2  17    0.80    1.93
   0  -2  17    1.90    2.12
  -1   2  17  158.96    9.96
   1  -2  17  167.78   11.78
  -1  -2  17  169.37   10.38
   1   2  17  153.44   11.60
   2  -2  17   -1.57    2.49
   2   2  17   -2.42    2.24
   3  -2  17   29.32    6.51
   3   2  17   10.71    4.42
   0   3  17  132.44    9.63
   0  -3  17  104.77    8.76
  -1   3  17   34.13    5.11
   1  -3  17   24.54    5.16
   1   3  17   35.52    6.40
  -1  -3  17   34.01    5.45
   2  -3  17  207.45   14.55
   2   3  17  227.41   15.37
  -2  -3  17  218.01   12.67
   3  -3  17    8.21    4.22
   3   3  17    2.01    3.41
   0   4  17  101.09    8.72
   0  -4  17  110.05    8.82
   1  -4  17  105.26    9.35
  -1   4  17  102.79    8.07
  -1  -4  17  116.07    8.66
   1   4  17  108.41   10.02
   2  -4  17   15.58    5.02
  -2  -4  17   28.48    5.10
   2   4  17   19.46    5.74
   3  -4  17   92.85   11.35
   3   4  17  101.22   13.11
   0  -5 -17   52.48    6.34
   0   5  17   56.21    7.91
   0  -5  17   57.08    7.37
  -1  -5 -17   60.49    4.88
  -1   5  17   63.02    7.32
   1  -5  17   54.19    7.61
  -1  -5  17   53.08    7.13
   1   5  17   47.24    7.72
   2  -5  17   71.22    9.55
  -2  -5  17   81.62    8.55
   2   5  17   74.61   10.79
   0  -6 -17   78.14    6.88
   0  -6  17   70.36    8.51
   0   6  17   90.98   10.00
  -1  -6 -17   12.39    3.00
   1  -6  17   20.07    5.43
  -1  -6  17   12.27    3.93
   1   6  17   14.25    4.73
   1  -6 -17   11.70    3.84
   2  -6  17   96.45   11.81
   2   6  17   58.57    9.38
  -2  -6  17   82.47    8.83
   0  -7  17   19.08    4.83
   0  -7 -17   16.32    4.10
   0   7  17   10.56    4.01
  -1  -7 -17   95.23    7.29
   1  -7  17  119.11   10.28
   1   7  17  130.02   11.50
  -1  -7  17  116.93    9.53
   1  -7 -17  109.94    9.55
   2  -7  17   58.86    8.90
   2   7  17   66.00   10.21
  -2  -7  17   63.08    8.19
   0   8  17   25.36    5.78
   0  -8 -17   20.52    4.49
   0  -8  17   18.02    4.93
   1  -8  17    5.37    3.31
  -1  -8 -17    2.80    2.43
   1  -8 -17    4.83    3.17
   1   8  17   -0.32    2.60
  -1  -8  17    0.12    2.30
   2  -8  17   26.37    6.52
   2   8  17   33.34    7.60
  -2  -8  17   30.66    6.23
   0  -9  17  309.77   17.38
   0  -9 -17  266.17   15.47
   0   9  17  298.92   17.98
   1  -9  17  219.64   14.87
  -1  -9  17  228.76   14.32
   1   9  17  210.63   15.66
   1  -9 -17  200.42   14.13
   0 -10  17   69.61    9.52
   0 -10 -17   94.16   10.41
   1 -10  17  160.89   12.63
  -1 -10  17  135.77   11.28
   1  10  17  120.09   13.78
   1 -10 -17  144.65   12.18
   0   0  18  418.24   20.04
  -1   0  18    3.76    2.39
   1   0  18    5.66    3.42
   2   0  18   24.29    5.86
   0  -1  18   40.02    6.55
   0   1  18   27.79    5.24
  -1   1  18   23.03    4.42
   1  -1  18   28.06    5.79
   1   1  18   11.90    4.09
  -1  -1  18   16.82    4.04
   2  -1  18    3.82    3.21
   2   1  18   11.91    4.93
   0   2  18  160.94   11.26
   0  -2  18  166.12   11.22
  -1   2  18   81.28    7.34
   1  -2  18  105.93    9.41
  -1  -2  18   89.60    7.71
   1   2  18  105.68    9.66
   2  -2  18   32.67    7.32
   2   2  18   37.91    7.75
   0  -3  18    3.61    2.80
   0   3  18    8.01    3.41
   1  -3  18   17.25    4.60
  -1   3  18   17.61    4.02
   1   3  18   24.77    5.93
  -1  -3  18   30.60    5.46
   2  -3  18  607.18   28.87
   2   3  18  597.84   29.24
   0  -4  18    4.74    3.00
   0   4  18   -0.54    2.11
   1  -4  18   39.32    7.16
   1   4  18   32.02    6.44
  -1  -4  18   44.09    6.47
   2  -4  18   87.61   11.07
   2   4  18   75.08   10.24
   0   5  18   21.24    5.03
   0  -5  18   29.35    5.74
   1  -5  18   19.68    5.16
  -1  -5  18   20.35    4.67
   1   5  18   14.62    4.85
   2  -5  18    5.45    3.86
   2   5  18   17.69    5.72
   0  -6  18  118.19   10.04
   0  -6 -18  133.40    9.16
   0   6  18  125.71   10.61
   1  -6  18  126.72   10.89
   1   6  18  140.34   12.08
  -1  -6  18  134.58   10.36
   2  -6  18   26.07    6.32
   2   6  18   30.74    7.13
   0   7  18   20.94    5.34
   0  -7  18   20.12    5.27
   0  -7 -18   30.49    5.36
   1  -7  18    8.77    4.14
  -1  -7  18   13.74    4.47
   1   7  18   13.93    5.11
   1  -7 -18   12.27    4.31
   2  -7  18   20.05    5.88
   2   7  18   16.76    5.79
   0  -8  18  176.15   12.77
   0   8  18  178.69   13.42
   0  -8 -18  177.23   11.72
   1  -8  18   46.25    7.74
   1  -8 -18   55.65    8.25
   1   8  18   47.82    8.58
  -1  -8  18   54.73    7.96
   0  -9  18   31.85    6.50
   0  -9 -18   44.61    7.07
   1  -9  18   68.15   10.12
  -1  -9  18   53.38    8.28
   1  -9 -18   73.45    9.82
   1   9  18   66.37   10.29
   0   0  19    2.18    2.47
  -1   0  19   51.19    6.73
   1   0  19   67.31    8.99
   2   0  19   63.07    9.50
   0  -1  19  100.14    8.86
   0   1  19   95.01    8.65
   1  -1  19   15.00    4.60
  -1   1  19   12.91    3.69
   1   1  19    2.60    3.10
  -1  -1  19   10.07    3.55
   2  -1  19   16.16    5.29
   2   1  19   21.87    6.32
   0  -2  19  130.37   10.25
   0   2  19  137.11   10.60
  -1   2  19   16.45    4.12
   1  -2  19   14.53    4.65
   1   2  19   13.24    4.80
  -1  -2  19   11.45    3.70
   2  -2  19  151.24   12.90
   2   2  19  140.22   12.66
   0   3  19   82.31    9.55
   0  -3  19   78.75    9.34
   1  -3  19    9.74    4.20
  -1  -3  19   10.42    3.68
   1   3  19   11.64    4.29
   2  -3  19   17.39    5.67
   2   3  19   33.82    7.78
   0   4  19   10.73    4.23
   0  -4  19    8.83    3.72
   1  -4  19  202.84   14.02
  -1  -4  19  188.15   12.52
   1   4  19  199.70   14.45
   2  -4  19  103.37   12.30
   2   4  19   94.25   12.92
   0  -5  19   92.89   10.63
   0   5  19  116.06   10.18
   1  -5  19   58.46    8.68
   1   5  19   67.41    9.73
  -1  -5  19   61.59    8.16
   2  -5  19   41.27    8.58
   2   5  19   43.05    8.32
   0   6  19  102.22   10.98
   0  -6  19   70.75    9.20
   1  -6  19   32.00    6.62
   1   6  19   23.45    6.36
  -1  -6  19   22.14    5.18
   2   6  19   10.16    5.20
   0  -7 -19  161.09   10.78
   0  -7  19  168.09   12.58
   0   7  19  165.64   13.00
   1  -7  19   90.97   11.51
   1   7  19   69.53   10.81
  -1  -7  19   79.47    9.77
   0  -8 -19   71.89    8.66
   0  -8  19   70.30    9.88
   1  -8  19   46.98    8.13
  -1  -8  19   74.73    9.42
   1   8  19   49.14    8.51
   1  -8 -19   74.70   10.06
   0   0  20    6.96    3.52
  -1   0  20   57.78    7.68
   1   0  20   67.74    9.59
   2   0  20   57.65    9.93
   0   1  20   26.14    5.65
   0  -1  20   21.00    4.98
   1  -1  20   56.35    8.73
   1   1  20   60.75    9.50
  -1  -1  20   47.52    7.07
   2  -1  20   42.91    8.18
   2   1  20   57.69    9.07
   0   2  20   42.79    7.07
   0  -2  20   47.49    7.78
   1  -2  20   95.71   11.65
   1   2  20   88.07   10.68
  -1  -2  20  100.36    8.89
   2  -2  20   41.60    8.30
   2   2  20   32.80    7.92
   0  -3  20   34.54    6.64
   0   3  20   37.41    6.61
   1  -3  20   42.56    7.58
  -1  -3  20   50.88    7.19
   1   3  20   39.79    7.61
   2  -3  20   24.72    6.47
   2   3  20   16.04    5.77
   0   4  20  132.78   11.20
   0  -4  20  145.77   11.31
   1  -4  20   38.84    7.23
   1   4  20   36.49    7.41
  -1  -4  20   27.26    5.79
   2   4  20   36.06    8.28
   0  -5  20   17.27    4.97
   0   5  20   10.77    4.30
   1  -5  20   25.74    6.06
  -1  -5  20   36.20    6.53
   1   5  20   42.17    8.17
   0   6  20    1.29    2.72
   0  -6  20    1.53    2.82
   1  -6  20   19.63    5.66
   1   6  20   21.01    6.18
  -1  -6  20   32.35    6.53
   0  -7  20   17.84    5.33
   1  -7  20    0.56    2.54
   1   7  20    4.77    4.04
   0   0  21   -0.18    2.43
   1   0  21  113.07   12.68
   0  -1  21    4.44    3.47
   0   1  21    1.12    2.85
   1  -1  21    1.65    3.38
   1   1  21    9.56    4.53
   0   2  21  143.65   11.79
   0  -2  21  139.26   11.43
   1  -2  21   30.98    6.76
   1   2  21   19.81    5.76
  -1  -2  21   25.34    5.56
   0  -3  21   13.83    4.43
   0   3  21   17.67    5.22
   1  -3  21  184.38   13.74
   1   3  21  140.07   12.81
  -1  -3  21  143.23   11.29
   0   4  21   31.99    6.95
   0  -4  21   24.31    5.85
   1  -4  21    2.67    3.23
   1   4  21    2.29    3.56
  -1  -4  21   -0.35    2.59
   0   5  21  144.48   12.40
   0  -5  21  135.27   11.56
   1  -5  21   82.38   11.02
  -1  -5  21   66.80    9.26
   1   5  21   78.71   11.35
   0  -6  21   87.91   10.58
   0   0  22   19.50    5.54
   1   0  22   -2.24    2.76
   0   1  22    8.51    4.18
   0  -1  22   17.30    5.27
   1  -1  22   44.29    8.08
   1   1  22   39.11    7.93
   0  -2  22    4.46    3.34
   0   2  22    4.24    3.65
   1  -2  22   70.74   10.46
   1   2  22   88.20   11.53
   0   3  22    0.24    2.89
   0  -3  22   -0.55    2.51
   0   0   0    0.00    0.00
;
_shelx_hkl_checksum              9425
_shelx_res_file
;
TITL I         P 21 21 21   R   0.03
CELL  0.71070   3.8145  12.4829  17.4438   90.000   90.000   90.000
ZERR     4.00   0.0003   0.0010   0.0015    0.000    0.000    0.000
LATT  -1
SYMM  1/2 - X, - Y, 1/2 + Z
SYMM  1/2 + X, 1/2 - Y, - Z
SYMM  - X, 1/2 + Y, 1/2 - Z
SFAC  C    H    CL   N    O
UNIT  28 20 8 4 8
MERG   2
OMIT     0   0   2
OMIT     0   1   1
EQIV $1 X+1/2, -Y+1/2, -Z+1
HTAB C3 O42_$1
FMAP   2
PLAN   20
SIZE     0.050   0.150   0.260
ACTA
HTAB    2.00000
BOND   $H
CONF
L.S.   9
TEMP  -123.00
WGHT    0.024300    0.188200
FVAR       0.91963
CL21  3    0.915689    0.392462    0.726256    11.00000    0.03254    0.03690 =
         0.04077    0.02147   -0.00044    0.00516
CL61  3    0.367879    0.756904    0.607311    11.00000    0.03221    0.02114 =
         0.03723    0.00430    0.00492    0.00566
O41   5    0.305526    0.462097    0.400100    11.00000    0.05892    0.08230 =
         0.03069   -0.01403   -0.00966   -0.00380
O42   5    0.610100    0.326133    0.438725    11.00000    0.07685    0.03803 =
         0.05022   -0.02180    0.01641   -0.01408
N4    4    0.480341    0.414489    0.448035    11.00000    0.04020    0.04212 =
         0.03084   -0.01160    0.00939   -0.01490
C1    1    0.640210    0.570819    0.662572    11.00000    0.01395    0.02278 =
         0.02083    0.00198    0.00232   -0.00328
C2    1    0.734244    0.463778    0.650641    11.00000    0.01745    0.02349 =
         0.02643    0.00927    0.00239   -0.00100
C3    1    0.687919    0.411025    0.581765    11.00000    0.02198    0.01822 =
         0.03658    0.00159    0.00892   -0.00215
AFIX  43
H3    2    0.756136    0.338359    0.575490    11.00000   -1.20000
AFIX   0
C4    1    0.538377    0.468231    0.522393    11.00000    0.02371    0.02776 =
         0.02293   -0.00434    0.00665   -0.00846
C5    1    0.440582    0.574016    0.529391    11.00000    0.01725    0.03053 =
         0.01995    0.00614    0.00100   -0.00272
AFIX  43
H5    2    0.340225    0.611851    0.487543    11.00000   -1.20000
AFIX   0
C6    1    0.493674    0.623241    0.599534    11.00000    0.01536    0.01697 =
         0.02608    0.00296    0.00652   -0.00126
C7    1    0.691070    0.624339    0.739507    11.00000    0.02520    0.03699 =
         0.02320    0.00013   -0.00003   -0.00238
AFIX 137
H7A   2    0.602953    0.698011    0.737142    11.00000   -1.50000
H7B   2    0.941118    0.625188    0.752394    11.00000   -1.50000
H7C   2    0.562109    0.584517    0.778863    11.00000   -1.50000
AFIX   0
HKLF 4
REM  I         P 21 21 21   R   0.03
REM R1 =  0.0301 for    1756 Fo > 4sig(Fo)  and  0.0327 for all    1879 data
REM    110 parameters refined using      0 restraints
END
WGHT      0.0234      0.1944
REM Instructions for potential hydrogen bonds
HTAB C3 O42_$1
EQIV $2 x-1/2, -y+3/2, -z+1
HTAB C5 Cl61_$2
REM Highest difference peak  0.228,  deepest hole -0.195,  1-sigma level  0.047
Q1    1   0.8963  0.3406  0.6978  11.00000  0.05    0.23
Q2    1   0.6548  0.6013  0.6976  11.00000  0.05    0.22
Q3    1   0.5255  0.6052  0.5585  11.00000  0.05    0.21
Q4    1   0.6082  0.5230  0.5201  11.00000  0.05    0.19
Q5    1   0.8303  0.4345  0.6825  11.00000  0.05    0.18
Q6    1   0.4328  0.6571  0.6011  11.00000  0.05    0.17
Q7    1   0.5471  0.4574  0.4954  11.00000  0.05    0.16
Q8    1   0.9577  0.5434  0.7801  11.00000  0.05    0.16
Q9    1   0.6425  0.6021  0.6226  11.00000  0.05    0.16
Q10   1   0.6208  0.4637  0.8497  11.00000  0.05    0.16
Q11   1   0.4969  0.7981  0.5643  11.00000  0.05    0.15
Q12   1   0.2966  0.5768  0.5411  11.00000  0.05    0.15
Q13   1   0.6972  0.8040  0.8049  11.00000  0.05    0.15
Q14   1   0.5687  0.4373  0.5549  11.00000  0.05    0.15
Q15   1   0.4031  0.5051  0.5289  11.00000  0.05    0.15
Q16   1   0.3479  0.6046  0.3638  11.00000  0.05    0.15
Q17   1   0.1353  0.5000  0.4035  11.00000  0.05    0.14
Q18   1   0.6086  0.4356  0.6196  11.00000  0.05    0.14
Q19   1   0.8721  0.6895  0.7569  11.00000  0.05    0.14
Q20   1   0.6632  0.3775  0.5838  11.00000  0.05    0.14
;
_shelx_res_checksum              86018
_shelxl_version_number           2.013
loop_
_space_group_symop_operation_xyz
'x, y, z'
'-x+1/2, -y, z+1/2'
'x+1/2, -y+1/2, -z'
'-x, y+1/2, -z+1/2'
loop_
_atom_site_type_symbol
_atom_site_label
_atom_site_fract_x
_atom_site_fract_y
_atom_site_fract_z
_atom_site_U_iso_or_equiv
_atom_site_adp_type
_atom_site_calc_flag
_atom_site_occupancy
Cl Cl21 0.9157(2) 0.39246(5) 0.72626(4) 0.0367(2) Uani d 1
Cl Cl61 0.36788(19) 0.75690(4) 0.60731(4) 0.03019(17) Uani d 1
O O41 0.3055(7) 0.4621(2) 0.40010(12) 0.0573(7) Uani d 1
O O42 0.6101(8) 0.32613(16) 0.43872(12) 0.0550(7) Uani d 1
N N4 0.4803(7) 0.41449(19) 0.44804(14) 0.0377(6) Uani d 1
C C1 0.6402(7) 0.57082(18) 0.66257(13) 0.0192(5) Uani d 1
C C2 0.7342(7) 0.46378(18) 0.65064(14) 0.0225(5) Uani d 1
C C3 0.6879(7) 0.41103(18) 0.58177(15) 0.0256(6) Uani d 1
H H3 0.7561 0.3384 0.5755 0.031 Uiso calc 1
C C4 0.5384(7) 0.4682(2) 0.52239(14) 0.0248(6) Uani d 1
C C5 0.4406(7) 0.57402(19) 0.52939(14) 0.0226(5) Uani d 1
H H5 0.3402 0.6119 0.4875 0.027 Uiso calc 1
C C6 0.4937(6) 0.62324(17) 0.59953(14) 0.0195(5) Uani d 1
C C7 0.6911(7) 0.6243(2) 0.73951(14) 0.0285(6) Uani d 1
H H7A 0.6030 0.6980 0.7371 0.043 Uiso calc 1
H H7B 0.9411 0.6252 0.7524 0.043 Uiso calc 1
H H7C 0.5621 0.5845 0.7789 0.043 Uiso calc 1
loop_
_atom_site_aniso_label
_atom_site_aniso_U_11
_atom_site_aniso_U_22
_atom_site_aniso_U_33
_atom_site_aniso_U_12
_atom_site_aniso_U_13
_atom_site_aniso_U_23
Cl21 0.0325(4) 0.0369(3) 0.0408(4) 0.0052(3) -0.0004(3) 0.0215(3)
Cl61 0.0322(4) 0.0211(3) 0.0372(3) 0.0057(3) 0.0049(3) 0.0043(2)
O41 0.0589(17) 0.0823(17) 0.0307(11) -0.0038(15) -0.0097(12) -0.0140(11)
O42 0.0769(18) 0.0380(11) 0.0502(13) -0.0141(14) 0.0164(15) -0.0218(10)
N4 0.0402(16) 0.0421(14) 0.0308(13) -0.0149(12) 0.0094(12) -0.0116(11)
C1 0.0140(12) 0.0228(10) 0.0208(10) -0.0033(10) 0.0023(11) 0.0020(8)
C2 0.0174(13) 0.0235(11) 0.0264(12) -0.0010(10) 0.0024(11) 0.0093(10)
C3 0.0220(14) 0.0182(11) 0.0366(13) -0.0021(11) 0.0089(12) 0.0016(10)
C4 0.0237(14) 0.0278(12) 0.0229(12) -0.0085(11) 0.0066(11) -0.0043(10)
C5 0.0173(13) 0.0305(12) 0.0200(11) -0.0027(11) 0.0010(11) 0.0061(9)
C6 0.0154(12) 0.0170(10) 0.0261(12) -0.0013(9) 0.0065(10) 0.0030(9)
C7 0.0252(14) 0.0370(14) 0.0232(12) -0.0024(12) 0.0000(11) 0.0001(10)
loop_
_atom_type_symbol
_atom_type_description
_atom_type_scat_dispersion_real
_atom_type_scat_dispersion_imag
_atom_type_scat_source
C C 0.0033 0.0016 'International Tables Vol C Tables 4.2.6.8 and 6.1.1.4'
H H 0.0000 0.0000 'International Tables Vol C Tables 4.2.6.8 and 6.1.1.4'
Cl Cl 0.1484 0.1585 'International Tables Vol C Tables 4.2.6.8 and 6.1.1.4'
N N 0.0061 0.0033 'International Tables Vol C Tables 4.2.6.8 and 6.1.1.4'
O O 0.0106 0.0060 'International Tables Vol C Tables 4.2.6.8 and 6.1.1.4'
loop_
_geom_angle_atom_site_label_1
_geom_angle_atom_site_label_2
_geom_angle_atom_site_label_3
_geom_angle
O42 N4 O41 124.7(2)
O42 N4 C4 117.8(3)
O41 N4 C4 117.5(2)
C6 C1 C2 115.7(2)
C6 C1 C7 122.9(2)
C2 C1 C7 121.4(2)
C3 C2 C1 123.5(2)
C3 C2 Cl21 117.87(18)
C1 C2 Cl21 118.63(19)
C2 C3 C4 117.3(2)
C2 C3 H3 121.4
C4 C3 H3 121.4
C5 C4 C3 122.7(2)
C5 C4 N4 118.2(2)
C3 C4 N4 119.0(2)
C4 C5 C6 117.7(2)
C4 C5 H5 121.2
C6 C5 H5 121.2
C5 C6 C1 123.1(2)
C5 C6 Cl61 116.99(18)
C1 C6 Cl61 119.87(18)
C1 C7 H7A 109.5
C1 C7 H7B 109.5
H7A C7 H7B 109.5
C1 C7 H7C 109.5
H7A C7 H7C 109.5
H7B C7 H7C 109.5
loop_
_geom_bond_atom_site_label_1
_geom_bond_atom_site_label_2
_geom_bond_distance
Cl21 C2 1.735(2)
Cl61 C6 1.741(2)
O41 N4 1.224(3)
O42 N4 1.220(3)
N4 C4 1.477(3)
C1 C6 1.396(3)
C1 C2 1.399(3)
C1 C7 1.512(3)
C2 C3 1.381(3)
C3 C4 1.381(4)
C3 H3 0.9500
C4 C5 1.378(3)
C5 C6 1.384(3)
C5 H5 0.9500
C7 H7A 0.9800
C7 H7B 0.9800
C7 H7C 0.9800
loop_
_geom_hbond_atom_site_label_D
_geom_hbond_atom_site_label_H
_geom_hbond_atom_site_label_A
_geom_hbond_site_symmetry_A
_geom_hbond_distance_DH
_geom_hbond_distance_HA
_geom_hbond_distance_DA
_geom_hbond_angle_DHA
C3 H3 O42 3_556 0.95 2.47 3.389(3) 163
C5 H5 Cl61 3_466 0.95 2.94 3.862(3) 163
loop_
_geom_torsion_atom_site_label_1
_geom_torsion_atom_site_label_2
_geom_torsion_atom_site_label_3
_geom_torsion_atom_site_label_4
_geom_torsion
C6 C1 C2 C3 -0.1(4)
C7 C1 C2 C3 179.0(3)
C6 C1 C2 Cl21 -179.59(19)
C7 C1 C2 Cl21 -0.5(3)
C1 C2 C3 C4 -0.4(4)
Cl21 C2 C3 C4 179.05(19)
C2 C3 C4 C5 0.8(4)
C2 C3 C4 N4 -179.3(2)
O42 N4 C4 C5 170.1(3)
O41 N4 C4 C5 -9.8(4)
O42 N4 C4 C3 -9.8(4)
O41 N4 C4 C3 170.3(3)
C3 C4 C5 C6 -0.6(4)
N4 C4 C5 C6 179.5(2)
C4 C5 C6 C1 0.0(4)
C4 C5 C6 Cl61 -179.92(19)
C2 C1 C6 C5 0.3(4)
C7 C1 C6 C5 -178.8(2)
C2 C1 C6 Cl61 -179.73(18)
C7 C1 C6 Cl61 1.2(4)

_cod_database_fobs_code 1546681
