#------------------------------------------------------------------------------
#$Date: 2017-09-12 07:03:19 +0300 (Tue, 12 Sep 2017) $
#$Revision: 200733 $
#$URL: file:///home/coder/svn-repositories/cod/cif/1/54/63/1546353.cif $
#------------------------------------------------------------------------------
#
# This file is available in the Crystallography Open Database (COD),
# http://www.crystallography.net/
#
# All data on this site have been placed in the public domain by the
# contributors.
#
data_1546353
loop_
_publ_author_name
'Bruneau-Voisine, Antoine'
'Wang, Ding'
'Dorcet, Vincent'
'Roisnel, Thierry'
'Darcel, Christophe'
'Sortais, Jean-Baptiste'
_publ_section_title
;
 Transfer Hydrogenation of Carbonyl Derivatives Catalyzed by an
 Inexpensive Phosphine-Free Manganese Precatalyst.
;
_journal_issue                   13
_journal_name_full               'Organic letters'
_journal_page_first              3656
_journal_page_last               3659
_journal_paper_doi               10.1021/acs.orglett.7b01657
_journal_volume                  19
_journal_year                    2017
_chemical_compound_source        'synthesis as described'
_chemical_formula_moiety         'C18 H14 Mn2 N4 O6'
_chemical_formula_sum            'C18 H14 Mn2 N4 O6'
_chemical_formula_weight         492.21
_chemical_name_systematic
;
 ?
;
_space_group_crystal_system      triclinic
_space_group_IT_number           2
_space_group_name_Hall           '-P 1'
_space_group_name_H-M_alt        'P -1'
_symmetry_space_group_name_Hall  '-P 1'
_symmetry_space_group_name_H-M   'P -1'
_atom_sites_solution_hydrogens   mixed
_cell_angle_alpha                106.422(3)
_cell_angle_beta                 100.106(4)
_cell_angle_gamma                113.184(3)
_cell_formula_units_Z            1
_cell_length_a                   7.2912(9)
_cell_length_b                   8.1947(10)
_cell_length_c                   9.5912(11)
_cell_measurement_reflns_used    9103
_cell_measurement_temperature    150
_cell_measurement_theta_max      27.50
_cell_measurement_theta_min      2.96
_cell_measurement_wavelength     0.71073
_cell_volume                     477.83(10)
_computing_cell_refinement       'APEX3 (Bruker, 2015); SAINT (Bruker, 2014)'
_computing_data_collection       'SAINT (Bruker, 2014)'
_computing_data_reduction        'SAINT (Bruker, 2014)'
_computing_molecular_graphics
'SXGRAPH (Farrugia, 1999), Mercury (CSD, 2014)'
_computing_publication_material  'CRYSCALC (T. Roisnel, local program, 2016)'
_computing_structure_refinement  'SHELXL-2016/6 (Sheldrick, 2016)'
_computing_structure_solution    'SHELXT (Sheldrick, 2015)'
_diffrn_ambient_temperature      150
_diffrn_detector                 '(CMOS) PHOTON 100'
_diffrn_measured_fraction_theta_full 0.997
_diffrn_measured_fraction_theta_max 0.998
_diffrn_measurement_device_type  'D8 VENTURE Bruker AXS'
_diffrn_measurement_method       'rotation images'
_diffrn_radiation_monochromator  'multilayer monochromator'
_diffrn_radiation_probe          x-ray
_diffrn_radiation_source         'Incoatec microfocus sealed tube'
_diffrn_radiation_type           MoK\a
_diffrn_radiation_wavelength     0.71073
_diffrn_reflns_av_R_equivalents  0.0265
_diffrn_reflns_av_unetI/netI     0.0249
_diffrn_reflns_limit_h_max       9
_diffrn_reflns_limit_h_min       -9
_diffrn_reflns_limit_k_max       10
_diffrn_reflns_limit_k_min       -10
_diffrn_reflns_limit_l_max       12
_diffrn_reflns_limit_l_min       -12
_diffrn_reflns_number            9005
_diffrn_reflns_theta_full        25.242
_diffrn_reflns_theta_max         27.484
_diffrn_reflns_theta_min         2.935
_exptl_absorpt_coefficient_mu    1.366
_exptl_absorpt_correction_T_max  0.751
_exptl_absorpt_correction_T_min  0.621
_exptl_absorpt_correction_type   multi-scan
_exptl_absorpt_process_details
;
  [Sheldrick, G.M. (2014). SADABS Bruker AXS Inc., Madison, Wisconsin, USA]
;
_exptl_crystal_colour            yellow
_exptl_crystal_density_diffrn    1.711
_exptl_crystal_description       prism
_exptl_crystal_F_000             248
_exptl_crystal_size_max          0.590
_exptl_crystal_size_mid          0.260
_exptl_crystal_size_min          0.210
_refine_diff_density_max         0.648
_refine_diff_density_min         -0.696
_refine_diff_density_rms         0.224
_refine_ls_extinction_method     none
_refine_ls_goodness_of_fit_ref   1.373
_refine_ls_hydrogen_treatment    mixed
_refine_ls_matrix_type           full
_refine_ls_number_parameters     139
_refine_ls_number_reflns         2189
_refine_ls_number_restraints     0
_refine_ls_restrained_S_all      1.373
_refine_ls_R_factor_all          0.0280
_refine_ls_R_factor_gt           0.0262
_refine_ls_shift/su_max          0.004
_refine_ls_shift/su_mean         0.001
_refine_ls_structure_factor_coef Fsqd
_refine_ls_weighting_details
'w=1/[\s^2^(Fo^2^)+(0.0595P)^2^+0.2003P] where P=(Fo^2^+2Fc^2^)/3'
_refine_ls_weighting_scheme      calc
_refine_ls_wR_factor_gt          0.0982
_refine_ls_wR_factor_ref         0.1075
_reflns_number_gt                2132
_reflns_number_total             2189
_reflns_threshold_expression     >2sigma(I)
_cod_data_source_file            ol7b01657_si_003.cif
_cod_data_source_block           ABV466
_cod_depositor_comments          'Adding full bibliography for 1546353.cif.'
_cod_database_code               1546353
_shelx_res_file
;
TITL import_a.res in P-1
    job.res
    created by SHELXL-2016/6 at 17:13:47 on 09-Jan-2017
CELL  0.71073   7.2912   8.1947   9.5912  106.422  100.106  113.184
ZERR     1.00   0.0009   0.0010   0.0011    0.003    0.004    0.003
LATT   1
SFAC  C    H    N    O    MN
UNIT  18   14   4    6    2
MERG   2
EQIV $2 -x+1, -y+1, -z+1
HTAB C8 O2_$2
EQIV $3 -x+2, -y+1, -z
HTAB C13 O4_$3
FMAP   2
PLAN   20
ACTA
BOND   $H
CONF
LIST   4
WPDB  -2
L.S.   4
TEMP  -123.00
WGHT    0.059500    0.200300
FVAR       1.11437
MN1   5    0.857495    0.531306    0.376259    11.00000    0.01154    0.01026 =
         0.01127    0.00525    0.00622    0.00626
C1    1    0.880094    0.753320    0.503429    11.00000    0.01221    0.01561 =
         0.01853    0.00976    0.00648    0.00604
O2    4    0.870122    0.883891    0.580250    11.00000    0.02254    0.01541 =
         0.02887    0.00301    0.00893    0.01199
C3    1    0.924199    0.629245    0.233550    11.00000    0.02430    0.02193 =
         0.02007    0.01093    0.01167    0.01597
O4    4    0.970887    0.692064    0.145132    11.00000    0.05949    0.04587 =
         0.03625    0.03338    0.03357    0.03597
C5    1    0.585281    0.472525    0.300115    11.00000    0.01944    0.01443 =
         0.01339    0.00293    0.00742    0.00968
O6    4    0.416102    0.448854    0.251008    11.00000    0.01753    0.03159 =
         0.02381    0.00090    0.00292    0.01554
N7    3    0.832796    0.412075    0.536597    11.00000    0.01139    0.01048 =
         0.01253    0.00519    0.00755    0.00518
AFIX   2
H7    2    0.800166    0.471256    0.613028    11.00000   -1.20000
AFIX   0
C8    1    0.668576    0.209662    0.460982    11.00000    0.01254    0.01199 =
         0.01768    0.00668    0.00768    0.00363
AFIX  23
H8A   2    0.527153    0.201998    0.446312    11.00000   -1.20000
H8B   2    0.685297    0.137890    0.525543    11.00000   -1.20000
AFIX   0
C9    1    0.690002    0.123317    0.307931    11.00000    0.01129    0.01372 =
         0.01573    0.00502    0.00330    0.00604
C10   1    0.614156   -0.072934    0.231132    11.00000    0.01763    0.01318 =
         0.02226    0.00493    0.00180    0.00624
AFIX  43
H10   2    0.542222   -0.161135    0.273314    11.00000   -1.20000
AFIX   0
C11   1    0.645196   -0.138450    0.091278    11.00000    0.02436    0.01610 =
         0.02155   -0.00158   -0.00127    0.01187
AFIX  43
H11   2    0.592158   -0.272448    0.035468    11.00000   -1.20000
AFIX   0
C12   1    0.754341   -0.005993    0.034384    11.00000    0.02373    0.02557 =
         0.01537   -0.00019    0.00364    0.01666
AFIX  43
H12   2    0.781231   -0.047406   -0.059282    11.00000   -1.20000
AFIX   0
C13   1    0.823480    0.187205    0.115904    11.00000    0.01781    0.02125 =
         0.01404    0.00487    0.00687    0.01128
AFIX  43
H13   2    0.896582    0.277718    0.075928    11.00000   -1.20000
AFIX   0
N14   3    0.790870    0.252241    0.250654    11.00000    0.01302    0.01365 =
         0.01284    0.00416    0.00522    0.00784
HKLF    4




REM  import_a.res in P-1
REM R1 =  0.0262 for    2132 Fo > 4sig(Fo)  and  0.0280 for all    2189 data
REM    139 parameters refined using      0 restraints

END

WGHT      0.0588      0.1777

REM Highest difference peak  0.648,  deepest hole -0.696,  1-sigma level  0.224
Q1    1   0.6144 -0.1030  0.1550  11.00000  0.05    0.65
Q2    1   0.6022  0.0110  0.2481  11.00000  0.05    0.62
Q3    1   0.6288 -0.0777  0.0438  11.00000  0.05    0.59
Q4    1   0.5634  0.1785  0.3833  11.00000  0.05    0.57
Q5    1   0.6526  0.1536  0.3695  11.00000  0.05    0.56
Q6    1   0.4984 -0.1273  0.3056  11.00000  0.05    0.54
Q7    1   0.5192 -0.0234  0.4152  11.00000  0.05    0.54
Q8    1   0.5000  0.0000  0.5000  10.50000  0.05    0.53
Q9    1   0.4999  0.0775  0.5160  11.00000  0.05    0.52
Q10   1   0.6864  0.0028 -0.1129  11.00000  0.05    0.51
Q11   1   0.7212 -0.0475 -0.2555  11.00000  0.05    0.50
Q12   1   0.5367  0.0224  0.3232  11.00000  0.05    0.48
Q13   1   0.6375  0.1384  0.1346  11.00000  0.05    0.47
Q14   1   0.7311  0.0674 -0.1839  11.00000  0.05    0.46
Q15   1   0.6583 -0.1168 -0.1731  11.00000  0.05    0.46
Q16   1   0.7103  0.1101 -0.0627  11.00000  0.05    0.46
Q17   1   0.3198  0.1330  0.2795  11.00000  0.05    0.45
Q18   1   0.7135  0.8314  0.6639  11.00000  0.05    0.44
Q19   1   0.5262  0.2378  0.5951  11.00000  0.05    0.42
Q20   1   0.7086  0.5556  0.4015  11.00000  0.05    0.42
;
_shelx_res_checksum              7164
_shelx_hkl_file
;
  -1   0   0    0.01    0.04   0
  -2   0   0  675.26   26.17   0
  -2   0   0  662.35   26.17   0
  -3   0   0 1518.59   59.20   0
   4   0   0 2495.81   97.38   0
  -5   0   0    9.26    0.98   0
  -5   0   0    9.27    1.04   0
   5   0   0    8.53    1.28   0
   5   0   0    9.02    1.29   0
  -6   0   0  216.50    9.01   0
  -6   0   0  219.09    9.06   0
   6   0   0  213.29    9.50   0
   6   0   0  219.53    9.58   0
  -7   0   0  399.76   15.86   0
  -7   0   0  384.73   15.76   0
   7   0   0  389.47   16.55   0
  -8   0   0   38.13    2.42   0
  -8   0   0   35.33    2.21   0
   8   0   0   35.31    3.70   0
   8   0   0   39.54    3.77   0
   8  -1   0   -0.41    1.46   0
   8  -1   0    1.92    1.37   0
  -8   1   0    0.39    0.93   0
  -8   1   0    1.42    0.80   0
   7  -1   0 1247.91   50.27   0
   7  -1   0 1300.70   50.25   0
  -7   1   0 1209.58   49.61   0
  -7   1   0 1289.71   49.72   0
   6  -1   0  194.08    8.68   0
   6  -1   0  193.72    8.73   0
  -6   1   0  207.99    8.40   0
  -6   1   0  190.57    8.29   0
   5  -1   0   36.43    2.22   0
  -5   1   0   31.89    1.98   0
  -5   1   0   30.91    1.91   0
   4  -1   0 1462.83   58.50   0
  -4   1   0 1546.47   58.44   0
  -4   1   0 1472.44   58.37   0
  -3   1   0 7709.42  297.80   0
  -3   1   0 7310.74  296.92   0
   2  -1   0   55.14    2.57   0
   2  -1   0   57.00    2.60   0
   2  -1   0   55.09    2.37   0
  -2   1   0   67.37    2.59   0
  -2   1   0   59.85    2.60   0
   1  -1   0 1804.83   70.91   0
  -1   1   0 1721.88   70.73   0
   0  -1   0  120.89    4.73   0
  -1  -1   0  842.86   34.53   0
   1   1   0  814.72   34.42   0
  -2  -1   0 1027.00   42.15   0
   2   1   0  930.33   41.87   0
  -3  -1   0   38.31    1.82   0
  -3  -1   0   38.01    1.75   0
  -3  -1   0   43.00    1.81   0
   3   1   0   35.44    1.95   0
   3   1   0   33.27    1.91   0
  -4  -1   0  392.53   15.47   0
  -4  -1   0  417.20   15.53   0
   4   1   0  346.73   15.71   0
   4   1   0  401.24   15.79   0
  -5  -1   0    2.43    0.49   0
  -5  -1   0    2.72    0.55   0
   5   1   0    1.93    0.70   0
   5   1   0    2.23    0.74   0
  -6  -1   0    0.60    0.53   0
   6   1   0    0.99    0.93   0
   6   1   0    0.98    0.93   0
  -7  -1   0   57.71    2.76   0
   7   1   0   64.76    4.07   0
   7   1   0   60.99    4.07   0
   8  -2   0   61.26    4.28   0
   8  -2   0   52.38    4.13   0
  -8   2   0   60.03    3.37   0
  -8   2   0   62.61    3.60   0
   7  -2   0  384.80   15.76   0
   7  -2   0  375.42   15.81   0
  -7   2   0  362.87   15.25   0
  -7   2   0  364.31   15.33   0
   6  -2   0   47.20    2.94   0
   6  -2   0   46.30    2.97   0
  -6   2   0   49.46    2.77   0
  -6   2   0   48.68    2.68   0
   5  -2   0    7.64    1.18   0
   5  -2   0    6.87    1.04   0
  -5   2   0    5.31    0.77   0
  -5   2   0    5.48    0.88   0
   4  -2   0 1735.82   67.96   0
   3  -2   0 1270.37   49.76   0
   2  -2   0  283.31   11.20   0
   2  -2   0  286.20   11.28   0
   2  -2   0  266.04   11.29   0
  -2   2   0  288.09   11.32   0
  -2   2   0  286.70   11.25   0
   1  -2   0  261.21   10.51   0
   1  -2   0  270.23   10.47   0
   1  -2   0  276.14   10.44   0
  -1   2   0  254.49   10.47   0
  -1   2   0  252.28   10.43   0
  -1   2   0  266.37   10.50   0
   0  -2   0 1324.30   54.34   0
   0   2   0 1332.59   54.29   0
  -1  -2   0   18.88    0.91   0
  -1  -2   0   21.38    1.17   0
  -1  -2   0   19.59    0.92   0
   1   2   0   18.91    1.01   0
   1   2   0   17.98    1.02   0
  -2  -2   0    4.34    0.43   0
   2   2   0    3.83    0.56   0
   2   2   0    4.70    0.63   0
  -3  -2   0  537.80   21.08   0
  -3  -2   0  542.13   21.27   0
  -3  -2   0  518.30   21.04   0
   3   2   0  547.00   21.38   0
   3   2   0  540.94   21.36   0
  -4  -2   0  307.97   12.38   0
  -4  -2   0  299.11   12.17   0
   4   2   0  313.98   12.68   0
   4   2   0  309.13   12.65   0
  -5  -2   0    4.64    0.68   0
  -5  -2   0    5.10    0.62   0
   5   2   0    6.00    1.08   0
   5   2   0    6.71    1.16   0
   6   2   0   36.51    2.87   0
   6   2   0   34.80    2.92   0
   7   2   0  508.32   21.61   0
   7   2   0  524.50   21.63   0
   9  -3   0   53.39    4.61   0
   9  -3   0   49.52    4.57   0
  -9   3   0   48.78    3.47   0
  -9   3   0   59.78    3.84   0
   8  -3   0    1.52    1.42   0
   8  -3   0    4.95    1.47   0
  -8   3   0    2.89    1.01   0
  -8   3   0    4.32    1.24   0
   7  -3   0  844.71   31.74   0
   7  -3   0  886.18   31.69   0
  -7   3   0  694.81   31.08   0
  -7   3   0  699.42   31.18   0
   6  -3   0  548.92   22.59   0
   6  -3   0  569.93   22.55   0
  -6   3   0  549.88   22.38   0
  -6   3   0  546.46   22.27   0
   5  -3   0   86.77    4.48   0
   5  -3   0   95.67    4.50   0
  -5   3   0   94.73    4.34   0
  -5   3   0   94.66    4.46   0
   4  -3   0 1165.55   44.95   0
   4  -3   0 1139.54   44.98   0
   4  -3   0 1151.34   44.62   0
  -4   3   0 1097.96   44.81   0
  -4   3   0 1154.12   44.95   0
  -3   3   0 2957.99  122.09   0
   2  -3   0  847.60   33.10   0
   2  -3   0  854.19   33.05   0
   2  -3   0  834.94   33.10   0
  -2   3   0  844.70   33.12   0
  -2   3   0  831.89   33.04   0
   1  -3   0 2296.01   93.35   0
  -1   3   0 2270.60   93.02   0
   0  -3   0 2863.90  116.03   0
   0   3   0 2899.85  116.03   0
  -1  -3   0  741.86   28.97   0
   1   3   0  720.43   28.80   0
   1   3   0  737.05   28.78   0
  -2  -3   0    7.31    0.43   0
  -2  -3   0    5.08    0.79   0
   2   3   0    5.92    0.85   0
   2   3   0    6.41    0.76   0
  -3  -3   0   88.27    4.11   0
   3   3   0   91.60    4.16   0
   3   3   0   87.10    4.07   0
  -4  -3   0 1255.67   50.50   0
   4   3   0 1357.14   50.78   0
   4   3   0 1248.62   50.66   0
   5   3   0  143.65    6.95   0
   5   3   0  161.99    7.15   0
   6   3   0  171.87    8.29   0
   6   3   0  183.11    8.46   0
   9  -4   0   32.00    3.89   0
   9  -4   0   31.12    3.79   0
  -9   4   0   26.61    2.75   0
  -9   4   0   32.53    3.23   0
   8  -4   0   11.63    1.80   0
   8  -4   0   10.77    1.74   0
  -8   4   0   16.43    2.05   0
  -8   4   0   13.87    2.34   0
   7  -4   0  489.94   20.76   0
   7  -4   0  501.67   20.88   0
  -7   4   0  512.20   20.50   0
  -7   4   0  506.46   20.65   0
   6  -4   0  427.16   17.46   0
   6  -4   0  410.29   17.49   0
  -6   4   0  424.29   17.25   0
  -6   4   0  426.30   17.41   0
   5  -4   0  540.20   20.91   0
   5  -4   0  471.51   20.85   0
   5  -4   0  515.22   20.48   0
  -5   4   0  502.58   20.72   0
  -5   4   0  546.61   20.94   0
   4  -4   0   25.77    1.78   0
   4  -4   0   23.65    1.61   0
   4  -4   0   28.01    1.80   0
  -4   4   0   26.93    1.70   0
  -4   4   0   27.17    1.85   0
   3  -4   0 1386.59   56.45   0
   3  -4   0 1419.77   56.50   0
   3  -4   0 1471.01   56.50   0
  -3   4   0 1432.33   56.44   0
  -3   4   0 1501.77   56.59   0
   2  -4   0  633.76   24.58   0
   2  -4   0  626.04   24.44   0
   2  -4   0  599.71   24.37   0
  -2   4   0  593.61   24.37   0
  -2   4   0  634.28   24.52   0
   1  -4   0   92.27    3.77   0
   1  -4   0   86.22    4.08   0
   1  -4   0   89.08    3.63   0
   1  -4   0   83.04    3.77   0
  -1   4   0   88.59    3.94   0
  -1   4   0   88.23    3.84   0
   0  -4   0  503.51   19.83   0
   0  -4   0  518.58   20.29   0
   0  -4   0  497.35   19.81   0
   0   4   0  511.59   20.09   0
   0   4   0  494.64   19.99   0
  -1  -4   0  118.67    5.36   0
   1   4   0  118.17    5.10   0
   1   4   0  117.60    4.90   0
   1   4   0  121.70    5.19   0
  -2  -4   0   56.24    3.04   0
   2   4   0   52.71    2.73   0
   2   4   0   57.04    2.86   0
  -3  -4   0  169.65    7.36   0
   3   4   0  169.34    7.33   0
   3   4   0  162.50    7.20   0
  -4  -4   0  104.81    4.99   0
   4   4   0  104.67    5.05   0
   4   4   0  105.71    5.17   0
   5   4   0    9.02    1.55   0
   5   4   0    7.91    1.34   0
   9  -5   0  117.04    6.78   0
   9  -5   0  119.79    6.90   0
  -9   5   0  113.03    6.05   0
  -9   5   0  121.65    6.44   0
   8  -5   0   42.78    3.59   0
   8  -5   0   45.15    3.66   0
  -8   5   0   40.99    3.07   0
  -8   5   0   45.58    3.51   0
   7  -5   0  514.88   21.32   0
   7  -5   0  508.53   21.24   0
  -7   5   0  501.93   20.95   0
  -7   5   0  526.81   21.21   0
   6  -5   0  864.36   33.28   0
   6  -5   0  818.31   33.15   0
   6  -5   0  839.70   32.67   0
  -6   5   0  841.44   33.00   0
  -6   5   0  767.11   33.12   0
   5  -5   0  335.25   14.59   0
   5  -5   0  348.89   14.37   0
   5  -5   0  362.94   14.62   0
  -5   5   0  374.14   14.72   0
  -5   5   0  337.75   14.44   0
   4  -5   0   63.59    3.24   0
   4  -5   0   62.64    3.23   0
   4  -5   0   57.79    3.21   0
  -4   5   0   66.82    3.41   0
  -4   5   0   60.82    3.15   0
   3  -5   0  308.64   11.94   0
   3  -5   0  292.90   11.96   0
   3  -5   0  299.33   12.09   0
  -3   5   0  271.05   11.85   0
  -3   5   0  280.28   12.03   0
   2  -5   0   34.75    2.22   0
   2  -5   0   36.31    1.76   0
   2  -5   0   36.18    1.93   0
   2  -5   0   34.95    1.95   0
  -2   5   0   38.43    2.00   0
  -2   5   0   33.75    2.09   0
   1  -5   0   45.27    1.96   0
   1  -5   0   45.33    2.14   0
   1  -5   0   47.07    2.18   0
   1  -5   0   41.05    2.56   0
  -1   5   0   41.92    2.27   0
   0  -5   0  327.35   12.90   0
   0  -5   0  335.48   13.58   0
   0  -5   0  320.54   12.89   0
   0   5   0  319.53   13.21   0
   0   5   0  330.18   13.35   0
  -1  -5   0  434.53   17.17   0
   1   5   0  426.74   16.92   0
   1   5   0  395.97   16.76   0
   1   5   0  411.04   16.45   0
  -2  -5   0  330.06   13.56   0
   2   5   0  316.01   12.95   0
   2   5   0  324.30   13.39   0
   2   5   0  322.99   13.26   0
  -3  -5   0   19.79    2.06   0
   3   5   0   17.26    1.75   0
   3   5   0   19.75    1.53   0
   3   5   0   19.88    2.05   0
  -4  -5   0  240.03   10.17   0
   4   5   0  242.57   10.36   0
   4   5   0  214.90    9.74   0
   4   5   0  233.43   10.12   0
   5   5   0  137.59    7.30   0
   5   5   0  176.66    8.17   0
   5   5   0  177.30    7.89   0
   9  -6   0  483.26   19.65   0
   9  -6   0  424.60   19.53   0
  -9   6   0  464.44   19.30   0
  -9   6   0  433.55   18.95   0
   8  -6   0  117.95    6.61   0
   8  -6   0  118.52    6.57   0
  -8   6   0  123.64    6.60   0
  -8   6   0  132.70    6.25   0
   7  -6   0    4.60    1.01   0
   7  -6   0    1.51    1.06   0
   7  -6   0    2.14    1.17   0
  -7   6   0    3.49    1.26   0
  -7   6   0    1.95    0.90   0
   6  -6   0  368.62   16.01   0
   6  -6   0  382.11   15.69   0
   6  -6   0  384.71   16.01   0
  -6   6   0  382.25   15.84   0
  -6   6   0  389.58   16.10   0
   5  -6   0  818.79   32.80   0
   5  -6   0  861.31   32.92   0
   5  -6   0  811.70   32.90   0
  -5   6   0  813.90   32.99   0
  -5   6   0  803.15   32.74   0
   4  -6   0  349.72   14.60   0
   4  -6   0  350.95   14.58   0
   4  -6   0  360.47   14.74   0
  -4   6   0  349.88   14.53   0
  -4   6   0  357.78   14.77   0
   3  -6   0  275.83   11.14   0
   3  -6   0  259.08   11.40   0
   3  -6   0  252.40   11.11   0
  -3   6   0  270.97   11.16   0
  -3   6   0  283.87   11.40   0
   2  -6   0  620.98   24.34   0
   2  -6   0  604.10   24.57   0
   2  -6   0  647.26   25.11   0
   2  -6   0  620.35   24.57   0
  -2   6   0  591.51   24.68   0
  -2   6   0  633.80   24.89   0
   1  -6   0  426.36   16.70   0
   1  -6   0  421.08   16.70   0
   1  -6   0  424.40   17.41   0
  -1   6   0  428.42   17.17   0
  -1   6   0  402.67   16.96   0
   0   6   0    9.52    1.37   0
   0   6   0    7.15    1.13   0
  -1  -6   0  393.78   18.54   0
   1   6   0  479.17   18.34   0
   1   6   0  480.69   18.52   0
  -2  -6   0  360.49   14.50   0
   2   6   0  332.66   14.05   0
   2   6   0  336.07   14.27   0
   2   6   0  330.81   13.57   0
  -3  -6   0   64.11    4.06   0
   3   6   0   59.74    3.96   0
   3   6   0   66.30    3.67   0
   3   6   0   62.54    3.17   0
  -4  -6   0   51.02    3.76   0
   4   6   0   46.70    3.15   0
   4   6   0   52.10    3.64   0
   4   6   0   53.95    4.18   0
   8  -7   0  184.52    9.19   0
   8  -7   0  191.61    9.21   0
  -8   7   0  206.05    9.40   0
  -8   7   0  172.41    8.73   0
   7  -7   0   72.68    4.30   0
   7  -7   0   60.04    3.73   0
   7  -7   0   63.50    4.24   0
  -7   7   0   71.28    4.46   0
  -7   7   0   61.92    3.88   0
   6  -7   0   62.33    3.78   0
   6  -7   0   70.21    4.00   0
   6  -7   0   61.13    3.88   0
  -6   7   0   66.15    4.12   0
  -6   7   0   66.58    3.78   0
   5  -7   0  116.54    5.83   0
   5  -7   0  119.01    5.74   0
   5  -7   0  121.38    5.73   0
  -5   7   0  113.22    5.61   0
  -5   7   0  119.60    5.95   0
   4  -7   0    9.74    1.44   0
   4  -7   0    8.32    1.44   0
   4  -7   0   13.45    1.56   0
  -4   7   0   12.15    1.49   0
  -4   7   0   13.04    1.87   0
   3  -7   0    6.70    1.14   0
   3  -7   0    6.32    0.79   0
   3  -7   0    7.43    1.46   0
   3  -7   0    5.89    0.90   0
  -3   7   0    4.51    0.84   0
  -3   7   0    5.04    1.12   0
   2  -7   0  184.48    7.97   0
   2  -7   0  187.65    8.71   0
   2  -7   0  189.66    7.97   0
   2  -7   0  190.28    7.71   0
  -2   7   0  196.40    8.49   0
  -2   7   0  197.34    8.29   0
   1  -7   0  235.09    9.32   0
   1  -7   0  235.68   10.38   0
   1  -7   0  235.85    9.33   0
  -1   7   0  237.52   10.09   0
  -1   7   0  217.13    9.82   0
   0  -7   0    1.03    1.13   0
   0   7   0    1.97    0.97   0
  -1  -7   0  204.08    9.38   0
   1   7   0  206.13    8.89   0
   1   7   0  197.85    9.12   0
  -2  -7   0  217.89    9.93   0
   2   7   0  205.80    9.39   0
   2   7   0  219.96    9.82   0
   8  -8   0  142.04    7.51   0
   8  -8   0  129.00    7.50   0
  -8   8   0  150.25    7.87   0
  -8   8   0  141.25    7.16   0
   7  -8   0    6.24    1.51   0
   7  -8   0    5.47    1.59   0
   7  -8   0    7.68    1.75   0
  -7   8   0    7.61    1.96   0
  -7   8   0    5.97    1.31   0
   6  -8   0  170.64    7.95   0
   6  -8   0  166.46    8.02   0
   6  -8   0  167.84    7.95   0
  -6   8   0  160.41    7.78   0
  -6   8   0  172.90    8.26   0
   5  -8   0  104.96    5.22   0
   5  -8   0   99.69    5.15   0
   5  -8   0   93.79    5.46   0
  -5   8   0  113.43    5.69   0
  -5   8   0   98.69    5.17   0
   4  -8   0  132.26    6.28   0
   4  -8   0  137.19    6.32   0
   4  -8   0  137.77    6.01   0
   4  -8   0  135.35    6.87   0
  -4   8   0  137.12    6.46   0
  -4   8   0  143.82    6.84   0
   3  -8   0  181.80    7.34   0
   3  -8   0  176.86    7.65   0
   3  -8   0  177.71    8.43   0
   3  -8   0  174.42    7.64   0
  -3   8   0  174.89    7.95   0
  -3   8   0  178.67    8.25   0
   2  -8   0 1144.07   45.99   0
   2  -8   0 1207.36   47.10   0
   2  -8   0 1167.43   46.00   0
  -2   8   0 1215.29   46.83   0
  -2   8   0 1139.12   46.52   0
   1  -8   0  101.10    5.62   0
  -1   8   0  101.10    5.26   0
  -1   8   0   91.89    4.92   0
   0  -8   0   46.29    3.86   0
   0   8   0   51.42    3.67   0
   0   8   0   43.04    3.03   0
  -1  -8   0  267.34   12.14   0
   1   8   0  270.77   11.97   0
   1   8   0  258.94   11.50   0
   7  -9   0   95.05    5.51   0
   7  -9   0   87.83    5.50   0
   7  -9   0   91.73    5.61   0
  -7   9   0   80.81    5.25   0
  -7   9   0   94.54    6.01   0
   6  -9   0  274.91   12.20   0
   6  -9   0  284.32   12.61   0
   6  -9   0  271.06   12.17   0
  -6   9   0  262.76   12.17   0
  -6   9   0  290.62   12.77   0
   5  -9   0  956.59   37.23   0
   5  -9   0  955.50   36.87   0
   5  -9   0  921.93   37.80   0
   5  -9   0  915.73   37.20   0
  -5   9   0  951.36   37.79   0
  -5   9   0  877.60   37.32   0
   4  -9   0  104.09    6.13   0
   4  -9   0  106.99    5.13   0
   4  -9   0  100.94    4.75   0
   4  -9   0  103.91    5.09   0
  -4   9   0  105.07    5.50   0
  -4   9   0  114.95    6.05   0
   3  -9   0   65.62    4.67   0
   3  -9   0   70.12    3.43   0
   3  -9   0   66.82    3.38   0
  -3   9   0   67.87    4.02   0
  -3   9   0   68.16    4.49   0
   2  -9   0  404.37   17.44   0
  -2   9   0  388.13   16.72   0
  -2   9   0  407.63   17.13   0
   1  -9   0  270.44   12.53   0
  -1   9   0  271.74   12.27   0
   0  -9   0   69.23    5.06   0
   0   9   0   70.29    4.83   0
   0   9   0   63.49    4.30   0
   5 -10   0  193.31    8.47   0
   5 -10   0  191.42    8.84   0
   5 -10   0  194.28    9.98   0
   5 -10   0  205.94    8.95   0
  -5  10   0  197.06    9.38   0
  -5  10   0  203.68    9.92   0
   4 -10   0   70.96    3.70   0
   4 -10   0   62.58    5.15   0
   4 -10   0   68.74    3.70   0
   4 -10   0   67.41    3.20   0
  -4  10   0   68.84    5.16   0
  -4  10   0   61.22    4.35   0
   3 -10   0    1.44    2.03   0
   3 -10   0    0.79    0.61   0
   3 -10   0   -0.23    0.66   0
  -3  10   0    0.55    1.19   0
  -3  10   0   -0.58    1.75   0
  -2  10  -1   -0.07    1.74   0
   2 -10   1    0.50    0.62   0
   2 -10   1    0.15    1.90   0
   2 -10   1    2.01    0.73   0
  -3  10  -1  123.15    6.69   0
  -3  10  -1  106.03    5.98   0
   3 -10   1  107.13    6.68   0
   3 -10   1  112.30    5.29   0
   3 -10   1  111.63    5.28   0
  -4  10  -1  148.14    7.66   0
  -4  10  -1  159.12    8.25   0
   4 -10   1  160.97    8.38   0
   4 -10   1  159.16    7.24   0
   4 -10   1  149.46    6.42   0
   4 -10   1  153.20    7.14   0
  -5  10  -1  193.83    9.75   0
  -5  10  -1  220.66   10.38   0
   5 -10   1  220.02    9.57   0
   5 -10   1  202.38    8.84   0
   5 -10   1  202.22    9.49   0
   5 -10   1  214.47   10.39   0
  -6  10  -1    2.94    1.98   0
  -6  10  -1   -0.04    1.62   0
   6 -10   1   -0.27    1.54   0
   6 -10   1   -0.69    2.06   0
   6 -10   1   -0.35    1.48   0
   0   9  -1  113.82    6.39   0
   0   9  -1  108.30    5.79   0
   0  -9   1  103.08    6.35   0
  -1   9  -1  498.57   20.69   0
   1  -9   1  485.15   19.28   0
   1  -9   1  499.11   20.88   0
   1  -9   1  479.51   19.27   0
  -2   9  -1  210.06    9.48   0
  -2   9  -1  213.28    9.79   0
   2  -9   1  203.68    8.78   0
   2  -9   1  213.64   10.02   0
   2  -9   1  205.34    8.79   0
  -3   9  -1    0.15    0.92   0
  -3   9  -1    0.51    1.27   0
   3  -9   1   -0.23    0.82   0
   3  -9   1    0.53    0.41   0
   3  -9   1    0.11    1.45   0
   3  -9   1    0.94    0.86   0
  -4   9  -1  801.39   32.90   0
  -4   9  -1  814.11   33.23   0
   4  -9   1  806.24   32.13   0
   4  -9   1  793.29   32.68   0
   4  -9   1  835.85   32.71   0
   4  -9   1  841.35   33.39   0
  -5   9  -1  728.80   28.77   0
  -5   9  -1  655.65   28.29   0
   5  -9   1  716.01   28.30   0
   5  -9   1  712.13   28.32   0
   5  -9   1  668.09   28.63   0
  -6   9  -1   21.16    2.76   0
  -6   9  -1   27.07    3.44   0
   6  -9   1   26.54    3.30   0
   6  -9   1   21.04    2.81   0
   6  -9   1   24.04    2.93   0
  -7   9  -1   50.42    3.99   0
  -7   9  -1   57.21    4.77   0
   7  -9   1   56.18    4.44   0
   7  -9   1   62.38    4.48   0
   7  -9   1   59.67    4.37   0
   2   8  -1  313.06   13.77   0
   2   8  -1  337.11   14.37   0
  -2  -8   1  310.17   14.21   0
   1   8  -1  118.84    5.93   0
   1   8  -1  118.24    6.38   0
  -1  -8   1  117.18    6.43   0
   0   8  -1   23.77    2.81   0
   0   8  -1   24.26    2.39   0
   0  -8   1   23.84    2.91   0
  -1   8  -1  547.37   22.45   0
  -1   8  -1  564.20   22.70   0
   1  -8   1  559.62   22.85   0
   1  -8   1  543.00   21.84   0
   1  -8   1  536.71   21.83   0
  -2   8  -1  107.32    5.51   0
  -2   8  -1  116.15    5.83   0
   2  -8   1  117.00    6.03   0
   2  -8   1  117.06    5.22   0
   2  -8   1  115.16    5.21   0
  -3   8  -1    7.43    1.29   0
  -3   8  -1   10.30    1.69   0
   3  -8   1    9.61    1.45   0
   3  -8   1   11.39    1.45   0
   3  -8   1    9.58    1.77   0
   3  -8   1    9.61    0.98   0
  -4   8  -1  224.59    9.94   0
  -4   8  -1  203.24    9.54   0
   4  -8   1  222.52    9.59   0
   4  -8   1  221.92    9.94   0
   4  -8   1  218.82    9.52   0
  -5   8  -1  242.16   10.88   0
  -5   8  -1  253.97   11.23   0
   5  -8   1  256.99   10.97   0
   5  -8   1  241.45   10.93   0
   5  -8   1  254.97   11.17   0
  -6   8  -1    8.95    1.64   0
  -6   8  -1   14.95    2.07   0
   6  -8   1   14.04    1.92   0
   6  -8   1   15.36    2.37   0
   6  -8   1   10.38    1.71   0
  -7   8  -1    3.34    1.73   0
  -7   8  -1    2.87    1.36   0
   7  -8   1    0.00    1.26   0
   7  -8   1    2.98    1.41   0
   7  -8   1    5.39    1.45   0
  -8   8  -1  201.88    9.74   0
  -8   8  -1  185.53    9.13   0
   8  -8   1  201.83    9.60   0
   8  -8   1  191.77    8.74   0
   8  -8   1  178.13    9.47   0
   3   7  -1  427.00   18.21   0
   3   7  -1  424.43   17.81   0
  -3  -7   1  425.57   18.04   0
   2   7  -1  287.26   12.97   0
   2   7  -1  320.08   13.41   0
  -2  -7   1  314.37   13.39   0
   1   7  -1    1.81    1.09   0
   1   7  -1    1.08    0.84   0
  -1  -7   1    1.51    1.13   0
   0   7  -1   76.58    4.20   0
   0  -7   1   74.67    3.37   0
   0  -7   1   79.53    4.37   0
   0  -7   1   74.40    3.38   0
  -1   7  -1 1196.72   46.80   0
  -1   7  -1 1181.84   46.97   0
   1  -7   1 1226.28   47.15   0
   1  -7   1 1141.69   46.40   0
   1  -7   1 1172.60   46.45   0
  -2   7  -1   59.27    3.25   0
  -2   7  -1   61.94    3.50   0
   2  -7   1   64.11    3.10   0
   2  -7   1   55.88    3.07   0
   2  -7   1   60.98    2.60   0
  -3   7  -1   79.19    4.33   0
  -3   7  -1   82.64    4.17   0
   3  -7   1   82.20    4.46   0
   3  -7   1   85.80    4.09   0
   3  -7   1   85.68    4.17   0
  -4   7  -1  650.30   26.57   0
   4  -7   1  653.94   26.57   0
   4  -7   1  672.01   26.79   0
   4  -7   1  666.98   26.65   0
  -5   7  -1  697.62   28.15   0
  -5   7  -1  705.52   27.93   0
   5  -7   1  693.39   27.99   0
   5  -7   1  698.90   27.99   0
   5  -7   1  667.39   27.99   0
  -6   7  -1   74.92    4.46   0
  -6   7  -1   68.65    4.02   0
   6  -7   1   72.85    4.30   0
   6  -7   1   76.26    4.29   0
   6  -7   1   76.53    4.09   0
  -7   7  -1  188.60    8.97   0
  -7   7  -1  205.22    9.37   0
   7  -7   1  197.39    8.73   0
   7  -7   1  204.99    9.33   0
   7  -7   1  194.20    9.28   0
  -8   7  -1  414.09   17.51   0
  -8   7  -1  389.84   17.10   0
   8  -7   1  412.07   17.55   0
   8  -7   1  403.26   17.59   0
   4   6  -1    3.20    1.65   0
   4   6  -1    1.45    1.21   0
   4   6  -1    1.95    0.97   0
  -4  -6   1   -0.05    1.32   0
   3   6  -1  494.39   19.90   0
   3   6  -1  446.50   18.89   0
   3   6  -1  476.63   19.61   0
  -3  -6   1  496.06   19.81   0
   2   6  -1  857.71   34.51   0
   2   6  -1  847.01   34.30   0
  -2  -6   1  878.96   34.57   0
   1   6  -1    3.86    0.82   0
   1   6  -1    4.17    1.03   0
  -1  -6   1    4.84    0.68   0
  -1  -6   1    2.86    0.48   0
  -1  -6   1    5.15    1.18   0
   0   6  -1  203.05    8.75   0
   0  -6   1  206.01    8.90   0
   0  -6   1  197.52    8.27   0
   0  -6   1  199.70    8.25   0
  -1   6  -1 1761.53   69.81   0
  -1   6  -1 1804.89   69.97   0
   1  -6   1 1736.57   69.63   0
   1  -6   1 1795.60   69.60   0
   1  -6   1 1812.69   70.08   0
  -2   6  -1  498.65   20.08   0
  -2   6  -1  509.37   20.25   0
   2  -6   1  510.40   20.33   0
   2  -6   1  507.82   19.61   0
   2  -6   1  508.29   19.98   0
   2  -6   1  458.04   19.98   0
  -3   6  -1    5.16    0.88   0
  -3   6  -1    3.89    0.82   0
   3  -6   1    5.27    0.91   0
   3  -6   1    3.99    0.75   0
   3  -6   1    7.58    1.22   0
  -4   6  -1  173.47    7.96   0
  -4   6  -1  191.63    8.24   0
   4  -6   1  181.27    8.09   0
   4  -6   1  192.84    8.07   0
   4  -6   1  181.39    8.08   0
  -5   6  -1  611.10   24.76   0
  -5   6  -1  618.28   24.99   0
   5  -6   1  618.98   24.88   0
   5  -6   1  617.55   24.95   0
   5  -6   1  607.55   24.71   0
  -6   6  -1   34.11    2.50   0
  -6   6  -1   35.17    2.82   0
   6  -6   1   33.22    2.66   0
   6  -6   1   34.51    2.73   0
   6  -6   1   38.58    2.36   0
  -7   6  -1   15.51    2.48   0
  -7   6  -1   12.77    1.90   0
   7  -6   1   13.22    1.88   0
   7  -6   1   13.79    2.27   0
   7  -6   1   12.74    1.56   0
  -8   6  -1  707.34   27.60   0
  -8   6  -1  627.26   27.19   0
   8  -6   1  653.86   27.72   0
   8  -6   1  693.08   27.73   0
  -9   6  -1  195.41    9.55   0
  -9   6  -1  215.70    9.93   0
   9  -6   1  213.07   10.25   0
   5   5  -1   96.56    5.69   0
   5   5  -1   98.55    5.39   0
  -5  -5   1  101.38    5.04   0
   4   5  -1    2.25    1.16   0
   4   5  -1    3.87    1.11   0
  -4  -5   1    2.98    1.16   0
   3   5  -1  100.54    4.92   0
   3   5  -1  102.91    5.16   0
  -3  -5   1  104.47    5.07   0
   2   5  -1  221.97    9.31   0
   2   5  -1  209.59    9.14   0
   2   5  -1  211.08    8.64   0
  -2  -5   1  215.94    9.31   0
  -2  -5   1  215.08    8.65   0
  -2  -5   1  221.01    8.64   0
   1   5  -1  329.04   13.42   0
   1   5  -1  323.75   13.31   0
  -1  -5   1  322.66   13.48   0
  -1  -5   1  327.64   12.97   0
  -1  -5   1  323.20   12.99   0
   0   5  -1   33.02    1.97   0
   0   5  -1   28.85    1.80   0
   0  -5   1   28.27    1.61   0
   0  -5   1   29.86    1.61   0
   0  -5   1   26.06    2.01   0
  -1   5  -1  925.34   36.47   0
  -1   5  -1  932.97   36.35   0
   1  -5   1  939.88   36.55   0
   1  -5   1  928.43   36.23   0
   1  -5   1  889.97   36.26   0
   1  -5   1  917.36   35.86   0
  -2   5  -1  211.30    9.09   0
  -2   5  -1  218.97    9.00   0
   2  -5   1  218.35    9.15   0
   2  -5   1  221.08    8.96   0
   2  -5   1  209.74    9.00   0
  -3   5  -1  706.85   29.26   0
  -3   5  -1  756.68   29.45   0
   3  -5   1  745.26   29.37   0
   3  -5   1  757.04   29.39   0
   3  -5   1  726.37   29.29   0
  -4   5  -1   85.90    4.08   0
  -4   5  -1   75.79    3.82   0
   4  -5   1   78.91    3.85   0
   4  -5   1   74.94    3.94   0
   4  -5   1   84.48    3.95   0
  -5   5  -1 1147.44   43.02   0
  -5   5  -1 1023.12   42.74   0
   5  -5   1 1060.03   42.89   0
   5  -5   1 1086.15   42.98   0
   5  -5   1 1094.91   42.63   0
  -6   5  -1   25.07    2.32   0
   6  -5   1   23.85    2.22   0
   6  -5   1   27.28    1.75   0
   6  -5   1   27.44    2.29   0
  -7   5  -1    9.72    1.49   0
  -7   5  -1    7.96    1.22   0
   7  -5   1    5.79    1.19   0
   7  -5   1    5.32    1.17   0
  -8   5  -1  265.86   11.52   0
  -8   5  -1  250.37   11.24   0
   8  -5   1  270.06   11.84   0
   8  -5   1  253.42   11.84   0
  -9   5  -1  105.61    5.74   0
  -9   5  -1   97.81    5.40   0
   9  -5   1  101.74    6.21   0
   9  -5   1   97.28    6.31   0
   6   4  -1  124.68    6.57   0
   6   4  -1  127.35    6.81   0
   5   4  -1   47.55    3.22   0
   5   4  -1   49.30    3.49   0
  -5  -4   1   47.46    2.85   0
   4   4  -1  730.29   29.09   0
   4   4  -1  718.45   28.97   0
  -4  -4   1  704.16   28.19   0
  -4  -4   1  737.68   28.82   0
   3   4  -1  248.43   10.52   0
   3   4  -1  257.47   10.65   0
  -3  -4   1  246.02   10.05   0
  -3  -4   1  251.34   10.05   0
  -3  -4   1  253.03   10.53   0
   2   4  -1 2319.41   90.43   0
  -2  -4   1 2309.99   90.41   0
   1   4  -1   87.15    3.96   0
   1   4  -1   87.21    3.54   0
   1   4  -1   86.28    4.03   0
  -1  -4   1   88.27    3.78   0
  -1  -4   1   85.55    4.08   0
  -1  -4   1   91.18    3.78   0
   0   4  -1  336.57   13.66   0
   0   4  -1  348.18   13.75   0
   0  -4   1  328.12   13.52   0
   0  -4   1  335.02   13.57   0
   0  -4   1  350.19   13.82   0
  -1   4  -1 1879.64   79.94   0
   1  -4   1 1911.13   80.18   0
  -2   4  -1  914.83   36.73   0
  -2   4  -1  844.52   36.59   0
   2  -4   1  960.35   36.72   0
   2  -4   1  973.48   36.72   0
   2  -4   1  967.90   36.64   0
  -3   4  -1  184.80    7.52   0
  -3   4  -1  177.52    7.62   0
   3  -4   1  178.60    7.60   0
   3  -4   1  177.89    7.49   0
   3  -4   1  175.43    7.52   0
  -4   4  -1  375.16   14.71   0
  -4   4  -1  352.82   14.82   0
   4  -4   1  368.75   14.78   0
   4  -4   1  359.66   14.84   0
   4  -4   1  355.34   14.56   0
  -5   4  -1 1027.85   39.45   0
  -5   4  -1  967.81   39.25   0
   5  -4   1 1002.09   39.52   0
   5  -4   1  998.13   39.43   0
   5  -4   1  975.01   38.98   0
  -6   4  -1   82.49    3.90   0
  -6   4  -1   80.15    4.11   0
   6  -4   1   64.83    4.07   0
   6  -4   1   83.11    4.19   0
   6  -4   1   77.44    3.37   0
  -7   4  -1   19.37    1.84   0
  -7   4  -1   10.92    1.92   0
   7  -4   1   15.38    2.19   0
  -8   4  -1  269.49   11.55   0
  -8   4  -1  284.54   11.76   0
   8  -4   1  263.54   12.17   0
   8  -4   1  261.71   12.07   0
  -9   4  -1  213.26    9.53   0
  -9   4  -1  222.98    9.76   0
   9  -4   1  200.27   10.39   0
   9  -4   1  216.40   10.40   0
   6   3  -1  229.10   10.15   0
   6   3  -1  215.19    9.99   0
   5   3  -1  843.37   33.37   0
   5   3  -1  879.17   33.47   0
  -5  -3   1  830.15   32.65   0
  -5  -3   1  820.68   32.86   0
  -5  -3   1  791.48   32.60   0
   4   3  -1   75.41    3.93   0
   4   3  -1   83.57    4.07   0
  -4  -3   1   81.13    3.74   0
  -4  -3   1   75.88    3.47   0
  -4  -3   1   79.04    3.51   0
   3   3  -1   69.50    3.53   0
   3   3  -1   77.11    3.65   0
  -3  -3   1   75.66    3.48   0
  -3  -3   1   71.27    3.26   0
  -3  -3   1   74.40    3.29   0
   2   3  -1  561.54   21.95   0
   2   3  -1  545.16   21.88   0
  -2  -3   1  547.99   21.89   0
  -2  -3   1  548.98   21.73   0
  -2  -3   1  552.27   21.74   0
   1   3  -1  572.15   22.58   0
   1   3  -1  567.28   22.54   0
  -1  -3   1  573.33   22.44   0
  -1  -3   1  560.53   22.43   0
  -1  -3   1  578.40   22.61   0
   0   3  -1  751.69   29.16   0
   0   3  -1  753.64   29.21   0
   0  -3   1  741.06   29.13   0
   0  -3   1  723.95   29.09   0
  -1   3  -1  367.60   15.50   0
  -1   3  -1  391.03   15.58   0
   1  -3   1  403.95   15.51   0
   1  -3   1  401.44   15.56   0
  -2   3  -1   18.12    1.29   0
  -2   3  -1   23.37    1.28   0
   2  -3   1   23.57    1.30   0
   2  -3   1   24.47    1.37   0
  -3   3  -1    1.35    0.42   0
   3  -3   1    2.03    0.49   0
   3  -3   1    1.64    0.42   0
  -4   3  -1   90.65    3.97   0
  -4   3  -1   84.97    4.04   0
   4  -3   1   83.70    4.09   0
   4  -3   1   86.82    4.05   0
   4  -3   1   87.73    3.71   0
  -5   3  -1  450.20   18.60   0
  -5   3  -1  471.96   18.74   0
   5  -3   1  462.16   18.80   0
   5  -3   1  460.45   18.17   0
   5  -3   1  470.85   18.90   0
  -6   3  -1  304.32   13.15   0
  -6   3  -1  326.98   13.32   0
   6  -3   1  317.24   13.56   0
   6  -3   1  333.80   13.51   0
  -7   3  -1  227.09    9.61   0
  -7   3  -1  228.94    9.51   0
   7  -3   1  210.96    9.96   0
   7  -3   1  220.30    9.92   0
  -8   3  -1   46.50    3.18   0
  -8   3  -1   49.19    2.98   0
   8  -3   1   48.33    3.79   0
   8  -3   1   44.93    3.75   0
   7   2  -1    2.08    1.63   0
  -7  -2   1    2.35    0.60   0
   6   2  -1  149.27    7.03   0
   6   2  -1  152.69    7.10   0
  -6  -2   1  138.59    6.18   0
   5   2  -1   18.26    1.90   0
   5   2  -1   18.04    1.78   0
  -5  -2   1   17.21    1.29   0
  -5  -2   1   17.98    1.38   0
  -5  -2   1   20.11    1.27   0
   4   2  -1   82.64    4.02   0
   4   2  -1   78.19    3.95   0
  -4  -2   1   81.03    3.68   0
  -4  -2   1   84.26    3.65   0
  -4  -2   1   84.37    3.72   0
   3   2  -1    6.06    0.86   0
   3   2  -1    5.77    0.90   0
  -3  -2   1    7.01    0.77   0
  -3  -2   1    6.06    0.71   0
  -3  -2   1    7.45    0.78   0
   2   2  -1   12.43    0.92   0
   2   2  -1   11.07    0.93   0
  -2  -2   1   11.86    0.86   0
  -2  -2   1   13.00    0.89   0
  -2  -2   1   13.51    0.90   0
   1   2  -1  126.89    5.18   0
   1   2  -1  120.03    5.14   0
  -1  -2   1  126.42    5.11   0
   0   2  -1    6.56    0.55   0
   0   2  -1    4.23    0.46   0
   0  -2   1    5.11    0.49   0
   0  -2   1    4.97    0.47   0
  -1   2  -1  933.85   39.37   0
   1  -2   1  902.36   39.32   0
  -2   2  -1  825.99   32.40   0
   2  -2   1  826.16   32.41   0
  -3   2  -1  568.35   23.16   0
  -3   2  -1  638.15   23.28   0
   3  -2   1  599.32   23.23   0
   3  -2   1  543.62   23.26   0
  -4   2  -1  679.49   27.78   0
  -4   2  -1  726.33   27.89   0
   4  -2   1  709.97   27.93   0
   4  -2   1  713.24   28.01   0
   4  -2   1  692.90   27.42   0
  -5   2  -1 1870.94   75.14   0
  -5   2  -1 1973.84   75.25   0
   5  -2   1 2046.98   75.42   0
   5  -2   1 1805.41   75.41   0
  -6   2  -1  475.96   18.83   0
  -6   2  -1  457.06   18.73   0
   6  -2   1  489.39   19.14   0
   6  -2   1  442.78   19.14   0
  -7   2  -1  223.88    9.30   0
  -7   2  -1  211.36    9.17   0
   7  -2   1  212.15    9.81   0
   7  -2   1  220.98    9.76   0
  -8   2  -1   12.29    1.66   0
  -8   2  -1   10.65    1.83   0
   8  -2   1   10.11    1.79   0
   8  -2   1    8.88    1.74   0
   7   1  -1    6.61    1.55   0
   7   1  -1    7.44    1.58   0
  -7  -1   1    7.11    1.07   0
  -7  -1   1    6.02    0.94   0
   6   1  -1  133.40    6.57   0
   6   1  -1  148.14    6.64   0
  -6  -1   1  131.85    6.00   0
  -6  -1   1  142.13    6.11   0
   5   1  -1  103.94    4.91   0
   5   1  -1   99.26    4.89   0
  -5  -1   1   99.63    4.53   0
  -5  -1   1  104.54    4.60   0
   4   1  -1  682.27   27.45   0
   4   1  -1  684.68   27.45   0
  -4  -1   1  690.59   26.98   0
  -4  -1   1  690.98   27.26   0
  -4  -1   1  700.45   27.26   0
   3   1  -1  406.08   16.92   0
   3   1  -1  438.42   16.96   0
  -3  -1   1  411.54   16.82   0
  -3  -1   1  423.32   16.64   0
  -3  -1   1  436.64   16.84   0
   2   1  -1 1816.29   76.59   0
  -2  -1   1 1893.65   76.71   0
   1   1  -1   62.00    2.82   0
   1   1  -1   71.18    2.86   0
  -1  -1   1   68.71    2.84   0
  -1  -1   1   66.21    2.83   0
   0   1  -1 3422.80  134.87   0
  -1   1  -1   53.28    2.22   0
  -1   1  -1   51.95    2.24   0
   1  -1   1   54.02    2.22   0
   1  -1   1   51.35    2.24   0
  -3   1  -1    6.94    3.31   0
  -4   1  -1    0.78    0.42   0
   4  -1   1    0.19    0.42   0
   4  -1   1    1.04    0.47   0
  -5   1  -1  690.45   28.53   0
  -5   1  -1  743.47   28.61   0
   5  -1   1  753.58   28.88   0
   5  -1   1  707.79   28.90   0
  -6   1  -1  932.68   39.91   0
  -6   1  -1 1072.40   40.03   0
   6  -1   1 1029.62   40.51   0
   6  -1   1 1030.99   40.41   0
  -7   1  -1  305.64   12.76   0
  -7   1  -1  327.80   12.84   0
   7  -1   1  318.33   13.50   0
   7  -1   1  301.97   13.52   0
  -8   1  -1   52.97    2.99   0
  -8   1  -1   51.78    2.82   0
   8  -1   1   61.25    4.34   0
   8  -1   1   58.16    4.24   0
   8   0  -1  107.22    6.24   0
   8   0  -1  119.59    6.34   0
  -8   0   1  107.80    5.22   0
  -8   0   1  114.40    5.41   0
   7   0  -1  563.74   23.73   0
   7   0  -1  574.54   23.68   0
  -7   0   1  601.79   23.17   0
  -7   0   1  560.40   23.05   0
   6   0  -1  150.17    7.86   0
   6   0  -1  184.79    8.02   0
  -6   0   1  191.05    7.66   0
  -6   0   1  178.81    7.57   0
   5   0  -1 1027.05   42.34   0
   5   0  -1 1129.37   42.38   0
  -5   0   1 1026.98   42.07   0
  -5   0   1 1096.51   42.13   0
   4   0  -1 1564.58   63.35   0
   4   0  -1 1712.85   63.38   0
  -4   0   1 1628.74   63.21   0
  -4   0   1 1563.03   63.19   0
   3   0  -1  891.98   33.88   0
   3   0  -1  818.00   33.85   0
  -3   0   1  866.93   33.80   0
  -3   0   1  866.18   33.79   0
   2   0  -1  205.57    8.21   0
   2   0  -1  202.20    8.19   0
  -2   0   1  202.07    8.17   0
  -2   0   1  201.34    8.17   0
  -1   0  -1 1739.01   71.10   0
   1   0   1 1839.95   71.28   0
  -2   0  -1 1339.61   55.70   0
  -2   0  -1 1336.39   55.34   0
  -3   0  -1 2242.00   92.58   0
  -3   0  -1 2225.96   91.93   0
  -4   0  -1 1141.70   45.55   0
  -4   0  -1 1201.11   45.59   0
   4   0   1 1203.82   45.85   0
   4   0   1 1121.62   45.85   0
  -5   0  -1    5.75    0.73   0
  -5   0  -1    4.23    0.61   0
   5   0   1    3.81    0.85   0
   5   0   1    2.86    0.73   0
  -6   0  -1  277.39   11.42   0
  -6   0  -1  288.44   11.48   0
   6   0   1  293.24   12.13   0
   6   0   1  278.55   12.15   0
  -7   0  -1  219.15    8.76   0
  -7   0  -1  209.97    8.71   0
   7   0   1  218.89    9.77   0
   7   0   1  216.03    9.83   0
   8  -1  -1  240.35   11.55   0
   8  -1  -1  266.86   11.66   0
  -8   1   1  258.31   10.94   0
  -8   1   1  250.64   10.80   0
   7  -1  -1  353.70   15.41   0
   7  -1  -1  363.78   15.52   0
  -7   1   1  353.71   14.95   0
  -7   1   1  385.64   15.10   0
   6  -1  -1   15.47    1.78   0
  -6   1   1   15.53    1.54   0
  -6   1   1   13.74    1.43   0
   5  -1  -1   55.36    3.01   0
   5  -1  -1   50.54    3.00   0
  -5   1   1   54.28    2.80   0
  -5   1   1   58.59    2.90   0
   4  -1  -1  155.40    6.76   0
   4  -1  -1  151.07    6.71   0
  -4   1   1  167.47    6.70   0
  -4   1   1  152.43    6.62   0
   3  -1  -1  164.97    6.98   0
   3  -1  -1  161.87    6.94   0
  -3   1   1  168.16    6.94   0
  -3   1   1  172.97    6.93   0
  -3   1   1  166.43    6.63   0
   2  -1  -1  579.77   21.93   0
   2  -1  -1  534.68   21.92   0
  -2   1   1  563.20   21.93   0
  -2   1   1  541.59   21.78   0
  -2   1   1  566.51   21.91   0
  -1   1   1 1720.22   69.26   0
  -1  -1  -1  257.57   10.33   0
   1   1   1  253.65   10.12   0
   1   1   1  265.94   10.33   0
  -2  -1  -1  254.04   10.18   0
   2   1   1  262.48   10.13   0
   2   1   1  245.33   10.11   0
   2   1   1  256.23   10.18   0
   3   1   1  510.78   20.70   0
   3   1   1  535.07   20.71   0
  -4  -1  -1  519.79   21.13   0
   4   1   1  552.30   21.64   0
   4   1   1  553.20   21.66   0
   5   1   1   90.42    4.26   0
   5   1   1   80.56    4.19   0
   6   1   1  129.24    6.00   0
   6   1   1  115.11    5.89   0
   7   1   1   31.15    3.10   0
   7   1   1   28.43    3.06   0
   9  -2  -1   -1.77    1.61   0
   9  -2  -1    2.18    1.95   0
  -9   2   1   -1.66    1.06   0
  -9   2   1   -0.39    1.28   0
   8  -2  -1  186.97    8.85   0
   8  -2  -1  179.97    8.90   0
  -8   2   1  189.90    8.38   0
  -8   2   1  180.84    8.20   0
   7  -2  -1  275.20   10.96   0
   7  -2  -1  255.24   10.94   0
  -7   2   1  227.97   10.46   0
  -7   2   1  222.97   10.35   0
   6  -2  -1  122.25    5.92   0
   6  -2  -1  126.57    5.90   0
  -6   2   1  126.96    5.73   0
  -6   2   1  119.48    5.59   0
   5  -2  -1  713.62   27.81   0
   5  -2  -1  691.49   27.83   0
  -5   2   1  712.34   27.73   0
  -5   2   1  662.48   27.60   0
   4  -2  -1 1445.43   54.99   0
   4  -2  -1 1403.19   55.01   0
  -4   2   1 1330.98   54.86   0
  -4   2   1 1426.93   54.96   0
   3  -2  -1  554.65   22.82   0
   3  -2  -1  582.94   22.87   0
  -3   2   1  594.95   22.65   0
  -3   2   1  529.05   22.76   0
  -3   2   1  620.62   22.91   0
   2  -2  -1 1661.68   69.52   0
  -2   2   1 1660.89   69.34   0
  -1   2   1 5492.81  215.97   0
   0  -2  -1 2541.38   99.66   0
   0   2   1 2489.00   99.53   0
  -1  -2  -1 2833.58  109.53   0
   1   2   1 2676.05  109.17   0
  -2  -2  -1 1061.53   41.01   0
   2   2   1 1040.01   40.82   0
   2   2   1 1034.57   40.98   0
  -3  -2  -1 1645.85   65.21   0
   3   2   1 1693.90   65.22   0
   4   2   1   72.32    3.59   0
   4   2   1   77.16    3.67   0
   5   2   1    5.82    1.04   0
   5   2   1    4.31    0.94   0
   6   2   1  609.76   25.03   0
   6   2   1  619.40   25.03   0
   9  -3  -1    2.44    1.87   0
   9  -3  -1    2.34    1.74   0
  -9   3   1    0.95    1.16   0
  -9   3   1    2.06    1.49   0
   8  -3  -1  378.65   15.75   0
   8  -3  -1  350.77   15.72   0
  -8   3   1  347.01   15.15   0
  -8   3   1  375.55   15.35   0
   7  -3  -1  240.61   11.12   0
   7  -3  -1  262.25   11.16   0
  -7   3   1  243.64   10.75   0
  -7   3   1  264.04   10.96   0
   6  -3  -1   70.85    3.88   0
   6  -3  -1   69.38    3.84   0
  -6   3   1   73.89    3.67   0
  -6   3   1   69.53    3.77   0
   5  -3  -1  745.08   29.58   0
   5  -3  -1  743.91   29.63   0
  -5   3   1  761.75   29.58   0
  -5   3   1  712.86   29.42   0
   4  -3  -1 1201.87   54.49   0
   4  -3  -1 1427.39   54.57   0
   4  -3  -1 1472.99   54.33   0
  -4   3   1 1474.94   54.29   0
  -4   3   1 1372.81   54.47   0
   3  -3  -1 1866.85   72.83   0
   2  -3  -1  498.41   20.71   0
   2  -3  -1  490.21   20.85   0
   2  -3  -1  577.49   20.79   0
  -2   3   1  501.75   20.83   0
  -2   3   1  529.48   20.74   0
  -2   3   1  553.78   20.83   0
   1  -3  -1 3248.31  132.16   0
  -1   3   1 3341.79  131.84   0
   0  -3  -1 3618.89  143.23   0
   0   3   1 3584.83  143.07   0
  -1  -3  -1  200.35    8.32   0
   1   3   1  194.18    8.28   0
   1   3   1  199.66    8.03   0
   1   3   1  197.77    8.00   0
  -2  -3  -1  312.33   12.71   0
   2   3   1  314.59   12.47   0
   2   3   1  303.77   12.42   0
  -3  -3  -1  433.55   17.74   0
   3   3   1  435.05   17.59   0
   3   3   1  450.38   17.67   0
   4   3   1   97.74    4.60   0
   4   3   1   99.35    4.70   0
   5   3   1   31.76    2.46   0
   5   3   1   36.69    2.72   0
   6   3   1  121.16    6.16   0
   6   3   1  107.95    5.91   0
   9  -4  -1   18.30    2.62   0
   9  -4  -1   11.00    2.07   0
  -9   4   1   20.45    2.91   0
  -9   4   1   15.15    2.48   0
   8  -4  -1  143.86    7.14   0
   8  -4  -1  132.45    7.07   0
  -8   4   1  136.64    6.62   0
  -8   4   1  143.54    6.91   0
   7  -4  -1  165.90    7.54   0
   7  -4  -1  150.89    7.47   0
  -7   4   1  161.70    7.39   0
  -7   4   1  152.23    7.15   0
   6  -4  -1  419.17   18.31   0
   6  -4  -1  466.63   18.38   0
  -6   4   1  455.76   18.32   0
  -6   4   1  436.21   18.12   0
   5  -4  -1  899.69   36.30   0
   5  -4  -1  953.88   36.32   0
   5  -4  -1  891.73   35.94   0
  -5   4   1  906.56   36.16   0
   4  -4  -1 2043.05   78.18   0
   4  -4  -1 1947.83   78.18   0
   4  -4  -1 2030.56   78.10   0
  -4   4   1 2108.65   78.29   0
  -4   4   1 1857.36   78.06   0
  -4   4   1 2004.27   78.02   0
   3  -4  -1 1104.02   44.01   0
   3  -4  -1 1099.32   44.11   0
   3  -4  -1 1139.98   44.01   0
  -3   4   1 1126.17   44.12   0
  -3   4   1 1127.74   44.07   0
  -3   4   1 1127.70   43.99   0
   2  -4  -1   24.68    1.39   0
   2  -4  -1   28.05    1.43   0
   2  -4  -1   23.33    1.40   0
  -2   4   1   25.23    1.44   0
  -2   4   1   24.60    1.53   0
  -2   4   1   24.69    1.65   0
   1  -4  -1  894.46   33.57   0
   1  -4  -1  881.53   33.64   0
   1  -4  -1  884.99   34.12   0
   1  -4  -1  873.07   33.56   0
  -1   4   1  786.87   33.99   0
  -1   4   1  851.53   33.81   0
  -1   4   1  849.41   33.71   0
   0  -4  -1   51.70    2.79   0
   0   4   1   50.05    2.36   0
   0   4   1   51.93    2.75   0
   0   4   1   52.22    2.48   0
   0   4   1   48.95    2.33   0
  -1  -4  -1  164.35    6.97   0
   1   4   1  155.31    6.51   0
   1   4   1  151.93    6.58   0
  -2  -4  -1   88.84    4.39   0
   2   4   1   91.72    4.02   0
   2   4   1   84.79    4.00   0
   2   4   1   92.37    4.12   0
  -3  -4  -1  209.50    9.14   0
   3   4   1  220.27    9.03   0
   3   4   1  206.89    8.88   0
   4   4   1   85.81    4.38   0
   4   4   1   82.97    4.22   0
   5   4   1   51.61    3.39   0
   5   4   1   52.96    3.66   0
   9  -5  -1  124.92    6.99   0
   9  -5  -1  117.92    6.93   0
  -9   5   1  127.25    6.69   0
  -9   5   1  110.17    6.20   0
   8  -5  -1  560.90   24.54   0
   8  -5  -1  639.38   24.71   0
  -8   5   1  609.22   24.46   0
  -8   5   1  557.86   24.13   0
   7  -5  -1  887.52   34.73   0
   7  -5  -1  807.90   34.66   0
  -7   5   1  863.56   34.45   0
  -7   5   1  881.05   34.68   0
   6  -5  -1  596.45   25.13   0
  -6   5   1  657.06   25.30   0
  -6   5   1  606.91   24.99   0
   5  -5  -1   94.86    4.92   0
   5  -5  -1  105.00    5.01   0
   5  -5  -1  110.82    4.90   0
  -5   5   1  104.31    5.11   0
  -5   5   1  103.81    4.89   0
   4  -5  -1  876.14   34.41   0
   4  -5  -1  862.70   34.33   0
   4  -5  -1  854.92   34.29   0
  -4   5   1  844.97   34.26   0
  -4   5   1  888.42   34.47   0
   3  -5  -1 1280.64   50.58   0
   3  -5  -1 1275.85   50.87   0
   3  -5  -1 1262.55   50.60   0
  -3   5   1 1347.20   50.81   0
  -3   5   1 1326.09   50.64   0
  -3   5   1 1248.85   50.76   0
   2  -5  -1 1109.36   42.54   0
   2  -5  -1 1067.80   42.02   0
   2  -5  -1 1102.51   42.02   0
   2  -5  -1 1041.61   41.98   0
  -2   5   1 1036.50   42.11   0
  -2   5   1 1081.02   42.43   0
  -2   5   1 1073.51   42.28   0
   1  -5  -1  432.82   17.21   0
   1  -5  -1  444.17   17.36   0
   1  -5  -1  458.05   18.05   0
   1  -5  -1  439.25   17.21   0
  -1   5   1  426.35   17.66   0
  -1   5   1  448.50   17.95   0
  -1   5   1  430.99   17.54   0
   0  -5  -1  254.62   10.35   0
   0   5   1  237.22    9.67   0
   0   5   1  230.17    9.78   0
   0   5   1  237.23    9.92   0
  -1  -5  -1  422.69   17.32   0
   1   5   1  418.94   16.72   0
   1   5   1  425.43   16.96   0
   1   5   1  411.37   16.82   0
  -2  -5  -1    4.34    1.18   0
   2   5   1    5.72    0.96   0
   2   5   1    3.58    0.79   0
   2   5   1    4.98    0.80   0
  -3  -5  -1  256.66   10.96   0
   3   5   1  265.27   10.84   0
   3   5   1  236.67   10.50   0
   3   5   1  251.52   10.60   0
   4   5   1   91.89    4.63   0
   4   5   1   84.17    4.50   0
   4   5   1   87.96    4.82   0
   9  -6  -1   88.97    5.84   0
   9  -6  -1   88.63    5.76   0
  -9   6   1   79.04    5.10   0
  -9   6   1   90.66    5.66   0
   8  -6  -1  144.87    7.50   0
   8  -6  -1  139.02    7.44   0
  -8   6   1  146.43    7.14   0
  -8   6   1  154.19    7.54   0
   7  -6  -1  237.10   11.07   0
   7  -6  -1  255.21   11.16   0
  -7   6   1  255.56   11.25   0
  -7   6   1  251.71   10.92   0
   6  -6  -1  856.72   33.31   0
   6  -6  -1  822.44   33.29   0
   6  -6  -1  846.88   33.07   0
  -6   6   1  840.91   33.40   0
  -6   6   1  772.69   33.08   0
   5  -6  -1   92.80    4.62   0
   5  -6  -1   97.86    4.71   0
   5  -6  -1   91.05    4.63   0
  -5   6   1   82.96    4.49   0
  -5   6   1   98.00    4.84   0
   4  -6  -1   20.03    1.73   0
   4  -6  -1   22.01    1.74   0
   4  -6  -1   21.86    2.03   0
  -4   6   1   21.92    1.99   0
  -4   6   1   21.65    1.74   0
   3  -6  -1  163.93    7.43   0
   3  -6  -1  161.96    6.93   0
   3  -6  -1  155.49    6.82   0
   3  -6  -1  166.94    6.92   0
  -3   6   1  157.46    6.98   0
  -3   6   1  167.08    7.24   0
   2  -6  -1  243.25    9.97   0
   2  -6  -1  253.95   10.00   0
   2  -6  -1  243.79    9.97   0
   2  -6  -1  248.80   10.74   0
  -2   6   1  250.76   10.43   0
  -2   6   1  241.19   10.22   0
   1  -6  -1    5.70    1.28   0
  -1   6   1    4.10    0.73   0
  -1   6   1    6.32    0.94   0
   0  -6  -1    5.57    1.27   0
   0   6   1    4.87    0.80   0
   0   6   1    6.23    1.02   0
  -1  -6  -1  279.89   12.21   0
   1   6   1  282.39   11.85   0
   1   6   1  289.53   11.68   0
   1   6   1  274.33   11.39   0
  -2  -6  -1   44.73    3.35   0
   2   6   1   50.34    3.15   0
   2   6   1   49.94    2.81   0
   2   6   1   46.19    2.61   0
  -3  -6  -1   63.43    4.14   0
   3   6   1   63.71    3.62   0
   3   6   1   60.43    3.46   0
   3   6   1   64.22    3.99   0
   9  -7  -1    0.75    1.68   0
  -9   7   1    0.05    1.31   0
   8  -7  -1   83.26    5.23   0
   8  -7  -1   84.38    5.25   0
  -8   7   1   75.57    4.76   0
  -8   7   1   87.00    5.53   0
   7  -7  -1   19.93    2.58   0
   7  -7  -1   22.62    2.65   0
  -7   7   1   21.23    2.37   0
  -7   7   1   23.76    2.95   0
   6  -7  -1  440.87   18.34   0
   6  -7  -1  433.65   18.31   0
   6  -7  -1  432.80   18.33   0
  -6   7   1  433.78   18.23   0
  -6   7   1  464.63   18.62   0
   5  -7  -1   20.55    2.32   0
   5  -7  -1   25.26    2.09   0
   5  -7  -1   23.83    2.09   0
  -5   7   1   21.42    2.01   0
  -5   7   1   26.05    2.49   0
   4  -7  -1   19.66    1.62   0
   4  -7  -1   17.60    1.70   0
   4  -7  -1   18.62    1.67   0
   4  -7  -1   16.02    2.12   0
  -4   7   1   19.48    2.13   0
  -4   7   1   17.32    1.73   0
   3  -7  -1    6.22    1.49   0
   3  -7  -1    6.59    0.85   0
   3  -7  -1    5.74    0.82   0
   3  -7  -1    6.34    0.83   0
  -3   7   1    6.97    1.04   0
  -3   7   1    6.31    1.19   0
   2  -7  -1  359.70   14.55   0
   2  -7  -1  358.88   14.43   0
   2  -7  -1  369.60   14.45   0
   2  -7  -1  369.37   15.57   0
  -2   7   1  369.70   14.97   0
  -2   7   1  364.50   15.20   0
   1  -7  -1   51.02    3.56   0
  -1   7   1   49.73    2.85   0
  -1   7   1   52.31    3.13   0
   0  -7  -1  335.22   14.24   0
   0   7   1  320.97   13.81   0
  -1  -7  -1  173.92    8.30   0
   1   7   1  169.71    7.61   0
   1   7   1  171.07    7.91   0
  -2  -7  -1    3.09    1.81   0
   2   7   1    2.82    1.14   0
   2   7   1   -0.92    1.37   0
   8  -8  -1   38.92    3.90   0
   8  -8  -1   35.11    3.76   0
  -8   8   1   42.72    4.29   0
  -8   8   1   29.68    3.32   0
   7  -8  -1  193.66    9.45   0
   7  -8  -1  207.48    9.52   0
   7  -8  -1  213.34    9.50   0
  -7   8   1  199.75    9.36   0
  -7   8   1  205.30    9.85   0
   6  -8  -1  518.65   20.95   0
   6  -8  -1  502.62   20.94   0
   6  -8  -1  502.94   21.17   0
  -6   8   1  494.32   20.92   0
  -6   8   1  515.94   21.33   0
   5  -8  -1  169.12    7.38   0
   5  -8  -1  163.59    7.49   0
   5  -8  -1  166.42    8.08   0
   5  -8  -1  162.96    7.51   0
  -5   8   1  160.07    7.60   0
  -5   8   1  171.25    8.07   0
   4  -8  -1   18.80    1.66   0
   4  -8  -1   17.51    1.76   0
   4  -8  -1   20.49    2.64   0
   4  -8  -1   19.84    1.80   0
  -4   8   1   18.86    2.03   0
  -4   8   1   18.94    2.47   0
   3  -8  -1  646.53   25.83   0
   3  -8  -1  629.85   24.66   0
   3  -8  -1  620.41   24.65   0
   3  -8  -1  609.47   24.64   0
  -3   8   1  576.21   25.09   0
  -3   8   1  656.58   25.53   0
   2  -8  -1  513.17   20.95   0
  -2   8   1  467.86   20.15   0
  -2   8   1  507.02   20.52   0
   1  -8  -1   38.14    3.55   0
  -1   8   1   39.07    2.69   0
  -1   8   1   39.37    3.12   0
   0  -8  -1   89.69    5.44   0
   0   8   1   86.60    4.95   0
   0   8   1   84.52    4.54   0
  -1  -8  -1  344.25   14.94   0
   1   8   1  338.41   14.61   0
   1   8   1  323.73   14.15   0
   7  -9  -1    2.04    1.52   0
   7  -9  -1    4.53    2.10   0
   7  -9  -1    2.75    1.54   0
  -7   9   1    3.39    1.90   0
  -7   9   1    2.07    1.41   0
   6  -9  -1  382.24   15.97   0
   6  -9  -1  392.01   15.80   0
   6  -9  -1  378.89   16.55   0
   6  -9  -1  358.11   15.88   0
  -6   9   1  410.05   16.70   0
  -6   9   1  345.35   16.01   0
   5  -9  -1  136.50    6.32   0
   5  -9  -1  135.10    6.19   0
   5  -9  -1  137.24    7.35   0
   5  -9  -1  128.02    6.26   0
  -5   9   1  141.58    7.24   0
  -5   9   1  129.53    6.63   0
   4  -9  -1    0.35    0.75   0
   4  -9  -1    0.37    0.83   0
   4  -9  -1    0.20    0.72   0
   4  -9  -1    2.09    1.65   0
  -4   9   1    1.13    1.43   0
  -4   9   1   -0.40    0.99   0
   3  -9  -1  129.19    7.08   0
  -3   9   1  128.48    6.68   0
  -3   9   1  121.10    6.14   0
   2  -9  -1  329.60   14.54   0
  -2   9   1  327.74   14.14   0
  -2   9   1  308.22   13.66   0
   1  -9  -1    3.38    2.03   0
  -1   9   1    4.48    1.66   0
  -2  10  -2  156.94    8.33   0
   2 -10   2  164.04    8.42   0
   2 -10   2  160.24    7.06   0
   2 -10   2  150.67    6.99   0
  -3  10  -2  189.93    9.50   0
  -3  10  -2  209.57    9.96   0
   3 -10   2  194.24    9.90   0
   3 -10   2  209.76    9.03   0
   3 -10   2  208.31    9.03   0
  -4  10  -2  235.89   11.06   0
  -4  10  -2  222.82   10.57   0
   4 -10   2  223.56    9.29   0
   4 -10   2  240.52   10.33   0
   4 -10   2  221.71   10.21   0
   4 -10   2  240.14   11.10   0
  -5  10  -2   56.16    4.82   0
  -5  10  -2   50.26    4.16   0
   5 -10   2   56.93    3.99   0
   5 -10   2   52.53    4.63   0
   5 -10   2   52.54    3.06   0
   5 -10   2   55.48    3.92   0
  -6  10  -2  407.03   17.09   0
  -6  10  -2  336.03   16.44   0
   6 -10   2  389.88   16.58   0
   6 -10   2  391.06   16.62   0
   6 -10   2  387.84   16.89   0
   0   9  -2  192.40    9.25   0
   0   9  -2  178.16    8.68   0
   0  -9   2  186.06    7.63   0
   0  -9   2  182.50    9.08   0
   0  -9   2  185.89    7.62   0
  -1   9  -2  502.67   21.02   0
  -1   9  -2  484.73   20.68   0
   1  -9   2  508.12   20.03   0
   1  -9   2  506.26   21.08   0
   1  -9   2  491.37   20.03   0
  -2   9  -2    3.49    1.22   0
  -2   9  -2    2.55    1.30   0
   2  -9   2    3.07    1.72   0
   2  -9   2    2.78    0.89   0
   2  -9   2    3.12    0.94   0
  -3   9  -2  141.28    7.14   0
  -3   9  -2  152.62    7.53   0
   3  -9   2  147.07    6.91   0
   3  -9   2  149.04    7.54   0
   3  -9   2  157.05    6.93   0
  -4   9  -2  310.46   13.58   0
  -4   9  -2  295.67   13.23   0
   4  -9   2  302.68   12.39   0
   4  -9   2  323.95   13.15   0
   4  -9   2  306.58   13.58   0
   4  -9   2  296.34   13.10   0
  -5   9  -2   95.44    5.49   0
  -5   9  -2   93.03    5.10   0
   5  -9   2   85.83    5.30   0
   5  -9   2   92.37    5.02   0
   5  -9   2   82.12    4.99   0
  -6   9  -2  107.40    6.15   0
  -6   9  -2  103.07    5.69   0
   6  -9   2   96.94    5.74   0
   6  -9   2  105.70    5.76   0
   6  -9   2  102.58    5.87   0
  -7   9  -2   62.21    4.40   0
  -7   9  -2   56.36    4.89   0
   7  -9   2   61.27    4.43   0
   7  -9   2   57.27    4.64   0
   7  -9   2   60.78    4.54   0
   2   8  -2  113.75    6.16   0
   2   8  -2  127.60    6.91   0
  -2  -8   2  121.54    6.64   0
   1   8  -2  156.63    7.35   0
   1   8  -2  166.85    7.80   0
  -1  -8   2  147.08    6.33   0
  -1  -8   2  149.75    6.35   0
  -1  -8   2  152.91    7.63   0
   0   8  -2  211.29    9.38   0
   0   8  -2  196.88    9.00   0
   0  -8   2  201.46    9.30   0
   0  -8   2  193.75    8.36   0
   0  -8   2  197.09    8.35   0
  -1   8  -2  222.50    9.73   0
   1  -8   2  208.75    9.71   0
   1  -8   2  216.06    9.02   0
   1  -8   2  205.92    9.02   0
  -2   8  -2    0.49    0.71   0
  -2   8  -2    3.52    1.17   0
   2  -8   2    0.97    0.70   0
   2  -8   2    1.47    0.73   0
   2  -8   2   -0.01    1.09   0
  -3   8  -2  272.11   11.77   0
  -3   8  -2  282.19   12.02   0
   3  -8   2  268.70   10.97   0
   3  -8   2  271.79   11.58   0
   3  -8   2  284.69   12.05   0
   3  -8   2  264.20   11.64   0
  -4   8  -2  254.04   10.72   0
  -4   8  -2  243.55   10.92   0
   4  -8   2  237.62   10.57   0
   4  -8   2  237.60   10.67   0
   4  -8   2  250.43   10.89   0
  -5   8  -2   37.01    3.07   0
  -5   8  -2   35.89    2.75   0
   5  -8   2   31.19    2.91   0
   5  -8   2   35.07    2.85   0
   5  -8   2   34.46    2.77   0
  -6   8  -2  266.31   12.07   0
  -6   8  -2  290.42   12.51   0
   6  -8   2  279.40   12.25   0
   6  -8   2  277.59   12.32   0
   6  -8   2  275.48   12.12   0
  -7   8  -2  241.18   10.92   0
  -7   8  -2  224.98   10.47   0
   7  -8   2  221.42   10.74   0
   7  -8   2  234.60   10.32   0
   7  -8   2  236.92   10.76   0
  -8   8  -2   74.88    4.92   0
  -8   8  -2   81.01    5.62   0
   8  -8   2   80.06    5.53   0
   8  -8   2   79.07    4.54   0
   8  -8   2   82.03    5.37   0
   3   7  -2  490.62   20.73   0
   3   7  -2  504.44   21.13   0
  -3  -7   2  506.05   20.89   0
   2   7  -2   56.31    3.55   0
   2   7  -2   69.41    4.18   0
  -2  -7   2   57.33    2.68   0
  -2  -7   2   56.25    2.66   0
  -2  -7   2   62.31    3.91   0
   1   7  -2  231.61   10.38   0
   1   7  -2  243.28   10.68   0
  -1  -7   2  249.40   10.68   0
  -1  -7   2  237.82    9.86   0
  -1  -7   2  239.85    9.82   0
   0   7  -2  827.71   35.23   0
   0   7  -2  918.54   35.51   0
   0  -7   2  904.34   35.50   0
   0  -7   2  897.86   34.87   0
   0  -7   2  871.77   34.90   0
  -1   7  -2  499.49   19.58   0
  -1   7  -2  451.47   19.33   0
   1  -7   2  484.11   19.10   0
   1  -7   2  467.33   19.13   0
   1  -7   2  469.12   19.55   0
  -2   7  -2  123.00    5.51   0
  -2   7  -2   99.08    5.14   0
   2  -7   2  109.79    5.13   0
   2  -7   2  104.28    4.43   0
   2  -7   2  109.44    5.43   0
   2  -7   2  114.24    5.08   0
  -3   7  -2  749.15   30.32   0
  -3   7  -2  732.42   30.46   0
   3  -7   2  767.27   30.25   0
   3  -7   2  765.46   30.49   0
   3  -7   2  772.75   30.36   0
  -4   7  -2  869.06   36.68   0
  -4   7  -2  955.05   36.98   0
   4  -7   2  932.07   36.73   0
   4  -7   2  923.21   36.83   0
   4  -7   2  927.91   36.82   0
  -5   7  -2  123.49    6.05   0
  -5   7  -2  136.09    6.38   0
   5  -7   2  132.40    6.28   0
   5  -7   2  128.56    6.15   0
   5  -7   2  119.61    6.05   0
  -6   7  -2  157.97    7.56   0
  -6   7  -2  173.22    7.92   0
   6  -7   2  176.67    7.83   0
   6  -7   2  160.20    7.82   0
   6  -7   2  154.08    7.40   0
  -7   7  -2  250.11   11.02   0
  -7   7  -2  224.71   10.60   0
   7  -7   2  246.26   11.00   0
   7  -7   2  239.17   10.36   0
   7  -7   2  246.66   11.08   0
  -8   7  -2  363.07   15.25   0
  -8   7  -2  317.99   14.77   0
   8  -7   2  353.67   15.30   0
   8  -7   2  339.94   14.19   0
   8  -7   2  355.12   15.43   0
   4   6  -2  234.99   10.71   0
   4   6  -2  250.33   11.11   0
   4   6  -2  226.43    9.75   0
  -4  -6   2  252.76   10.70   0
   3   6  -2  718.76   28.49   0
   3   6  -2  719.42   28.25   0
  -3  -6   2  682.15   27.39   0
  -3  -6   2  692.43   28.23   0
  -3  -6   2  682.43   27.42   0
   2   6  -2   50.14    3.12   0
   2   6  -2   59.36    3.50   0
  -2  -6   2   49.65    3.30   0
  -2  -6   2   50.86    2.66   0
  -2  -6   2   63.67    2.69   0
   1   6  -2    6.88    1.10   0
   1   6  -2    3.51    0.96   0
  -1  -6   2    6.25    0.81   0
  -1  -6   2    5.81    1.13   0
  -1  -6   2    5.73    0.92   0
   0   6  -2   99.40    4.84   0
   0   6  -2  104.97    5.02   0
   0  -6   2  102.22    5.03   0
   0  -6   2  105.43    4.62   0
   0  -6   2  103.25    4.66   0
  -1   6  -2 1370.06   55.25   0
  -1   6  -2 1475.49   55.44   0
   1  -6   2 1312.82   55.11   0
   1  -6   2 1448.64   55.11   0
   1  -6   2 1419.32   55.41   0
  -2   6  -2  127.20    5.79   0
  -2   6  -2  130.74    5.95   0
   2  -6   2  125.24    5.90   0
   2  -6   2  126.62    5.78   0
   2  -6   2  132.61    5.73   0
  -3   6  -2  355.26   14.00   0
  -3   6  -2  316.28   13.75   0
   3  -6   2  313.02   13.80   0
   3  -6   2  349.82   13.79   0
   3  -6   2  337.02   13.88   0
  -4   6  -2  600.57   25.12   0
  -4   6  -2  637.69   25.35   0
   4  -6   2  625.09   25.16   0
   4  -6   2  613.29   25.27   0
   4  -6   2  653.82   25.22   0
  -5   6  -2 1278.02   49.40   0
  -5   6  -2 1118.21   49.09   0
   5  -6   2 1351.44   49.34   0
   5  -6   2 1229.62   49.07   0
  -6   6  -2    0.00    0.69   0
  -6   6  -2    0.64    1.03   0
   6  -6   2    1.25    1.01   0
   6  -6   2    0.67    0.89   0
   6  -6   2    2.95    0.90   0
  -7   6  -2  487.63   19.66   0
  -7   6  -2  466.26   19.37   0
   7  -6   2  468.89   18.90   0
   7  -6   2  444.83   19.70   0
   7  -6   2  480.56   19.70   0
  -8   6  -2  141.68    7.06   0
  -8   6  -2  147.64    7.40   0
   8  -6   2  154.83    7.62   0
   8  -6   2  146.06    7.68   0
   5   5  -2   -1.23    1.35   0
   5   5  -2    0.10    1.22   0
  -5  -5   2    0.28    1.10   0
   4   5  -2   41.20    3.21   0
   4   5  -2   39.92    2.90   0
  -4  -5   2   38.81    2.05   0
  -4  -5   2   41.47    2.79   0
  -4  -5   2   38.61    2.04   0
   3   5  -2  129.28    6.18   0
   3   5  -2  131.31    6.00   0
  -3  -5   2  129.95    5.98   0
  -3  -5   2  126.30    5.47   0
  -3  -5   2  124.97    5.48   0
   2   5  -2 1368.28   55.61   0
   2   5  -2 1445.54   55.79   0
  -2  -5   2 1414.65   55.30   0
  -2  -5   2 1465.04   55.70   0
  -2  -5   2 1377.08   55.31   0
   1   5  -2    3.51    0.74   0
   1   5  -2    4.62    0.92   0
  -1  -5   2    3.88    0.86   0
  -1  -5   2    6.34    0.91   0
  -1  -5   2    3.69    0.64   0
   0   5  -2 2181.06   86.14   0
   0  -5   2 2224.07   86.14   0
  -1   5  -2  931.71   37.27   0
  -1   5  -2  932.05   37.36   0
   1  -5   2  967.73   37.17   0
   1  -5   2  945.87   37.24   0
  -2   5  -2  342.05   14.05   0
  -2   5  -2  342.04   14.15   0
   2  -5   2  334.47   14.08   0
   2  -5   2  362.48   14.04   0
  -3   5  -2  543.05   21.10   0
  -3   5  -2  501.82   20.92   0
   3  -5   2  518.23   20.94   0
   3  -5   2  529.57   20.96   0
   3  -5   2  517.92   21.04   0
  -4   5  -2 1416.05   55.59   0
  -4   5  -2 1345.82   55.41   0
   4  -5   2 1396.47   55.36   0
   4  -5   2 1483.01   55.52   0
   4  -5   2 1413.13   55.60   0
  -5   5  -2  117.51    5.63   0
  -5   5  -2  122.04    5.82   0
   5  -5   2  140.86    5.86   0
   5  -5   2  113.60    5.79   0
   5  -5   2  123.45    5.47   0
  -6   5  -2  101.20    4.88   0
  -6   5  -2  103.94    5.11   0
   6  -5   2  106.03    5.13   0
   6  -5   2  100.49    4.51   0
   6  -5   2   91.12    5.10   0
  -7   5  -2  261.36   11.37   0
  -7   5  -2  274.43   11.58   0
   7  -5   2  260.98   10.69   0
   7  -5   2  281.19   11.78   0
   7  -5   2  252.26   11.77   0
  -8   5  -2  129.39    6.22   0
  -8   5  -2  118.69    5.91   0
   8  -5   2  123.61    6.58   0
   8  -5   2  113.03    6.54   0
   6   4  -2  249.75   11.27   0
   6   4  -2  241.55   11.07   0
  -6  -4   2  246.08    9.78   0
  -6  -4   2  243.74   10.22   0
  -6  -4   2  238.67    9.76   0
   5   4  -2  617.81   25.04   0
   5   4  -2  610.08   25.15   0
  -5  -4   2  623.59   24.58   0
  -5  -4   2  618.72   24.28   0
  -5  -4   2  597.73   24.25   0
   4   4  -2   44.47    2.82   0
   4   4  -2   46.77    2.97   0
  -4  -4   2   43.39    2.29   0
  -4  -4   2   39.29    2.56   0
  -4  -4   2   42.23    2.30   0
   3   4  -2 1938.39   79.69   0
   3   4  -2 2094.38   79.85   0
  -3  -4   2 2002.08   79.42   0
  -3  -4   2 2042.56   79.43   0
  -3  -4   2 2101.23   79.63   0
   2   4  -2  667.53   26.33   0
   2   4  -2  649.04   26.21   0
  -2  -4   2  674.16   26.05   0
  -2  -4   2  665.91   26.20   0
  -2  -4   2  634.70   26.02   0
   1   4  -2   60.37    3.04   0
   1   4  -2   63.06    3.12   0
  -1  -4   2   62.41    2.93   0
  -1  -4   2   63.64    2.94   0
   0   4  -2 1395.25   54.32   0
   0  -4   2 1375.52   54.20   0
  -1   4  -2 2529.35  105.89   0
   1  -4   2 2561.25  105.95   0
  -2   4  -2  534.82   21.35   0
  -2   4  -2  518.59   21.25   0
   2  -4   2  555.80   21.26   0
   2  -4   2  528.12   21.33   0
  -3   4  -2  217.80    8.76   0
  -3   4  -2  208.56    8.63   0
   3  -4   2  182.06    8.65   0
   3  -4   2  218.60    8.67   0
  -4   4  -2  579.26   22.81   0
  -4   4  -2  550.81   22.67   0
   4  -4   2  601.30   22.78   0
   4  -4   2  540.55   22.81   0
  -5   4  -2   60.85    3.15   0
   5  -4   2   63.12    3.31   0
   5  -4   2   62.26    2.89   0
   5  -4   2   58.78    3.36   0
  -6   4  -2   81.45    4.13   0
  -6   4  -2   84.94    4.30   0
   6  -4   2   87.21    4.53   0
   6  -4   2   83.97    3.62   0
  -7   4  -2   83.60    4.62   0
  -7   4  -2   90.04    4.52   0
   7  -4   2   97.56    5.12   0
   7  -4   2   93.19    4.97   0
  -8   4  -2  133.60    6.52   0
  -8   4  -2  131.79    6.38   0
   8  -4   2  150.53    7.23   0
   8  -4   2  135.56    7.17   0
   7   3  -2   60.38    4.70   0
   7   3  -2   60.45    4.51   0
  -7  -3   2   55.98    2.87   0
  -7  -3   2   59.23    2.96   0
   6   3  -2  371.67   15.55   0
   6   3  -2  379.04   15.64   0
  -6  -3   2  349.41   14.60   0
  -6  -3   2  355.26   14.68   0
   5   3  -2  215.98    9.44   0
   5   3  -2  211.44    9.35   0
  -5  -3   2  210.58    8.81   0
  -5  -3   2  207.87    8.82   0
   4   3  -2  104.78    5.11   0
   4   3  -2  111.36    5.21   0
  -4  -3   2  109.94    4.79   0
  -4  -3   2  103.66    4.77   0
   3   3  -2  391.10   16.33   0
   3   3  -2  409.83   16.42   0
  -3  -3   2  399.01   16.16   0
  -3  -3   2  410.95   16.17   0
   2   3  -2  239.54    9.92   0
   2   3  -2  239.66    9.96   0
  -2  -3   2  242.08    9.81   0
   1   3  -2   19.96    1.33   0
   1   3  -2   17.88    1.23   0
  -1  -3   2   23.05    1.29   0
  -1  -3   2   18.46    1.21   0
   0   3  -2  217.86    9.06   0
   0   3  -2  219.72    9.02   0
   0  -3   2  216.08    9.00   0
   0  -3   2  230.94    9.00   0
  -1   3  -2   54.10    2.57   0
   1  -3   2   57.04    2.52   0
   1  -3   2   50.58    2.52   0
  -2   3  -2   54.01    2.59   0
  -2   3  -2   51.90    2.52   0
   2  -3   2   59.64    2.56   0
   2  -3   2   49.29    2.57   0
  -3   3  -2  302.52   12.02   0
  -3   3  -2  296.97   11.93   0
   3  -3   2  302.77   11.97   0
   3  -3   2  276.32   12.01   0
  -4   3  -2  270.24   10.96   0
  -4   3  -2  274.25   10.89   0
   4  -3   2  257.92   10.94   0
   4  -3   2  259.13   11.05   0
  -5   3  -2   31.52    2.04   0
  -5   3  -2   38.39    2.23   0
   5  -3   2   34.52    1.66   0
   5  -3   2   36.85    2.28   0
   5  -3   2   34.88    2.33   0
  -6   3  -2  427.75   17.13   0
  -6   3  -2  403.85   17.01   0
   6  -3   2  429.48   17.37   0
   6  -3   2  421.11   17.47   0
  -7   3  -2  358.44   14.97   0
  -7   3  -2  373.09   15.08   0
   7  -3   2  355.69   15.58   0
   7  -3   2  375.43   15.52   0
  -8   3  -2  166.95    7.65   0
  -8   3  -2  179.72    7.79   0
   8  -3   2  181.09    8.55   0
   8  -3   2  173.20    8.59   0
   7   2  -2  192.96    8.92   0
   7   2  -2  176.71    8.72   0
  -7  -2   2  178.01    7.79   0
  -7  -2   2  180.45    7.88   0
   6   2  -2  206.66    9.50   0
   6   2  -2  213.34    9.57   0
  -6  -2   2  218.86    9.00   0
  -6  -2   2  210.00    8.90   0
  -6  -2   2  206.33    8.51   0
   5   2  -2   66.37    3.62   0
   5   2  -2   62.32    3.51   0
  -5  -2   2   64.47    2.90   0
  -5  -2   2   62.48    3.18   0
  -5  -2   2   57.16    3.12   0
   4   2  -2  490.56   20.81   0
   4   2  -2  523.85   20.89   0
  -4  -2   2  509.91   20.43   0
  -4  -2   2  533.70   20.66   0
  -4  -2   2  524.38   20.64   0
   3   2  -2  204.74    8.78   0
   3   2  -2  207.81    8.80   0
  -3  -2   2  214.40    8.68   0
  -3  -2   2  212.47    8.68   0
   2   2  -2  319.61   13.16   0
   2   2  -2  325.66   13.19   0
  -2  -2   2  323.08   13.11   0
  -2  -2   2  338.70   13.14   0
   1   2  -2 1174.55   45.92   0
   0   2  -2 2399.31   99.37   0
   0  -2   2 2504.35   99.49   0
  -1   2  -2  195.26    8.08   0
  -1   2  -2  202.17    8.11   0
   1  -2   2  209.19    8.09   0
   1  -2   2  194.75    8.12   0
  -2   2  -2  725.28   29.12   0
  -2   2  -2  784.43   29.19   0
   2  -2   2  725.71   29.20   0
   2  -2   2  735.34   29.13   0
  -3   2  -2  248.75    9.98   0
  -3   2  -2  240.63    9.91   0
   3  -2   2  245.74   10.06   0
   3  -2   2  246.53    9.97   0
   4  -2   2 2075.85   89.60   0
  -5   2  -2 1159.76   44.74   0
  -5   2  -2 1115.76   44.67   0
   5  -2   2 1147.40   44.94   0
   5  -2   2 1132.41   45.04   0
  -6   2  -2   17.90    1.52   0
  -6   2  -2   16.72    1.41   0
   6  -2   2   16.89    1.86   0
   6  -2   2   16.12    1.93   0
  -7   2  -2  167.98    7.04   0
  -7   2  -2  153.96    6.93   0
   7  -2   2  157.65    7.72   0
   7  -2   2  168.97    7.69   0
  -8   2  -2  295.38   11.80   0
  -8   2  -2  274.59   11.71   0
   8  -2   2  277.10   12.85   0
   8  -2   2  299.57   12.84   0
   8   1  -2   71.83    5.10   0
   8   1  -2   63.57    4.90   0
  -8  -1   2   70.66    3.95   0
  -8  -1   2   70.50    3.76   0
   7   1  -2  176.75    8.08   0
   7   1  -2  156.41    7.94   0
  -7  -1   2  162.48    7.26   0
  -7  -1   2  164.75    7.36   0
   6   1  -2  108.04    5.43   0
   6   1  -2  109.63    5.46   0
  -6  -1   2  105.90    4.98   0
  -6  -1   2  105.72    4.99   0
   5   1  -2 1128.55   45.08   0
   5   1  -2 1178.41   45.10   0
  -5  -1   2 1125.81   44.81   0
  -5  -1   2 1162.10   44.82   0
  -5  -1   2 1094.64   44.34   0
   4   1  -2  434.34   17.23   0
   4   1  -2  391.97   17.17   0
  -4  -1   2  450.12   17.08   0
  -4  -1   2  420.61   17.06   0
   3   1  -2 1233.61   52.09   0
   3   1  -2 1416.83   52.17   0
  -3  -1   2 1375.43   52.07   0
  -3  -1   2 1294.50   52.02   0
   2   1  -2 3142.66  130.09   0
  -2  -1   2 3287.16  130.16   0
   1   1  -2 3194.27  128.18   0
  -1  -1   2 3215.36  128.17   0
   0   1  -2   70.13    2.77   0
   0   1  -2   64.37    2.82   0
   0   1  -2   67.29    2.84   0
   0  -1   2   67.95    2.85   0
   0  -1   2   65.38    2.83   0
   0  -1   2   67.69    2.78   0
  -2   1  -2 2276.75   93.57   0
   2  -1   2 2331.19   93.76   0
  -3   1  -2  128.91    5.48   0
  -3   1  -2  133.32    5.47   0
   3  -1   2  137.59    5.68   0
   3  -1   2  134.15    5.58   0
  -4   1  -2  580.93   22.68   0
  -4   1  -2  570.80   22.66   0
   4  -1   2  569.35   22.96   0
   4  -1   2  580.97   22.89   0
   4  -1   2  575.61   22.49   0
  -5   1  -2  497.65   19.94   0
  -5   1  -2  514.16   19.97   0
   5  -1   2  501.31   20.41   0
   5  -1   2  503.25   20.32   0
  -6   1  -2  728.25   29.17   0
  -6   1  -2  760.03   29.21   0
   6  -1   2  740.95   29.88   0
   6  -1   2  739.32   29.77   0
  -7   1  -2    8.45    0.98   0
  -7   1  -2    7.42    1.05   0
   7  -1   2    6.66    1.41   0
   7  -1   2    8.34    1.52   0
   8  -1   2   63.69    4.57   0
   8  -1   2   58.89    4.55   0
   8   0  -2  318.44   13.86   0
  -8   0   2  297.54   12.99   0
  -8   0   2  315.45   13.13   0
   7   0  -2    3.77    1.16   0
  -7   0   2    5.49    1.00   0
  -7   0   2    4.02    1.05   0
   6   0  -2   83.45    4.37   0
   6   0  -2   75.38    4.32   0
  -6   0   2   82.93    4.07   0
  -6   0   2   86.30    4.11   0
   5   0  -2 1339.41   52.55   0
   5   0  -2 1291.30   52.55   0
  -5   0   2 1386.63   52.38   0
  -5   0   2 1312.01   52.35   0
   4   0  -2  224.37    9.59   0
   4   0  -2  233.88    9.61   0
  -4   0   2  217.98    9.45   0
  -4   0   2  238.56    9.51   0
   3   0  -2   92.36    4.11   0
   3   0  -2   88.23    4.10   0
  -3   0   2   96.53    4.09   0
  -3   0   2   91.22    4.06   0
   2   0  -2  204.74    8.69   0
   2   0  -2  211.48    8.71   0
  -2   0   2  220.10    8.70   0
  -2   0   2  223.40    8.71   0
  -1   0   2 1418.82   57.99   0
   0   0  -2   79.76    3.33   0
   0   0   2   82.29    3.23   0
   0   0   2   79.36    3.35   0
   0   0   2   80.68    3.24   0
   1   0   2  237.58    9.31   0
  -2   0  -2 1049.74   44.29   0
  -2   0  -2 1069.25   44.61   0
   3   0   2  344.99   13.59   0
   3   0   2  342.56   13.71   0
   3   0   2  339.86   13.65   0
   4   0   2   17.98    1.04   0
   4   0   2   15.84    1.35   0
   4   0   2   19.52    1.38   0
   5   0   2   22.41    1.83   0
   5   0   2   23.65    1.80   0
   6   0   2  837.18   33.67   0
   6   0   2  843.08   33.61   0
   7   0   2    4.50    1.40   0
   7   0   2    2.36    1.24   0
   8  -1  -2  237.60   10.74   0
   8  -1  -2  225.72   10.76   0
  -8   1   2  228.72   10.07   0
  -8   1   2  235.01   10.19   0
   7  -1  -2   -0.33    0.98   0
   7  -1  -2   -0.91    0.88   0
  -7   1   2    0.98    0.80   0
  -7   1   2    0.45    0.81   0
   6  -1  -2    3.45    0.94   0
   6  -1  -2    0.90    0.72   0
  -6   1   2    0.95    0.65   0
  -6   1   2    0.27    0.64   0
   5  -1  -2  724.14   30.78   0
   5  -1  -2  769.45   30.77   0
  -5   1   2  778.05   30.65   0
  -5   1   2  766.35   30.08   0
  -5   1   2  819.07   30.70   0
   4  -1  -2  362.08   15.20   0
   4  -1  -2  404.31   15.23   0
  -4   1   2  372.85   14.76   0
  -4   1   2  364.20   15.11   0
  -4   1   2  366.42   15.10   0
   3  -1  -2    9.25    0.87   0
   3  -1  -2    9.11    0.87   0
  -3   1   2    9.40    0.89   0
  -3   1   2    9.25    0.84   0
   2  -1  -2    4.85    0.54   0
   2  -1  -2    5.06    0.55   0
  -2   1   2    4.65    0.54   0
  -2   1   2    5.50    0.58   0
   1  -1  -2 2362.54   94.39   0
  -1   1   2 2366.44   94.33   0
   0   1   2 1813.63   71.26   0
   0   1   2 1836.81   71.30   0
   1   1   2  559.25   22.08   0
   2   1   2 1252.27   48.96   0
  -3  -1  -2 1913.70   78.82   0
  -3  -1  -2 1916.22   79.58   0
   4   1   2   89.73    3.97   0
   4   1   2   81.25    3.94   0
   5   1   2  479.22   19.81   0
   5   1   2  498.77   19.81   0
   6   1   2  368.60   15.91   0
   6   1   2  397.29   16.06   0
   7   1   2   12.68    1.99   0
   7   1   2   12.30    1.97   0
   9  -2  -2   73.36    5.52   0
   9  -2  -2   79.08    5.46   0
  -9   2   2   78.60    4.53   0
  -9   2   2   84.43    4.89   0
   8  -2  -2  582.68   25.04   0
   8  -2  -2  630.32   25.08   0
  -8   2   2  615.67   24.63   0
  -8   2   2  584.56   24.47   0
   7  -2  -2   37.74    2.93   0
   7  -2  -2   35.36    2.90   0
  -7   2   2   38.35    2.71   0
  -7   2   2   40.37    2.62   0
   6  -2  -2   22.55    2.03   0
   6  -2  -2   21.45    2.01   0
  -6   2   2   21.59    1.89   0
  -6   2   2   21.10    1.80   0
   5  -2  -2 1183.55   45.65   0
   5  -2  -2 1119.09   45.63   0
  -5   2   2 1144.73   45.05   0
  -5   2   2 1147.73   45.56   0
  -5   2   2 1177.59   45.52   0
   4  -2  -2  290.43   11.32   0
   4  -2  -2  271.43   11.30   0
  -4   2   2  285.54   11.31   0
  -4   2   2  246.07   11.18   0
  -4   2   2  273.87   10.98   0
   3  -2  -2   58.94    2.80   0
   3  -2  -2   59.47    2.82   0
  -3   2   2   60.69    2.73   0
  -3   2   2   60.50    2.85   0
  -3   2   2   56.13    2.77   0
   2  -2  -2  424.97   17.00   0
   2  -2  -2  425.97   16.99   0
  -2   2   2  430.33   17.06   0
  -2   2   2  433.92   17.03   0
  -2   2   2  435.35   17.13   0
  -1   2   2 5509.55  216.59   0
   0  -2  -2  387.09   15.65   0
   0   2   2  385.08   15.64   0
   0   2   2  398.74   15.48   0
   1   2   2  373.14   14.97   0
   1   2   2  378.68   15.11   0
  -2  -2  -2 4061.20  163.37   0
  -2  -2  -2 4219.69  163.82   0
   3   2   2 1092.09   42.49   0
   3   2   2 1090.73   42.47   0
   3   2   2 1070.53   42.61   0
   4   2   2   63.77    3.22   0
   4   2   2   67.14    3.27   0
   5   2   2  158.24    7.07   0
   5   2   2  156.96    7.07   0
   6   2   2  464.65   18.85   0
   6   2   2  445.04   18.83   0
   9  -3  -2   29.17    3.68   0
   9  -3  -2   31.43    3.87   0
  -9   3   2   33.29    3.28   0
  -9   3   2   28.51    2.93   0
   8  -3  -2  404.81   17.59   0
   8  -3  -2  411.53   17.55   0
  -8   3   2  423.06   17.29   0
  -8   3   2  404.42   17.10   0
   7  -3  -2    3.84    1.18   0
   7  -3  -2    2.70    1.05   0
  -7   3   2    3.37    1.09   0
  -7   3   2    1.28    0.80   0
   6  -3  -2  139.24    6.49   0
   6  -3  -2  138.06    6.50   0
  -6   3   2  140.25    6.42   0
  -6   3   2  136.23    6.28   0
   5  -3  -2  262.18   11.16   0
   5  -3  -2  251.69   11.15   0
  -5   3   2  270.82   10.76   0
  -5   3   2  258.83   11.05   0
  -5   3   2  282.56   11.22   0
   4  -3  -2 1226.41   45.51   0
   4  -3  -2 1143.74   45.48   0
  -4   3   2 1141.48   45.42   0
  -4   3   2 1135.99   45.28   0
  -4   3   2 1128.40   45.50   0
   3  -3  -2  214.49    9.17   0
   3  -3  -2  229.06    9.27   0
   3  -3  -2  228.65    9.19   0
  -3   3   2  220.44    9.25   0
  -3   3   2  225.41    9.19   0
  -3   3   2  223.08    9.23   0
   2  -3  -2 1237.08   47.76   0
   2  -3  -2 1200.19   47.65   0
   2  -3  -2 1186.45   47.94   0
  -2   3   2 1237.71   47.94   0
  -2   3   2 1245.13   47.79   0
   1  -3  -2 4380.87  176.74   0
  -1   3   2 4522.12  176.28   0
   0  -3  -2  101.41    4.67   0
   0   3   2   97.65    4.15   0
   0   3   2   96.05    4.38   0
   0   3   2  115.96    4.72   0
   0   3   2  102.48    4.20   0
  -1  -3  -2   44.09    2.44   0
   1   3   2   40.28    2.38   0
   1   3   2   42.01    2.20   0
   1   3   2   43.82    1.95   0
   1   3   2   44.40    1.91   0
   2   3   2  488.70   19.43   0
   2   3   2  498.38   19.47   0
   2   3   2  476.90   19.66   0
   2   3   2  506.29   19.85   0
   3   3   2  541.62   22.34   0
   3   3   2  586.04   22.43   0
   4   3   2    6.06    0.92   0
   4   3   2    6.82    1.03   0
   5   3   2   13.03    2.05   0
   5   3   2   12.07    1.86   0
   9  -4  -2   32.44    3.94   0
   9  -4  -2   28.89    3.72   0
  -9   4   2   31.32    3.40   0
  -9   4   2   31.19    3.13   0
   8  -4  -2  454.96   18.35   0
   8  -4  -2  378.27   18.13   0
  -8   4   2  460.36   18.17   0
  -8   4   2  423.34   17.86   0
   7  -4  -2  396.21   15.85   0
   7  -4  -2  350.63   15.74   0
  -7   4   2  379.91   15.71   0
  -7   4   2  361.61   15.49   0
   6  -4  -2   38.12    2.64   0
   6  -4  -2   37.16    2.61   0
  -6   4   2   35.90    2.44   0
  -6   4   2   38.86    2.68   0
   5  -4  -2 2074.23   80.94   0
   5  -4  -2 2023.25   80.90   0
  -5   4   2 2124.45   81.02   0
  -5   4   2 2022.03   80.82   0
  -5   4   2 2080.76   80.65   0
   4  -4  -2 1098.08   44.70   0
   4  -4  -2 1172.54   44.77   0
   4  -4  -2 1088.10   44.70   0
  -4   4   2 1115.22   44.69   0
  -4   4   2 1175.35   44.72   0
  -4   4   2 1165.57   44.85   0
   3  -4  -2   52.25    2.62   0
   3  -4  -2   58.46    2.93   0
   3  -4  -2   55.47    2.64   0
  -3   4   2   48.55    2.62   0
  -3   4   2   53.95    2.79   0
  -3   4   2   55.58    2.85   0
   2  -4  -2  640.30   25.46   0
   2  -4  -2  639.69   25.10   0
   2  -4  -2  636.13   24.93   0
   2  -4  -2  617.46   24.94   0
  -2   4   2  643.95   25.41   0
  -2   4   2  624.46   25.08   0
  -2   4   2  649.22   25.20   0
   1  -4  -2 3837.67  151.41   0
  -1   4   2 3691.13  150.48   0
   0  -4  -2  899.43   35.41   0
   0   4   2  904.45   35.37   0
   0   4   2  873.57   34.91   0
   0   4   2  902.61   35.01   0
   0   4   2  873.88   34.82   0
  -1  -4  -2    5.62    1.11   0
   1   4   2    6.31    0.73   0
   1   4   2    6.84    0.88   0
   1   4   2    4.43    0.93   0
   1   4   2    6.76    0.89   0
  -2  -4  -2  495.82   19.86   0
   2   4   2  485.09   19.34   0
   2   4   2  494.36   19.43   0
   2   4   2  472.86   19.53   0
   3   4   2  473.71   18.32   0
   3   4   2  467.00   18.41   0
   3   4   2  427.03   18.44   0
   4   4   2    4.58    1.29   0
   4   4   2    4.16    1.08   0
   4   4   2    3.53    0.90   0
   5   4   2   34.24    2.86   0
   5   4   2   36.36    3.19   0
   5   4   2   28.38    3.25   0
   9  -5  -2    6.33    2.05   0
   9  -5  -2    4.86    1.86   0
  -9   5   2    4.24    1.49   0
  -9   5   2    5.04    1.84   0
   8  -5  -2  906.24   36.13   0
   8  -5  -2  846.70   36.05   0
  -8   5   2  929.28   36.05   0
  -8   5   2  873.58   35.74   0
   7  -5  -2  303.86   13.83   0
   7  -5  -2  338.11   13.97   0
  -7   5   2  309.86   13.63   0
  -7   5   2  339.97   13.98   0
   6  -5  -2    0.36    0.84   0
   6  -5  -2   -0.65    0.63   0
  -6   5   2   -0.76    0.86   0
  -6   5   2    0.10    0.68   0
   5  -5  -2 1331.15   51.26   0
   5  -5  -2 1253.92   51.25   0
   5  -5  -2 1318.20   51.29   0
  -5   5   2 1282.46   51.15   0
  -5   5   2 1319.52   51.42   0
  -5   5   2 1291.69   51.22   0
   4  -5  -2 1704.21   66.36   0
   4  -5  -2 1766.53   66.60   0
   4  -5  -2 1659.26   66.32   0
  -4   5   2 1690.64   66.46   0
  -4   5   2 1584.11   66.31   0
  -4   5   2 1755.50   66.56   0
   3  -5  -2  357.46   14.49   0
   3  -5  -2  357.33   14.48   0
   3  -5  -2  366.45   14.97   0
   3  -5  -2  350.99   14.55   0
  -3   5   2  362.30   14.87   0
  -3   5   2  369.00   14.61   0
  -3   5   2  359.74   14.76   0
   2  -5  -2    2.95    0.50   0
   2  -5  -2    4.19    0.99   0
   2  -5  -2    3.37    0.50   0
  -2   5   2    3.43    0.59   0
  -2   5   2    2.71    0.64   0
  -2   5   2    2.82    0.81   0
   1  -5  -2 1279.44   49.19   0
  -1   5   2 1235.10   49.08   0
  -1   5   2 1236.85   48.70   0
  -1   5   2 1214.19   48.55   0
   0  -5  -2  191.22    8.57   0
   0   5   2  189.23    8.05   0
   0   5   2  203.94    8.56   0
   0   5   2  191.97    8.04   0
   0   5   2  188.75    7.92   0
  -1  -5  -2   55.22    3.36   0
   1   5   2   52.35    2.79   0
   1   5   2   54.40    2.80   0
  -2  -5  -2    1.59    1.11   0
   2   5   2    1.97    0.64   0
   2   5   2    2.36    0.82   0
   2   5   2    4.01    0.98   0
   3   5   2  235.40    9.88   0
   3   5   2  231.12    9.68   0
   3   5   2  220.26    9.80   0
   4   5   2   33.37    2.63   0
   4   5   2   29.09    3.09   0
   4   5   2   34.94    3.01   0
   9  -6  -2   28.69    3.75   0
   9  -6  -2   22.65    3.54   0
  -9   6   2   23.72    3.54   0
   8  -6  -2  415.52   18.74   0
   8  -6  -2  468.03   18.92   0
  -8   6   2  463.20   18.91   0
  -8   6   2  420.62   18.47   0
   7  -6  -2    1.87    1.04   0
   7  -6  -2    1.49    1.12   0
  -7   6   2    0.00    1.12   0
  -7   6   2    0.77    0.87   0
   6  -6  -2   49.06    3.23   0
   6  -6  -2   49.33    3.22   0
  -6   6   2   50.24    3.15   0
  -6   6   2   56.64    3.54   0
   5  -6  -2   11.52    1.54   0
   5  -6  -2   14.02    1.57   0
   5  -6  -2   13.40    1.85   0
  -5   6   2   12.62    1.55   0
  -5   6   2   14.73    1.71   0
  -5   6   2   10.39    1.79   0
   4  -6  -2  543.77   22.87   0
   4  -6  -2  584.65   22.48   0
   4  -6  -2  557.93   22.47   0
   4  -6  -2  557.31   22.47   0
  -4   6   2  564.15   22.78   0
  -4   6   2  552.40   22.55   0
  -4   6   2  564.06   22.77   0
   3  -6  -2  158.59    6.80   0
   3  -6  -2  157.22    6.66   0
   3  -6  -2  161.05    6.66   0
   3  -6  -2  156.53    7.36   0
  -3   6   2  156.42    7.10   0
  -3   6   2  160.09    7.28   0
  -3   6   2  165.22    6.93   0
   2  -6  -2    6.18    1.35   0
  -2   6   2    7.84    1.45   0
   1  -6  -2    5.00    1.22   0
  -1   6   2    5.84    0.83   0
  -1   6   2    6.64    1.33   0
  -1   6   2    4.96    0.91   0
   0  -6  -2  114.45    5.73   0
   0   6   2  107.87    4.95   0
   0   6   2  112.30    5.18   0
  -1  -6  -2   42.10    3.20   0
   1   6   2   42.62    2.71   0
   1   6   2   41.43    2.42   0
   1   6   2   42.83    2.50   0
   2   6   2  175.21    7.71   0
   2   6   2  185.52    8.02   0
   2   6   2  174.26    7.76   0
   3   6   2  101.03    5.13   0
   3   6   2   87.24    4.79   0
   3   6   2   87.19    4.68   0
   8  -7  -2   23.02    3.12   0
   8  -7  -2   16.13    2.27   0
  -8   7   2   24.62    3.67   0
  -8   7   2   16.99    2.69   0
   7  -7  -2  458.49   18.31   0
   7  -7  -2  442.43   18.27   0
  -7   7   2  409.37   18.43   0
  -7   7   2  422.10   18.11   0
   6  -7  -2  264.00   11.76   0
   6  -7  -2  274.14   11.63   0
   6  -7  -2  264.43   11.59   0
  -6   7   2  266.70   11.61   0
  -6   7   2  272.42   11.95   0
   5  -7  -2  431.12   17.84   0
   5  -7  -2  421.32   17.85   0
   5  -7  -2  445.88   17.88   0
   5  -7  -2  423.65   18.28   0
  -5   7   2  441.45   18.28   0
  -5   7   2  455.71   18.02   0
   4  -7  -2  517.23   21.10   0
   4  -7  -2  532.34   21.19   0
   4  -7  -2  522.43   21.09   0
   4  -7  -2  538.46   21.87   0
  -4   7   2  518.10   21.61   0
  -4   7   2  531.92   21.35   0
   3  -7  -2  247.75   10.06   0
   3  -7  -2  255.69   11.22   0
   3  -7  -2  250.49   10.35   0
   3  -7  -2  246.03   10.06   0
  -3   7   2  254.64   10.85   0
  -3   7   2  250.27   10.56   0
   2  -7  -2   16.04    2.19   0
  -2   7   2   13.27    1.51   0
  -2   7   2   17.17    1.90   0
   1  -7  -2  517.67   20.95   0
  -1   7   2  482.93   20.10   0
  -1   7   2  497.96   20.36   0
   0  -7  -2  245.61   11.13   0
   0   7   2  238.28   10.29   0
   0   7   2  249.20   10.56   0
  -1  -7  -2    0.66    1.62   0
   1   7   2    0.49    1.13   0
   1   7   2    0.07    0.84   0
   8  -8  -2  515.84   21.16   0
   8  -8  -2  497.13   21.10   0
  -8   8   2  522.85   21.50   0
  -8   8   2  457.91   20.84   0
   7  -8  -2  640.40   26.51   0
   7  -8  -2  651.90   26.54   0
  -7   8   2  686.13   27.00   0
  -7   8   2  609.23   26.43   0
   6  -8  -2  156.09    7.11   0
   6  -8  -2  145.20    7.03   0
   6  -8  -2  153.25    7.11   0
   6  -8  -2  149.70    7.62   0
  -6   8   2  152.62    7.68   0
  -6   8   2  141.39    7.12   0
   5  -8  -2    2.11    1.51   0
   5  -8  -2    0.47    0.84   0
   5  -8  -2    0.78    0.87   0
   5  -8  -2    0.36    0.99   0
  -5   8   2   -0.05    1.27   0
  -5   8   2    0.86    0.98   0
   4  -8  -2  237.45   10.13   0
   4  -8  -2  248.61   10.16   0
   4  -8  -2  249.03   10.36   0
   4  -8  -2  248.95   11.34   0
  -4   8   2  260.80   11.10   0
  -4   8   2  237.30   10.62   0
   3  -8  -2  266.95   10.97   0
   3  -8  -2  274.21   12.21   0
  -3   8   2  253.73   11.34   0
  -3   8   2  275.93   11.75   0
   2  -8  -2   42.17    3.81   0
  -2   8   2   43.68    2.85   0
  -2   8   2   47.06    3.32   0
   1  -8  -2   73.75    4.90   0
  -1   8   2   73.12    3.80   0
  -1   8   2   59.40    4.03   0
   0  -8  -2  177.74    8.77   0
   0   8   2  164.34    8.03   0
   7  -9  -2  166.11    8.27   0
   7  -9  -2  181.83    8.36   0
   7  -9  -2  185.42    8.45   0
  -7   9   2  153.98    8.36   0
  -7   9   2  179.27    9.16   0
   6  -9  -2   61.13    4.01   0
   6  -9  -2   57.84    5.03   0
   6  -9  -2   63.00    3.85   0
   6  -9  -2   67.91    3.96   0
  -6   9   2   65.60    4.23   0
  -6   9   2   64.04    4.94   0
   5  -9  -2   51.55    3.04   0
   5  -9  -2   50.71    4.56   0
   5  -9  -2   51.01    3.00   0
   5  -9  -2   56.96    3.33   0
  -5   9   2   55.55    4.46   0
  -5   9   2   51.59    3.63   0
   4  -9  -2   13.90    1.54   0
   4  -9  -2   15.16    2.81   0
  -4   9   2   13.03    2.19   0
  -4   9   2   15.05    2.25   0
   3  -9  -2  142.53    7.79   0
  -3   9   2  143.99    7.31   0
  -3   9   2  137.31    6.76   0
   2  -9  -2    5.32    2.02   0
  -2   9   2    6.43    1.80   0
  -2   9   2    7.10    1.43   0
  -1  10  -3   10.87    2.14   0
  -1  10  -3   11.81    2.52   0
   1 -10   3   14.43    1.97   0
   1 -10   3   15.80    1.95   0
   1 -10   3   19.07    2.82   0
  -2  10  -3  202.16    9.67   0
  -2  10  -3  210.56   10.11   0
   2 -10   3  205.13    9.02   0
   2 -10   3  200.96    9.06   0
   2 -10   3  201.44   10.00   0
  -3  10  -3  306.58   14.39   0
  -3  10  -3  348.69   14.84   0
   3 -10   3  338.86   14.79   0
   3 -10   3  324.35   13.96   0
   3 -10   3  326.30   14.04   0
  -4  10  -3    9.54    2.19   0
  -4  10  -3    8.81    1.82   0
   4 -10   3    9.11    1.65   0
   4 -10   3    5.08    2.07   0
   4 -10   3    7.15    0.84   0
   4 -10   3    7.42    1.57   0
  -5  10  -3  138.24    7.32   0
  -5  10  -3  140.71    7.81   0
   5 -10   3  132.06    7.19   0
   5 -10   3  140.93    7.69   0
   5 -10   3  152.12    7.29   0
  -6  10  -3  219.51   10.35   0
  -6  10  -3  173.59    9.80   0
   6 -10   3  196.89    9.96   0
   6 -10   3  224.03    9.96   0
   6 -10   3  211.96   10.18   0
   1   9  -3    9.54    2.29   0
   1   9  -3    9.79    1.80   0
  -1  -9   3   10.11    1.45   0
  -1  -9   3   12.71    1.51   0
  -1  -9   3   10.42    2.05   0
   0   9  -3  186.28    8.93   0
   0   9  -3  202.07    9.50   0
   0  -9   3  185.79    8.12   0
   0  -9   3  188.23    9.21   0
   0  -9   3  187.71    8.17   0
  -1   9  -3   47.67    3.53   0
  -1   9  -3   51.28    4.03   0
   1  -9   3   48.79    2.99   0
   1  -9   3   52.95    3.02   0
   1  -9   3   45.79    3.88   0
  -2   9  -3  157.54    7.70   0
   2  -9   3  147.06    7.03   0
   2  -9   3  153.26    6.99   0
   2  -9   3  151.38    7.64   0
  -3   9  -3  136.91    6.89   0
  -3   9  -3  143.79    7.22   0
   3  -9   3  130.41    6.63   0
   3  -9   3  143.50    6.65   0
   3  -9   3  144.42    7.18   0
  -4   9  -3   72.63    4.51   0
  -4   9  -3   84.48    5.06   0
   4  -9   3   87.01    4.56   0
   4  -9   3   76.62    4.91   0
   4  -9   3   75.33    4.52   0
  -5   9  -3   59.02    4.07   0
  -5   9  -3   65.09    4.50   0
   5  -9   3   61.37    4.18   0
   5  -9   3   58.08    4.26   0
   5  -9   3   69.53    4.15   0
  -6   9  -3   82.80    5.06   0
  -6   9  -3   83.27    5.48   0
   6  -9   3   90.41    5.27   0
   6  -9   3   80.53    5.21   0
   6  -9   3   86.84    5.17   0
  -7   9  -3   78.08    5.44   0
  -7   9  -3   69.12    4.89   0
   7  -9   3   66.94    5.13   0
   7  -9   3   75.71    5.01   0
   7  -9   3   74.12    4.83   0
   2   8  -3  136.85    6.87   0
   2   8  -3  146.75    7.52   0
  -2  -8   3  131.78    5.82   0
  -2  -8   3  131.48    7.02   0
  -2  -8   3  136.02    5.88   0
   1   8  -3  276.05   12.30   0
   1   8  -3  295.63   12.69   0
  -1  -8   3  281.32   11.69   0
  -1  -8   3  284.48   12.51   0
  -1  -8   3  276.19   11.63   0
   0   8  -3  178.34    8.43   0
   0   8  -3  193.05    8.80   0
   0  -8   3  183.62    8.63   0
   0  -8   3  189.39    7.96   0
   0  -8   3  176.90    7.95   0
  -1   8  -3   96.22    5.05   0
  -1   8  -3  101.22    5.32   0
   1  -8   3   96.18    5.33   0
   1  -8   3   97.89    4.69   0
   1  -8   3   95.52    4.73   0
  -2   8  -3  575.35   23.56   0
  -2   8  -3  542.47   23.32   0
   2  -8   3  588.06   23.13   0
   2  -8   3  563.70   23.17   0
   2  -8   3  588.36   23.54   0
  -3   8  -3  305.36   13.17   0
  -3   8  -3  293.16   12.94   0
   3  -8   3  312.39   12.85   0
   3  -8   3  306.40   13.13   0
   3  -8   3  299.45   12.91   0
  -4   8  -3    5.29    1.41   0
  -4   8  -3    5.70    1.29   0
   4  -8   3    4.87    1.18   0
   4  -8   3    6.49    1.25   0
   4  -8   3    9.41    1.72   0
  -5   8  -3  206.77    9.67   0
  -5   8  -3  219.98    9.98   0
   5  -8   3  220.67    9.87   0
   5  -8   3  212.02    9.76   0
   5  -8   3  223.88    9.76   0
  -6   8  -3  306.86   13.50   0
  -6   8  -3  328.37   13.86   0
   6  -8   3  298.45   13.69   0
   6  -8   3  309.45   13.43   0
   6  -8   3  318.97   13.65   0
  -7   8  -3  111.42    6.19   0
  -7   8  -3  103.84    5.79   0
   7  -8   3  103.92    5.53   0
   7  -8   3  103.94    6.13   0
   7  -8   3  110.76    6.05   0
  -8   8  -3    8.04    1.85   0
  -8   8  -3    8.63    2.14   0
   8  -8   3   12.51    1.83   0
   8  -8   3    4.27    2.14   0
   8  -8   3    7.07    1.75   0
   3   7  -3   38.81    3.88   0
   3   7  -3   39.98    3.27   0
  -3  -7   3   40.67    2.22   0
  -3  -7   3   42.97    3.44   0
  -3  -7   3   41.95    2.33   0
   2   7  -3  191.35    8.85   0
   2   7  -3  207.51    9.26   0
  -2  -7   3  190.54    8.30   0
  -2  -7   3  192.57    8.23   0
  -2  -7   3  200.45    9.00   0
   1   7  -3  703.23   28.60   0
   1   7  -3  731.19   28.88   0
  -1  -7   3  709.35   28.70   0
  -1  -7   3  695.91   28.21   0
  -1  -7   3  704.71   28.15   0
   0   7  -3  298.17   12.87   0
   0   7  -3  299.78   13.05   0
   0  -7   3  301.99   12.99   0
   0  -7   3  308.97   12.55   0
   0  -7   3  311.88   12.64   0
  -1   7  -3    2.60    0.90   0
   1  -7   3    3.14    0.70   0
   1  -7   3    2.57    0.81   0
   1  -7   3    2.14    0.99   0
  -2   7  -3   16.19    1.73   0
  -2   7  -3   10.52    1.72   0
   2  -7   3   13.57    1.63   0
   2  -7   3   11.68    1.64   0
   2  -7   3   12.29    1.51   0
  -3   7  -3  958.40   38.63   0
   3  -7   3  978.33   38.42   0
   3  -7   3  943.39   38.53   0
   3  -7   3  985.39   38.55   0
  -4   7  -3  552.61   22.82   0
  -4   7  -3  536.39   22.61   0
   4  -7   3  598.46   22.70   0
   4  -7   3  549.72   22.66   0
   4  -7   3  545.22   22.74   0
  -5   7  -3   52.72    3.48   0
  -5   7  -3   48.83    3.20   0
   5  -7   3   50.97    3.23   0
   5  -7   3   51.16    3.42   0
   5  -7   3   55.94    3.37   0
  -6   7  -3   97.67    5.41   0
  -6   7  -3   96.28    5.14   0
   6  -7   3  102.93    5.47   0
   6  -7   3   97.17    4.99   0
   6  -7   3  105.81    5.37   0
  -7   7  -3 1039.94   41.63   0
  -7   7  -3 1067.32   41.86   0
   7  -7   3 1097.67   41.95   0
   7  -7   3 1019.54   41.21   0
   7  -7   3  976.01   41.93   0
  -8   7  -3   93.14    5.24   0
  -8   7  -3   98.12    5.65   0
   8  -7   3   82.20    5.73   0
   8  -7   3   99.18    5.73   0
   8  -7   3   90.05    4.51   0
   4   6  -3  390.50   16.41   0
   4   6  -3  385.80   16.70   0
  -4  -6   3  393.66   15.54   0
  -4  -6   3  361.61   15.53   0
  -4  -6   3  401.45   16.23   0
   3   6  -3   55.87    3.50   0
   3   6  -3   54.03    3.82   0
  -3  -6   3   55.95    2.97   0
  -3  -6   3   55.64    3.52   0
  -3  -6   3   60.00    2.95   0
   2   6  -3    1.23    0.83   0
   2   6  -3    2.08    1.02   0
  -2  -6   3    1.83    1.02   0
  -2  -6   3    2.53    0.71   0
  -2  -6   3    2.04    0.68   0
   1   6  -3   36.93    2.72   0
   1   6  -3   37.74    2.52   0
  -1  -6   3   42.71    2.33   0
  -1  -6   3   40.13    2.62   0
  -1  -6   3   37.56    2.28   0
   0   6  -3 2330.07   89.18   0
   0   6  -3 2265.20   89.06   0
   0  -6   3 2203.24   88.88   0
   0  -6   3 2299.81   88.86   0
  -1   6  -3  516.08   21.28   0
   1  -6   3  510.32   21.09   0
   1  -6   3  544.46   21.06   0
  -2   6  -3  280.67   11.51   0
  -2   6  -3  245.60   11.30   0
   2  -6   3  272.49   11.39   0
   2  -6   3  284.30   11.31   0
  -3   6  -3  752.26   28.91   0
  -3   6  -3  660.20   28.68   0
   3  -6   3  752.65   28.73   0
   3  -6   3  709.25   28.81   0
  -4   6  -3  892.99   36.40   0
  -4   6  -3  926.48   36.58   0
   4  -6   3  956.08   36.46   0
   4  -6   3  886.80   36.54   0
  -5   6  -3    4.28    0.97   0
  -5   6  -3    5.03    1.05   0
   5  -6   3    3.71    0.96   0
   5  -6   3    7.76    1.32   0
   5  -6   3    5.33    1.02   0
  -6   6  -3  402.35   16.28   0
  -6   6  -3  384.94   16.07   0
   6  -6   3  394.69   16.24   0
   6  -6   3  364.27   16.30   0
   6  -6   3  386.15   15.78   0
  -7   6  -3  526.14   21.75   0
  -7   6  -3  539.66   21.96   0
   7  -6   3  526.88   21.25   0
   7  -6   3  527.11   22.05   0
   7  -6   3  534.64   22.24   0
  -8   6  -3    6.08    1.38   0
  -8   6  -3    3.63    1.49   0
   8  -6   3    4.00    1.65   0
   8  -6   3    4.84    1.71   0
   5   5  -3   44.88    3.91   0
   5   5  -3   43.99    3.50   0
  -5  -5   3   45.98    2.54   0
  -5  -5   3   41.79    2.54   0
  -5  -5   3   47.60    3.03   0
   4   5  -3  415.91   17.43   0
   4   5  -3  401.94   17.21   0
  -4  -5   3  419.23   16.68   0
  -4  -5   3  405.47   16.69   0
  -4  -5   3  420.69   16.98   0
   3   5  -3 1279.81   49.86   0
  -3  -5   3 1213.41   49.34   0
  -3  -5   3 1270.68   49.34   0
  -3  -5   3 1258.03   49.56   0
   2   5  -3  147.17    6.48   0
   2   5  -3  143.30    6.61   0
  -2  -5   3  137.28    6.22   0
  -2  -5   3  143.71    6.23   0
   1   5  -3  996.66   38.62   0
   1   5  -3  919.98   38.46   0
  -1  -5   3  955.98   38.34   0
  -1  -5   3 1015.35   38.36   0
   0   5  -3 2435.85   92.69   0
   0  -5   3 2303.06   92.50   0
  -1   5  -3    7.83    1.17   0
   1  -5   3    8.69    1.05   0
   1  -5   3    7.53    1.08   0
  -2   5  -3  220.21    8.80   0
  -2   5  -3  201.33    8.65   0
   2  -5   3  205.32    8.61   0
   2  -5   3  190.70    8.66   0
  -3   5  -3 1862.54   75.32   0
  -3   5  -3 1991.14   75.47   0
   3  -5   3 1920.92   75.46   0
  -4   5  -3 1121.68   45.87   0
  -4   5  -3 1210.63   46.05   0
   4  -5   3 1124.86   46.05   0
   4  -5   3 1195.91   45.94   0
  -5   5  -3   41.06    2.61   0
  -5   5  -3   37.56    2.43   0
   5  -5   3   38.01    2.66   0
   5  -5   3   39.77    2.55   0
  -6   5  -3  281.84   11.50   0
  -6   5  -3  252.63   11.26   0
   6  -5   3  273.43   11.53   0
   6  -5   3  267.37   11.66   0
   6  -5   3  258.12   10.91   0
  -7   5  -3  412.23   16.73   0
  -7   5  -3  377.80   16.52   0
   7  -5   3  390.45   15.91   0
   7  -5   3  430.33   17.04   0
   7  -5   3  394.20   17.08   0
  -8   5  -3   19.49    2.60   0
  -8   5  -3   16.23    2.20   0
   8  -5   3   17.23    2.96   0
   8  -5   3   22.18    3.23   0
   6   4  -3   80.04    5.09   0
   6   4  -3   73.84    4.78   0
  -6  -4   3   80.06    3.95   0
  -6  -4   3   78.07    3.87   0
  -6  -4   3   76.87    3.85   0
   5   4  -3   21.47    2.43   0
   5   4  -3   26.52    2.74   0
  -5  -4   3   27.13    1.97   0
  -5  -4   3   24.98    1.87   0
  -5  -4   3   23.49    2.01   0
   4   4  -3  850.45   34.65   0
   4   4  -3  874.93   34.59   0
  -4  -4   3  879.05   34.24   0
  -4  -4   3  856.81   34.21   0
  -4  -4   3  856.50   34.19   0
   3   4  -3 1200.02   46.05   0
   3   4  -3 1122.72   45.89   0
  -3  -4   3 1185.15   45.72   0
  -3  -4   3 1136.60   45.68   0
   2   4  -3   66.60    3.32   0
   2   4  -3   53.03    3.09   0
  -2  -4   3   64.23    3.09   0
   1   4  -3  117.33    5.41   0
   1   4  -3  128.06    5.54   0
  -1  -4   3  123.35    5.37   0
  -1  -4   3  120.91    5.36   0
   0  -4   3 2015.05   78.69   0
  -1   4  -3   39.22    2.20   0
   1  -4   3   40.78    2.11   0
   1  -4   3   38.01    2.15   0
   2  -4   3   76.29    3.65   0
  -3   4  -3  652.84   29.02   0
  -3   4  -3  776.22   29.21   0
   3  -4   3  766.35   29.12   0
   3  -4   3  741.06   29.23   0
  -4   4  -3  861.19   35.23   0
  -4   4  -3  911.63   35.36   0
   4  -4   3  939.44   35.34   0
   4  -4   3  854.60   35.42   0
  -5   4  -3  202.34    8.88   0
  -5   4  -3  190.54    8.73   0
   5  -4   3  210.21    8.93   0
   5  -4   3  224.88    9.15   0
  -6   4  -3  157.04    7.04   0
  -6   4  -3  156.05    7.13   0
   6  -4   3  156.01    6.58   0
   6  -4   3  169.61    7.53   0
   6  -4   3  162.18    7.34   0
  -7   4  -3  138.59    6.29   0
  -7   4  -3  128.91    6.12   0
   7  -4   3  129.46    6.75   0
   7  -4   3  141.69    6.72   0
  -8   4  -3  171.72    8.47   0
  -8   4  -3  207.55    8.69   0
   8  -4   3  190.52    9.46   0
   8  -4   3  215.61    9.47   0
   7   3  -3  286.08   12.82   0
   7   3  -3  290.21   12.92   0
  -7  -3   3  267.45   11.67   0
   6   3  -3  107.60    5.73   0
   6   3  -3  111.53    5.86   0
  -6  -3   3  102.21    5.04   0
  -6  -3   3  108.02    5.14   0
  -6  -3   3  108.70    4.81   0
   5   3  -3    6.18    1.33   0
   5   3  -3    3.82    1.05   0
  -5  -3   3    5.88    0.93   0
  -5  -3   3    5.46    0.98   0
  -5  -3   3    5.49    0.89   0
   4   3  -3  632.83   25.97   0
   4   3  -3  638.41   26.02   0
  -4  -3   3  673.68   25.77   0
  -4  -3   3  633.95   25.72   0
   3   3  -3  454.78   18.25   0
   3   3  -3  438.58   18.17   0
  -3  -3   3  432.79   18.02   0
  -3  -3   3  467.40   18.08   0
   2   3  -3  496.32   22.06   0
   2   3  -3  588.13   22.22   0
  -2  -3   3  544.36   22.03   0
  -2  -3   3  585.74   22.10   0
   1   3  -3    4.05    0.63   0
   1   3  -3    3.09    0.35   0
   0   3  -3 2037.70   86.42   0
   0  -3   3 2084.37   86.54   0
  -1   3  -3  561.24   21.80   0
   1  -3   3  527.41   21.76   0
   1  -3   3  557.11   21.74   0
  -2   3  -3  215.17    9.38   0
  -2   3  -3  229.67    9.44   0
   2  -3   3  244.36    9.43   0
   2  -3   3  230.23    9.49   0
  -3   3  -3   59.32    2.99   0
  -3   3  -3   58.46    2.94   0
   3  -3   3   65.14    3.11   0
   3  -3   3   66.73    3.02   0
  -4   3  -3  717.19   28.79   0
  -4   3  -3  755.59   28.88   0
   4  -3   3  730.34   28.88   0
   4  -3   3  708.68   29.00   0
  -5   3  -3  185.25    7.72   0
  -5   3  -3  183.32    7.65   0
   5  -3   3  171.06    7.80   0
   5  -3   3  182.87    8.00   0
  -6   3  -3  356.28   14.70   0
  -6   3  -3  368.60   14.77   0
   6  -3   3  367.61   15.10   0
   6  -3   3  355.08   15.21   0
  -7   3  -3  877.87   35.74   0
  -7   3  -3  944.42   35.83   0
   7  -3   3  932.15   36.39   0
   7  -3   3  863.81   36.45   0
  -8   3  -3    2.97    0.88   0
  -8   3  -3    2.72    0.97   0
   8  -3   3    3.59    1.61   0
   8  -3   3    2.04    1.68   0
   7   2  -3  773.98   30.97   0
   7   2  -3  756.90   30.92   0
  -7  -2   3  722.39   30.12   0
  -7  -2   3  765.58   30.24   0
   6   2  -3  195.71    9.13   0
   6   2  -3  202.61    9.19   0
  -6  -2   3  198.82    8.67   0
  -6  -2   3  201.90    8.70   0
  -6  -2   3  201.94    8.20   0
   5   2  -3    2.30    0.82   0
  -5  -2   3    3.68    0.89   0
  -5  -2   3    3.49    0.81   0
   4   2  -3  522.18   21.58   0
   4   2  -3  515.68   21.56   0
  -4  -2   3  540.86   21.42   0
  -4  -2   3  556.10   21.44   0
   3   2  -3 1661.64   64.86   0
   3   2  -3 1652.00   64.85   0
  -3  -2   3 1662.63   64.75   0
  -3  -2   3 1642.69   64.74   0
   2   2  -3  619.19   24.05   0
   2   2  -3  616.10   24.03   0
  -2  -2   3  566.13   23.93   0
  -2  -2   3  617.48   23.98   0
   1   2  -3  723.30   28.37   0
   1   2  -3  723.65   28.12   0
   1   2  -3  685.25   28.33   0
  -1  -2   3  730.91   28.35   0
  -1  -2   3  734.02   28.35   0
   0   2  -3 9595.71  384.88   0
   0  -2   3 9999.00  384.96   0
  -1   2  -3 1692.77   71.21   0
   1  -2   3 1714.82   70.99   0
  -2   2  -3  187.42    7.64   0
   2  -2   3  182.41    7.70   0
   2  -2   3  191.11    7.65   0
  -3   2  -3 1461.82   57.05   0
  -4   2  -3 1676.66   66.63   0
  -4   2  -3 1710.67   66.64   0
   4  -2   3 1695.82   66.78   0
   4  -2   3 1749.40   66.95   0
  -5   2  -3   63.68    3.04   0
  -5   2  -3   65.97    3.06   0
   5  -2   3   68.90    3.41   0
   5  -2   3   66.05    2.81   0
   5  -2   3   62.47    3.47   0
  -6   2  -3   59.34    2.89   0
  -6   2  -3   61.55    2.94   0
   6  -2   3   64.04    3.53   0
   6  -2   3   57.21    3.55   0
  -7   2  -3  361.34   14.39   0
  -7   2  -3  346.44   14.37   0
   7  -2   3  364.88   15.28   0
   7  -2   3  368.36   15.43   0
   8  -2   3  122.09    6.49   0
   8  -2   3  109.60    6.48   0
   8   1  -3    1.67    1.58   0
   8   1  -3    3.79    1.80   0
  -8  -1   3    4.79    1.23   0
  -8  -1   3    4.20    1.35   0
   7   1  -3  445.49   19.80   0
   7   1  -3  489.96   19.91   0
  -7  -1   3  459.84   19.27   0
  -7  -1   3  493.26   19.37   0
   6   1  -3  546.28   23.15   0
   6   1  -3  567.48   23.16   0
  -6  -1   3  554.97   22.80   0
  -6  -1   3  583.32   22.83   0
  -6  -1   3  571.44   22.17   0
   5   1  -3  375.35   15.87   0
   5   1  -3  374.92   15.88   0
  -5  -1   3  416.41   15.72   0
  -5  -1   3  366.01   15.63   0
   4   1  -3  445.11   17.32   0
   4   1  -3  415.33   17.28   0
  -4  -1   3  416.11   17.13   0
  -4  -1   3  422.06   17.16   0
   3   1  -3 2784.08  117.20   0
  -3  -1   3 2848.19  117.10   0
   2   1  -3  559.36   22.87   0
   2   1  -3  580.01   22.89   0
  -2  -1   3  599.96   22.88   0
  -2  -1   3  571.29   22.84   0
   1   1  -3  436.16   17.33   0
   1   1  -3  429.24   17.34   0
   1   1  -3  443.09   17.26   0
  -1  -1   3  445.64   17.26   0
  -1  -1   3  438.00   17.35   0
  -1  -1   3  435.54   17.33   0
   0   1  -3  813.52   30.93   0
   0  -1   3  773.01   30.95   0
   0  -1   3  785.88   30.93   0
  -1   1  -3  294.23   11.91   0
  -1   1  -3  304.34   11.92   0
   1  -1   3  308.74   12.01   0
  -2   1  -3  169.23    6.89   0
  -2   1  -3  174.67    6.89   0
   2  -1   3  169.65    7.07   0
   2  -1   3  179.22    7.02   0
  -3   1  -3   99.71    3.99   0
   3  -1   3   97.46    4.20   0
   3  -1   3   95.65    4.29   0
  -4   1  -3  502.07   19.14   0
   4  -1   3  489.01   19.61   0
   4  -1   3  475.89   19.48   0
   4  -1   3  486.86   19.29   0
   5  -1   3   10.73    1.33   0
   5  -1   3   10.87    0.78   0
   5  -1   3   10.26    1.39   0
   6  -1   3   52.78    3.20   0
   6  -1   3   49.47    3.25   0
   7  -1   3    5.69    1.47   0
   7  -1   3    7.15    1.49   0
   8   0  -3    7.60    1.81   0
   8   0  -3    6.90    1.74   0
  -8   0   3    7.53    1.36   0
  -8   0   3    8.45    1.54   0
   7   0  -3  147.54    7.24   0
   7   0  -3  143.87    7.26   0
  -7   0   3  144.02    6.80   0
  -7   0   3  156.24    6.91   0
   6   0  -3  148.84    6.95   0
   6   0  -3  150.47    6.92   0
  -6   0   3  147.71    6.65   0
  -6   0   3  139.34    6.59   0
   5   0  -3  137.46    5.96   0
   5   0  -3  122.38    5.88   0
  -5   0   3  126.03    5.74   0
  -5   0   3  122.75    5.73   0
   4   0  -3   18.88    1.50   0
   4   0  -3   20.50    1.54   0
  -4   0   3   19.93    1.46   0
  -4   0   3   17.91    1.42   0
   3   0  -3  890.93   35.68   0
   3   0  -3  955.71   35.70   0
  -3   0   3  855.62   35.62   0
  -3   0   3  919.40   35.65   0
   2   0  -3  281.53   11.46   0
   2   0  -3  289.47   11.47   0
   2   0  -3  293.95   11.44   0
  -2   0   3  291.87   11.47   0
  -2   0   3  267.69   11.44   0
   1   0  -3  562.81   22.26   0
   1   0  -3  568.77   22.20   0
   1   0  -3  553.34   22.19   0
  -1   0   3  567.67   22.22   0
  -1   0   3  570.14   22.28   0
  -1   0   3  573.80   22.24   0
   0   0  -3   53.46    2.33   0
   0   0   3   49.01    2.17   0
   0   0   3   54.52    2.20   0
   0   0   3   50.11    2.34   0
   1   0   3   26.92    1.18   0
   1   0   3   25.54    1.16   0
   2   0   3  129.40    5.14   0
   2   0   3  121.84    5.08   0
   3   0   3   42.11    2.00   0
   3   0   3   40.13    2.09   0
   4   0   3  153.45    6.30   0
   4   0   3  146.05    6.48   0
   4   0   3  153.24    6.43   0
   5   0   3  286.91   11.89   0
   5   0   3  285.99   11.98   0
   6   0   3   73.46    3.91   0
   6   0   3   64.03    3.88   0
   7   0   3  148.00    7.44   0
   7   0   3  158.69    7.58   0
   9  -1  -3  162.87    8.78   0
  -9   1   3  176.63    8.04   0
  -9   1   3  150.98    7.68   0
   8  -1  -3   35.37    3.50   0
   8  -1  -3   37.29    3.58   0
  -8   1   3   37.11    2.91   0
  -8   1   3   41.24    3.13   0
   7  -1  -3  194.89    8.64   0
   7  -1  -3  171.78    8.56   0
  -7   1   3  185.26    8.28   0
  -7   1   3  188.96    8.34   0
   6  -1  -3  487.33   23.21   0
   6  -1  -3  581.50   23.31   0
  -6   1   3  592.52   23.15   0
  -6   1   3  599.22   22.46   0
  -6   1   3  597.66   23.18   0
   5  -1  -3  360.78   15.57   0
   5  -1  -3  395.73   15.60   0
  -5   1   3  352.75   15.41   0
  -5   1   3  398.33   15.51   0
  -5   1   3  381.28   15.03   0
   4  -1  -3   96.87    4.65   0
   4  -1  -3  101.89    4.71   0
  -4   1   3  107.09    4.69   0
  -4   1   3  103.49    4.65   0
   3  -1  -3 1330.13   52.11   0
   2  -1  -3   51.78    2.46   0
   2  -1  -3   52.00    2.38   0
   2  -1  -3   51.66    2.38   0
  -2   1   3   53.62    2.43   0
  -2   1   3   51.09    2.41   0
   1  -1  -3  323.78   13.15   0
   1  -1  -3  341.16   12.90   0
   1  -1  -3  327.26   12.89   0
  -1   1   3  331.99   13.02   0
  -1   1   3  332.73   13.03   0
  -1   1   3  321.02   13.16   0
   0   1   3  166.42    6.86   0
   1   1   3  892.84   35.08   0
   1   1   3  893.78   35.16   0
   2   1   3  565.58   22.41   0
   2   1   3  556.52   22.03   0
   2   1   3  568.89   22.01   0
   3   1   3    5.80    0.96   0
   3   1   3    6.46    0.77   0
   3   1   3    5.21    0.74   0
   4   1   3 1232.81   48.89   0
   4   1   3 1236.49   48.96   0
   4   1   3 1273.09   48.93   0
   5   1   3  518.30   21.10   0
   5   1   3  525.48   21.05   0
   6   1   3   36.65    2.86   0
   6   1   3   32.18    2.77   0
   9  -2  -3   32.08    4.15   0
   9  -2  -3   39.29    4.07   0
  -9   2   3   38.32    3.54   0
  -9   2   3   34.32    3.23   0
   8  -2  -3   51.08    4.00   0
   8  -2  -3   54.26    4.06   0
  -8   2   3   57.39    3.73   0
  -8   2   3   55.26    3.55   0
   7  -2  -3   20.96    2.29   0
   7  -2  -3   23.94    2.46   0
  -7   2   3   23.29    2.23   0
  -7   2   3   21.44    2.07   0
   6  -2  -3  499.63   21.38   0
   6  -2  -3  543.76   21.43   0
  -6   2   3  498.32   21.19   0
  -6   2   3  554.25   21.33   0
  -6   2   3  518.93   20.66   0
   5  -2  -3   94.85    4.60   0
   5  -2  -3  102.12    4.65   0
  -5   2   3   88.78    4.52   0
  -5   2   3   91.27    4.48   0
  -5   2   3   97.40    4.19   0
   4  -2  -3  548.88   23.63   0
   4  -2  -3  620.40   23.69   0
  -4   2   3  586.32   23.48   0
  -4   2   3  592.11   23.64   0
  -4   2   3  614.14   23.71   0
   3  -2  -3  156.46    6.72   0
   3  -2  -3  161.19    6.72   0
  -3   2   3  164.36    6.76   0
  -3   2   3  154.13    6.77   0
  -3   2   3  165.02    6.79   0
   2  -2  -3 1397.46   53.28   0
  -2   2   3 1329.84   53.21   0
  -2   2   3 1361.23   53.39   0
   1  -2  -3  341.59   13.86   0
  -1   2   3  336.95   14.04   0
  -1   2   3  349.67   13.91   0
  -1   2   3  352.64   13.68   0
  -1   2   3  353.45   13.69   0
   0   2   3  281.90   11.44   0
   0   2   3  283.40   11.60   0
   1   2   3 1337.77   52.38   0
   1   2   3 1330.97   52.24   0
   2   2   3  490.97   19.73   0
   2   2   3  526.13   19.83   0
   2   2   3  480.46   19.29   0
   2   2   3  473.86   19.28   0
   3   2   3   41.55    2.32   0
   3   2   3   38.42    1.99   0
   3   2   3   36.84    1.95   0
   4   2   3  162.50    7.07   0
   4   2   3  168.32    7.09   0
   5   2   3  397.11   15.88   0
   5   2   3  374.32   15.84   0
   6   2   3   90.59    5.00   0
   6   2   3   88.59    4.93   0
   9  -3  -3  273.57   12.17   0
   9  -3  -3  248.49   12.08   0
  -9   3   3  257.07   11.68   0
  -9   3   3  254.00   11.48   0
   8  -3  -3   69.82    4.58   0
   8  -3  -3   66.70    4.44   0
  -8   3   3   75.44    4.37   0
  -8   3   3   65.86    4.04   0
   7  -3  -3    1.03    0.86   0
   7  -3  -3    3.13    1.26   0
  -7   3   3    2.47    0.97   0
  -7   3   3    2.87    0.56   0
  -7   3   3    2.30    0.95   0
   6  -3  -3  157.49    6.99   0
   6  -3  -3  157.76    7.01   0
  -6   3   3  143.16    6.77   0
  -6   3   3  144.88    6.36   0
  -6   3   3  148.05    6.90   0
   5  -3  -3 1107.97   43.70   0
   5  -3  -3 1099.69   43.71   0
  -5   3   3 1123.27   43.74   0
  -5   3   3 1101.19   43.43   0
  -5   3   3 1090.58   43.65   0
   4  -3  -3  334.49   13.31   0
   4  -3  -3  314.23   13.28   0
  -4   3   3  327.09   13.28   0
  -4   3   3  319.28   13.30   0
  -4   3   3  330.97   13.39   0
   3  -3  -3  620.62   25.23   0
   3  -3  -3  653.87   25.24   0
   3  -3  -3  625.73   25.33   0
  -3   3   3  630.02   25.44   0
  -3   3   3  670.89   25.40   0
  -3   3   3  630.86   25.31   0
   2  -3  -3 1050.93   40.76   0
   2  -3  -3 1004.82   41.03   0
   2  -3  -3 1036.96   40.75   0
  -2   3   3 1069.45   41.28   0
  -2   3   3 1041.33   40.95   0
  -2   3   3 1072.70   41.01   0
   1  -3  -3   76.75    3.51   0
  -1   3   3   76.17    3.80   0
  -1   3   3   88.34    3.39   0
  -1   3   3   70.09    3.54   0
  -1   3   3   79.45    3.33   0
   0   3   3   75.15    2.98   0
   0   3   3   68.62    3.56   0
   0   3   3   69.33    3.36   0
   0   3   3   73.56    2.95   0
   1   3   3 1404.25   53.31   0
   1   3   3 1313.89   53.45   0
   2   3   3 1188.36   47.73   0
   2   3   3 1243.50   48.20   0
   2   3   3 1228.76   47.78   0
   2   3   3 1238.71   48.32   0
   3   3   3   87.40    3.92   0
   3   3   3   90.30    3.98   0
   3   3   3   85.54    4.35   0
   3   3   3   87.99    4.35   0
   4   3   3  147.61    6.54   0
   4   3   3  152.09    6.60   0
   5   3   3  287.89   12.32   0
   5   3   3  295.82   12.39   0
   9  -4  -3  374.13   16.28   0
   9  -4  -3  343.82   16.15   0
  -9   4   3  391.97   16.01   0
  -9   4   3  355.31   15.69   0
   8  -4  -3  531.09   21.45   0
   8  -4  -3  487.81   21.33   0
  -8   4   3  527.50   21.27   0
  -8   4   3  489.30   20.98   0
   7  -4  -3  179.30    7.79   0
   7  -4  -3  143.83    7.55   0
  -7   4   3  160.80    6.89   0
  -7   4   3  158.89    7.61   0
  -7   4   3  166.83    7.50   0
   6  -4  -3  807.57   34.10   0
   6  -4  -3  879.04   34.16   0
  -6   4   3  888.43   34.22   0
  -6   4   3  833.22   34.00   0
  -6   4   3  853.00   33.73   0
   5  -4  -3 1230.99   47.66   0
   5  -4  -3 1180.10   47.64   0
  -5   4   3 1190.19   47.51   0
  -5   4   3 1236.48   47.79   0
  -5   4   3 1195.45   47.63   0
   4  -4  -3  360.74   14.01   0
   4  -4  -3  337.16   13.97   0
  -4   4   3  352.30   14.17   0
  -4   4   3  317.02   13.98   0
  -4   4   3  348.92   14.12   0
   3  -4  -3  749.44   30.31   0
   3  -4  -3  763.17   30.30   0
   3  -4  -3  771.32   30.51   0
  -3   4   3  769.39   30.71   0
  -3   4   3  790.72   30.58   0
  -3   4   3  780.77   30.48   0
   2  -4  -3 2304.02   87.46   0
  -2   4   3 2181.26   87.76   0
   1  -4  -3  861.27   33.79   0
   1  -4  -3  890.94   34.31   0
  -1   4   3  835.08   33.71   0
  -1   4   3  855.51   33.65   0
  -1   4   3  863.77   33.91   0
  -1   4   3  850.90   34.22   0
   0   4   3   46.54    2.69   0
   0   4   3   57.28    3.12   0
   0   4   3   52.93    2.45   0
   0   4   3   55.26    2.36   0
   1   4   3  978.50   39.01   0
   1   4   3  973.93   38.94   0
   1   4   3 1018.88   39.39   0
   1   4   3 1018.66   39.65   0
   2   4   3  594.94   24.32   0
   2   4   3  605.37   23.90   0
   2   4   3  603.35   23.98   0
   2   4   3  621.19   24.55   0
   3   4   3   64.52    3.84   0
   3   4   3   69.61    3.32   0
   3   4   3   71.75    3.46   0
   4   4   3   13.20    1.76   0
   4   4   3   12.74    1.94   0
   4   4   3   15.76    1.99   0
   9  -5  -3  207.02   10.30   0
   9  -5  -3  221.08   10.45   0
  -9   5   3  207.69    9.87   0
  -9   5   3  213.10   10.16   0
   8  -5  -3  273.07   12.85   0
   8  -5  -3  304.26   13.02   0
  -8   5   3  286.57   12.63   0
  -8   5   3  297.00   12.93   0
   7  -5  -3  207.63    9.60   0
   7  -5  -3  227.99    9.71   0
  -7   5   3  219.10    9.74   0
  -7   5   3  196.27    9.38   0
   6  -5  -3  587.32   24.12   0
   6  -5  -3  577.03   24.11   0
  -6   5   3  612.34   23.93   0
  -6   5   3  617.66   24.34   0
  -6   5   3  576.28   24.06   0
   5  -5  -3  111.13    5.22   0
   5  -5  -3  116.63    5.24   0
  -5   5   3  115.47    5.46   0
  -5   5   3   98.51    5.15   0
  -5   5   3  113.36    5.30   0
   4  -5  -3   12.83    1.24   0
   4  -5  -3   10.59    1.21   0
   4  -5  -3   13.52    1.47   0
  -4   5   3   12.45    1.57   0
  -4   5   3   12.41    1.52   0
  -4   5   3   10.57    1.29   0
   3  -5  -3   62.21    2.87   0
   3  -5  -3   61.58    3.56   0
   3  -5  -3   62.65    2.86   0
   3  -5  -3   65.71    3.21   0
  -3   5   3   63.04    3.13   0
  -3   5   3   62.96    3.53   0
  -3   5   3   68.55    3.34   0
   2  -5  -3  929.96   37.89   0
   2  -5  -3  972.90   37.37   0
  -2   5   3  950.53   37.45   0
  -2   5   3  944.85   37.83   0
  -2   5   3  947.31   37.31   0
   1  -5  -3  494.43   19.82   0
  -1   5   3  474.13   19.18   0
  -1   5   3  482.93   19.71   0
  -1   5   3  470.48   19.04   0
   0  -5  -3   55.56    3.62   0
   0   5   3   63.12    3.22   0
   0   5   3   61.20    3.01   0
   0   5   3   63.59    2.86   0
   0   5   3   68.53    3.70   0
   1   5   3    0.98    0.80   0
   2   5   3  230.23   10.02   0
   2   5   3  233.14    9.76   0
   2   5   3  235.94    9.61   0
   3   5   3  129.69    6.11   0
   3   5   3  135.57    5.91   0
   3   5   3  128.23    6.40   0
   9  -6  -3  233.27   10.81   0
   9  -6  -3  219.01   10.64   0
  -9   6   3  226.26   10.60   0
  -9   6   3  198.81   10.22   0
   8  -6  -3    1.03    1.40   0
   8  -6  -3    0.74    1.51   0
  -8   6   3    2.36    1.35   0
  -8   6   3    1.12    1.55   0
   7  -6  -3    9.66    1.60   0
   7  -6  -3   12.27    1.78   0
  -7   6   3    9.47    1.78   0
  -7   6   3   10.05    1.54   0
   6  -6  -3   11.28    1.76   0
   6  -6  -3   12.95    1.85   0
  -6   6   3   12.72    1.82   0
  -6   6   3   17.56    1.89   0
   5  -6  -3  402.06   15.52   0
   5  -6  -3  368.94   15.34   0
   5  -6  -3  381.41   15.35   0
  -5   6   3  387.18   15.74   0
  -5   6   3  361.24   15.43   0
  -5   6   3  341.62   15.52   0
   4  -6  -3  530.16   22.36   0
   4  -6  -3  562.37   22.38   0
   4  -6  -3  587.18   23.14   0
   4  -6  -3  562.06   22.62   0
  -4   6   3  549.66   22.94   0
  -4   6   3  573.82   22.66   0
  -4   6   3  573.14   22.89   0
   3  -6  -3  148.99    7.20   0
   3  -6  -3  155.72    6.64   0
  -3   6   3  148.03    7.10   0
  -3   6   3  149.02    6.62   0
  -3   6   3  157.18    6.87   0
   2  -6  -3 1043.09   41.25   0
   2  -6  -3 1087.48   42.07   0
  -2   6   3 1045.25   41.91   0
  -2   6   3 1046.97   41.29   0
  -2   6   3 1024.94   41.48   0
   1  -6  -3  260.31   11.58   0
  -1   6   3  250.79   10.91   0
  -1   6   3  268.17   10.77   0
  -1   6   3  271.18   11.54   0
   0   6   3  124.78    5.79   0
   0   6   3  136.27    6.02   0
   0   6   3  144.79    6.71   0
   1   6   3  276.74   11.55   0
   1   6   3  285.23   11.39   0
   1   6   3  266.96   11.60   0
   2   6   3  337.31   14.18   0
   2   6   3  345.22   14.28   0
   2   6   3  339.98   13.94   0
   8  -7  -3  302.47   13.27   0
   8  -7  -3  297.02   13.22   0
  -8   7   3  284.33   13.05   0
  -8   7   3  302.18   13.56   0
   7  -7  -3  464.83   18.74   0
   7  -7  -3  440.55   18.69   0
  -7   7   3  418.41   18.63   0
  -7   7   3  462.96   19.13   0
   6  -7  -3  811.02   31.97   0
   6  -7  -3  799.19   31.87   0
   6  -7  -3  811.45   31.90   0
  -6   7   3  780.16   32.27   0
  -6   7   3  769.79   31.97   0
   5  -7  -3 1285.44   49.22   0
   5  -7  -3 1230.04   48.99   0
   5  -7  -3 1209.19   48.99   0
  -5   7   3 1261.50   49.53   0
  -5   7   3 1270.83   49.58   0
  -5   7   3 1206.14   49.24   0
   4  -7  -3  399.11   15.81   0
   4  -7  -3  389.52   16.50   0
   4  -7  -3  381.57   15.38   0
   4  -7  -3  395.53   15.39   0
  -4   7   3  348.50   16.06   0
  -4   7   3  389.57   16.34   0
  -4   7   3  392.04   15.90   0
   3  -7  -3   35.74    2.28   0
   3  -7  -3   34.42    3.18   0
  -3   7   3   32.78    3.00   0
  -3   7   3   36.63    2.35   0
  -3   7   3   36.73    2.71   0
   2  -7  -3  620.52   25.96   0
  -2   7   3  638.62   25.41   0
  -2   7   3  625.00   25.13   0
  -2   7   3  630.50   25.84   0
   1  -7  -3  256.38   11.50   0
  -1   7   3  252.46   10.75   0
  -1   7   3  246.07   10.49   0
   0   7   3  171.14    7.88   0
   0   7   3  181.90    7.70   0
   1   7   3   62.78    3.92   0
   1   7   3   59.15    3.43   0
   7  -8  -3  159.74    7.66   0
   7  -8  -3  167.47    7.88   0
   7  -8  -3  155.54    7.63   0
  -7   8   3  152.88    7.76   0
   6  -8  -3   65.26    3.83   0
   6  -8  -3   69.45    3.89   0
   6  -8  -3   64.04    4.18   0
  -6   8   3   68.17    4.22   0
  -6   8   3   76.60    4.90   0
   5  -8  -3  314.63   12.95   0
   5  -8  -3  309.98   12.96   0
   5  -8  -3  316.90   13.34   0
  -5   8   3  324.94   13.92   0
  -5   8   3  318.22   13.50   0
   4  -8  -3   86.97    5.42   0
   4  -8  -3   88.60    4.31   0
  -4   8   3   82.92    4.90   0
  -4   8   3   78.68    4.42   0
   3  -8  -3  211.95    9.87   0
   3  -8  -3  195.36    8.50   0
  -3   8   3  196.52    8.81   0
  -3   8   3  201.47    9.20   0
   2  -8  -3   39.91    4.01   0
  -2   8   3   41.22    2.76   0
  -2   8   3   41.11    3.26   0
  -1   8   3   63.84    3.52   0
  -1   8   3   53.83    3.90   0
   6  -9  -3    1.60    1.07   0
   6  -9  -3    1.16    1.07   0
  -6   9   3    2.13    1.43   0
  -6   9   3    0.38    1.85   0
   5  -9  -3    5.69    1.54   0
  -5   9   3    7.84    1.62   0
  -5   9   3   10.17    2.22   0
   4  -9  -3  141.42    6.46   0
  -4   9   3  148.16    7.59   0
  -4   9   3  139.31    6.92   0
  -1  10  -4   73.14    5.33   0
  -1  10  -4   59.45    4.61   0
   1 -10   4   67.80    3.92   0
   1 -10   4   61.77    4.92   0
   1 -10   4   65.46    3.90   0
  -2  10  -4  174.07    8.73   0
  -2  10  -4  151.54    8.20   0
   2 -10   4  165.16    7.78   0
   2 -10   4  162.03    8.51   0
   2 -10   4  179.10    7.85   0
  -3  10  -4    0.82    1.67   0
   3 -10   4   -2.57    1.84   0
   3 -10   4   -1.64    1.17   0
   3 -10   4   -0.18    1.07   0
  -4  10  -4  107.82    6.38   0
  -4  10  -4  113.11    6.77   0
   4 -10   4  115.81    6.23   0
   4 -10   4  114.21    6.62   0
   4 -10   4  122.37    6.22   0
  -5  10  -4  256.53   12.43   0
  -5  10  -4  283.93   12.92   0
   5 -10   4  267.76   12.33   0
   5 -10   4  284.12   12.57   0
   5 -10   4  285.64   12.77   0
  -6  10  -4   26.61    4.07   0
   6 -10   4   29.79    3.70   0
   6 -10   4   31.56    4.12   0
   6 -10   4   22.80    3.03   0
   1   9  -4   12.20    2.40   0
   1   9  -4   13.52    2.15   0
  -1  -9   4   13.93    1.85   0
  -1  -9   4   15.18    1.94   0
  -1  -9   4   12.89    2.40   0
   0   9  -4   11.50    2.24   0
   0   9  -4   12.27    1.94   0
   0  -9   4    8.94    2.02   0
   0  -9   4    7.79    1.26   0
   0  -9   4   11.31    1.79   0
  -1   9  -4  429.56   17.47   0
  -1   9  -4  385.04   17.05   0
   1  -9   4  398.45   16.71   0
   1  -9   4  391.28   17.19   0
   1  -9   4  404.07   16.63   0
  -2   9  -4  100.22    5.59   0
  -2   9  -4  109.16    5.96   0
   2  -9   4  104.71    5.82   0
   2  -9   4   99.06    5.36   0
   2  -9   4  110.62    5.32   0
  -3   9  -4   18.49    2.49   0
  -3   9  -4   14.58    2.10   0
   3  -9   4   13.49    2.34   0
   3  -9   4   11.22    1.59   0
   3  -9   4   13.81    2.16   0
  -4   9  -4  456.86   18.99   0
  -4   9  -4  431.92   18.70   0
   4  -9   4  470.26   18.65   0
   4  -9   4  408.75   18.60   0
   4  -9   4  453.11   18.85   0
  -5   9  -4  364.54   15.34   0
  -5   9  -4  324.98   14.90   0
   5  -9   4  351.84   14.97   0
   5  -9   4  336.64   15.06   0
   5  -9   4  353.34   15.06   0
  -6   9  -4    3.42    1.83   0
  -6   9  -4    1.44    1.27   0
   6  -9   4    2.18    1.51   0
   6  -9   4    2.83    1.59   0
   6  -9   4    2.36    1.76   0
  -7   9  -4    2.10    1.64   0
  -7   9  -4    8.09    2.25   0
   7  -9   4    5.55    2.05   0
   7  -9   4    3.47    2.02   0
   7  -9   4    3.58    1.67   0
   2   8  -4  219.49   10.11   0
   2   8  -4  222.10   10.56   0
  -2  -8   4  211.44    9.40   0
  -2  -8   4  219.91    9.32   0
  -2  -8   4  227.31   10.21   0
   1   8  -4   32.54    2.89   0
   1   8  -4   40.21    3.49   0
  -1  -8   4   34.11    2.40   0
  -1  -8   4   30.34    3.17   0
  -1  -8   4   36.03    2.36   0
   0   8  -4   77.72    4.46   0
   0   8  -4   54.02    3.84   0
   0  -8   4   65.18    3.61   0
   0  -8   4   57.54    4.00   0
   0  -8   4   69.76    3.56   0
  -1   8  -4 1441.40   55.67   0
  -1   8  -4 1333.11   55.41   0
   1  -8   4 1386.70   55.23   0
   1  -8   4 1381.49   55.50   0
   1  -8   4 1446.43   55.17   0
  -2   8  -4  127.60    6.35   0
   2  -8   4  117.61    5.98   0
   2  -8   4  120.71    6.18   0
   2  -8   4  132.06    5.98   0
  -3   8  -4    0.35    0.86   0
  -3   8  -4    5.14    1.28   0
   3  -8   4    1.66    0.94   0
   3  -8   4    0.98    1.01   0
   3  -8   4    2.08    0.83   0
  -4   8  -4   54.71    3.65   0
   4  -8   4   41.03    3.10   0
   4  -8   4   50.54    3.40   0
  -5   8  -4  525.63   23.90   0
  -5   8  -4  625.20   24.31   0
   5  -8   4  595.82   24.01   0
   5  -8   4  607.10   24.04   0
   5  -8   4  569.51   24.14   0
  -6   8  -4  170.48    8.20   0
  -6   8  -4  166.09    7.93   0
   6  -8   4  169.41    8.03   0
   6  -8   4  161.97    7.76   0
   6  -8   4  156.66    8.11   0
  -7   8  -4   15.08    2.25   0
  -7   8  -4   15.62    2.15   0
   7  -8   4   18.26    2.62   0
   7  -8   4   20.27    3.26   0
   7  -8   4   22.84    3.24   0
   4   7  -4   20.68    2.89   0
   4   7  -4   12.45    2.11   0
  -4  -7   4   14.92    1.81   0
  -4  -7   4   15.21    1.74   0
  -4  -7   4   15.65    2.32   0
   3   7  -4   -0.18    1.14   0
   3   7  -4   -1.01    1.45   0
  -3  -7   4   -0.65    1.26   0
  -3  -7   4    1.38    0.80   0
  -3  -7   4    0.52    0.87   0
   2   7  -4  348.58   15.40   0
   2   7  -4  388.75   15.84   0
  -2  -7   4  379.31   15.01   0
  -2  -7   4  343.22   14.98   0
  -2  -7   4  364.47   15.45   0
   1   7  -4   21.54    2.16   0
   1   7  -4   25.21    2.54   0
  -1  -7   4   18.89    1.79   0
  -1  -7   4   16.94    2.16   0
  -1  -7   4   21.21    1.84   0
   0   7  -4    5.82    1.09   0
   0   7  -4    8.24    1.45   0
   0  -7   4    8.74    1.40   0
   0  -7   4   11.06    1.51   0
  -1   7  -4   18.47    1.93   0
   1  -7   4   22.30    1.92   0
  -2   7  -4  610.13   28.17   0
   2  -7   4  707.63   28.19   0
   2  -7   4  779.22   28.14   0
  -3   7  -4 1197.84   44.42   0
  -3   7  -4 1135.14   44.26   0
   3  -7   4 1013.10   44.03   0
   3  -7   4 1104.26   44.27   0
  -4   7  -4    4.54    1.02   0
  -4   7  -4    4.86    1.27   0
   4  -7   4    6.31    1.23   0
   4  -7   4    5.41    1.15   0
  -5   7  -4  297.81   12.86   0
  -5   7  -4  313.20   13.08   0
   5  -7   4  289.84   12.71   0
   5  -7   4  286.17   13.01   0
   5  -7   4  316.91   12.94   0
  -6   7  -4  269.95   11.64   0
  -6   7  -4  255.21   11.40   0
   6  -7   4  252.61   11.67   0
   6  -7   4  272.45   11.56   0
   6  -7   4  255.46   11.19   0
  -7   7  -4  232.76   10.90   0
   7  -7   4  257.59   11.27   0
   7  -7   4  252.39   11.47   0
   7  -7   4  242.20   10.53   0
  -8   7  -4   68.33    4.49   0
  -8   7  -4   77.76    4.88   0
   8  -7   4   70.82    4.96   0
   8  -7   4   61.63    5.15   0
   8  -7   4   70.07    3.71   0
   5   6  -4   79.69    5.27   0
   5   6  -4   81.84    4.17   0
   5   6  -4   84.31    5.73   0
  -5  -6   4   74.97    3.96   0
  -5  -6   4   78.09    4.61   0
  -5  -6   4   73.71    3.95   0
   4   6  -4  192.94    8.92   0
   4   6  -4  171.55    8.40   0
  -4  -6   4  174.23    7.78   0
  -4  -6   4  174.53    7.73   0
  -4  -6   4  178.41    8.18   0
   3   6  -4   33.24    3.10   0
   3   6  -4   38.32    2.83   0
  -3  -6   4   34.70    2.39   0
  -3  -6   4   36.31    2.70   0
  -3  -6   4   34.65    2.37   0
   2   6  -4  165.26    7.99   0
   2   6  -4  189.49    8.34   0
  -2  -6   4  183.22    7.79   0
  -2  -6   4  175.72    7.77   0
   1   6  -4  714.03   29.40   0
   1   6  -4  686.75   29.22   0
  -1  -6   4  720.40   29.08   0
  -1  -6   4  791.57   29.13   0
   0   6  -4  976.82   39.23   0
   0   6  -4 1005.61   39.34   0
   0  -6   4 1054.29   39.11   0
   0  -6   4  909.05   39.04   0
  -1   6  -4  476.13   18.92   0
  -1   6  -4  452.99   18.78   0
   1  -6   4  453.95   17.98   0
   1  -6   4  467.16   18.68   0
   1  -6   4  449.74   18.73   0
  -2   6  -4  874.31   34.69   0
  -2   6  -4  850.15   34.73   0
   2  -6   4  883.99   34.58   0
   2  -6   4  871.63   34.70   0
  -3   6  -4  342.82   14.67   0
  -3   6  -4  369.48   14.83   0
   3  -6   4  339.26   14.73   0
   3  -6   4  364.37   14.64   0
  -4   6  -4   26.92    2.13   0
  -4   6  -4   34.25    2.43   0
   4  -6   4   29.63    2.33   0
   4  -6   4   29.50    2.19   0
  -5   6  -4  455.69   20.84   0
  -5   6  -4  462.34   20.76   0
   5  -6   4  577.03   21.02   0
   5  -6   4  549.64   21.19   0
  -6   6  -4  315.48   14.11   0
  -6   6  -4  342.56   14.30   0
   6  -6   4  337.04   13.88   0
   6  -6   4  337.44   14.54   0
   6  -6   4  349.57   14.35   0
  -7   6  -4  156.45    7.32   0
  -7   6  -4  157.46    7.49   0
   7  -6   4  147.00    7.78   0
   7  -6   4  159.64    6.83   0
   7  -6   4  161.06    7.72   0
  -8   6  -4   92.03    5.08   0
  -8   6  -4   94.26    5.31   0
   8  -6   4   93.75    5.98   0
   8  -6   4   91.63    4.05   0
   8  -6   4   96.97    5.82   0
   5   5  -4  199.34    9.37   0
   5   5  -4  185.18    9.02   0
  -5  -5   4  199.30    8.52   0
  -5  -5   4  184.52    8.33   0
  -5  -5   4  191.15    8.34   0
   4   5  -4  271.24   12.13   0
   4   5  -4  284.44   12.38   0
  -4  -5   4  282.21   11.74   0
  -4  -5   4  280.64   11.83   0
  -4  -5   4  279.68   11.75   0
   3   5  -4   85.45    4.65   0
   3   5  -4   82.18    3.64   0
   3   5  -4   84.64    4.44   0
  -3  -5   4   84.64    4.18   0
  -3  -5   4   87.61    4.21   0
   2   5  -4  490.38   20.02   0
   2   5  -4  474.35   20.10   0
  -2  -5   4  481.81   19.83   0
  -2  -5   4  516.69   19.88   0
   1   5  -4 1353.41   54.59   0
   1   5  -4 1354.77   54.51   0
  -1  -5   4 1342.58   54.39   0
  -1  -5   4 1483.94   54.45   0
   0   5  -4 1185.44   46.91   0
   0   5  -4 1180.04   46.95   0
   0  -5   4 1248.67   46.84   0
   0  -5   4 1139.62   46.83   0
  -1   5  -4   12.31    1.32   0
  -1   5  -4   12.86    1.40   0
   1  -5   4   15.28    1.42   0
   1  -5   4   12.51    0.81   0
   1  -5   4   13.69    1.31   0
  -2   5  -4  680.10   27.87   0
   2  -5   4  665.41   27.86   0
   2  -5   4  746.64   27.83   0
  -3   5  -4  379.91   15.60   0
  -3   5  -4  370.43   15.52   0
   3  -5   4  397.29   15.51   0
   3  -5   4  369.51   15.63   0
  -4   5  -4  240.02   10.10   0
  -4   5  -4  223.09    9.97   0
   4  -5   4  228.97   10.18   0
   4  -5   4  252.10   10.07   0
  -5   5  -4  332.32   14.04   0
  -5   5  -4  345.20   14.15   0
   5  -5   4  333.45   14.31   0
   5  -5   4  345.33   14.16   0
  -6   5  -4  438.56   17.74   0
  -6   5  -4  429.09   17.63   0
   6  -5   4  439.32   17.86   0
   6  -5   4  412.37   18.00   0
  -7   5  -4    8.17    1.41   0
  -7   5  -4    7.70    1.26   0
   7  -5   4   10.91    1.77   0
   7  -5   4    9.19    1.17   0
   7  -5   4    9.33    1.76   0
  -8   5  -4   33.93    2.96   0
  -8   5  -4   35.87    2.76   0
   8  -5   4   34.81    3.91   0
   8  -5   4   30.21    3.62   0
   6   4  -4    3.58    1.46   0
   6   4  -4    1.65    1.62   0
  -6  -4   4    2.61    0.96   0
  -6  -4   4    3.55    1.06   0
   5   4  -4   98.26    5.31   0
   5   4  -4  104.09    5.54   0
  -5  -4   4  102.25    4.89   0
  -5  -4   4   96.55    4.76   0
   4   4  -4  479.15   19.28   0
   4   4  -4  457.35   19.32   0
  -4  -4   4  461.70   18.95   0
   3   4  -4  267.76   11.41   0
   3   4  -4  263.06   11.29   0
  -3  -4   4  265.73   11.11   0
   2   4  -4  166.08    7.38   0
   2   4  -4  178.70    7.53   0
   2   4  -4  168.41    6.81   0
  -2  -4   4  160.40    7.26   0
   1   4  -4  637.71   25.16   0
   1   4  -4  604.06   25.06   0
  -1  -4   4  627.10   25.04   0
  -1  -4   4  641.10   25.05   0
   0   4  -4   39.79    2.33   0
   0   4  -4   44.93    2.43   0
   0  -4   4   40.98    2.33   0
   0  -4   4   42.41    1.91   0
   0  -4   4   44.71    2.34   0
  -1   4  -4  179.33    7.55   0
  -1   4  -4  177.16    7.52   0
   1  -4   4  159.32    7.48   0
   1  -4   4  188.55    7.51   0
  -2   4  -4  167.27    7.33   0
   2  -4   4  161.71    7.36   0
   2  -4   4  184.43    7.32   0
  -3   4  -4 1049.94   39.70   0
  -3   4  -4  967.11   39.61   0
   3  -4   4  993.66   39.60   0
   3  -4   4 1007.74   39.77   0
  -4   4  -4   65.69    3.41   0
  -4   4  -4   71.55    3.51   0
   4  -4   4   64.85    3.60   0
   4  -4   4   75.97    3.54   0
  -5   4  -4   20.44    1.67   0
  -5   4  -4   19.67    1.75   0
   5  -4   4   21.05    2.00   0
   5  -4   4   21.38    1.87   0
  -6   4  -4  206.99    8.80   0
  -6   4  -4  200.07    8.72   0
   6  -4   4  211.77    9.09   0
   6  -4   4  197.73    9.22   0
  -7   4  -4  586.71   22.75   0
  -7   4  -4  555.00   22.69   0
   7  -4   4  546.37   23.40   0
   7  -4   4  570.32   23.27   0
  -8   4  -4   17.96    1.93   0
  -8   4  -4   16.59    2.05   0
   8  -4   4   20.54    3.32   0
   8  -4   4   12.27    2.01   0
   7   3  -4  114.15    6.58   0
   7   3  -4  115.33    6.65   0
  -7  -3   4  117.60    5.69   0
  -7  -3   4  114.01    5.74   0
  -7  -3   4  114.42    5.08   0
   6   3  -4   26.44    2.83   0
   6   3  -4   19.32    2.47   0
  -6  -3   4   19.70    1.68   0
  -6  -3   4   18.32    1.97   0
  -6  -3   4   19.19    2.16   0
   5   3  -4  621.39   25.94   0
   5   3  -4  660.99   26.06   0
  -5  -3   4  649.80   25.66   0
  -5  -3   4  617.02   25.61   0
   4   3  -4  832.53   33.54   0
   4   3  -4  827.68   33.57   0
  -4  -3   4  836.13   33.34   0
  -4  -3   4  855.61   33.36   0
   3   3  -4  128.66    6.12   0
   3   3  -4  141.86    6.25   0
  -3  -3   4  132.25    6.02   0
  -3  -3   4  141.33    6.09   0
   2   3  -4   52.26    2.78   0
   2   3  -4   53.05    2.36   0
   2   3  -4   48.64    2.70   0
  -2  -3   4   50.84    2.69   0
  -2  -3   4   49.62    2.66   0
   1   3  -4 1073.88   41.39   0
   1   3  -4 1096.06   41.82   0
   1   3  -4 1025.86   41.74   0
  -1  -3   4 1104.99   41.77   0
  -1  -3   4 1003.38   41.71   0
   0   3  -4 1964.26   76.72   0
  -1   3  -4   29.59    1.74   0
  -1   3  -4   31.59    1.79   0
   1  -3   4   31.94    1.83   0
   1  -3   4   30.84    1.75   0
  -2   3  -4 3640.10  145.20   0
   2  -3   4 3442.78  144.72   0
  -3   3  -4 2040.15   72.66   0
   3  -3   4 1677.79   72.69   0
  -4   3  -4  499.74   19.53   0
  -4   3  -4  478.61   19.49   0
   4  -3   4  465.63   19.75   0
   4  -3   4  509.12   19.65   0
  -5   3  -4  406.45   16.67   0
  -5   3  -4  422.44   16.70   0
   5  -3   4  421.48   16.95   0
   5  -3   4  409.90   17.10   0
  -6   3  -4  964.12   37.89   0
  -6   3  -4  982.29   37.90   0
   6  -3   4  956.74   38.54   0
   6  -3   4  946.93   38.34   0
  -7   3  -4   66.05    3.15   0
   7  -3   4   61.27    4.16   0
   7  -3   4   65.80    4.12   0
   7   2  -4  244.88   11.20   0
   7   2  -4  233.86   11.13   0
  -7  -2   4  237.84    9.77   0
  -7  -2   4  244.73   10.55   0
  -7  -2   4  249.45   10.60   0
   6   2  -4  174.67    8.21   0
   6   2  -4  166.73    8.15   0
  -6  -2   4  172.29    7.77   0
  -6  -2   4  181.04    7.85   0
   5   2  -4  433.26   18.41   0
  -5  -2   4  450.54   18.19   0
  -5  -2   4  451.82   18.19   0
   4   2  -4 1845.29   73.81   0
   4   2  -4 1913.66   73.84   0
  -4  -2   4 1925.94   73.67   0
  -4  -2   4 1835.49   73.66   0
   3   2  -4 1710.02   67.49   0
   3   2  -4 1648.75   67.45   0
  -3  -2   4 1798.41   67.41   0
  -3  -2   4 1726.63   67.40   0
   2   2  -4    8.16    1.02   0
   2   2  -4    6.29    0.87   0
   2   2  -4    9.33    0.81   0
  -2  -2   4    7.87    0.95   0
  -2  -2   4    7.42    0.90   0
   1   2  -4 3964.87  164.22   0
  -1  -2   4 4157.99  164.38   0
   0   2  -4 2325.96   96.13   0
   0  -2   4 2319.15   95.94   0
  -1   2  -4  436.10   17.75   0
  -1   2  -4  453.87   17.76   0
   1  -2   4  466.11   17.81   0
   1  -2   4  435.87   17.84   0
  -2   2  -4  805.83   31.14   0
  -2   2  -4  764.27   31.12   0
   2  -2   4  805.39   31.20   0
   2  -2   4  799.58   31.28   0
  -3   2  -4 1278.70   49.70   0
  -3   2  -4 1263.50   49.70   0
   3  -2   4 1251.87   49.96   0
   3  -2   4 1298.34   49.84   0
  -4   2  -4  355.47   14.09   0
  -4   2  -4  353.37   14.07   0
   4  -2   4  357.52   14.36   0
   4  -2   4  350.92   14.50   0
  -5   2  -4   23.44    1.35   0
  -5   2  -4   25.65    1.37   0
   5  -2   4   25.70    2.00   0
   5  -2   4   27.11    1.91   0
   6  -2   4  304.19   13.02   0
   6  -2   4  304.79   12.87   0
   7  -2   4   54.57    3.74   0
   7  -2   4   53.45    3.80   0
   8   1  -4  164.10    8.76   0
   8   1  -4  179.93    8.86   0
  -8  -1   4  160.30    7.90   0
  -8  -1   4  182.56    8.18   0
   7   1  -4  545.70   22.79   0
   7   1  -4  558.50   22.78   0
  -7  -1   4  545.14   21.43   0
  -7  -1   4  531.97   22.27   0
  -7  -1   4  547.92   22.30   0
   6   1  -4  386.63   16.24   0
   6   1  -4  368.19   16.22   0
  -6  -1   4  402.74   15.98   0
  -6  -1   4  381.14   15.93   0
   5   1  -4   71.83    3.98   0
   5   1  -4   74.53    4.00   0
  -5  -1   4   75.06    3.84   0
  -5  -1   4   76.86    3.84   0
   4   1  -4  450.68   19.07   0
   4   1  -4  493.82   19.13   0
  -4  -1   4  488.06   19.00   0
  -4  -1   4  446.47   18.96   0
   3   1  -4  520.07   18.99   0
   3   1  -4  407.57   18.83   0
  -3  -1   4  519.75   18.92   0
  -3  -1   4  433.03   18.82   0
   2   1  -4  226.02    9.71   0
   2   1  -4  245.87    9.77   0
   2   1  -4  238.82    9.63   0
  -2  -1   4  230.56    9.72   0
  -2  -1   4  244.04    9.73   0
  -1  -1   4 1472.14   57.44   0
   0   1  -4  790.87   32.49   0
   0   1  -4  869.21   32.53   0
   0  -1   4  863.51   32.65   0
   0  -1   4  815.39   32.59   0
   0  -1   4  818.48   32.57   0
   1  -1   4  792.18   30.96   0
   1  -1   4  797.68   30.83   0
   1  -1   4  771.36   30.85   0
   2  -1   4   62.33    2.88   0
   2  -1   4   68.84    2.97   0
   3  -1   4  263.17   10.66   0
   3  -1   4  258.87   10.53   0
   4  -1   4    3.42    0.65   0
   4  -1   4    3.00    0.69   0
   4  -1   4    2.58    0.58   0
   5  -1   4    1.81    0.73   0
   5  -1   4    1.70    0.55   0
   6  -1   4   24.88    2.31   0
   6  -1   4   26.78    2.47   0
   7  -1   4   70.89    4.40   0
   7  -1   4   68.48    4.48   0
   8   0  -4  260.47   12.31   0
   8   0  -4  267.70   12.27   0
  -8   0   4  281.01   11.77   0
  -8   0   4  258.38   11.62   0
   7   0  -4  438.47   17.33   0
   7   0  -4  380.45   17.20   0
  -7   0   4  396.03   15.99   0
  -7   0   4  395.63   16.86   0
  -7   0   4  417.34   16.92   0
   6   0  -4  418.07   16.27   0
   6   0  -4  418.96   16.33   0
  -6   0   4  370.37   15.92   0
  -6   0   4  335.82   15.84   0
   5   0  -4  252.15   11.11   0
   5   0  -4  260.99   11.11   0
  -5   0   4  256.39   10.98   0
  -5   0   4  272.17   11.01   0
   4   0  -4  792.14   33.34   0
   4   0  -4  904.38   33.41   0
  -4   0   4  853.99   33.31   0
  -4   0   4  809.15   33.29   0
   3   0  -4  620.70   25.16   0
   3   0  -4  638.61   25.16   0
  -3   0   4  625.87   25.15   0
  -3   0   4  646.79   25.16   0
   2   0  -4   36.22    1.83   0
   2   0  -4   32.67    1.83   0
   2   0  -4   35.94    1.85   0
  -2   0   4   32.83    1.82   0
  -2   0   4   36.73    1.86   0
   1   0  -4 4578.95  185.12   0
  -1   0   4 4735.15  185.01   0
   0   0   4   58.89    2.53   0
   0   0   4   59.33    2.56   0
   0   0   4   59.46    2.79   0
   1   0   4  211.69    8.43   0
   1   0   4  213.69    8.46   0
   1   0   4  212.75    8.77   0
   2   0   4   30.72    1.54   0
   2   0   4   32.24    1.50   0
   3   0   4  402.80   16.49   0
   3   0   4  422.24   16.41   0
   3   0   4  416.48   16.65   0
   4   0   4  120.78    5.34   0
   4   0   4  116.94    5.28   0
   4   0   4  122.56    5.25   0
   5   0   4   24.75    2.04   0
   5   0   4   24.60    1.62   0
   5   0   4   23.25    1.90   0
   6   0   4  414.17   17.04   0
   6   0   4  403.24   16.89   0
   9  -1  -4   13.98    2.63   0
  -9   1   4   22.46    3.27   0
  -9   1   4   18.70    2.95   0
   8  -1  -4  566.55   23.41   0
   8  -1  -4  532.97   23.39   0
  -8   1   4  554.30   22.95   0
  -8   1   4  580.61   23.06   0
   7  -1  -4   85.84    4.78   0
   7  -1  -4   78.93    4.71   0
  -7   1   4   81.70    3.61   0
  -7   1   4   80.69    4.45   0
  -7   1   4   89.78    4.58   0
   6  -1  -4  364.98   14.58   0
   6  -1  -4  336.12   14.40   0
  -6   1   4  293.23   14.14   0
  -6   1   4  338.94   14.29   0
  -6   1   4  374.60   13.79   0
   5  -1  -4   93.61    4.55   0
   5  -1  -4   90.16    4.57   0
  -5   1   4   96.06    4.51   0
  -5   1   4   89.76    4.46   0
   4  -1  -4 1211.23   51.51   0
   4  -1  -4 1387.85   51.57   0
  -4   1   4 1338.91   51.53   0
  -4   1   4 1303.75   51.52   0
   3  -1  -4   54.99    2.78   0
   3  -1  -4   53.86    2.78   0
   3  -1  -4   61.75    2.89   0
  -3   1   4   61.19    2.87   0
  -3   1   4   57.44    2.83   0
   2  -1  -4  729.50   27.98   0
   2  -1  -4  687.95   27.97   0
   2  -1  -4  730.88   28.14   0
  -2   1   4  703.51   28.05   0
  -2   1   4  710.57   28.06   0
   1  -1  -4    5.22    0.75   0
  -1   1   4    5.32    0.56   0
  -1   1   4    5.24    0.55   0
  -1   1   4    5.94    0.77   0
   0   1   4  432.17   17.20   0
   0   1   4  439.78   17.20   0
   0   1   4  450.72   17.64   0
   1   1   4  869.48   35.45   0
   1   1   4  925.94   35.41   0
   2   1   4   14.89    1.35   0
   2   1   4   15.32    0.84   0
   2   1   4   15.62    0.81   0
   2   1   4   13.24    1.38   0
   3   1   4  580.66   22.79   0
   3   1   4  575.60   23.16   0
   3   1   4  581.38   22.86   0
   4   1   4   83.62    3.69   0
   4   1   4   68.92    3.67   0
   4   1   4   83.31    3.83   0
   5   1   4  114.80    5.28   0
   5   1   4  111.35    5.34   0
   6   1   4   52.89    3.56   0
   6   1   4   49.92    3.46   0
   9  -2  -4   10.65    2.33   0
   9  -2  -4    9.84    2.29   0
  -9   2   4   12.45    2.14   0
   8  -2  -4   -0.11    1.42   0
   8  -2  -4    0.25    1.24   0
  -8   2   4    0.26    1.12   0
  -8   2   4    1.83    1.24   0
   7  -2  -4   99.55    5.22   0
   7  -2  -4   91.85    5.16   0
  -7   2   4   98.75    4.26   0
  -7   2   4   95.62    5.03   0
  -7   2   4   96.18    4.99   0
   6  -2  -4  331.31   13.83   0
   6  -2  -4  337.92   13.90   0
  -6   2   4  345.40   13.31   0
  -6   2   4  293.88   13.66   0
  -6   2   4  327.45   13.72   0
   5  -2  -4    4.94    0.88   0
   5  -2  -4    7.37    1.27   0
  -5   2   4    8.36    1.34   0
  -5   2   4    6.67    0.96   0
  -5   2   4    8.57    1.25   0
   4  -2  -4    7.61    1.04   0
   4  -2  -4    6.80    0.99   0
  -4   2   4    6.15    1.02   0
  -4   2   4    7.09    1.04   0
  -4   2   4    7.69    1.13   0
   3  -2  -4  557.58   23.48   0
   3  -2  -4  615.20   23.66   0
   3  -2  -4  594.03   23.49   0
  -3   2   4  600.50   23.60   0
  -3   2   4  595.82   23.71   0
  -3   2   4  597.25   23.61   0
   2  -2  -4 1889.72   75.84   0
  -2   2   4 1996.62   76.05   0
   1  -2  -4  307.62   12.18   0
  -1   2   4  295.11   11.91   0
  -1   2   4  303.85   12.24   0
  -1   2   4  301.54   11.93   0
  -1   2   4  294.70   12.39   0
   0   2   4   33.24    2.06   0
   0   2   4   31.25    1.91   0
   1   2   4  245.98   10.45   0
   1   2   4  257.38   10.60   0
   2   2   4   15.03    1.53   0
   2   2   4   14.00    1.53   0
   2   2   4   15.31    0.81   0
   3   2   4  233.50    9.53   0
   3   2   4  236.25    9.99   0
   3   2   4  235.39   10.08   0
   3   2   4  236.66    9.52   0
   4   2   4  276.75   11.38   0
   4   2   4  278.27   11.59   0
   4   2   4  275.94   11.37   0
   5   2   4  295.34   12.62   0
   5   2   4  307.39   12.60   0
   9  -3  -4  368.56   16.94   0
   9  -3  -4  400.23   16.97   0
  -9   3   4  400.96   16.68   0
  -9   3   4  366.84   16.39   0
   8  -3  -4  118.97    6.26   0
   8  -3  -4  110.67    6.15   0
  -8   3   4  111.34    5.83   0
  -8   3   4  112.72    5.99   0
   7  -3  -4  138.73    6.84   0
   7  -3  -4  138.16    6.84   0
  -7   3   4  139.37    6.07   0
  -7   3   4  139.64    6.77   0
  -7   3   4  143.56    6.71   0
   6  -3  -4 1181.67   46.05   0
   6  -3  -4 1102.94   46.01   0
  -6   3   4 1153.64   45.64   0
  -6   3   4 1132.56   45.96   0
  -6   3   4 1224.90   46.11   0
   5  -3  -4  256.63   10.69   0
   5  -3  -4  230.32   10.62   0
  -5   3   4  254.39   10.58   0
  -5   3   4  265.35   10.81   0
  -5   3   4  255.99   10.71   0
   4  -3  -4  305.36   12.29   0
   4  -3  -4  296.11   12.38   0
   4  -3  -4  303.77   12.27   0
  -4   3   4  282.03   12.36   0
  -4   3   4  296.32   12.40   0
  -4   3   4  310.70   12.37   0
   3  -3  -4  957.44   36.05   0
   3  -3  -4  906.25   35.76   0
   3  -3  -4  894.59   35.76   0
  -3   3   4  913.25   36.19   0
  -3   3   4  888.22   35.92   0
   2  -3  -4 1904.32   73.21   0
  -2   3   4 1842.64   73.45   0
   1  -3  -4  544.13   21.44   0
  -1   3   4  536.68   21.20   0
  -1   3   4  525.60   21.53   0
  -1   3   4  546.14   21.18   0
  -1   3   4  540.91   21.79   0
   0   3   4  358.76   14.97   0
   0   3   4  377.80   15.24   0
   1   3   4  721.15   28.74   0
   1   3   4  712.42   28.57   0
   2   3   4  230.59    9.27   0
   2   3   4  226.81    9.95   0
   2   3   4  239.82    9.31   0
   2   3   4  234.51   10.05   0
   3   3   4  393.29   16.16   0
   3   3   4  399.37   15.62   0
   3   3   4  391.57   15.58   0
   3   3   4  378.07   16.18   0
   4   3   4  179.10    7.59   0
   4   3   4  172.80    8.18   0
   4   3   4  177.46    7.60   0
   9  -4  -4  478.89   19.61   0
   9  -4  -4  411.51   19.41   0
  -9   4   4  445.20   19.08   0
  -9   4   4  473.14   19.36   0
   8  -4  -4    2.73    1.32   0
   8  -4  -4    3.62    1.34   0
  -8   4   4    2.12    1.34   0
  -8   4   4    2.11    1.18   0
  -8   4   4    4.97    0.93   0
   7  -4  -4   18.33    2.18   0
   7  -4  -4   16.16    2.26   0
  -7   4   4   13.98    2.27   0
  -7   4   4   13.70    2.01   0
  -7   4   4   12.85    1.56   0
   6  -4  -4 1132.62   44.66   0
   6  -4  -4 1132.07   44.68   0
  -6   4   4 1110.68   44.74   0
  -6   4   4 1108.45   44.41   0
  -6   4   4 1136.39   44.65   0
   5  -4  -4  821.31   33.54   0
   5  -4  -4  880.87   33.58   0
  -5   4   4  815.01   33.61   0
  -5   4   4  853.77   33.63   0
  -5   4   4  847.46   33.74   0
   4  -4  -4  190.01    8.15   0
   4  -4  -4  194.96    8.38   0
   4  -4  -4  197.38    8.15   0
  -4   4   4  198.21    8.53   0
  -4   4   4  189.96    8.31   0
   3  -4  -4   67.31    2.90   0
   3  -4  -4   68.57    2.90   0
   3  -4  -4   64.90    3.32   0
  -3   4   4   68.48    3.33   0
  -3   4   4   63.88    3.56   0
  -3   4   4   60.80    3.18   0
   2  -4  -4  134.66    5.87   0
  -2   4   4  133.46    5.78   0
  -2   4   4  132.01    6.23   0
  -2   4   4  135.96    5.71   0
   1  -4  -4  103.70    4.59   0
  -1   4   4   99.20    4.73   0
  -1   4   4  107.00    4.34   0
  -1   4   4  100.73    4.39   0
  -1   4   4   99.22    5.02   0
   0   4   4   28.97    2.34   0
   0   4   4   31.71    1.51   0
   0   4   4   32.87    2.20   0
   0   4   4   32.30    1.63   0
   1   4   4  690.90   26.21   0
   1   4   4  663.61   25.56   0
   1   4   4  682.73   25.50   0
   1   4   4  567.75   26.24   0
   2   4   4  164.60    7.53   0
   2   4   4  170.98    7.67   0
   2   4   4  164.12    6.79   0
   2   4   4  164.53    6.88   0
   3   4   4    7.29    1.64   0
   3   4   4    6.25    0.98   0
   3   4   4    6.70    1.45   0
   3   4   4    6.68    0.90   0
   4   4   4   24.38    2.38   0
   4   4   4   20.77    2.62   0
   4   4   4   25.82    2.28   0
   9  -5  -4   95.41    6.03   0
   9  -5  -4   94.25    5.96   0
  -9   5   4   95.64    5.85   0
  -9   5   4   87.73    5.54   0
   8  -5  -4   32.93    3.14   0
   8  -5  -4   32.80    3.34   0
  -8   5   4   27.61    2.84   0
  -8   5   4   33.66    3.36   0
   7  -5  -4    0.96    0.91   0
   7  -5  -4    2.29    1.16   0
  -7   5   4   -0.04    1.09   0
  -7   5   4    0.60    0.97   0
  -7   5   4    2.30    1.05   0
   6  -5  -4  135.12    6.45   0
   6  -5  -4  139.89    6.50   0
  -6   5   4  128.47    6.45   0
  -6   5   4  140.93    6.47   0
  -6   5   4  151.84    6.86   0
   5  -5  -4    5.03    0.88   0
   5  -5  -4    4.71    1.03   0
   5  -5  -4    4.13    0.86   0
  -5   5   4    4.72    0.98   0
  -5   5   4    5.29    1.16   0
  -5   5   4    5.79    1.15   0
   4  -5  -4  173.32    7.33   0
   4  -5  -4  172.69    7.67   0
   4  -5  -4  177.66    7.33   0
  -4   5   4  170.74    7.58   0
  -4   5   4  179.64    7.95   0
  -4   5   4  175.14    7.77   0
   3  -5  -4    3.20    0.78   0
  -3   5   4    5.40    0.92   0
  -3   5   4    5.18    1.20   0
  -3   5   4    3.60    0.69   0
   2  -5  -4 1318.50   51.31   0
  -2   5   4 1323.47   51.85   0
  -2   5   4 1288.69   51.31   0
  -2   5   4 1297.72   51.18   0
  -1   5   4   23.68    1.44   0
  -1   5   4   23.20    1.61   0
  -1   5   4   27.21    2.37   0
   0   5   4  160.64    7.45   0
   0   5   4  152.52    6.63   0
   0   5   4  161.46    6.52   0
   0   5   4  158.04    7.07   0
   1   5   4  392.26   16.22   0
   1   5   4  409.91   16.59   0
   1   5   4  375.38   15.71   0
   2   5   4  302.68   12.86   0
   2   5   4  293.92   12.28   0
   2   5   4  302.35   12.14   0
   2   5   4  302.07   13.05   0
   3   5   4   44.76    3.04   0
   3   5   4   49.07    2.81   0
   3   5   4   45.00    3.94   0
   8  -6  -4   26.74    3.18   0
  -8   6   4   30.19    3.54   0
  -8   6   4   26.78    3.02   0
   7  -6  -4    4.97    1.30   0
   7  -6  -4   10.21    1.60   0
  -7   6   4    5.79    1.41   0
  -7   6   4    6.21    1.30   0
  -7   6   4    3.41    1.50   0
   6  -6  -4  574.51   23.52   0
   6  -6  -4  580.86   23.56   0
   6  -6  -4  587.78   23.74   0
  -6   6   4  564.95   23.70   0
  -6   6   4  612.98   24.03   0
  -6   6   4  564.86   23.66   0
   5  -6  -4  875.97   35.10   0
   5  -6  -4  915.09   35.16   0
   5  -6  -4  891.21   35.42   0
  -5   6   4  885.25   35.39   0
  -5   6   4  871.52   35.59   0
  -5   6   4  882.38   35.62   0
   4  -6  -4  179.48    8.09   0
   4  -6  -4  178.82    7.52   0
   4  -6  -4  188.27    7.54   0
  -4   6   4  189.95    8.31   0
  -4   6   4  185.91    8.06   0
  -4   6   4  185.84    8.53   0
   3  -6  -4  902.15   36.42   0
  -3   6   4  942.75   36.63   0
  -3   6   4  928.24   37.01   0
  -3   6   4  906.65   36.38   0
   2  -6  -4 1191.92   46.13   0
  -2   6   4 1150.68   46.78   0
  -2   6   4 1156.55   46.05   0
  -2   6   4 1189.41   46.27   0
  -1   6   4   45.19    2.42   0
  -1   6   4   39.47    3.34   0
  -1   6   4   52.21    2.72   0
   0   6   4  208.29    9.21   0
   0   6   4  213.55    8.72   0
   0   6   4  214.17    9.75   0
   0   6   4  206.04    8.89   0
   1   6   4  467.87   19.13   0
   1   6   4  469.33   18.60   0
   1   6   4  456.15   18.76   0
   8  -7  -4  157.13    7.65   0
   8  -7  -4  157.41    7.70   0
  -8   7   4  156.21    8.16   0
  -8   7   4  132.00    7.55   0
   7  -7  -4   36.74    3.16   0
   7  -7  -4   41.94    3.59   0
   7  -7  -4   36.30    3.09   0
  -7   7   4   34.27    3.21   0
  -7   7   4   38.14    3.98   0
  -7   7   4   36.24    3.24   0
   6  -7  -4  470.05   19.19   0
   6  -7  -4  465.33   18.86   0
   6  -7  -4  459.46   18.89   0
  -6   7   4  442.85   19.29   0
  -6   7   4  462.56   19.17   0
  -6   7   4  470.16   19.52   0
   5  -7  -4  432.18   17.63   0
   5  -7  -4  419.10   17.10   0
   5  -7  -4  415.26   17.11   0
  -5   7   4  428.27   18.03   0
  -5   7   4  429.23   17.64   0
  -5   7   4  433.26   17.96   0
   4  -7  -4    1.37    1.03   0
  -4   7   4    1.81    1.08   0
  -4   7   4    1.41    1.24   0
  -4   7   4    0.56    0.80   0
   3  -7  -4  383.29   15.62   0
  -3   7   4  370.65   15.64   0
  -3   7   4  379.94   16.41   0
  -3   7   4  394.31   16.00   0
  -2   7   4  447.06   17.64   0
  -2   7   4  412.19   18.16   0
  -2   7   4  422.14   17.31   0
  -1   7   4  186.63    8.26   0
  -1   7   4  186.60    9.05   0
  -1   7   4  186.44    7.98   0
   0   7   4    0.88    1.09   0
   7  -8  -4    5.45    1.50   0
   7  -8  -4    7.96    2.08   0
   7  -8  -4    6.35    1.50   0
  -7   8   4    7.05    1.60   0
  -7   8   4   10.01    2.30   0
   6  -8  -4  375.51   15.16   0
   6  -8  -4  383.95   15.73   0
   6  -8  -4  361.10   15.15   0
  -6   8   4  348.26   15.69   0
  -6   8   4  380.86   16.20   0
   5  -8  -4   99.86    5.23   0
  -5   8   4  104.62    5.82   0
  -5   8   4   98.63    5.26   0
  -5   8   4   96.60    5.85   0
   4  -8  -4    4.22    1.32   0
  -4   8   4    3.76    1.71   0
  -4   8   4    3.82    1.55   0
  -4   8   4    5.46    1.26   0
  -3   8   4    0.95    1.36   0
  -3   8   4    2.98    1.03   0
  -3   8   4    2.43    1.70   0
  -2   8   4  255.59   11.11   0
  -2   8   4  245.85   10.69   0
  -1  10  -5  199.76   10.17   0
  -1  10  -5  189.88    9.75   0
   1 -10   5  207.14    9.91   0
   1 -10   5  200.26    9.20   0
   1 -10   5  206.87    9.13   0
  -2  10  -5   16.60    2.60   0
  -2  10  -5   21.54    3.39   0
   2 -10   5   13.08    2.42   0
   2 -10   5   15.11    2.49   0
   2 -10   5   20.08    2.59   0
  -3  10  -5   60.11    4.47   0
  -3  10  -5   62.15    4.87   0
   3 -10   5   61.61    4.77   0
   3 -10   5   58.62    4.15   0
   3 -10   5   58.92    4.06   0
  -4  10  -5  230.30   11.01   0
   4 -10   5  238.95   10.92   0
   4 -10   5  215.56   10.57   0
   4 -10   5  221.67   10.42   0
  -5  10  -5   36.32    3.85   0
  -5  10  -5   30.18    4.05   0
   5 -10   5   36.21    3.67   0
   5 -10   5   26.48    3.98   0
   5 -10   5   26.96    3.88   0
   1   9  -5   19.09    3.12   0
   1   9  -5   28.27    3.98   0
  -1  -9   5   21.85    2.34   0
  -1  -9   5   20.53    2.26   0
  -1  -9   5   22.44    3.43   0
   0   9  -5  215.81   10.50   0
   0   9  -5  212.91   10.11   0
   0  -9   5  228.38    9.65   0
   0  -9   5  222.82   10.26   0
   0  -9   5  209.37    9.66   0
  -1   9  -5  222.06   10.41   0
  -1   9  -5  218.27   10.15   0
   1  -9   5  215.69    9.79   0
   1  -9   5  226.99    9.73   0
   1  -9   5  212.56   10.16   0
  -2   9  -5    1.98    1.20   0
  -2   9  -5    6.35    1.76   0
   2  -9   5    6.58    1.80   0
   2  -9   5    5.84    1.25   0
   2  -9   5    4.05    1.12   0
  -3   9  -5  943.08   37.51   0
   3  -9   5  926.96   37.09   0
   3  -9   5  914.36   37.32   0
   3  -9   5  909.48   36.06   0
   3  -9   5  921.13   37.23   0
  -4   9  -5  334.79   14.27   0
   4  -9   5  335.67   13.88   0
   4  -9   5  305.79   13.96   0
   4  -9   5  301.38   13.95   0
  -5   9  -5    6.01    1.56   0
  -5   9  -5    8.48    2.03   0
   5  -9   5    5.44    1.79   0
   5  -9   5    5.98    1.57   0
   5  -9   5    5.17    1.81   0
  -6   9  -5    2.25    1.80   0
  -6   9  -5    3.85    1.68   0
   6  -9   5    1.67    1.52   0
   6  -9   5    4.22    1.94   0
   6  -9   5    0.35    1.80   0
   2   8  -5   62.16    4.22   0
   2   8  -5   65.36    4.79   0
  -2  -8   5   54.51    4.27   0
  -2  -8   5   60.42    3.51   0
  -2  -8   5   59.14    3.55   0
   1   8  -5   37.35    3.21   0
   1   8  -5   41.02    3.68   0
  -1  -8   5   41.03    3.24   0
  -1  -8   5   41.46    2.81   0
  -1  -8   5   35.32    2.71   0
   0   8  -5  395.95   17.37   0
   0   8  -5  424.28   17.70   0
   0  -8   5  404.51   17.14   0
   0  -8   5  426.32   17.10   0
  -1   8  -5  129.15    6.73   0
  -1   8  -5  145.60    7.02   0
   1  -8   5  133.06    6.62   0
   1  -8   5  148.10    6.60   0
  -2   8  -5   11.08    1.94   0
  -2   8  -5   13.66    2.22   0
   2  -8   5   13.88    1.96   0
   2  -8   5   12.64    0.83   0
   2  -8   5   12.35    1.82   0
  -3   8  -5   12.27    1.89   0
   3  -8   5   13.21    1.94   0
   3  -8   5   17.51    2.17   0
  -4   8  -5  442.54   19.09   0
  -4   8  -5  483.45   19.33   0
   4  -8   5  445.22   19.17   0
  -5   8  -5  689.24   31.21   0
  -5   8  -5  827.03   31.60   0
   5  -8   5  761.91   31.52   0
   5  -8   5  810.49   31.37   0
  -6   8  -5   16.95    2.67   0
  -6   8  -5   19.37    3.03   0
   6  -8   5   18.76    2.85   0
   6  -8   5   21.24    2.69   0
   6  -8   5   14.82    2.16   0
  -7   8  -5   93.05    5.57   0
  -7   8  -5   86.72    5.30   0
   7  -8   5   71.94    5.67   0
   7  -8   5   92.93    5.09   0
   7  -8   5   99.92    5.66   0
   4   7  -5   10.49    2.00   0
   4   7  -5   10.18    2.42   0
  -4  -7   5   14.47    2.20   0
  -4  -7   5   15.53    2.13   0
  -4  -7   5   10.46    1.53   0
   3   7  -5  102.68    5.70   0
   3   7  -5  106.33    6.20   0
  -3  -7   5  102.09    5.19   0
  -3  -7   5  103.14    5.56   0
  -3  -7   5  110.14    5.23   0
   2   7  -5  202.62    9.63   0
   2   7  -5  202.70    9.34   0
  -2  -7   5  199.20    8.96   0
  -2  -7   5  212.21    8.99   0
   1   7  -5   -0.16    0.94   0
   1   7  -5   -0.65    1.03   0
  -1  -7   5    0.54    0.82   0
  -1  -7   5   -0.96    0.72   0
   0   7  -5  120.39    5.92   0
   0   7  -5  138.05    6.24   0
   0  -7   5  106.81    5.64   0
   0  -7   5  119.54    5.76   0
  -1   7  -5  338.91   14.35   0
  -1   7  -5  370.04   14.56   0
   1  -7   5  289.09   14.04   0
   1  -7   5  360.37   14.32   0
  -2   7  -5  638.36   26.09   0
  -2   7  -5  626.09   25.98   0
   2  -7   5  639.53   25.17   0
   2  -7   5  633.63   25.99   0
   2  -7   5  664.89   25.89   0
  -3   7  -5   57.07    3.52   0
   3  -7   5   57.03    3.32   0
   3  -7   5   54.33    3.51   0
  -4   7  -5  560.40   24.83   0
  -4   7  -5  633.17   25.06   0
   4  -7   5  613.80   25.06   0
   4  -7   5  639.18   24.90   0
  -5   7  -5  235.79   10.31   0
  -5   7  -5  224.83   10.12   0
   5  -7   5  228.85   10.13   0
   5  -7   5  223.56   10.36   0
  -6   7  -5   75.98    4.42   0
  -6   7  -5   78.66    4.60   0
   6  -7   5   76.73    4.59   0
   6  -7   5   72.09    4.75   0
  -7   7  -5   70.90    4.56   0
  -7   7  -5   69.53    4.27   0
   7  -7   5   65.07    4.61   0
   7  -7   5   67.55    3.92   0
   7  -7   5   65.96    4.79   0
   5   6  -5  291.54   13.42   0
   5   6  -5  294.27   12.08   0
   5   6  -5  307.85   13.83   0
  -5  -6   5  288.72   12.57   0
  -5  -6   5  295.31   12.53   0
  -5  -6   5  304.00   12.86   0
   4   6  -5    0.66    1.56   0
   4   6  -5   -0.21    0.60   0
   4   6  -5    2.47    1.39   0
  -4  -6   5   -0.17    1.14   0
  -4  -6   5    1.00    0.96   0
  -4  -6   5    0.41    0.91   0
   3   6  -5  276.52   12.04   0
   3   6  -5  258.12   11.72   0
  -3  -6   5  277.36   11.44   0
  -3  -6   5  260.35   11.41   0
   2   6  -5  142.08    6.89   0
   2   6  -5  127.86    6.58   0
  -2  -6   5  139.49    6.44   0
  -2  -6   5  150.75    6.51   0
   1   6  -5  112.32    5.70   0
   1   6  -5  109.84    5.82   0
  -1  -6   5  131.90    5.66   0
  -1  -6   5  120.79    5.62   0
   0   6  -5  453.32   18.96   0
   0   6  -5  474.25   19.10   0
   0  -6   5  453.26   18.89   0
   0  -6   5  467.31   18.85   0
  -1   6  -5  873.79   34.54   0
  -1   6  -5  821.66   34.42   0
   1  -6   5  832.15   33.71   0
   1  -6   5  930.54   34.41   0
   1  -6   5  854.92   34.43   0
  -2   6  -5  955.52   36.36   0
  -2   6  -5  882.62   36.23   0
   2  -6   5  911.69   36.16   0
   2  -6   5  886.65   36.28   0
  -3   6  -5   13.05    1.71   0
   3  -6   5   11.85    1.65   0
   3  -6   5   11.27    1.48   0
  -4   6  -5  398.66   17.76   0
  -4   6  -5  422.77   17.87   0
   4  -6   5  469.64   17.88   0
   4  -6   5  440.15   18.05   0
  -5   6  -5   65.80    3.73   0
  -5   6  -5   68.68    3.84   0
   5  -6   5   63.06    3.75   0
   5  -6   5   66.08    4.01   0
  -6   6  -5  260.86   11.21   0
  -6   6  -5  252.03   11.11   0
   6  -6   5  261.95   11.33   0
   6  -6   5  254.00   11.57   0
  -7   6  -5   34.58    2.96   0
  -7   6  -5   28.73    2.68   0
   7  -6   5   27.85    3.28   0
   7  -6   5   34.21    3.26   0
   7  -6   5   29.97    2.30   0
   5   5  -5  109.03    5.22   0
   5   5  -5  122.88    6.56   0
   5   5  -5  113.35    6.19   0
  -5  -5   5  115.88    5.58   0
  -5  -5   5  115.95    5.62   0
  -5  -5   5  108.80    5.55   0
   4   5  -5   24.02    2.53   0
   4   5  -5   22.47    1.65   0
   4   5  -5   28.54    2.89   0
  -4  -5   5   21.89    2.13   0
  -4  -5   5   23.39    2.10   0
   3   5  -5   69.65    4.07   0
   3   5  -5   64.77    3.79   0
   3   5  -5   64.25    2.97   0
  -3  -5   5   67.44    3.62   0
  -3  -5   5   65.66    3.59   0
   2   5  -5  176.78    8.27   0
   2   5  -5  182.29    7.34   0
   2   5  -5  181.61    8.16   0
  -2  -5   5  196.14    8.11   0
  -2  -5   5  178.41    8.01   0
   1   5  -5  683.32   28.55   0
   1   5  -5  703.15   28.68   0
  -1  -5   5  719.82   28.54   0
  -1  -5   5  744.79   28.55   0
   0   5  -5  170.56    7.54   0
   0   5  -5  145.61    7.35   0
   0  -5   5  170.51    7.46   0
   0  -5   5  167.49    6.84   0
   0  -5   5  191.49    7.50   0
  -1   5  -5  306.20   13.05   0
  -1   5  -5  299.58   12.99   0
   1  -5   5  333.35   13.00   0
   1  -5   5  318.31   12.51   0
   1  -5   5  308.02   13.04   0
  -2   5  -5  135.07    6.57   0
  -2   5  -5  157.61    6.72   0
   2  -5   5  155.38    6.61   0
   2  -5   5  145.25    6.68   0
  -3   5  -5  390.26   16.38   0
   3  -5   5  392.91   16.50   0
   3  -5   5  415.07   16.34   0
  -4   5  -5    1.79    0.79   0
   4  -5   5    2.43    0.72   0
   4  -5   5    2.85    0.89   0
  -5   5  -5  188.19    8.27   0
  -5   5  -5  191.41    8.24   0
   5  -5   5  186.46    8.57   0
   5  -5   5  185.84    8.34   0
  -6   5  -5  253.99   10.79   0
  -6   5  -5  246.10   10.71   0
   6  -5   5  258.26   11.05   0
   6  -5   5  249.19   11.24   0
  -7   5  -5    9.42    1.37   0
   7  -5   5   10.14    1.34   0
   7  -5   5    6.85    1.59   0
   7  -5   5    8.99    1.80   0
   6   4  -5   10.75    1.96   0
   6   4  -5   13.56    2.17   0
  -6  -4   5   10.69    1.64   0
  -6  -4   5   10.41    1.53   0
  -6  -4   5   10.71    1.79   0
   5   4  -5  218.93    9.40   0
   5   4  -5  181.00    9.01   0
  -5  -4   5  194.06    8.73   0
  -5  -4   5  192.41    8.72   0
   4   4  -5    9.96    1.24   0
   4   4  -5    7.62    1.23   0
   4   4  -5   10.00    1.59   0
  -4  -4   5    7.07    1.19   0
  -4  -4   5    8.10    1.27   0
   3   4  -5  410.15   17.08   0
   3   4  -5  396.19   16.46   0
   3   4  -5  433.29   17.21   0
  -3  -4   5  431.86   17.00   0
  -3  -4   5  394.41   16.89   0
   2   4  -5  352.23   13.89   0
   2   4  -5  351.39   14.54   0
   2   4  -5  322.47   14.40   0
  -2  -4   5  384.00   14.48   0
  -2  -4   5  335.39   14.35   0
   1   4  -5  592.60   24.77   0
   1   4  -5  659.11   24.91   0
  -1  -4   5  603.25   24.75   0
   0   4  -5    3.84    0.80   0
   0   4  -5    3.37    0.71   0
   0  -4   5    3.66    0.65   0
   0  -4   5    2.82    0.50   0
   0  -4   5    3.44    0.69   0
  -1   4  -5    1.85    0.60   0
  -1   4  -5    1.65    0.63   0
   1  -4   5    1.82    0.45   0
   1  -4   5    1.10    0.54   0
  -2   4  -5 1354.52   52.56   0
  -2   4  -5 1308.65   52.53   0
   2  -4   5 1312.37   52.64   0
   2  -4   5 1373.59   52.54   0
  -3   4  -5  433.52   17.17   0
  -3   4  -5  403.64   17.11   0
   3  -4   5  423.29   17.32   0
   3  -4   5  434.27   17.17   0
  -4   4  -5  514.39   21.08   0
   4  -4   5  527.77   21.37   0
   4  -4   5  533.33   21.17   0
  -5   4  -5  398.32   16.53   0
   5  -4   5  416.65   16.75   0
  -6   4  -5  750.91   28.68   0
   6  -4   5  687.34   29.24   0
   6  -4   5  722.76   29.06   0
  -7   4  -5   17.02    1.65   0
  -7   4  -5   15.50    1.64   0
   7  -4   5   16.31    2.60   0
   7  -4   5   16.37    1.10   0
   7  -4   5   15.16    2.16   0
   7  -4   5   14.32    1.12   0
   7   3  -5   59.84    4.79   0
   7   3  -5   56.86    4.60   0
  -7  -3   5   58.48    3.11   0
  -7  -3   5   55.79    3.69   0
  -7  -3   5   59.83    3.91   0
   6   3  -5  161.40    8.01   0
   6   3  -5  166.86    8.12   0
  -6  -3   5  159.50    7.54   0
  -6  -3   5  169.35    7.65   0
   5   3  -5  463.31   19.42   0
   5   3  -5  469.42   19.39   0
  -5  -3   5  440.84   19.05   0
  -5  -3   5  486.98   19.14   0
   4   3  -5  310.55   13.33   0
  -4  -3   5  312.71   13.11   0
  -4  -3   5  317.33   13.13   0
   3   3  -5  158.46    7.39   0
   3   3  -5  170.65    7.51   0
   3   3  -5  164.98    7.00   0
  -3  -3   5  172.14    7.36   0
  -3  -3   5  167.33    7.33   0
   2   3  -5 1154.43   48.90   0
   2   3  -5 1255.88   48.99   0
   2   3  -5 1254.57   48.56   0
  -2  -3   5 1245.85   48.91   0
  -2  -3   5 1298.59   48.95   0
   1   3  -5 4461.01  183.94   0
  -1  -3   5 4551.04  183.95   0
   0   3  -5  116.72    5.37   0
   0   3  -5  124.75    5.45   0
   0  -3   5  126.46    5.22   0
   0  -3   5  127.60    5.45   0
   0  -3   5  119.80    5.43   0
  -1   3  -5  520.68   21.76   0
  -1   3  -5  568.77   21.81   0
   1  -3   5  552.60   21.89   0
   1  -3   5  558.76   21.82   0
   1  -3   5  534.00   21.66   0
  -2   3  -5 1762.93   68.86   0
  -3   3  -5  935.34   36.98   0
  -3   3  -5  932.27   36.98   0
   3  -3   5  967.20   37.10   0
   3  -3   5  927.04   37.23   0
  -4   3  -5  201.14    8.12   0
  -4   3  -5  193.71    8.10   0
   4  -3   5  202.61    8.34   0
   4  -3   5  185.54    8.47   0
  -5   3  -5  321.69   12.85   0
  -5   3  -5  322.96   12.84   0
   5  -3   5  331.65   13.29   0
   5  -3   5  300.60   13.41   0
  -6   3  -5  680.30   26.47   0
  -6   3  -5  684.44   26.46   0
   6  -3   5  658.53   27.42   0
   6  -3   5  674.06   27.22   0
   7  -3   5   36.62    3.25   0
   7  -3   5   33.96    3.32   0
   7   2  -5   43.19    3.64   0
   7   2  -5   41.22    3.82   0
  -7  -2   5   41.61    3.06   0
  -7  -2   5   39.00    3.21   0
   6   2  -5    1.24    0.96   0
   6   2  -5    0.22    0.86   0
  -6  -2   5   -0.21    0.95   0
  -6  -2   5    0.26    0.92   0
   5   2  -5 1176.05   44.08   0
   5   2  -5 1121.47   44.03   0
  -5  -2   5  949.02   43.64   0
  -5  -2   5 1167.27   43.80   0
   4   2  -5 1347.19   52.00   0
   4   2  -5 1283.94   51.95   0
  -4  -2   5 1271.42   51.81   0
  -4  -2   5 1354.40   51.82   0
   3   2  -5   90.17    4.35   0
   3   2  -5   90.25    4.06   0
   3   2  -5   85.31    4.28   0
  -3  -2   5   87.81    4.25   0
  -3  -2   5   91.65    4.25   0
   2   2  -5   40.43    2.36   0
   2   2  -5   40.32    2.32   0
   2   2  -5   44.72    2.15   0
  -2  -2   5   38.96    2.29   0
  -2  -2   5   42.15    2.33   0
   1   2  -5 3404.10  141.07   0
  -1  -2   5 3468.73  140.93   0
   0   2  -5  647.65   25.03   0
   0   2  -5  610.65   24.98   0
   0  -2   5  609.97   25.07   0
   0  -2   5  650.86   25.01   0
   0  -2   5  643.92   25.06   0
  -1   2  -5   11.62    0.84   0
  -1   2  -5    8.18    0.83   0
   1  -2   5    9.54    0.98   0
  -2   2  -5 1073.34   41.81   0
  -2   2  -5 1061.56   41.79   0
   2  -2   5 1089.59   42.10   0
   2  -2   5 1057.43   41.97   0
  -3   2  -5 1341.17   51.30   0
  -3   2  -5 1339.57   51.30   0
   3  -2   5 1274.41   51.74   0
   3  -2   5 1317.88   51.62   0
   4  -2   5    2.21    0.60   0
   4  -2   5    2.36    0.67   0
   5  -2   5   39.48    2.65   0
   5  -2   5   39.57    2.49   0
   6  -2   5  253.90   10.80   0
   6  -2   5  247.23   10.12   0
   6  -2   5  248.66   10.97   0
   7  -2   5    4.30    1.57   0
   7  -2   5    3.02    1.44   0
   8   1  -5  320.05   14.20   0
   8   1  -5  286.21   14.11   0
  -8  -1   5  326.06   13.60   0
  -8  -1   5  313.55   13.54   0
   7   1  -5  119.55    6.72   0
   7   1  -5  134.10    6.86   0
  -7  -1   5  133.04    6.41   0
  -7  -1   5  136.07    6.46   0
   6   1  -5    2.51    1.12   0
   6   1  -5    2.94    1.13   0
  -6  -1   5    2.76    1.03   0
  -6  -1   5    5.24    1.16   0
   5   1  -5 1107.20   44.47   0
   5   1  -5 1146.46   44.47   0
  -5  -1   5 1129.60   44.27   0
  -5  -1   5 1085.74   44.28   0
   4   1  -5 1439.56   54.62   0
   4   1  -5 1340.20   54.58   0
  -4  -1   5 1360.50   54.49   0
  -4  -1   5 1397.38   54.49   0
   3   1  -5    1.90    0.59   0
   3   1  -5    2.15    0.62   0
   3   1  -5    2.09    0.53   0
  -3  -1   5    0.86    0.45   0
  -3  -1   5    4.25    0.77   0
   2   1  -5   42.59    2.16   0
   2   1  -5   36.76    2.17   0
   2   1  -5   48.25    2.26   0
  -2  -1   5   38.33    2.18   0
  -2  -1   5   38.08    2.16   0
  -1  -1   5 2668.40  103.92   0
   0   1  -5    4.39    0.50   0
   1  -1   5 1034.83   40.88   0
   1  -1   5 1023.77   40.72   0
   1  -1   5 1060.26   40.69   0
   2  -1   5  499.75   19.51   0
   2  -1   5  486.85   19.59   0
   3  -1   5  395.12   15.36   0
   3  -1   5  373.26   15.46   0
   4  -1   5   10.18    1.17   0
   4  -1   5   10.07    1.28   0
   4  -1   5   11.12    1.31   0
   5  -1   5   31.57    2.21   0
   5  -1   5   34.09    2.03   0
   5  -1   5   30.81    2.32   0
   6  -1   5  275.32   11.80   0
   6  -1   5  272.97   11.63   0
   6  -1   5  265.38   10.93   0
   8   0  -5 1095.19   45.84   0
   8   0  -5 1147.10   45.79   0
  -8   0   5 1182.50   45.38   0
  -8   0   5 1106.45   44.15   0
  -8   0   5 1136.33   45.33   0
   7   0  -5  223.77   10.55   0
   7   0  -5  233.49   10.53   0
  -7   0   5  219.77   10.15   0
  -7   0   5  244.07   10.28   0
   6   0  -5  258.39   11.50   0
   6   0  -5  264.20   11.48   0
  -6   0   5  262.07   11.29   0
  -6   0   5  264.43   11.31   0
   5   0  -5  682.83   29.92   0
   5   0  -5  739.27   29.96   0
  -5   0   5  780.74   29.91   0
  -5   0   5  781.66   29.94   0
   4   0  -5  900.25   37.45   0
   4   0  -5  982.76   37.50   0
  -4   0   5  956.63   37.44   0
  -4   0   5  940.04   37.45   0
   3   0  -5   10.08    1.12   0
   3   0  -5    9.20    1.01   0
  -3   0   5    7.28    0.99   0
  -3   0   5    9.87    1.06   0
   2   0  -5 1081.07   43.43   0
   2   0  -5 1082.27   43.52   0
   2   0  -5 1110.74   43.44   0
  -2   0   5 1138.99   43.51   0
  -2   0   5 1129.02   43.53   0
   1   0  -5 1405.10   55.51   0
  -1   0   5 1433.58   55.58   0
   0   0   5   40.13    2.23   0
   0   0   5   41.74    1.98   0
   0   0   5   42.24    1.93   0
   1   0   5   54.79    2.44   0
   1   0   5   53.99    2.82   0
   1   0   5   54.94    2.40   0
   2   0   5  637.25   25.38   0
   2   0   5  636.84   25.45   0
   2   0   5  670.02   25.90   0
   3   0   5 1034.35   40.25   0
   3   0   5 1030.62   40.62   0
   3   0   5 1020.66   40.36   0
   4   0   5   14.28    1.27   0
   4   0   5   14.74    1.49   0
   4   0   5   11.15    1.35   0
   5   0   5  118.32    5.62   0
   5   0   5  118.14    5.37   0
   5   0   5  121.43    5.50   0
   6   0   5  184.76    8.67   0
   6   0   5  195.37    8.57   0
   8  -1  -5  225.53   10.66   0
   8  -1  -5  232.76   10.69   0
  -8   1   5  221.92   10.21   0
  -8   1   5  230.74   10.31   0
  -8   1   5  218.47    9.13   0
   7  -1  -5   21.85    2.54   0
   7  -1  -5   22.19    2.62   0
  -7   1   5   22.50    2.40   0
  -7   1   5   21.23    2.25   0
  -7   1   5   23.99    1.66   0
   6  -1  -5  261.26   11.35   0
  -6   1   5  266.81   11.27   0
  -6   1   5  254.17   11.20   0
   5  -1  -5  299.77   12.53   0
  -5   1   5  302.13   12.51   0
  -5   1   5  290.87   12.47   0
   4  -1  -5  686.15   27.90   0
   4  -1  -5  694.49   27.90   0
   4  -1  -5  699.00   27.89   0
  -4   1   5  737.76   27.96   0
  -4   1   5  680.71   27.91   0
   3  -1  -5    1.59    0.49   0
   3  -1  -5    1.28    0.62   0
   3  -1  -5    2.64    0.56   0
  -3   1   5    2.22    0.60   0
  -3   1   5    1.08    0.49   0
   2  -1  -5   59.61    2.64   0
   2  -1  -5   54.98    2.61   0
   2  -1  -5   58.28    2.91   0
  -2   1   5   58.45    2.79   0
  -2   1   5   59.93    2.94   0
  -2   1   5   60.31    2.81   0
   1  -1  -5 1368.88   51.63   0
  -1   1   5 1265.51   51.67   0
   0   1   5  935.11   37.04   0
   0   1   5  940.77   36.58   0
   1   1   5   17.50    1.59   0
   1   1   5   16.79    1.60   0
   2   1   5  108.45    4.39   0
   2   1   5  107.26    5.09   0
   2   1   5  104.53    5.05   0
   2   1   5  110.55    4.44   0
   3   1   5  317.17   12.85   0
   3   1   5  318.97   12.76   0
   3   1   5  325.35   13.45   0
   3   1   5  320.73   13.30   0
   4   1   5    1.38    0.64   0
   4   1   5    2.78    0.73   0
   4   1   5    2.50    0.92   0
   5   1   5    0.03    0.91   0
   5   1   5   -0.39    0.92   0
   5   1   5   -1.31    0.92   0
   9  -2  -5    1.54    1.98   0
   9  -2  -5    1.65    1.77   0
  -9   2   5    3.08    1.60   0
  -9   2   5    1.82    1.64   0
   8  -2  -5  378.10   17.22   0
   8  -2  -5  428.94   17.35   0
  -8   2   5  398.94   16.02   0
  -8   2   5  389.10   16.91   0
  -8   2   5  403.88   17.02   0
   7  -2  -5  634.73   24.68   0
   7  -2  -5  569.42   24.58   0
  -7   2   5  628.11   24.55   0
  -7   2   5  590.41   24.43   0
  -7   2   5  568.20   23.84   0
   6  -2  -5    1.16    0.88   0
   6  -2  -5    1.42    0.78   0
  -6   2   5    3.22    0.98   0
  -6   2   5    1.25    0.81   0
  -6   2   5    4.02    0.91   0
   5  -2  -5  361.01   14.47   0
   5  -2  -5  332.10   14.42   0
  -5   2   5  355.78   14.50   0
  -5   2   5  334.68   14.43   0
  -5   2   5  358.51   14.36   0
   4  -2  -5 1174.56   44.74   0
   4  -2  -5 1126.14   44.58   0
   4  -2  -5 1102.54   44.59   0
  -4   2   5 1116.58   44.68   0
  -4   2   5 1159.87   44.72   0
  -4   2   5 1114.40   44.71   0
   3  -2  -5  188.03    7.83   0
   3  -2  -5  179.69    8.06   0
   3  -2  -5  196.39    7.85   0
  -3   2   5  193.52    8.04   0
  -3   2   5  189.13    8.24   0
  -3   2   5  190.72    8.02   0
   2  -2  -5   14.62    1.35   0
  -2   2   5   13.97    1.55   0
  -2   2   5   14.54    1.12   0
   1  -2  -5 1260.97   49.37   0
  -1   2   5 1273.72   49.10   0
  -1   2   5 1251.91   49.67   0
  -1   2   5 1245.82   49.48   0
   0   2   5 1135.66   45.07   0
   0   2   5 1150.22   45.24   0
   1   2   5   19.63    1.83   0
   1   2   5   20.78    1.83   0
   2   2   5  190.65    8.38   0
   2   2   5  188.87    8.37   0
   3   2   5  210.85    9.21   0
   3   2   5  217.13    8.56   0
   3   2   5  206.74    8.59   0
   3   2   5  209.09    9.34   0
   4   2   5   96.70    4.50   0
   4   2   5   98.38    4.52   0
   4   2   5  101.26    5.39   0
   4   2   5   98.31    4.91   0
   5   2   5   33.21    2.61   0
   5   2   5   29.92    2.69   0
   5   2   5   36.60    3.83   0
   9  -3  -5    1.86    1.79   0
   9  -3  -5    3.25    2.04   0
  -9   3   5    1.17    1.50   0
  -9   3   5   -0.39    1.38   0
   8  -3  -5  373.96   15.53   0
   8  -3  -5  331.67   15.37   0
  -8   3   5  361.28   14.43   0
  -8   3   5  378.24   15.39   0
  -8   3   5  325.62   15.10   0
   7  -3  -5  775.65   30.34   0
   7  -3  -5  730.22   30.32   0
  -7   3   5  731.30   30.19   0
  -7   3   5  760.95   30.29   0
  -7   3   5  733.91   29.74   0
   6  -3  -5   78.65    4.25   0
   6  -3  -5   79.61    4.28   0
  -6   3   5   81.95    4.38   0
  -6   3   5   76.19    4.02   0
  -6   3   5   79.15    4.25   0
   5  -3  -5  101.18    4.79   0
   5  -3  -5   98.21    4.90   0
   5  -3  -5   94.30    4.74   0
  -5   3   5   98.62    4.84   0
  -5   3   5  104.88    4.97   0
  -5   3   5   99.99    4.85   0
   4  -3  -5 1100.23   41.51   0
   4  -3  -5 1055.81   41.73   0
   4  -3  -5 1014.12   41.48   0
  -4   3   5 1078.10   41.73   0
  -4   3   5 1033.36   41.82   0
  -4   3   5 1043.97   41.67   0
   3  -3  -5 1450.49   55.51   0
   3  -3  -5 1417.84   55.04   0
   3  -3  -5 1435.86   55.04   0
  -3   3   5 1445.09   55.43   0
  -3   3   5 1301.48   55.32   0
  -3   3   5 1422.60   55.73   0
   2  -3  -5   44.12    2.35   0
  -2   3   5   36.86    2.06   0
  -2   3   5   37.42    2.02   0
  -2   3   5   35.64    2.46   0
   1  -3  -5  383.91   15.56   0
  -1   3   5  393.85   15.99   0
  -1   3   5  373.37   15.23   0
  -1   3   5  384.71   15.73   0
  -1   3   5  386.98   15.26   0
   0   3   5    2.78    0.96   0
   0   3   5    3.46    0.95   0
   1   3   5  207.46    9.17   0
   1   3   5  213.64    9.33   0
   2   3   5    4.54    1.18   0
   2   3   5    6.49    1.39   0
   3   3   5  230.05    9.55   0
   3   3   5  235.24    9.56   0
   3   3   5  232.33   10.46   0
   3   3   5  243.91   10.35   0
   4   3   5   50.86    2.86   0
   4   3   5   46.23    4.10   0
   4   3   5   50.90    2.85   0
   4   3   5   45.14    3.47   0
   9  -4  -5    4.09    1.81   0
   9  -4  -5    3.96    1.99   0
  -9   4   5    1.98    1.64   0
  -9   4   5    1.31    1.58   0
   8  -4  -5   34.87    3.37   0
   8  -4  -5   34.03    3.25   0
  -8   4   5   33.49    3.35   0
  -8   4   5   30.67    3.04   0
  -8   4   5   30.30    2.39   0
   7  -4  -5   54.55    3.62   0
   7  -4  -5   46.91    3.45   0
  -7   4   5   54.38    3.59   0
  -7   4   5   54.73    3.23   0
  -7   4   5   63.14    3.92   0
   6  -4  -5  144.18    6.85   0
   6  -4  -5  147.50    7.03   0
   6  -4  -5  156.62    6.92   0
  -6   4   5  140.28    6.90   0
  -6   4   5  147.44    6.85   0
  -6   4   5  157.40    7.14   0
   5  -4  -5    0.06    0.63   0
   5  -4  -5    0.32    0.57   0
   5  -4  -5    0.05    0.82   0
  -5   4   5   -0.23    0.63   0
  -5   4   5   -0.30    0.79   0
  -5   4   5    0.42    0.81   0
   4  -4  -5   70.32    3.30   0
   4  -4  -5   70.58    3.30   0
   4  -4  -5   72.33    3.76   0
  -4   4   5   70.66    3.88   0
  -4   4   5   68.64    3.59   0
  -4   4   5   71.46    3.73   0
   3  -4  -5    8.38    1.15   0
  -3   4   5    8.72    1.37   0
  -3   4   5    8.08    1.14   0
  -3   4   5    7.77    1.19   0
   2  -4  -5  412.51   16.32   0
  -2   4   5  410.32   16.10   0
  -2   4   5  371.85   16.68   0
  -2   4   5  409.77   16.17   0
  -1   4   5  253.11   11.13   0
  -1   4   5  260.59   10.36   0
  -1   4   5  260.12   10.29   0
  -1   4   5  247.26   10.82   0
   0   4   5  405.65   16.28   0
   0   4   5  411.16   16.21   0
   0   4   5  408.00   16.97   0
   0   4   5  424.90   17.27   0
   1   4   5   71.53    4.11   0
   1   4   5   75.23    4.27   0
   2   4   5    3.69    0.65   0
   2   4   5    1.57    1.23   0
   2   4   5    3.73    1.46   0
   2   4   5    3.46    0.53   0
   3   4   5   66.67    4.64   0
   3   4   5   66.14    3.35   0
   3   4   5   69.63    4.39   0
   3   4   5   68.73    3.25   0
   8  -5  -5    3.74    1.36   0
   8  -5  -5    5.15    1.50   0
  -8   5   5    5.18    1.84   0
  -8   5   5    5.74    1.31   0
  -8   5   5    3.47    1.41   0
   7  -5  -5  258.11   11.36   0
   7  -5  -5  258.84   11.55   0
   7  -5  -5  254.83   11.33   0
  -7   5   5  257.01   11.19   0
  -7   5   5  248.07   11.35   0
  -7   5   5  276.47   11.71   0
   6  -5  -5   93.87    4.78   0
   6  -5  -5   97.90    4.85   0
   6  -5  -5  101.40    5.24   0
  -6   5   5   94.32    5.00   0
  -6   5   5   96.13    5.04   0
  -6   5   5   98.62    5.23   0
   5  -5  -5   89.08    4.16   0
   5  -5  -5   92.97    4.64   0
   5  -5  -5   90.19    4.18   0
  -5   5   5   75.63    4.55   0
  -5   5   5   85.65    4.45   0
  -5   5   5   88.78    4.74   0
   4  -5  -5   75.49    3.43   0
   4  -5  -5   79.84    3.45   0
  -4   5   5   78.75    4.47   0
  -4   5   5   83.78    4.21   0
  -4   5   5   83.71    4.06   0
   3  -5  -5 1005.14   39.69   0
  -3   5   5  974.30   39.66   0
  -3   5   5 1021.86   39.57   0
  -3   5   5 1006.99   40.16   0
   2  -5  -5    6.31    1.01   0
  -2   5   5    5.36    0.79   0
  -2   5   5    4.25    0.83   0
  -2   5   5    4.97    1.38   0
  -1   5   5  198.68    8.42   0
  -1   5   5  204.68    9.29   0
  -1   5   5  201.36    8.28   0
  -1   5   5  205.06    8.92   0
   0   5   5  589.72   23.95   0
   0   5   5  598.52   24.31   0
   0   5   5  584.28   23.31   0
   0   5   5  585.72   23.18   0
   1   5   5  176.35    8.21   0
   1   5   5  171.24    7.33   0
   1   5   5  182.51    8.47   0
   2   5   5   41.55    2.55   0
   2   5   5   42.92    2.28   0
   2   5   5   45.85    3.89   0
   2   5   5   44.77    3.84   0
   8  -6  -5   -0.65    1.76   0
   8  -6  -5   -1.92    1.47   0
   8  -6  -5   -0.15    1.28   0
  -8   6   5    0.75    1.40   0
  -8   6   5    0.75    1.34   0
  -8   6   5   -1.04    1.70   0
   7  -6  -5  628.33   24.90   0
   7  -6  -5  589.89   24.83   0
   7  -6  -5  610.10   25.14   0
  -7   6   5  543.37   24.90   0
  -7   6   5  642.36   25.02   0
  -7   6   5  643.15   25.38   0
   6  -6  -5  550.93   21.85   0
   6  -6  -5  519.03   21.82   0
   6  -6  -5  544.11   22.23   0
  -6   6   5  521.79   22.11   0
  -6   6   5  559.03   22.45   0
  -6   6   5  541.38   22.31   0
   5  -6  -5   16.48    2.29   0
   5  -6  -5   14.53    1.43   0
   5  -6  -5   15.94    1.40   0
  -5   6   5   15.73    1.94   0
  -5   6   5   12.33    1.92   0
   4  -6  -5  104.51    5.34   0
  -4   6   5  113.93    5.49   0
  -4   6   5  106.87    5.83   0
  -4   6   5  110.33    5.23   0
   3  -6  -5  788.84   31.86   0
  -3   6   5  801.66   31.97   0
  -3   6   5  799.78   31.76   0
  -3   6   5  807.95   32.53   0
  -2   6   5  119.24    5.41   0
  -2   6   5  111.75    6.12   0
  -2   6   5  114.03    5.16   0
  -1   6   5  106.89    4.70   0
  -1   6   5  100.97    5.80   0
  -1   6   5  108.47    4.93   0
   0   6   5  295.33   12.21   0
   0   6   5  295.43   12.81   0
   0   6   5  304.64   13.28   0
   0   6   5  294.03   12.03   0
   1   6   5  342.93   14.09   0
   1   6   5  341.25   14.80   0
   1   6   5  343.58   15.16   0
   1   6   5  348.63   13.91   0
   7  -7  -5  146.86    7.57   0
   7  -7  -5  149.41    7.08   0
   7  -7  -5  148.64    7.06   0
  -7   7   5  139.46    7.36   0
  -7   7   5  154.41    7.59   0
  -7   7   5  152.49    7.97   0
   6  -7  -5  228.54    9.89   0
   6  -7  -5  236.02    9.90   0
   6  -7  -5  243.46   10.59   0
  -6   7   5  229.36   10.45   0
  -6   7   5  239.63   10.90   0
  -6   7   5  231.69   10.81   0
   5  -7  -5   74.82    4.29   0
  -5   7   5   71.88    4.11   0
  -5   7   5   74.54    4.55   0
  -5   7   5   67.04    4.69   0
   4  -7  -5   81.43    4.35   0
  -4   7   5   81.15    4.62   0
  -4   7   5   78.02    4.22   0
  -4   7   5   77.91    5.01   0
   3  -7  -5  254.53   10.34   0
  -3   7   5  205.71   10.12   0
  -3   7   5  250.20   11.20   0
  -3   7   5  254.84   10.62   0
  -2   7   5   19.67    1.89   0
  -2   7   5   20.84    2.41   0
  -2   7   5   23.71    3.17   0
  -1   7   5   58.19    3.45   0
  -1   7   5   53.49    4.55   0
  -1   7   5   53.87    3.05   0
   5  -8  -5   25.82    3.10   0
  -5   8   5   29.99    3.66   0
  -5   8   5   27.20    3.71   0
  -5   8   5   21.33    2.85   0
   4  -8  -5   -1.88    1.23   0
  -4   8   5   -0.09    1.09   0
  -4   8   5    1.76    1.56   0
  -4   8   5    1.44    2.02   0
  -1  10  -6    2.25    2.32   0
  -1  10  -6   11.44    2.43   0
   1 -10   6    5.44    2.13   0
   1 -10   6    6.63    1.55   0
   1 -10   6    4.59    1.53   0
  -2  10  -6   34.68    3.74   0
  -2  10  -6   37.21    4.18   0
   2 -10   6   27.36    3.07   0
   2 -10   6   29.83    3.35   0
   2 -10   6   27.14    3.60   0
  -3  10  -6  188.32    9.58   0
  -3  10  -6  185.10    9.39   0
   3 -10   6  188.57    9.18   0
   3 -10   6  199.72    9.06   0
   3 -10   6  182.60    9.31   0
  -4  10  -6  177.79    9.10   0
  -4  10  -6  161.34    8.77   0
   4 -10   6  167.00    8.85   0
   4 -10   6  189.49    8.65   0
   4 -10   6  173.80    7.31   0
   4 -10   6  176.58    8.89   0
   1   9  -6  174.16    8.79   0
   1   9  -6  180.66    9.31   0
  -1  -9   6  178.25    8.76   0
  -1  -9   6  172.61    8.23   0
  -1  -9   6  177.71    8.15   0
   0   9  -6  376.46   16.56   0
   0   9  -6  369.41   16.25   0
   0  -9   6  368.97   16.19   0
   0  -9   6  394.37   15.84   0
   0  -9   6  361.68   15.86   0
  -1   9  -6  174.55    8.60   0
  -1   9  -6  175.32    8.84   0
   1  -9   6  169.28    8.29   0
   1  -9   6  187.64    8.27   0
  -2   9  -6   80.53    5.05   0
  -2   9  -6   68.05    4.65   0
   2  -9   6   68.31    4.47   0
   2  -9   6   78.80    4.48   0
  -3   9  -6  231.18   10.66   0
  -3   9  -6  219.92   10.44   0
   3  -9   6  240.91   10.31   0
   3  -9   6  212.84   10.36   0
   3  -9   6  225.31    9.21   0
  -4   9  -6   27.54    3.16   0
  -4   9  -6   30.24    3.59   0
   4  -9   6   26.93    3.31   0
   4  -9   6   33.70    3.07   0
  -5   9  -6    3.04    1.66   0
   5  -9   6    0.70    1.74   0
   5  -9   6    3.74    1.79   0
   5  -9   6    1.32    1.40   0
  -6   9  -6   55.94    4.62   0
   6  -9   6   54.79    4.37   0
   6  -9   6   46.76    4.59   0
   6  -9   6   59.51    4.48   0
   2   8  -6   81.43    5.20   0
   2   8  -6   90.04    5.78   0
  -2  -8   6   84.57    4.71   0
  -2  -8   6   91.36    4.78   0
  -2  -8   6   85.72    5.13   0
   1   8  -6    0.25    1.30   0
   1   8  -6    0.69    1.12   0
  -1  -8   6    1.70    1.01   0
  -1  -8   6    1.85    1.10   0
   0   8  -6  753.06   29.95   0
   0   8  -6  676.08   29.59   0
   0  -8   6  692.83   29.42   0
   0  -8   6  787.02   29.48   0
  -1   8  -6   65.15    4.13   0
  -1   8  -6   70.69    4.44   0
   1  -8   6   66.24    4.06   0
   1  -8   6   70.04    3.98   0
  -2   8  -6    0.82    0.95   0
  -2   8  -6    0.07    1.15   0
   2  -8   6    2.43    1.04   0
   2  -8   6    1.77    0.51   0
   2  -8   6    0.94    0.96   0
  -3   8  -6  163.59    8.13   0
  -3   8  -6  167.96    8.26   0
   3  -8   6  178.45    8.05   0
   3  -8   6  180.04    7.28   0
   3  -8   6  174.02    8.26   0
  -4   8  -6  724.80   29.74   0
   4  -8   6  770.95   29.61   0
   4  -8   6  684.79   29.68   0
  -5   8  -6    2.97    1.42   0
   5  -8   6    6.32    1.70   0
   5  -8   6    5.80    1.40   0
  -6   8  -6  134.32    6.81   0
   6  -8   6  124.24    7.00   0
   6  -8   6  121.09    6.64   0
   4   7  -6  197.59    9.88   0
   4   7  -6  185.22    9.37   0
  -4  -7   6  187.10    8.57   0
  -4  -7   6  182.70    8.65   0
  -4  -7   6  190.46    8.94   0
   3   7  -6  666.43   26.76   0
   3   7  -6  599.26   26.32   0
  -3  -7   6  653.69   25.94   0
  -3  -7   6  635.82   25.97   0
   2   7  -6   76.32    4.62   0
   2   7  -6   83.06    5.07   0
  -2  -7   6   86.95    4.46   0
  -2  -7   6   76.68    4.38   0
   1   7  -6   45.23    3.26   0
  -1  -7   6   51.02    3.18   0
  -1  -7   6   44.81    3.10   0
   0   7  -6  474.81   20.54   0
   0   7  -6  507.47   20.76   0
   0  -7   6  479.67   20.44   0
   0  -7   6  528.24   20.47   0
  -1   7  -6   60.05    3.76   0
  -1   7  -6   59.24    3.60   0
   1  -7   6   60.53    3.51   0
   1  -7   6   56.29    2.61   0
   1  -7   6   57.46    3.52   0
  -2   7  -6   85.40    4.54   0
  -2   7  -6   72.19    4.31   0
   2  -7   6   77.08    4.41   0
   2  -7   6   83.96    4.30   0
   2  -7   6   78.21    3.57   0
  -3   7  -6  438.43   19.98   0
  -3   7  -6  502.19   20.19   0
   3  -7   6  478.34   20.17   0
   3  -7   6  523.73   20.05   0
  -4   7  -6  754.87   31.59   0
  -4   7  -6  836.22   31.79   0
   4  -7   6  748.52   31.75   0
   4  -7   6  794.34   31.58   0
  -5   7  -6    2.88    1.22   0
   5  -7   6    2.83    1.15   0
   5  -7   6    4.03    1.48   0
  -6   7  -6  124.42    6.37   0
   6  -7   6  121.29    6.72   0
   6  -7   6  128.65    6.50   0
  -7   7  -6  141.95    6.95   0
   7  -7   6  127.29    7.40   0
   7  -7   6  131.26    7.08   0
   7  -7   6  134.65    6.45   0
   5   6  -6   55.16    3.10   0
   5   6  -6   64.97    5.32   0
   5   6  -6   50.36    4.63   0
  -5  -6   6   65.73    3.87   0
  -5  -6   6   58.02    3.99   0
  -5  -6   6   53.05    3.85   0
   4   6  -6   94.14    4.12   0
   4   6  -6   93.18    5.53   0
   4   6  -6   99.61    5.94   0
  -4  -6   6   95.55    5.06   0
  -4  -6   6   95.07    5.05   0
   3   6  -6  322.66   13.90   0
   3   6  -6  300.16   13.59   0
  -3  -6   6  324.89   13.38   0
  -3  -6   6  308.70   13.33   0
   2   6  -6   83.51    4.73   0
   2   6  -6   75.04    4.40   0
  -2  -6   6   78.80    4.27   0
  -2  -6   6   85.82    4.36   0
   1   6  -6    0.66    0.71   0
   1   6  -6    0.44    0.83   0
  -1  -6   6    0.06    0.71   0
  -1  -6   6   -0.14    0.67   0
   0   6  -6  377.32   18.18   0
   0   6  -6  485.05   18.37   0
   0  -6   6  391.61   18.10   0
   0  -6   6  513.07   18.29   0
  -1   6  -6  277.41   11.70   0
  -1   6  -6  257.26   11.68   0
   1  -6   6  273.48   11.01   0
   1  -6   6  277.10   11.71   0
   1  -6   6  278.91   11.61   0
  -2   6  -6   24.51    2.04   0
  -2   6  -6   25.25    2.20   0
   2  -6   6   22.35    1.52   0
   2  -6   6   19.88    2.04   0
   2  -6   6   27.36    2.08   0
  -3   6  -6  424.10   18.38   0
  -3   6  -6  468.64   18.51   0
   3  -6   6  474.18   18.41   0
   3  -6   6  423.29   18.51   0
  -4   6  -6  269.53   11.17   0
  -4   6  -6  249.16   11.04   0
   4  -6   6  267.87   11.10   0
   4  -6   6  242.40   11.26   0
  -5   6  -6   18.27    2.13   0
   5  -6   6   16.30    2.36   0
   5  -6   6   16.01    2.12   0
  -6   6  -6   69.55    4.01   0
   6  -6   6   62.86    4.35   0
   6  -6   6   68.44    4.19   0
  -7   6  -6  137.21    6.51   0
  -7   6  -6  131.33    6.40   0
   7  -6   6  130.70    7.30   0
   7  -6   6  133.32    6.95   0
   5   5  -6  107.49    5.13   0
   5   5  -6  117.85    6.56   0
   5   5  -6  105.12    6.11   0
  -5  -5   6  109.50    5.65   0
   4   5  -6   16.35    2.31   0
   4   5  -6   16.66    2.73   0
   4   5  -6   14.39    1.47   0
  -4  -5   6   12.85    1.93   0
   3   5  -6  224.25    9.73   0
   3   5  -6  214.70    8.69   0
   3   5  -6  203.24    9.48   0
  -3  -5   6  207.62    9.32   0
   2   5  -6    8.50    1.39   0
   2   5  -6    9.01    1.50   0
   2   5  -6    9.76    0.92   0
  -2  -5   6   11.73    1.55   0
   1   5  -6   84.14    4.39   0
   1   5  -6   84.19    4.50   0
  -1  -5   6   92.35    4.42   0
  -1  -5   6   84.91    4.38   0
   0   5  -6  566.91   24.56   0
   0   5  -6  643.26   24.73   0
   0  -5   6  597.06   24.05   0
   0  -5   6  582.38   24.57   0
   0  -5   6  659.47   24.63   0
  -1   5  -6   75.58    3.99   0
  -1   5  -6   74.71    3.92   0
   1  -5   6   87.15    4.01   0
   1  -5   6   79.27    3.54   0
   1  -5   6   71.36    3.98   0
  -2   5  -6    8.45    1.36   0
  -2   5  -6    8.88    1.30   0
   2  -5   6   10.48    1.11   0
   2  -5   6    9.69    1.36   0
  -3   5  -6    1.88    0.73   0
  -3   5  -6    0.77    0.71   0
   3  -5   6    1.57    0.64   0
   3  -5   6    1.08    0.69   0
  -4   5  -6  562.50   22.90   0
  -4   5  -6  588.46   22.96   0
   4  -5   6  551.95   23.19   0
  -5   5  -6  162.80    7.35   0
   5  -5   6  170.35    7.60   0
   5  -5   6  165.49    7.85   0
  -6   5  -6    1.99    0.84   0
  -6   5  -6    0.46    0.89   0
   6  -5   6    0.64    1.03   0
   6  -5   6    1.58    1.20   0
  -7   5  -6  133.82    5.97   0
  -7   5  -6  133.49    6.00   0
   7  -5   6  124.97    7.00   0
   7  -5   6  129.78    6.78   0
   6   4  -6  264.95   12.33   0
   6   4  -6  264.41   12.17   0
   6   4  -6  265.31   11.38   0
  -6  -4   6  259.07   11.62   0
  -6  -4   6  273.01   11.71   0
   5   4  -6   -0.43    1.18   0
   5   4  -6    0.60    0.98   0
   5   4  -6    0.59    1.01   0
  -5  -4   6   -0.01    0.91   0
  -5  -4   6    1.77    1.01   0
   4   4  -6  293.18   12.30   0
   4   4  -6  273.09   11.48   0
   4   4  -6  276.04   12.17   0
  -4  -4   6  289.32   11.99   0
  -4  -4   6  263.26   11.89   0
   3   4  -6  229.47    9.42   0
   3   4  -6  215.92   10.05   0
   3   4  -6  219.55    9.99   0
  -3  -4   6  232.26    9.91   0
  -3  -4   6  245.65    9.98   0
   2   4  -6   76.44    3.61   0
   2   4  -6   81.68    4.28   0
   2   4  -6   78.14    4.13   0
  -2  -4   6   86.83    4.20   0
  -2  -4   6   82.62    4.13   0
   1   4  -6   19.40    1.69   0
   1   4  -6   21.43    1.84   0
  -1  -4   6   21.44    1.76   0
  -1  -4   6   21.30    1.80   0
   0   4  -6 1250.20   48.90   0
   0   4  -6 1182.53   48.81   0
   0  -4   6 1303.14   48.90   0
   0  -4   6 1255.92   48.52   0
   0  -4   6 1203.03   48.87   0
  -1   4  -6 1576.03   60.97   0
  -1   4  -6 1397.32   60.87   0
   1  -4   6 1537.28   61.04   0
   1  -4   6 1644.51   60.73   0
   1  -4   6 1607.62   60.98   0
  -2   4  -6  335.88   14.20   0
  -2   4  -6  353.91   14.25   0
   2  -4   6  337.62   14.38   0
   2  -4   6  364.38   14.29   0
  -3   4  -6   60.50    3.10   0
  -3   4  -6   60.52    3.13   0
   3  -4   6   61.82    3.22   0
   3  -4   6   61.32    3.38   0
  -4   4  -6  694.56   28.57   0
  -4   4  -6  732.76   28.60   0
   4  -4   6  725.97   28.77   0
   4  -4   6  727.17   29.03   0
  -5   4  -6  306.69   12.59   0
  -5   4  -6  310.84   12.61   0
   5  -4   6  299.64   13.19   0
   5  -4   6  316.34   12.99   0
  -6   4  -6   18.57    1.52   0
  -6   4  -6   19.80    1.49   0
   6  -4   6   20.21    2.44   0
   6  -4   6   18.96    2.54   0
   7  -4   6   92.27    5.64   0
   7  -4   6   88.95    4.11   0
   7  -4   6   94.33    5.39   0
   7   3  -6  107.12    6.61   0
   7   3  -6  121.77    6.92   0
  -7  -3   6  109.49    5.93   0
  -7  -3   6  116.03    6.10   0
   6   3  -6   72.66    4.79   0
   6   3  -6   72.94    4.67   0
  -6  -3   6   77.39    4.41   0
  -6  -3   6   71.05    4.25   0
   5   3  -6  123.31    6.40   0
   5   3  -6  134.11    5.99   0
   5   3  -6  130.21    6.55   0
  -5  -3   6  128.89    6.25   0
  -5  -3   6  131.86    6.28   0
   4   3  -6    4.87    0.94   0
   4   3  -6    3.25    1.08   0
   4   3  -6    3.32    1.03   0
  -4  -3   6    2.53    0.80   0
  -4  -3   6    1.62    0.78   0
   3   3  -6  718.73   27.62   0
   3   3  -6  659.66   27.52   0
   3   3  -6  699.49   27.12   0
  -3  -3   6  644.09   27.39   0
  -3  -3   6  696.70   27.45   0
   2   3  -6 1117.28   46.51   0
   2   3  -6 1206.10   46.60   0
   2   3  -6 1199.37   46.19   0
  -2  -3   6 1213.01   46.54   0
  -2  -3   6 1155.02   46.52   0
   1   3  -6  539.13   21.57   0
   1   3  -6  486.81   21.47   0
   1   3  -6  547.94   21.25   0
  -1  -3   6  548.51   21.31   0
  -1  -3   6  563.21   21.59   0
  -1  -3   6  528.72   21.56   0
   0   3  -6   35.35    2.10   0
   0   3  -6   37.36    2.19   0
   0  -3   6   37.27    2.05   0
   0  -3   6   37.32    2.25   0
   0  -3   6   39.64    2.24   0
  -1   3  -6 1149.50   44.68   0
  -1   3  -6 1052.29   44.61   0
   1  -3   6 1168.98   44.68   0
   1  -3   6 1124.43   44.83   0
   1  -3   6 1189.98   44.78   0
  -2   3  -6 1112.95   44.32   0
  -2   3  -6 1168.75   44.37   0
   2  -3   6 1113.71   44.61   0
   2  -3   6 1126.05   44.47   0
  -3   3  -6  322.90   13.01   0
  -3   3  -6  318.67   12.99   0
   3  -3   6  339.98   13.28   0
   3  -3   6  314.02   13.40   0
  -4   3  -6  308.35   12.07   0
  -4   3  -6  302.97   12.05   0
   4  -3   6  306.28   12.50   0
   4  -3   6  291.22   12.67   0
   5  -3   6  436.95   20.48   0
   5  -3   6  566.74   20.48   0
   6  -3   6  160.60    7.80   0
   6  -3   6  170.63    7.58   0
   6  -3   6  159.66    7.03   0
   7   2  -6   42.09    3.97   0
   7   2  -6   45.35    3.84   0
  -7  -2   6   44.95    3.48   0
  -7  -2   6   37.79    3.22   0
   6   2  -6   55.72    3.85   0
   6   2  -6   45.12    3.56   0
  -6  -2   6   54.50    3.48   0
  -6  -2   6   53.96    3.44   0
   5   2  -6  296.29   12.62   0
   5   2  -6  290.32   12.61   0
   5   2  -6  276.84   12.16   0
  -5  -2   6  306.38   12.41   0
  -5  -2   6  283.33   12.39   0
   4   2  -6  187.13    8.07   0
   4   2  -6  178.91    7.70   0
   4   2  -6  163.27    7.92   0
  -4  -2   6  193.98    7.95   0
  -4  -2   6  166.07    7.84   0
   3   2  -6  441.24   18.00   0
   3   2  -6  458.13   18.04   0
   3   2  -6  442.65   17.73   0
  -3  -2   6  418.04   17.91   0
  -3  -2   6  442.37   17.92   0
   2   2  -6 1649.51   63.55   0
   2   2  -6 1547.45   63.49   0
   2   2  -6 1681.25   63.35   0
  -2  -2   6 1623.25   63.51   0
  -2  -2   6 1596.09   63.53   0
   1   2  -6  705.62   27.56   0
   1   2  -6  672.13   27.63   0
   1   2  -6  700.21   27.67   0
  -1  -2   6  727.73   27.64   0
  -1  -2   6  665.71   27.71   0
  -1  -2   6  712.98   27.71   0
   0   2  -6  108.93    4.69   0
   0   2  -6  103.65    4.62   0
   0  -2   6  102.65    4.79   0
   0  -2   6  108.06    4.78   0
   0  -2   6  110.80    4.78   0
  -1   2  -6  836.75   32.41   0
  -1   2  -6  814.87   32.38   0
   1  -2   6  826.95   32.70   0
   1  -2   6  827.18   32.67   0
  -2   2  -6  615.68   24.08   0
  -2   2  -6  623.26   24.08   0
   2  -2   6  618.80   24.47   0
   2  -2   6  626.62   24.67   0
   2  -2   6  599.50   24.57   0
   3  -2   6   25.66    1.79   0
   3  -2   6   24.13    1.63   0
   4  -2   6  102.18    4.90   0
   4  -2   6  102.77    4.70   0
   5  -2   6  140.40    6.27   0
   5  -2   6  144.09    6.40   0
   5  -2   6  138.38    6.59   0
   6  -2   6   88.03    4.09   0
   6  -2   6   87.96    4.66   0
   6  -2   6   81.07    4.82   0
   8   1  -6  101.99    6.38   0
   8   1  -6  104.01    6.47   0
  -8  -1   6   99.37    5.73   0
  -8  -1   6  108.17    5.87   0
   7   1  -6   31.57    3.33   0
   7   1  -6   39.39    3.50   0
  -7  -1   6   34.82    3.14   0
  -7  -1   6   32.53    2.94   0
   6   1  -6  922.56   36.96   0
   6   1  -6  897.91   36.87   0
  -6  -1   6  877.67   36.63   0
  -6  -1   6  962.12   36.71   0
   5   1  -6 1037.20   41.21   0
   5   1  -6 1098.36   41.54   0
   5   1  -6 1014.75   41.48   0
  -5  -1   6  999.52   41.32   0
  -5  -1   6 1045.28   41.32   0
   4   1  -6   98.79    4.72   0
   4   1  -6  102.53    4.91   0
   4   1  -6   93.37    4.83   0
  -4  -1   6  104.57    4.85   0
  -4  -1   6   98.70    4.82   0
   3   1  -6  453.64   20.24   0
   3   1  -6  515.35   20.33   0
   3   1  -6  520.34   20.22   0
  -3  -1   6  519.30   20.31   0
  -3  -1   6  507.38   20.33   0
   2   1  -6 1294.53   52.57   0
   2   1  -6 1366.19   52.58   0
   2   1  -6 1302.06   52.56   0
  -2  -1   6 1379.39   52.63   0
  -2  -1   6 1360.90   52.67   0
   1   1  -6  688.50   27.59   0
   1   1  -6  710.51   27.50   0
   1   1  -6  694.46   27.47   0
  -1  -1   6  721.21   27.60   0
  -1  -1   6  704.10   27.64   0
  -1  -1   6  663.40   27.64   0
   0   1  -6  253.15   10.44   0
   0   1  -6  285.13   10.48   0
   0  -1   6  249.61   10.88   0
   0  -1   6  266.92   10.78   0
   0  -1   6  262.67   10.72   0
   1  -1   6  682.71   26.69   0
   1  -1   6  678.30   26.62   0
   1  -1   6  663.60   26.89   0
   2  -1   6  229.89   10.08   0
   2  -1   6  242.51    9.83   0
   2  -1   6  243.28    9.73   0
   3  -1   6  146.25    6.34   0
   3  -1   6  154.92    6.51   0
   4  -1   6  137.82    5.89   0
   4  -1   6  123.45    6.05   0
   4  -1   6  142.36    6.10   0
   5  -1   6  626.55   24.80   0
   5  -1   6  606.53   24.98   0
   5  -1   6  622.86   24.78   0
   6  -1   6   53.36    3.00   0
   6  -1   6   55.68    3.86   0
   6  -1   6   57.96    3.67   0
   8   0  -6  152.12    8.00   0
   8   0  -6  151.77    8.11   0
  -8   0   6  154.19    7.62   0
  -8   0   6  147.95    7.50   0
  -8   0   6  151.57    6.52   0
   7   0  -6  163.35    8.47   0
   7   0  -6  186.90    8.56   0
  -7   0   6  182.94    8.27   0
  -7   0   6  167.79    8.15   0
   6   0  -6  502.56   20.53   0
   6   0  -6  468.40   20.49   0
  -6   0   6  528.72   20.42   0
  -6   0   6  477.21   20.33   0
   5   0  -6  273.83   11.04   0
   5   0  -6  231.43   11.02   0
   5   0  -6  252.62   11.09   0
  -5   0   6  273.56   11.09   0
   4   0  -6  814.65   32.57   0
   4   0  -6  837.17   32.64   0
   4   0  -6  796.43   32.61   0
  -4   0   6  786.94   32.61   0
  -4   0   6  857.45   32.64   0
   3   0  -6    1.26    0.51   0
   3   0  -6    1.53    0.60   0
   3   0  -6    2.70    0.66   0
  -3   0   6    2.03    0.57   0
  -3   0   6    3.30    0.70   0
   2   0  -6 1459.90   55.47   0
   2   0  -6 1369.97   55.44   0
   2   0  -6 1437.64   55.64   0
  -2   0   6 1457.31   55.62   0
  -2   0   6 1410.39   55.67   0
  -2   0   6 1375.81   55.55   0
   1   0  -6  283.56   11.38   0
   1   0  -6  277.26   10.92   0
   1   0  -6  271.95   10.92   0
  -1   0   6  288.84   11.24   0
  -1   0   6  269.20   11.45   0
  -1   0   6  270.72   11.25   0
   0   0   6  335.68   13.68   0
   0   0   6  334.02   13.29   0
   0   0   6  329.43   13.35   0
   1   0   6  552.73   22.03   0
   1   0   6  578.15   22.49   0
   1   0   6  544.27   21.97   0
   2   0   6 1099.47   42.31   0
   2   0   6 1058.71   41.78   0
   2   0   6 1043.72   41.70   0
   3   0   6  144.35    5.92   0
   3   0   6  141.23    6.05   0
   3   0   6  137.13    6.61   0
   3   0   6  141.57    6.45   0
   4   0   6   18.19    1.64   0
   4   0   6   16.54    1.47   0
   4   0   6   17.98    1.90   0
   5   0   6  327.84   13.50   0
   5   0   6  315.17   13.59   0
   5   0   6  332.56   13.48   0
   8  -1  -6   16.99    2.41   0
  -8   1   6   16.86    2.90   0
  -8   1   6   17.25    1.69   0
  -8   1   6   16.17    2.21   0
   7  -1  -6  190.55    8.91   0
   7  -1  -6  189.36    8.91   0
  -7   1   6  186.10    8.16   0
  -7   1   6  182.83    8.66   0
  -7   1   6  194.76    8.76   0
   6  -1  -6  362.72   14.54   0
   6  -1  -6  325.80   14.44   0
  -6   1   6  333.33   14.37   0
  -6   1   6  339.94   14.39   0
   5  -1  -6 1342.44   51.48   0
   5  -1  -6 1283.82   51.43   0
   5  -1  -6 1243.38   51.43   0
  -5   1   6 1351.56   51.50   0
  -5   1   6 1287.10   51.48   0
   4  -1  -6  429.42   17.53   0
   4  -1  -6  442.18   17.54   0
   4  -1  -6  414.44   17.58   0
  -4   1   6  457.65   17.64   0
  -4   1   6  413.41   17.58   0
   3  -1  -6    0.72    0.48   0
   3  -1  -6   -0.19    0.37   0
   3  -1  -6    0.57    0.61   0
  -3   1   6   -0.10    0.48   0
  -3   1   6    0.04    0.46   0
   2  -1  -6 1531.53   60.01   0
   2  -1  -6 1508.37   60.00   0
   2  -1  -6 1554.61   60.47   0
  -2   1   6 1575.43   60.32   0
  -2   1   6 1559.27   60.53   0
  -2   1   6 1522.23   60.33   0
   1  -1  -6  347.98   13.48   0
  -1   1   6  321.27   13.17   0
  -1   1   6  317.74   13.54   0
  -1   1   6  330.12   13.22   0
   0   1   6  143.79    5.86   0
   0   1   6  145.65    5.90   0
   0   1   6  139.83    6.43   0
   1   1   6  464.98   18.72   0
   1   1   6  444.31   17.95   0
   1   1   6  447.03   17.91   0
   1   1   6  470.96   18.67   0
   2   1   6 1378.47   53.86   0
   2   1   6 1383.24   53.89   0
   2   1   6 1353.94   53.14   0
   2   1   6 1338.61   53.07   0
   3   1   6    9.11    0.95   0
   3   1   6    9.20    1.08   0
   3   1   6    9.13    1.52   0
   3   1   6   12.55    1.62   0
   4   1   6   39.21    3.30   0
   4   1   6   37.11    2.21   0
   4   1   6   35.64    2.31   0
   4   1   6   36.84    2.72   0
   5   1   6  137.34    6.56   0
   5   1   6  142.25    6.43   0
   5   1   6  142.35    7.43   0
   5   1   6  141.87    6.55   0
   8  -2  -6  493.08   21.55   0
   8  -2  -6  513.13   21.54   0
  -8   2   6  499.65   21.30   0
  -8   2   6  540.49   21.44   0
  -8   2   6  503.56   20.55   0
   7  -2  -6  289.14   13.12   0
   7  -2  -6  308.52   13.18   0
  -7   2   6  289.81   13.00   0
  -7   2   6  304.57   12.61   0
  -7   2   6  312.72   13.14   0
   6  -2  -6  461.74   19.26   0
   6  -2  -6  468.03   19.24   0
   6  -2  -6  480.99   19.31   0
  -6   2   6  446.95   19.20   0
  -6   2   6  471.00   19.27   0
  -6   2   6  465.59   19.03   0
   5  -2  -6 1614.51   61.36   0
   5  -2  -6 1500.79   61.40   0
   5  -2  -6 1532.01   61.34   0
  -5   2   6 1607.38   61.46   0
  -5   2   6 1544.24   61.39   0
  -5   2   6 1552.07   61.42   0
   4  -2  -6  342.02   13.75   0
   4  -2  -6  326.89   13.96   0
   4  -2  -6  332.24   13.74   0
  -4   2   6  334.00   14.06   0
  -4   2   6  332.44   13.92   0
  -4   2   6  350.63   13.96   0
   3  -2  -6    1.92    0.82   0
   3  -2  -6    1.40    0.48   0
   3  -2  -6    1.88    0.46   0
  -3   2   6    2.81    0.73   0
  -3   2   6    0.63    0.77   0
   2  -2  -6 1539.87   59.79   0
  -2   2   6 1546.15   60.10   0
  -2   2   6 1545.96   59.89   0
  -2   2   6 1485.20   59.58   0
  -2   2   6 1499.86   59.58   0
   1  -2  -6 1411.87   54.78   0
  -1   2   6 1386.73   54.46   0
  -1   2   6 1424.83   54.46   0
  -1   2   6 1368.60   55.12   0
  -1   2   6 1382.51   54.93   0
   0   2   6   12.17    1.68   0
   0   2   6   14.82    1.71   0
   0   2   6   12.41    0.84   0
   0   2   6   12.61    0.86   0
   1   2   6  602.72   24.75   0
   1   2   6  615.41   24.67   0
   2   2   6   49.97    3.18   0
   2   2   6   43.16    3.20   0
   3   2   6   32.14    3.06   0
   3   2   6   32.02    1.75   0
   3   2   6   30.11    1.80   0
   3   2   6   33.53    2.73   0
   4   2   6   45.56    2.54   0
   4   2   6   42.18    3.89   0
   4   2   6   41.01    3.25   0
   4   2   6   43.82    2.65   0
   8  -3  -6  557.60   22.12   0
   8  -3  -6  504.86   21.99   0
  -8   3   6  520.84   21.22   0
  -8   3   6  543.80   21.99   0
  -8   3   6  491.86   21.79   0
   7  -3  -6  313.60   13.83   0
   7  -3  -6  329.91   13.89   0
  -7   3   6  304.24   13.76   0
  -7   3   6  332.30   13.94   0
  -7   3   6  323.69   13.48   0
   6  -3  -6  160.99    7.42   0
   6  -3  -6  161.83    7.27   0
   6  -3  -6  141.84    7.14   0
  -6   3   6  168.84    7.48   0
  -6   3   6  154.97    7.32   0
  -6   3   6  154.07    7.19   0
   5  -3  -6  178.19    7.94   0
   5  -3  -6  174.08    7.64   0
   5  -3  -6  181.27    7.67   0
  -5   3   6  176.60    7.90   0
  -5   3   6  155.58    7.73   0
  -5   3   6  182.36    7.96   0
   4  -3  -6  192.05    8.16   0
   4  -3  -6  203.34    8.62   0
   4  -3  -6  197.04    8.17   0
  -4   3   6  196.49    8.52   0
  -4   3   6  191.05    8.72   0
  -4   3   6  195.15    8.49   0
   3  -3  -6   80.91    4.04   0
  -3   3   6   76.86    3.84   0
  -3   3   6   80.44    4.28   0
  -3   3   6   77.83    3.82   0
   2  -3  -6  535.77   21.74   0
  -2   3   6  542.85   22.15   0
  -2   3   6  539.70   21.52   0
  -2   3   6  549.31   21.90   0
  -2   3   6  533.51   21.50   0
  -1   3   6   62.50    3.57   0
  -1   3   6   66.18    3.80   0
  -1   3   6   64.31    2.94   0
  -1   3   6   65.98    2.98   0
   0   3   6  327.29   12.59   0
   0   3   6  308.20   13.58   0
   0   3   6  314.01   13.42   0
   0   3   6  323.87   12.58   0
   1   3   6  237.88   10.54   0
   1   3   6  242.60   10.66   0
   2   3   6  179.75    8.55   0
   2   3   6  186.49    8.50   0
   3   3   6   21.75    1.51   0
   3   3   6   22.31    2.73   0
   3   3   6   22.73    1.53   0
   3   3   6   19.13    2.56   0
   8  -4  -6    1.34    1.44   0
   8  -4  -6    1.57    1.32   0
  -8   4   6   -0.16    1.22   0
  -8   4   6    4.26    1.26   0
  -8   4   6    0.06    1.31   0
   7  -4  -6   84.69    5.10   0
   7  -4  -6   86.73    4.86   0
   7  -4  -6   87.33    4.77   0
  -7   4   6   85.97    4.89   0
  -7   4   6   92.32    4.73   0
  -7   4   6   81.05    5.02   0
   6  -4  -6    1.15    0.77   0
   6  -4  -6    1.09    1.20   0
   6  -4  -6    1.38    0.92   0
  -6   4   6    0.16    0.89   0
  -6   4   6    0.30    0.95   0
  -6   4   6    0.49    0.95   0
   5  -4  -6  124.12    5.88   0
   5  -4  -6  120.64    5.37   0
   5  -4  -6  122.78    5.39   0
  -5   4   6   99.18    5.66   0
  -5   4   6  119.56    5.93   0
  -5   4   6  124.79    5.74   0
   4  -4  -6   19.72    1.22   0
   4  -4  -6   18.28    2.02   0
   4  -4  -6   17.88    1.18   0
  -4   4   6   20.63    1.80   0
  -4   4   6   19.77    1.90   0
  -4   4   6   16.42    2.10   0
   3  -4  -6  262.60   12.09   0
  -3   4   6  296.55   12.00   0
  -3   4   6  297.79   12.61   0
  -3   4   6  301.05   12.08   0
   2  -4  -6   84.01    4.37   0
  -2   4   6   94.62    4.19   0
  -2   4   6   91.73    4.11   0
  -2   4   6   87.23    4.84   0
  -1   4   6  236.72    9.65   0
  -1   4   6  239.47   10.62   0
  -1   4   6  228.00   10.27   0
  -1   4   6  240.86    9.60   0
   0   4   6  103.94    4.36   0
   0   4   6  106.21    5.35   0
   0   4   6  104.64    4.29   0
   0   4   6  100.34    5.50   0
   1   4   6   14.83    2.48   0
   1   4   6   14.86    2.00   0
   2   4   6  250.38   11.27   0
   2   4   6  248.29   11.28   0
   8  -5  -6  144.47    7.71   0
   8  -5  -6  147.90    7.50   0
   8  -5  -6  142.28    7.26   0
  -8   5   6  137.33    7.39   0
  -8   5   6  152.50    7.79   0
  -8   5   6  147.01    7.06   0
   7  -5  -6  322.82   14.33   0
   7  -5  -6  345.86   14.79   0
   7  -5  -6  347.29   14.43   0
  -7   5   6  358.92   14.87   0
  -7   5   6  319.35   14.54   0
  -7   5   6  337.75   14.50   0
   6  -5  -6    5.88    1.16   0
   6  -5  -6    5.26    1.51   0
   6  -5  -6    5.57    1.11   0
  -6   5   6    4.77    1.23   0
  -6   5   6    7.07    1.74   0
  -6   5   6    8.44    1.69   0
   5  -5  -6  456.96   18.59   0
   5  -5  -6  465.74   18.59   0
   5  -5  -6  478.36   19.28   0
  -5   5   6  473.04   19.30   0
  -5   5   6  469.07   19.51   0
  -5   5   6  449.46   19.11   0
   4  -5  -6  458.51   19.08   0
  -4   5   6  466.40   18.95   0
  -4   5   6  455.26   19.46   0
  -4   5   6  476.49   19.10   0
   3  -5  -6  180.18    7.78   0
  -3   5   6  175.74    7.65   0
  -3   5   6  164.34    8.19   0
  -3   5   6  171.01    7.50   0
   2  -5  -6  131.70    5.88   0
  -2   5   6  122.69    5.51   0
  -2   5   6  126.03    5.66   0
  -2   5   6  122.88    6.50   0
  -1   5   6  210.60    9.56   0
  -1   5   6  214.18    8.73   0
  -1   5   6  207.22    9.87   0
  -1   5   6  219.95    8.89   0
   0   5   6  289.16   12.69   0
   0   5   6  285.76   11.61   0
   0   5   6  298.16   11.76   0
   0   5   6  291.76   12.99   0
   1   5   6   12.76    2.26   0
   7  -6  -6  384.64   16.17   0
   7  -6  -6  387.36   16.17   0
   7  -6  -6  397.30   16.71   0
  -7   6   6  389.33   16.57   0
  -7   6   6  389.90   16.80   0
  -7   6   6  373.03   16.48   0
   6  -6  -6   70.47    3.68   0
   6  -6  -6   77.44    4.66   0
   6  -6  -6   70.63    3.68   0
  -6   6   6   73.31    4.72   0
  -6   6   6   72.06    4.29   0
  -6   6   6   67.46    4.64   0
   5  -6  -6   26.44    2.82   0
  -5   6   6   27.39    2.89   0
  -5   6   6   24.71    3.12   0
  -5   6   6   26.27    2.45   0
   4  -6  -6  150.14    7.06   0
  -4   6   6  149.03    6.86   0
  -4   6   6  151.87    7.63   0
   3  -6  -6  465.21   18.85   0
  -3   6   6  456.54   19.56   0
  -3   6   6  446.58   18.62   0
  -3   6   6  471.22   18.88   0
  -2   6   6   34.29    2.28   0
  -2   6   6   37.39    2.58   0
  -2   6   6   38.23    3.69   0
  -1   6   6   22.67    1.99   0
  -1   6   6   20.60    1.65   0
  -1   6   6   15.49    2.48   0
   0   6   6   62.79    4.85   0
  -6   7   6   29.77    3.80   0
  -6   7   6   31.94    3.78   0
  -6   7   6   29.50    3.21   0
   5  -7  -6    8.00    1.82   0
  -5   7   6    7.55    2.31   0
  -5   7   6    5.03    1.73   0
  -5   7   6    4.16    1.39   0
   4  -7  -6   18.93    2.67   0
  -4   7   6   20.90    2.78   0
  -4   7   6   21.04    3.01   0
  -4   7   6   17.07    2.24   0
  -3   7   6  157.15    8.24   0
  -3   7   6  147.61    7.32   0
  -3   7   6  158.77    7.02   0
  -2  10  -7  152.33    8.49   0
   2 -10   7  154.55    7.48   0
   2 -10   7  134.07    7.65   0
  -3  10  -7  297.31   13.49   0
  -3  10  -7  263.93   13.47   0
   3 -10   7  276.65   13.14   0
   3 -10   7  319.87   13.11   0
   1   9  -7  166.13    9.85   0
   1   9  -7  172.20    9.17   0
  -1  -9   7  186.26    8.30   0
  -1  -9   7  161.50    8.18   0
   0   9  -7  305.82   13.40   0
   0   9  -7  305.33   13.68   0
   0  -9   7  271.12   12.95   0
   0  -9   7  302.84   12.94   0
  -1   9  -7   18.51    2.96   0
  -1   9  -7   21.65    2.73   0
   1  -9   7   20.98    2.69   0
   1  -9   7   16.26    2.73   0
  -2   9  -7  298.33   13.45   0
  -2   9  -7  310.97   13.66   0
   2  -9   7  302.10   13.34   0
   2  -9   7  294.03   11.94   0
   2  -9   7  300.44   13.15   0
  -3   9  -7  360.53   16.26   0
  -3   9  -7  391.42   16.49   0
   3  -9   7  369.39   15.11   0
   3  -9   7  358.44   16.26   0
   3  -9   7  397.04   16.15   0
  -4   9  -7  161.19    8.20   0
  -4   9  -7  146.50    7.87   0
   4  -9   7  152.36    8.01   0
   4  -9   7  162.60    7.79   0
   4  -9   7  151.67    6.80   0
  -5   9  -7   16.70    2.53   0
  -5   9  -7   14.71    2.32   0
   5  -9   7   14.33    2.44   0
   5  -9   7   19.36    2.97   0
   2   8  -7   36.98    4.02   0
   2   8  -7   26.71    3.33   0
  -2  -8   7   33.06    3.09   0
  -2  -8   7   28.98    2.91   0
   1   8  -7  617.18   26.47   0
   1   8  -7  640.66   26.76   0
  -1  -8   7  649.26   26.30   0
  -1  -8   7  657.99   26.23   0
   0   8  -7  612.37   24.57   0
   0   8  -7  580.05   24.31   0
   0  -8   7  603.63   24.09   0
   0  -8   7  549.74   24.08   0
  -1   8  -7    7.38    1.40   0
  -1   8  -7   11.49    2.01   0
   1  -8   7   10.45    1.66   0
   1  -8   7    8.99    1.47   0
  -2   8  -7  139.13    7.16   0
  -2   8  -7  151.38    7.42   0
   2  -8   7  150.83    7.05   0
   2  -8   7  145.76    6.16   0
   2  -8   7  137.92    7.16   0
  -3   8  -7  291.57   12.83   0
  -3   8  -7  296.54   12.97   0
   3  -8   7  281.58   12.89   0
   3  -8   7  298.09   12.69   0
   3  -8   7  286.84   11.94   0
  -4   8  -7   29.24    3.28   0
  -4   8  -7   28.22    3.07   0
   4  -8   7   27.40    2.78   0
   4  -8   7   27.34    3.22   0
  -5   8  -7   72.77    4.70   0
  -5   8  -7   79.80    4.90   0
   5  -8   7   83.73    4.78   0
   5  -8   7   71.76    5.06   0
  -6   8  -7  374.22   15.26   0
  -6   8  -7  339.29   15.06   0
   6  -8   7  332.26   15.54   0
   6  -8   7  343.31   15.18   0
   3   7  -7  195.72    9.46   0
   3   7  -7  173.82    8.92   0
  -3  -7   7  169.21    8.51   0
  -3  -7   7  200.96    8.69   0
   2   7  -7    8.22    1.94   0
   2   7  -7    6.62    1.52   0
  -2  -7   7    8.25    1.62   0
  -2  -7   7    6.51    1.50   0
   1   7  -7  488.60   20.72   0
   1   7  -7  507.90   20.93   0
  -1  -7   7  476.50   20.54   0
  -1  -7   7  516.03   20.57   0
   0   7  -7  587.58   23.91   0
   0   7  -7  537.73   23.66   0
   0  -7   7  580.11   23.69   0
   0  -7   7  601.90   23.63   0
  -1   7  -7   85.61    4.86   0
  -1   7  -7   83.18    4.70   0
   1  -7   7   95.17    4.73   0
   1  -7   7   84.21    4.68   0
   1  -7   7   81.89    3.82   0
  -2   7  -7  113.18    5.98   0
  -2   7  -7  124.87    6.20   0
   2  -7   7  126.76    5.32   0
   2  -7   7  123.23    5.97   0
   2  -7   7  113.10    6.08   0
  -3   7  -7  463.33   19.11   0
  -3   7  -7  439.57   19.01   0
   3  -7   7  460.09   18.46   0
   3  -7   7  460.06   19.22   0
   3  -7   7  463.65   18.96   0
  -4   7  -7   15.85    2.39   0
  -4   7  -7   14.00    2.20   0
   4  -7   7   17.55    2.61   0
   4  -7   7   16.01    2.19   0
  -5   7  -7  218.60   10.10   0
  -5   7  -7  235.89   10.25   0
   5  -7   7  213.45   10.49   0
   5  -7   7  238.85   10.28   0
  -6   7  -7  175.64    8.39   0
  -6   7  -7  191.77    8.51   0
   6  -7   7  183.91    8.69   0
   6  -7   7  170.68    8.98   0
   4   6  -7  349.29   14.32   0
   4   6  -7  370.10   15.98   0
   4   6  -7  356.80   15.68   0
  -4  -6   7  360.90   15.30   0
  -4  -6   7  354.50   15.24   0
   3   6  -7  401.22   17.75   0
   3   6  -7  425.47   18.03   0
  -3  -6   7  428.51   17.57   0
  -3  -6   7  420.46   17.56   0
   2   6  -7   71.95    4.33   0
   2   6  -7   76.28    4.62   0
  -2  -6   7   73.04    4.22   0
  -2  -6   7   83.05    4.34   0
   1   6  -7  411.76   17.86   0
   1   6  -7  418.80   17.97   0
  -1  -6   7  428.01   17.84   0
  -1  -6   7  456.20   17.86   0
   0   6  -7  136.01    6.54   0
   0   6  -7  143.51    6.70   0
   0  -6   7  128.52    6.49   0
   0  -6   7  145.54    6.54   0
   0  -6   7  132.71    5.79   0
  -1   6  -7    0.90    0.85   0
  -1   6  -7    0.56    0.83   0
   1  -6   7    0.27    0.76   0
   1  -6   7   -0.33    0.75   0
   1  -6   7    0.51    0.55   0
  -2   6  -7  197.69    8.48   0
  -2   6  -7  155.28    8.19   0
   2  -6   7  206.31    8.42   0
   2  -6   7  181.90    8.48   0
   2  -6   7  190.40    7.91   0
  -3   6  -7  227.71    9.33   0
  -3   6  -7  193.02    9.13   0
   3  -6   7  211.09    9.20   0
   3  -6   7  200.36    9.37   0
  -4   6  -7    6.85    1.29   0
  -4   6  -7    7.86    1.32   0
   4  -6   7    7.33    1.30   0
   4  -6   7    7.65    1.51   0
  -5   6  -7   -0.03    0.92   0
  -5   6  -7   -0.55    0.84   0
   5  -6   7    1.17    1.18   0
   5  -6   7    0.84    0.96   0
  -6   6  -7  205.38    9.78   0
  -6   6  -7  249.96   10.01   0
   6  -6   7  230.19   10.31   0
   6  -6   7  220.36   10.60   0
   5   5  -7   72.37    5.06   0
   5   5  -7   83.00    4.11   0
   5   5  -7   87.94    5.65   0
  -5  -5   7   74.39    4.69   0
   4   5  -7  730.50   29.61   0
   4   5  -7  780.06   30.76   0
   4   5  -7  706.81   30.51   0
  -4  -5   7  771.59   30.33   0
  -4  -5   7  751.55   30.30   0
   3   5  -7  115.03    5.85   0
   3   5  -7  108.80    4.73   0
   3   5  -7   98.09    5.49   0
  -3  -5   7  105.85    5.38   0
   2   5  -7   44.43    3.07   0
  -2  -5   7   52.25    3.16   0
   1   5  -7  217.52   10.38   0
  -1  -5   7  282.55   10.64   0
  -1  -5   7  224.98   10.38   0
   0   5  -7   64.85    3.74   0
   0   5  -7   67.38    3.68   0
   0  -5   7   70.06    3.72   0
   0  -5   7   68.94    3.26   0
   0  -5   7   69.19    3.76   0
  -1   5  -7    2.13    0.81   0
  -1   5  -7    1.64    0.72   0
   1  -5   7    1.64    0.81   0
   1  -5   7    2.67    0.86   0
   1  -5   7    3.92    0.77   0
  -2   5  -7  538.82   21.83   0
  -2   5  -7  527.52   21.80   0
   2  -5   7  548.86   22.04   0
   2  -5   7  537.48   21.59   0
   2  -5   7  539.73   21.83   0
  -3   5  -7  989.12   36.72   0
  -3   5  -7  932.16   36.63   0
   3  -5   7  810.17   36.59   0
   3  -5   7  956.69   36.98   0
  -4   5  -7  101.70    4.85   0
  -4   5  -7   96.62    4.79   0
   4  -5   7  101.86    5.30   0
   4  -5   7  102.58    5.00   0
  -5   5  -7    7.95    1.19   0
  -5   5  -7    6.09    1.02   0
  -6   5  -7  320.02   12.78   0
  -6   5  -7  309.26   12.74   0
   6  -5   7  317.28   13.45   0
   6  -5   7  296.42   13.72   0
   6   4  -7  202.55   10.07   0
   6   4  -7  205.36    9.13   0
   6   4  -7  205.03    9.93   0
  -6  -4   7  199.84    9.44   0
  -6  -4   7  204.63    9.48   0
   5   4  -7  159.17    8.26   0
   5   4  -7  175.12    7.66   0
   5   4  -7  173.18    8.54   0
  -5  -4   7  181.38    8.16   0
  -5  -4   7  171.13    8.09   0
   4   4  -7  328.28   13.53   0
   4   4  -7  307.15   12.66   0
   4   4  -7  299.10   13.32   0
  -4  -4   7  305.24   13.15   0
  -4  -4   7  296.12   13.10   0
   3   4  -7  135.46    5.87   0
   3   4  -7  119.81    6.37   0
   3   4  -7  143.15    6.61   0
  -3  -4   7  133.44    6.35   0
  -3  -4   7  139.91    6.40   0
   2   4  -7   97.11    4.86   0
   2   4  -7   92.73    4.75   0
  -2  -4   7   93.94    4.73   0
  -2  -4   7   93.21    4.73   0
   1   4  -7  722.46   29.97   0
   1   4  -7  782.01   30.06   0
  -1  -4   7  754.76   30.04   0
  -1  -4   7  808.78   30.07   0
  -1  -4   7  676.88   29.56   0
   0   4  -7  544.88   21.46   0
   0   4  -7  523.33   21.39   0
   0  -4   7  514.61   21.48   0
   0  -4   7  535.33   21.17   0
  -1   4  -7  249.09   10.98   0
  -1   4  -7  263.84   11.05   0
   1  -4   7  269.76   10.94   0
   1  -4   7  258.95   11.19   0
   1  -4   7  277.08   11.14   0
  -2   4  -7   44.78    2.52   0
  -2   4  -7   44.24    2.47   0
   2  -4   7   42.86    2.73   0
   2  -4   7   42.73    2.53   0
   2  -4   7   42.10    2.59   0
  -3   4  -7  669.02   26.75   0
  -3   4  -7  671.23   26.79   0
   3  -4   7  697.70   27.00   0
   3  -4   7  656.85   27.19   0
  -4   4  -7  330.19   13.20   0
  -4   4  -7  326.49   13.24   0
   4  -4   7  314.35   13.81   0
   4  -4   7  333.49   13.59   0
  -5   4  -7  314.71   12.62   0
  -5   4  -7  314.44   12.61   0
   5  -4   7  308.97   13.63   0
   5  -4   7  324.28   13.35   0
   6  -4   7   88.51    4.98   0
   6  -4   7   89.80    5.28   0
   7   3  -7  121.41    7.13   0
   7   3  -7  119.57    6.38   0
  -7  -3   7  110.52    6.37   0
  -7  -3   7  125.07    6.54   0
   6   3  -7  263.66   11.66   0
   6   3  -7  233.22   11.40   0
   6   3  -7  249.83   10.88   0
  -6  -3   7  248.63   11.16   0
  -6  -3   7  251.07   11.15   0
   5   3  -7   74.24    4.56   0
   5   3  -7   70.96    3.90   0
   5   3  -7   68.47    4.29   0
  -5  -3   7   70.27    4.16   0
  -5  -3   7   77.63    4.29   0
   4   3  -7    7.39    1.39   0
   4   3  -7    9.25    1.22   0
   4   3  -7    7.76    1.31   0
  -4  -3   7    6.45    1.20   0
   3   3  -7   51.71    3.22   0
   3   3  -7   54.51    2.89   0
   3   3  -7   59.25    3.38   0
  -3  -3   7   47.29    3.09   0
  -3  -3   7   61.75    3.29   0
   2   3  -7  691.00   27.63   0
   2   3  -7  679.35   27.26   0
   2   3  -7  644.74   27.55   0
  -2  -3   7  741.63   27.65   0
  -2  -3   7  680.23   27.60   0
   1   3  -7  323.24   13.09   0
   1   3  -7  307.63   13.03   0
  -1  -3   7  324.27   13.13   0
  -1  -3   7  305.19   13.11   0
  -1  -3   7  317.42   12.91   0
   0   3  -7  494.76   23.31   0
   0   3  -7  617.95   23.48   0
   0  -3   7  588.63   23.59   0
   0  -3   7  605.77   23.45   0
   0  -3   7  625.16   23.59   0
  -1   3  -7  592.43   23.76   0
  -1   3  -7  608.68   23.80   0
   1  -3   7  568.98   24.01   0
   1  -3   7  620.55   23.98   0
   1  -3   7  600.68   23.95   0
  -2   3  -7  225.08    9.25   0
  -2   3  -7  230.71    9.24   0
   2  -3   7  215.13    9.63   0
   2  -3   7  226.06    9.63   0
   2  -3   7  234.22    9.54   0
  -3   3  -7  319.82   12.65   0
  -3   3  -7  321.56   12.64   0
   3  -3   7  327.02   13.14   0
   3  -3   7  307.41   13.31   0
   4  -3   7  282.22   11.95   0
   4  -3   7  291.82   12.26   0
   5  -3   7   70.30    3.82   0
   5  -3   7   66.81    4.05   0
   6  -3   7   11.89    1.91   0
   6  -3   7   12.88    1.95   0
   6  -3   7   10.01    1.66   0
   7   2  -7   12.70    2.36   0
   7   2  -7    9.19    2.06   0
   7   2  -7   11.32    2.11   0
  -7  -2   7    9.80    1.72   0
  -7  -2   7    8.79    1.70   0
   6   2  -7  223.77    9.78   0
   6   2  -7  226.01   10.28   0
   6   2  -7  211.22   10.18   0
  -6  -2   7  233.99    9.99   0
  -6  -2   7  204.41    9.89   0
   5   2  -7  187.63    8.65   0
   5   2  -7  191.06    8.28   0
   5   2  -7  179.98    8.61   0
  -5  -2   7  186.33    8.43   0
  -5  -2   7  184.30    8.45   0
   4   2  -7  339.79   14.48   0
   4   2  -7  364.23   14.85   0
  -4  -2   7  335.53   14.68   0
  -4  -2   7  367.35   14.74   0
   3   2  -7  628.48   26.77   0
   3   2  -7  681.77   26.60   0
   3   2  -7  687.11   26.85   0
  -3  -2   7  693.48   26.80   0
  -3  -2   7  641.87   26.78   0
   2   2  -7    2.09    0.73   0
  -2  -2   7    3.28    0.81   0
  -2  -2   7    1.32    0.64   0
   1   2  -7  672.75   27.57   0
   1   2  -7  707.30   27.60   0
   1   2  -7  706.02   27.63   0
  -1  -2   7  688.04   27.75   0
  -1  -2   7  693.85   27.70   0
  -1  -2   7  704.46   27.69   0
   0   2  -7  256.62   10.16   0
   0   2  -7  247.68   10.17   0
   0  -2   7  241.16   10.41   0
   0  -2   7  250.28   10.37   0
   0  -2   7  251.28   10.46   0
  -1   2  -7  769.45   30.19   0
  -1   2  -7  777.29   30.21   0
   1  -2   7  753.94   30.66   0
   1  -2   7  788.73   30.78   0
   2  -2   7    2.90    0.92   0
   2  -2   7    3.56    0.69   0
   2  -2   7    1.59    0.64   0
   3  -2   7  281.13   11.67   0
   3  -2   7  270.68   11.43   0
   3  -2   7  267.12   11.22   0
   4  -2   7    4.67    1.02   0
   4  -2   7    3.60    0.84   0
   5  -2   7  261.84   11.41   0
   5  -2   7  270.40   11.68   0
   5  -2   7  275.80   11.41   0
   6  -2   7    3.65    1.23   0
   6  -2   7    2.31    1.34   0
   8   1  -7   -2.07    1.64   0
  -8  -1   7   -2.64    1.53   0
  -8  -1   7   -0.87    1.50   0
   7   1  -7   45.05    3.84   0
   7   1  -7   38.36    3.69   0
   7   1  -7   44.98    3.87   0
  -7  -1   7   45.41    3.50   0
  -7  -1   7   45.62    3.64   0
   6   1  -7  513.21   21.96   0
   6   1  -7  541.48   21.73   0
   6   1  -7  510.13   21.99   0
  -6  -1   7  518.52   21.82   0
  -6  -1   7  559.06   21.85   0
   5   1  -7  168.93    7.53   0
   5   1  -7  156.41    7.66   0
   5   1  -7  158.19    7.66   0
  -5  -1   7  168.31    7.62   0
  -5  -1   7  174.05    7.64   0
   4   1  -7  533.21   21.61   0
   4   1  -7  508.80   21.72   0
   4   1  -7  531.45   21.75   0
  -4  -1   7  541.28   21.72   0
  -4  -1   7  555.66   21.79   0
   3   1  -7   34.22    2.14   0
   3   1  -7   33.84    2.20   0
   3   1  -7   28.35    2.12   0
  -3  -1   7   34.00    2.19   0
  -3  -1   7   29.89    2.16   0
   2   1  -7 1435.69   55.49   0
   2   1  -7 1409.13   55.42   0
   2   1  -7 1354.62   55.38   0
  -2  -1   7 1458.93   55.52   0
  -2  -1   7 1430.57   55.54   0
  -2  -1   7 1389.28   55.55   0
   1   1  -7    6.00    0.77   0
   1   1  -7    3.77    0.77   0
   1   1  -7    6.12    0.84   0
  -1  -1   7    5.64    0.93   0
  -1  -1   7    6.25    1.01   0
  -1  -1   7    6.70    1.05   0
   0  -1   7  307.24   12.44   0
   0  -1   7  306.30   12.71   0
   0  -1   7  303.99   12.50   0
   1  -1   7  537.48   21.09   0
   1  -1   7  519.34   21.15   0
   1  -1   7  532.34   21.45   0
   2  -1   7  521.44   20.79   0
   2  -1   7  530.64   21.30   0
   2  -1   7  516.62   20.92   0
   3  -1   7  103.65    4.74   0
   3  -1   7   96.02    5.12   0
   3  -1   7  103.00    4.54   0
   4  -1   7  199.31    8.41   0
   4  -1   7  194.06    8.62   0
   4  -1   7  205.32    9.14   0
   4  -1   7  197.51    8.76   0
   5  -1   7  433.85   17.42   0
   5  -1   7  418.72   17.64   0
   5  -1   7  426.54   17.53   0
   8   0  -7    1.25    1.59   0
   8   0  -7   -1.64    1.68   0
  -8   0   7    2.38    1.39   0
  -8   0   7    4.21    1.22   0
  -8   0   7    3.00    1.54   0
   7   0  -7    4.56    1.47   0
   7   0  -7    5.80    1.73   0
   7   0  -7    2.18    1.30   0
  -7   0   7    2.97    1.26   0
  -7   0   7    3.83    1.39   0
   6   0  -7   60.50    3.91   0
   6   0  -7   63.67    3.83   0
   6   0  -7   60.97    3.90   0
  -6   0   7   59.39    3.74   0
  -6   0   7   63.49    3.85   0
   5   0  -7  269.13   11.35   0
   5   0  -7  262.59   11.42   0
   5   0  -7  270.72   11.43   0
  -5   0   7  257.18   11.39   0
  -5   0   7  260.01   11.35   0
   4   0  -7   32.51    2.31   0
   4   0  -7   31.50    2.23   0
   4   0  -7   33.15    2.41   0
  -4   0   7   31.98    2.32   0
  -4   0   7   35.56    2.33   0
   3   0  -7  566.24   22.98   0
   3   0  -7  588.80   23.15   0
   3   0  -7  564.93   22.98   0
  -3   0   7  569.16   23.14   0
  -3   0   7  585.27   23.11   0
   2   0  -7 1950.89   76.17   0
   2   0  -7 1988.27   75.86   0
   2   0  -7 1905.15   75.84   0
  -2   0   7 1923.28   76.24   0
  -2   0   7 1938.69   76.14   0
  -2   0   7 1968.30   76.09   0
   1   0  -7   90.47    4.26   0
  -1   0   7   86.32    4.37   0
  -1   0   7   93.44    4.08   0
  -1   0   7   87.33    4.11   0
   0   0   7  148.05    6.19   0
   0   0   7  147.76    6.67   0
   0   0   7  145.22    6.25   0
   1   0   7  584.97   22.87   0
   1   0   7  584.37   22.79   0
   1   0   7  560.36   23.35   0
   2   0   7  604.28   23.73   0
   2   0   7  588.23   23.82   0
   2   0   7  611.45   24.47   0
   3   0   7   14.65    2.02   0
   3   0   7   18.19    1.28   0
   3   0   7   16.31    2.31   0
   3   0   7   14.48    1.45   0
   4   0   7  470.90   18.45   0
   4   0   7  458.33   19.12   0
   4   0   7  478.51   18.27   0
   4   0   7  409.22   18.64   0
   5   0   7  248.11   11.47   0
   5   0   7  281.09   11.38   0
   5   0   7  276.02   11.56   0
   8  -1  -7    2.51    1.79   0
   8  -1  -7    1.90    1.68   0
  -8   1   7    4.12    1.76   0
  -8   1   7    5.55    1.23   0
  -8   1   7    2.28    1.43   0
   7  -1  -7   92.10    5.33   0
   7  -1  -7   81.26    5.13   0
   7  -1  -7   92.70    5.32   0
  -7   1   7   83.28    5.00   0
  -7   1   7   96.68    5.21   0
  -7   1   7  100.67    4.76   0
   6  -1  -7  897.27   37.48   0
   6  -1  -7  955.96   37.52   0
   6  -1  -7  939.42   37.48   0
  -6   1   7  986.20   37.54   0
  -6   1   7  892.39   37.44   0
   5  -1  -7  668.50   26.51   0
   5  -1  -7  648.36   26.50   0
   5  -1  -7  686.60   26.62   0
  -5   1   7  620.79   26.55   0
  -5   1   7  660.42   26.58   0
   4  -1  -7   37.81    2.37   0
   4  -1  -7   39.92    2.62   0
   4  -1  -7   38.50    2.33   0
  -4   1   7   37.77    2.52   0
  -4   1   7   37.36    2.50   0
   3  -1  -7 1079.87   43.87   0
   3  -1  -7 1145.88   44.27   0
   3  -1  -7 1126.24   43.90   0
  -3   1   7 1170.06   44.19   0
  -3   1   7 1072.13   44.15   0
   2  -1  -7 1740.18   68.02   0
  -2   1   7 1697.55   67.88   0
  -2   1   7 1737.03   67.84   0
  -2   1   7 1762.35   68.14   0
   1  -1  -7   28.04    2.03   0
  -1   1   7   28.98    2.18   0
  -1   1   7   28.47    1.66   0
  -1   1   7   25.98    1.68   0
   0   1   7  172.75    6.82   0
   0   1   7  157.56    6.85   0
   1   1   7 1652.07   58.91   0
   1   1   7 1502.80   58.05   0
   1   1   7 1276.28   58.68   0
   1   1   7 1522.81   57.99   0
   2   1   7  262.22   11.54   0
   2   1   7  267.66   10.64   0
   2   1   7  274.11   11.67   0
   2   1   7  262.13   10.74   0
   3   1   7  373.02   14.99   0
   3   1   7  369.71   14.85   0
   3   1   7  368.46   15.93   0
   3   1   7  380.30   15.74   0
   4   1   7    9.55    1.28   0
   4   1   7    8.41    2.06   0
   4   1   7    9.69    1.71   0
   4   1   7    8.29    1.08   0
   8  -2  -7  104.13    6.12   0
   8  -2  -7  111.16    6.42   0
   8  -2  -7  112.88    6.25   0
  -8   2   7  107.31    5.26   0
  -8   2   7   99.18    5.84   0
  -8   2   7  101.56    5.98   0
   7  -2  -7   30.50    2.84   0
   7  -2  -7   28.17    3.12   0
   7  -2  -7   29.41    2.99   0
  -7   2   7   28.73    2.92   0
  -7   2   7   25.35    2.74   0
  -7   2   7   27.78    2.46   0
   6  -2  -7 1440.74   60.03   0
   6  -2  -7 1565.40   60.21   0
   6  -2  -7 1514.29   60.06   0
  -6   2   7 1533.67   60.17   0
  -6   2   7 1506.94   60.16   0
  -6   2   7 1556.81   60.08   0
   5  -2  -7 1159.99   45.67   0
   5  -2  -7 1095.57   45.40   0
   5  -2  -7 1176.73   45.45   0
  -5   2   7 1155.31   45.64   0
  -5   2   7 1146.02   45.60   0
  -5   2   7 1155.81   45.70   0
   4  -2  -7    6.65    1.14   0
   4  -2  -7    5.52    1.18   0
   4  -2  -7    6.89    1.04   0
  -4   2   7    6.87    1.25   0
  -4   2   7    6.70    1.16   0
  -4   2   7    7.06    1.16   0
   3  -2  -7  179.85    6.62   0
   3  -2  -7  182.48    6.62   0
   3  -2  -7  146.84    7.27   0
  -3   2   7  154.52    7.17   0
  -3   2   7  153.30    7.13   0
   2  -2  -7 1158.92   43.84   0
  -2   2   7 1128.06   44.21   0
  -2   2   7 1087.97   43.56   0
  -2   2   7 1058.59   43.57   0
  -1   2   7   89.24    4.05   0
  -1   2   7   91.78    4.67   0
  -1   2   7   91.01    4.84   0
  -1   2   7   91.82    4.03   0
   0   2   7  144.43    6.15   0
   0   2   7  146.91    7.10   0
   0   2   7  150.64    6.11   0
   0   2   7  153.32    7.02   0
   1   2   7   16.53    2.37   0
   1   2   7   19.04    2.28   0
   2   2   7  242.02   10.57   0
   2   2   7  228.95   10.63   0
   3   2   7  106.23    6.29   0
   3   2   7  108.49    4.71   0
   3   2   7  112.80    4.79   0
   3   2   7  113.52    5.88   0
   8  -3  -7   67.77    4.77   0
   8  -3  -7   65.43    4.60   0
   8  -3  -7   69.08    5.03   0
  -8   3   7   68.06    4.64   0
  -8   3   7   75.80    4.15   0
  -8   3   7   67.40    4.70   0
   7  -3  -7   30.56    3.02   0
   7  -3  -7   33.05    2.82   0
   7  -3  -7   33.97    3.51   0
  -7   3   7   34.16    3.20   0
  -7   3   7   32.65    3.02   0
  -7   3   7   33.96    2.79   0
   6  -3  -7  181.39    8.25   0
   6  -3  -7  184.63    8.62   0
   6  -3  -7  186.99    8.30   0
  -6   3   7  178.25    8.46   0
  -6   3   7  195.03    8.60   0
  -6   3   7  180.57    8.47   0
   5  -3  -7  250.02   10.63   0
   5  -3  -7  263.97   10.69   0
   5  -3  -7  254.87   11.09   0
  -5   3   7  234.03   11.10   0
  -5   3   7  258.74   11.04   0
  -5   3   7  260.54   11.02   0
   4  -3  -7   55.58    2.71   0
   4  -3  -7   57.20    2.75   0
   4  -3  -7   60.83    3.52   0
  -4   3   7   59.20    3.36   0
  -4   3   7   64.27    3.78   0
  -4   3   7   57.54    3.29   0
   3  -3  -7    8.87    1.28   0
  -3   3   7   11.84    1.73   0
  -3   3   7   10.45    1.44   0
  -3   3   7   10.10    1.39   0
   2  -3  -7  205.12    8.81   0
  -2   3   7  209.63    8.52   0
  -2   3   7  197.91    9.24   0
  -2   3   7  192.07    8.97   0
  -2   3   7  205.14    8.52   0
  -1   3   7  181.80    7.21   0
  -1   3   7  157.63    8.05   0
  -1   3   7  177.43    7.97   0
  -1   3   7  172.84    7.19   0
   0   3   7   10.14    0.87   0
   0   3   7    7.73    1.72   0
   0   3   7    9.27    1.59   0
   0   3   7    8.49    0.86   0
   1   3   7  243.68   10.87   0
   1   3   7  240.26   10.92   0
   2   3   7  129.78    6.85   0
   2   3   7  138.80    7.11   0
   8  -4  -7  139.97    7.35   0
   8  -4  -7  137.70    7.81   0
   8  -4  -7  153.57    7.59   0
  -8   4   7  148.77    7.13   0
  -8   4   7  150.35    7.68   0
  -8   4   7  137.07    7.51   0
   7  -4  -7    6.55    1.36   0
   7  -4  -7    6.51    1.55   0
   7  -4  -7    5.31    2.06   0
  -7   4   7    5.88    1.58   0
  -7   4   7    8.42    1.64   0
  -7   4   7    4.87    1.44   0
   6  -4  -7  402.34   16.70   0
   6  -4  -7  394.62   16.20   0
   6  -4  -7  372.17   16.15   0
  -6   4   7  418.01   16.73   0
  -6   4   7  376.45   16.63   0
  -6   4   7  392.91   16.56   0
   5  -4  -7  418.86   17.46   0
   5  -4  -7  438.27   18.17   0
   5  -4  -7  429.44   17.48   0
  -5   4   7  430.70   18.04   0
  -5   4   7  441.57   18.41   0
  -5   4   7  456.57   18.17   0
   4  -4  -7   14.36    1.74   0
  -4   4   7   11.37    1.82   0
  -4   4   7   14.39    1.77   0
  -4   4   7   15.89    1.91   0
   3  -4  -7  304.61   12.82   0
  -3   4   7  302.08   12.57   0
  -3   4   7  297.36   13.28   0
  -3   4   7  306.46   12.62   0
   2  -4  -7  739.29   29.91   0
  -2   4   7  737.48   29.63   0
  -2   4   7  739.84   30.51   0
  -2   4   7  771.87   29.62   0
  -1   4   7   71.34    3.25   0
  -1   4   7   70.14    4.49   0
  -1   4   7   66.49    4.21   0
  -1   4   7   70.54    3.31   0
   0   4   7   14.68    2.23   0
   0   4   7   10.70    1.08   0
   0   4   7   13.19    1.94   0
   1   4   7  197.73    9.73   0
   1   4   7  214.05    9.79   0
   7  -5  -7    0.44    1.18   0
   7  -5  -7    2.35    1.18   0
   7  -5  -7    1.44    1.72   0
  -7   5   7   -1.56    1.50   0
  -7   5   7   -0.71    1.30   0
  -7   5   7    0.88    1.62   0
   6  -5  -7  105.22    5.01   0
   6  -5  -7  104.97    5.01   0
   6  -5  -7  105.93    5.84   0
  -6   5   7  108.56    6.01   0
  -6   5   7  104.73    5.66   0
  -6   5   7  109.42    5.88   0
   5  -5  -7  391.99   16.44   0
  -5   5   7  358.14   16.66   0
  -5   5   7  414.62   16.49   0
  -5   5   7  390.10   16.30   0
   4  -5  -7  169.35    7.68   0
  -4   5   7  152.04    8.03   0
  -4   5   7  165.65    7.55   0
  -4   5   7  166.83    7.45   0
   3  -5  -7   23.96    2.38   0
  -3   5   7   20.14    1.93   0
  -3   5   7   17.22    2.91   0
  -3   5   7   21.00    2.13   0
  -2   5   7  204.33    8.78   0
  -2   5   7  205.79    9.91   0
  -2   5   7  216.02    8.93   0
  -1   5   7  251.19   11.42   0
  -1   5   7  291.14   12.46   0
  -1   5   7  295.16   12.81   0
  -1   5   7  286.59   11.36   0
   0   5   7    0.07    0.49   0
   0   5   7   -0.85    1.72   0
   0   5   7   -0.06    0.63   0
   0   5   7   -2.97    1.75   0
   7  -6  -7  126.76    6.00   0
   7  -6  -7  128.14    6.03   0
  -7   6   7  120.77    6.66   0
  -7   6   7  127.36    7.10   0
  -7   6   7  120.64    6.97   0
   6  -6  -7   57.26    4.32   0
  -6   6   7   56.52    3.99   0
  -6   6   7   62.05    4.42   0
  -6   6   7   53.74    4.56   0
   5  -6  -7  218.75    9.89   0
  -5   6   7  221.93    9.96   0
  -5   6   7  210.62    9.65   0
  -5   6   7  213.63   10.38   0
   4  -6  -7   74.11    4.40   0
  -4   6   7   72.49    4.99   0
  -4   6   7   71.90    4.01   0
  -4   6   7   67.46    4.32   0
   3  -6  -7    1.16    1.31   0
  -3   6   7   -0.59    0.94   0
  -3   6   7   -1.45    1.08   0
  -3   6   7   -1.12    1.78   0
  -2   6   7    1.78    1.05   0
  -2   6   7    1.98    2.12   0
  -2   6   7    0.51    0.84   0
   0   9  -8    2.60    2.10   0
   0   9  -8    2.99    1.60   0
   0  -9   8    3.69    1.51   0
   0  -9   8    5.77    1.71   0
  -1   9  -8  213.71   10.33   0
  -1   9  -8  199.16   10.00   0
   1  -9   8  203.48    9.89   0
   1  -9   8  217.83    9.81   0
  -2   9  -8  406.84   18.63   0
  -2   9  -8  447.30   18.92   0
   2  -9   8  424.91   17.36   0
   2  -9   8  473.46   18.59   0
   2  -9   8  427.07   18.65   0
  -3   9  -8  186.92    9.04   0
  -3   9  -8  168.60    8.72   0
   3  -9   8  184.98    8.57   0
   3  -9   8  166.77    8.82   0
   3  -9   8  173.17    7.58   0
  -4   9  -8   33.93    3.78   0
  -4   9  -8   38.22    4.06   0
   4  -9   8   36.00    2.65   0
   4  -9   8   32.26    4.04   0
   4  -9   8   31.87    3.47   0
   2   8  -8  130.44    7.58   0
   2   8  -8  130.54    7.23   0
  -2  -8   8  130.17    6.90   0
  -2  -8   8  144.63    6.97   0
   1   8  -8  340.27   15.10   0
   1   8  -8  345.18   15.39   0
  -1  -8   8  323.78   14.87   0
  -1  -8   8  365.04   14.91   0
   0   8  -8    2.93    1.36   0
   0   8  -8    7.58    1.65   0
   0  -8   8    4.25    1.31   0
   0  -8   8    1.30    1.21   0
  -1   8  -8  139.02    6.84   0
  -1   8  -8  112.53    6.36   0
   1  -8   8  115.97    6.35   0
   1  -8   8  129.32    6.35   0
   1  -8   8  114.19    5.21   0
  -2   8  -8  545.83   21.63   0
  -2   8  -8  490.79   21.39   0
   2  -8   8  481.01   21.42   0
   2  -8   8  539.83   21.38   0
   2  -8   8  503.28   20.50   0
  -3   8  -8  407.59   17.49   0
  -3   8  -8  412.25   17.59   0
   3  -8   8  416.11   17.40   0
   3  -8   8  410.55   17.68   0
   3  -8   8  406.85   16.73   0
  -4   8  -8    7.60    1.60   0
  -4   8  -8    9.56    1.82   0
   4  -8   8    8.55    1.62   0
   4  -8   8    7.91    1.35   0
   4  -8   8    9.68    2.01   0
  -5   8  -8  102.49    5.80   0
  -5   8  -8   93.32    5.56   0
   5  -8   8   97.94    6.24   0
   5  -8   8   93.40    5.61   0
   3   7  -8    0.61    1.61   0
   3   7  -8    2.46    1.63   0
  -3  -7   8    3.32    1.48   0
  -3  -7   8    1.71    1.21   0
   2   7  -8  113.67    6.30   0
   2   7  -8  103.77    5.96   0
  -2  -7   8  110.36    5.86   0
  -2  -7   8  108.22    5.79   0
   1   7  -8  941.57   37.62   0
   1   7  -8  946.09   37.75   0
  -1  -7   8  904.93   37.44   0
  -1  -7   8  926.67   37.41   0
   0   7  -8  240.91   11.13   0
   0   7  -8  259.77   11.35   0
   0  -7   8  258.14   11.09   0
   0  -7   8  239.42   11.09   0
  -1   7  -8   84.57    4.90   0
  -1   7  -8   82.61    4.72   0
   1  -7   8   75.98    4.64   0
   1  -7   8   78.37    3.87   0
   1  -7   8   92.03    4.76   0
  -2   7  -8  379.41   16.30   0
  -2   7  -8  392.75   16.39   0
   2  -7   8  366.35   15.64   0
   2  -7   8  405.99   16.30   0
   2  -7   8  380.79   16.43   0
  -3   7  -8  216.78   10.11   0
  -3   7  -8  229.99   10.28   0
   3  -7   8  216.54   10.40   0
   3  -7   8  246.32   10.26   0
  -4   7  -8   17.83    2.35   0
  -4   7  -8   17.80    2.54   0
   4  -7   8   18.44    2.44   0
   4  -7   8   16.06    2.43   0
  -5   7  -8   23.87    2.81   0
  -5   7  -8   22.88    2.67   0
   5  -7   8   25.72    2.94   0
   5  -7   8   25.77    3.45   0
   4   6  -8  142.30    7.62   0
   4   6  -8  128.34    7.24   0
   4   6  -8  126.95    5.73   0
  -4  -6   8  134.08    6.76   0
  -4  -6   8  128.58    6.77   0
   3   6  -8   -2.30    1.32   0
   3   6  -8    0.88    1.33   0
  -3  -6   8   -0.50    1.10   0
  -3  -6   8   -0.06    1.04   0
   2   6  -8  408.04   18.43   0
   2   6  -8  456.49   18.68   0
  -2  -6   8  449.51   18.39   0
  -2  -6   8  440.68   18.41   0
   1   6  -8  984.05   38.72   0
   1   6  -8  925.66   38.56   0
  -1  -6   8  941.95   38.54   0
  -1  -6   8  990.81   38.55   0
   0   6  -8    1.78    1.00   0
   0   6  -8    1.57    0.88   0
   0  -6   8    4.53    1.24   0
   0  -6   8    3.00    1.17   0
  -1   6  -8    3.73    1.08   0
  -1   6  -8    5.13    1.30   0
   1  -6   8    5.61    0.96   0
   1  -6   8    4.52    1.16   0
   1  -6   8    3.60    1.08   0
  -2   6  -8  123.13    6.18   0
  -2   6  -8  139.02    6.31   0
   2  -6   8  127.65    6.43   0
   2  -6   8  130.65    6.25   0
   2  -6   8  125.87    5.85   0
  -3   6  -8  154.06    8.07   0
  -3   6  -8  154.04    8.02   0
   3  -6   8  211.21    8.41   0
   3  -6   8  192.60    8.61   0
   3  -6   8  196.29    8.06   0
  -4   6  -8  124.46    5.78   0
  -4   6  -8  118.59    5.70   0
   4  -6   8  111.48    6.12   0
   4  -6   8  114.44    5.84   0
  -5   6  -8  204.69    8.93   0
  -5   6  -8  202.46    8.95   0
   5  -6   8  193.36    9.62   0
   5  -6   8  212.40    9.37   0
  -6   6  -8  245.92   10.32   0
  -6   6  -8  244.38   10.35   0
   6  -6   8  241.49   11.02   0
   6  -6   8  234.55   11.39   0
   5   5  -8  512.14   20.56   0
   5   5  -8  478.26   21.54   0
   5   5  -8  538.62   21.89   0
  -5  -5   8  483.89   21.19   0
  -5  -5   8  526.52   21.29   0
   4   5  -8  595.37   24.56   0
   4   5  -8  589.96   23.44   0
   4   5  -8  563.08   24.38   0
  -4  -5   8  547.63   24.06   0
  -4  -5   8  634.27   24.27   0
   3   5  -8   47.71    3.70   0
   3   5  -8   44.40    2.60   0
   3   5  -8   49.38    3.54   0
  -3  -5   8   47.69    3.34   0
  -3  -5   8   49.03    3.43   0
   2   5  -8  270.09   11.56   0
   2   5  -8  247.75   11.37   0
  -2  -5   8  262.93   11.40   0
   1   5  -8  763.53   31.69   0
   1   5  -8  816.93   31.81   0
  -1  -5   8  781.34   31.72   0
   0   5  -8  158.24    7.06   0
   0   5  -8  135.63    6.84   0
   0  -5   8  157.87    7.03   0
   0  -5   8  150.11    7.06   0
   0  -5   8  151.00    6.58   0
  -1   5  -8   63.77    3.64   0
  -1   5  -8   73.41    3.82   0
   1  -5   8   69.27    3.93   0
   1  -5   8   67.04    3.51   0
   1  -5   8   66.44    3.77   0
  -2   5  -8  367.97   15.81   0
  -2   5  -8  395.44   15.90   0
   2  -5   8  392.72   15.98   0
   2  -5   8  380.81   15.79   0
   2  -5   8  385.78   16.18   0
  -3   5  -8  380.97   15.26   0
  -3   5  -8  360.95   15.17   0
   3  -5   8  363.48   15.33   0
   3  -5   8  383.65   15.44   0
   3  -5   8  359.87   15.63   0
  -4   5  -8   56.90    3.17   0
  -4   5  -8   59.90    3.14   0
   4  -5   8   56.87    3.82   0
   4  -5   8   59.67    3.58   0
  -5   5  -8  143.35    6.04   0
  -5   5  -8  138.61    6.06   0
   5  -5   8  139.18    6.75   0
   5  -5   8  132.80    7.03   0
   6  -5   8  282.08   13.09   0
   6  -5   8  295.17   12.75   0
   6   4  -8    1.73    1.58   0
   6   4  -8    1.34    1.52   0
   6   4  -8    0.16    1.79   0
  -6  -4   8    0.42    1.38   0
  -6  -4   8   -0.72    1.52   0
   5   4  -8  481.40   19.26   0
   5   4  -8  497.22   20.23   0
   5   4  -8  440.12   19.92   0
  -5  -4   8  475.74   19.76   0
  -5  -4   8  460.67   19.73   0
   4   4  -8  704.97   28.91   0
   4   4  -8  707.13   28.17   0
   4   4  -8  690.75   28.85   0
  -4  -4   8  705.65   28.69   0
  -4  -4   8  718.32   28.71   0
   3   4  -8  194.26    8.96   0
   3   4  -8  197.49    8.30   0
   3   4  -8  195.86    8.92   0
  -3  -4   8  194.58    8.80   0
  -3  -4   8  188.45    8.77   0
   2   4  -8   27.31    2.31   0
   2   4  -8   30.62    1.92   0
   2   4  -8   21.62    2.33   0
  -2  -4   8   28.68    2.45   0
  -2  -4   8   30.16    2.42   0
   1   4  -8  333.95   13.80   0
   1   4  -8  305.34   13.67   0
  -1  -4   8  331.08   13.80   0
  -1  -4   8  333.54   13.48   0
  -1  -4   8  335.37   13.85   0
   0   4  -8  612.68   23.36   0
   0   4  -8  532.38   23.21   0
   0  -4   8  584.54   23.16   0
   0  -4   8  579.38   23.45   0
  -1   4  -8    4.81    0.86   0
   1  -4   8    3.97    0.95   0
   1  -4   8    3.71    1.02   0
   1  -4   8    3.50    0.96   0
  -2   4  -8  479.50   18.89   0
  -2   4  -8  460.12   18.90   0
   2  -4   8  474.95   19.15   0
   2  -4   8  465.47   19.33   0
   2  -4   8  467.08   19.13   0
  -3   4  -8  427.38   16.99   0
  -3   4  -8  429.63   17.02   0
   3  -4   8  434.31   17.42   0
   3  -4   8  422.65   17.65   0
   3  -4   8  406.74   17.48   0
  -4   4  -8   55.84    2.47   0
  -4   4  -8   56.81    2.50   0
   4  -4   8   52.12    3.27   0
   4  -4   8   49.86    3.53   0
   5  -4   8   21.64    2.43   0
   5  -4   8   24.56    2.78   0
   6   3  -8   38.06    3.28   0
   6   3  -8   38.71    3.92   0
   6   3  -8   33.31    3.58   0
  -6  -3   8   37.92    3.44   0
  -6  -3   8   36.53    3.43   0
   5   3  -8  113.99    5.94   0
   5   3  -8  107.04    6.00   0
   5   3  -8  102.00    5.31   0
  -5  -3   8   99.43    5.60   0
  -5  -3   8  114.61    5.75   0
   4   3  -8  313.80   13.23   0
   4   3  -8  285.46   13.07   0
   4   3  -8  305.39   12.68   0
  -4  -3   8  321.89   13.07   0
  -4  -3   8  288.99   12.98   0
   3   3  -8  550.44   22.60   0
   3   3  -8  466.08   22.45   0
   3   3  -8  575.37   22.25   0
  -3  -3   8  609.74   22.65   0
  -3  -3   8  562.40   22.61   0
   2   3  -8    1.30    0.80   0
   2   3  -8    1.07    0.66   0
   2   3  -8    2.31    0.84   0
  -2  -3   8    0.60    0.72   0
  -2  -3   8    1.10    0.71   0
   1   3  -8 1123.78   43.72   0
   1   3  -8 1081.24   43.66   0
  -1  -3   8 1103.88   43.79   0
  -1  -3   8 1127.67   43.65   0
  -1  -3   8 1088.51   43.83   0
   0   3  -8    8.49    1.14   0
   0   3  -8    9.84    1.26   0
   0  -3   8   11.83    1.50   0
   0  -3   8    9.38    1.25   0
   0  -3   8    8.85    1.39   0
  -1   3  -8  192.78    8.04   0
  -1   3  -8  197.16    8.02   0
   1  -3   8  190.89    8.41   0
   1  -3   8  195.20    8.34   0
   1  -3   8  187.11    8.43   0
  -2   3  -8  124.09    5.13   0
  -2   3  -8  122.37    5.10   0
   2  -3   8  119.19    5.84   0
   2  -3   8  123.63    5.83   0
   2  -3   8  127.52    5.68   0
   3  -3   8  456.46   18.86   0
   3  -3   8  455.93   18.54   0
   3  -3   8  457.58   18.80   0
   4  -3   8    8.17    1.25   0
   4  -3   8    9.27    1.78   0
   4  -3   8    9.03    1.48   0
   5  -3   8   36.25    3.19   0
   5  -3   8   38.02    2.86   0
   7   2  -8  169.25    8.76   0
   7   2  -8  162.67    8.27   0
   7   2  -8  161.08    8.70   0
  -7  -2   8  174.90    8.39   0
  -7  -2   8  168.92    8.33   0
   6   2  -8   55.06    4.02   0
   6   2  -8   53.49    3.72   0
   6   2  -8   55.11    4.17   0
  -6  -2   8   54.34    3.84   0
  -6  -2   8   50.49    3.78   0
   5   2  -8  101.44    5.44   0
   5   2  -8  105.27    5.19   0
   5   2  -8   95.09    5.44   0
  -5  -2   8   99.34    5.33   0
  -5  -2   8  104.56    5.34   0
   4   2  -8  667.12   28.27   0
   4   2  -8  677.50   28.00   0
   4   2  -8  700.48   28.31   0
  -4  -2   8  744.80   28.28   0
  -4  -2   8  701.54   28.28   0
   3   2  -8   73.77    3.88   0
   3   2  -8   71.59    3.70   0
   3   2  -8   71.04    3.78   0
  -3  -2   8   70.62    3.85   0
  -3  -2   8   63.02    3.76   0
   2   2  -8  422.58   16.42   0
   2   2  -8  377.37   16.38   0
   2   2  -8  414.57   16.48   0
  -2  -2   8  394.92   16.52   0
  -2  -2   8  402.17   16.59   0
   1   2  -8   64.59    3.15   0
   1   2  -8   64.34    3.20   0
  -1  -2   8   61.38    3.39   0
  -1  -2   8   65.51    3.45   0
  -1  -2   8   64.43    3.37   0
   0   2  -8  243.22    9.85   0
   0   2  -8  248.52    9.88   0
   0  -2   8  240.83   10.36   0
   0  -2   8  238.90   10.29   0
   0  -2   8  244.40   10.22   0
   1  -2   8    4.22    1.12   0
   1  -2   8    2.29    0.71   0
   2  -2   8  190.83    8.57   0
   2  -2   8  188.96    8.13   0
   2  -2   8  192.43    8.30   0
   3  -2   8  227.16   10.17   0
   3  -2   8  240.55   10.51   0
   3  -2   8  245.38    9.99   0
   4  -2   8  105.84    5.34   0
   4  -2   8  107.28    5.74   0
   4  -2   8  106.70    5.05   0
   5  -2   8    2.69    1.71   0
   5  -2   8    3.80    1.50   0
   5  -2   8    2.65    1.14   0
   5  -2   8    0.76    1.37   0
   7   1  -8  167.49    8.61   0
   7   1  -8  162.14    8.23   0
   7   1  -8  173.82    8.62   0
  -7  -1   8  160.41    8.18   0
  -7  -1   8  170.96    8.27   0
   6   1  -8   35.42    3.08   0
   6   1  -8   29.48    2.95   0
   6   1  -8   31.90    3.18   0
  -6  -1   8   33.83    3.01   0
  -6  -1   8   30.90    2.93   0
   5   1  -8    4.54    1.25   0
   5   1  -8    6.89    1.30   0
   5   1  -8    4.02    1.19   0
  -5  -1   8    6.76    1.35   0
  -5  -1   8    3.51    1.06   0
   4   1  -8    2.50    1.05   0
   4   1  -8    2.21    0.87   0
   4   1  -8    3.34    0.95   0
  -4  -1   8    2.80    1.01   0
  -4  -1   8    0.68    0.72   0
   3   1  -8  124.01    5.62   0
   3   1  -8  111.60    5.46   0
   3   1  -8  127.65    5.59   0
  -3  -1   8  115.14    5.59   0
  -3  -1   8  117.68    5.66   0
   2   1  -8    9.44    1.10   0
   2   1  -8   11.94    1.24   0
   2   1  -8    8.56    1.16   0
  -2  -1   8   11.64    1.43   0
  -2  -1   8   10.60    1.39   0
  -2  -1   8   11.61    1.45   0
   1   1  -8  259.85   10.51   0
   1   1  -8  265.19   10.52   0
  -1  -1   8  254.54   10.96   0
  -1  -1   8  256.03   11.12   0
  -1  -1   8  273.52   10.92   0
   0  -1   8  748.83   29.76   0
   0  -1   8  739.64   29.49   0
   0  -1   8  735.72   29.40   0
   1  -1   8  314.57   12.81   0
   1  -1   8  319.89   13.32   0
   1  -1   8  307.90   12.91   0
   2  -1   8   13.62    1.50   0
   2  -1   8   15.44    1.37   0
   2  -1   8   11.58    1.60   0
   3  -1   8  165.28    6.92   0
   3  -1   8  155.81    7.66   0
   3  -1   8  160.13    7.13   0
   4  -1   8  329.70   13.42   0
   4  -1   8  328.18   13.91   0
   4  -1   8  324.25   14.26   0
   4  -1   8  321.56   13.68   0
   8   0  -8    8.73    2.16   0
   8   0  -8    8.66    2.13   0
  -8   0   8   10.14    2.13   0
   7   0  -8  137.65    7.08   0
   7   0  -8  137.31    7.14   0
   7   0  -8  116.31    6.99   0
  -7   0   8  135.08    6.93   0
  -7   0   8  141.03    6.99   0
   6   0  -8   82.15    4.66   0
   6   0  -8   75.54    4.55   0
   6   0  -8   72.89    4.54   0
  -6   0   8   79.33    4.54   0
  -6   0   8   70.27    4.44   0
   5   0  -8   11.60    1.95   0
   5   0  -8   13.87    1.91   0
   5   0  -8   16.07    2.17   0
  -5   0   8   13.60    1.98   0
  -5   0   8   11.92    1.94   0
   4   0  -8  210.53    9.28   0
   4   0  -8  219.91    9.32   0
   4   0  -8  218.43    9.44   0
  -4   0   8  207.29    9.36   0
  -4   0   8  217.89    9.47   0
   3   0  -8  500.93   20.20   0
   3   0  -8  513.80   20.20   0
  -3   0   8  496.52   20.47   0
  -3   0   8  501.16   20.41   0
   2   0  -8   56.25    2.58   0
   2   0  -8   56.62    2.61   0
   2   0  -8   54.21    3.17   0
  -2   0   8   58.78    3.04   0
  -2   0   8   54.94    3.30   0
  -2   0   8   58.46    3.12   0
  -1   0   8  443.59   17.81   0
  -1   0   8  449.27   17.71   0
  -1   0   8  426.02   18.07   0
   0   0   8  928.49   36.22   0
   0   0   8  911.94   35.66   0
   0   0   8  875.87   35.72   0
   1   0   8  278.84   11.77   0
   1   0   8  293.80   12.43   0
   1   0   8  290.69   11.69   0
   2   0   8    9.28    1.73   0
   2   0   8    6.77    1.55   0
   2   0   8    4.99    0.76   0
   2   0   8    5.03    0.83   0
   3   0   8  572.43   22.95   0
   3   0   8  558.54   22.13   0
   3   0   8  549.30   22.33   0
   3   0   8  548.57   23.13   0
   4   0   8  328.65   13.78   0
   4   0   8  314.65   13.31   0
   4   0   8  317.14   13.04   0
   4   0   8  313.33   14.17   0
   8  -1  -8   -1.46    2.06   0
   8  -1  -8    0.94    1.68   0
   8  -1  -8   -0.89    1.52   0
  -8   1   8    1.11    1.62   0
  -8   1   8    1.04    1.39   0
  -8   1   8    0.20    1.65   0
   7  -1  -8  271.53   11.88   0
   7  -1  -8  254.84   11.82   0
   7  -1  -8  244.21   11.72   0
  -7   1   8  256.55   11.75   0
  -7   1   8  278.63   11.85   0
   6  -1  -8  241.57   10.55   0
   6  -1  -8  225.91   10.38   0
   6  -1  -8  231.07   10.43   0
  -6   1   8  237.61   10.48   0
  -6   1   8  233.03   10.51   0
   5  -1  -8    4.92    1.02   0
   5  -1  -8    4.54    1.04   0
   5  -1  -8    3.30    1.22   0
  -5   1   8    4.19    1.10   0
  -5   1   8    5.81    1.18   0
   4  -1  -8  707.27   29.27   0
   4  -1  -8  733.80   29.30   0
   4  -1  -8  739.67   29.64   0
  -4   1   8  763.66   29.59   0
   3  -1  -8 1561.77   62.48   0
   3  -1  -8 1686.95   63.12   0
   3  -1  -8 1590.88   62.49   0
  -3   1   8 1612.07   63.01   0
  -3   1   8 1558.63   62.92   0
   2  -1  -8   53.25    3.13   0
  -2   1   8   53.31    2.90   0
  -2   1   8   51.16    2.80   0
  -2   1   8   48.62    3.25   0
  -1   1   8   23.53    2.24   0
  -1   1   8   18.89    1.60   0
  -1   1   8   20.05    1.53   0
   0   1   8  660.29   26.86   0
   0   1   8  686.01   27.68   0
   0   1   8  684.69   26.78   0
   0   1   8  683.85   27.54   0
   1   1   8  367.50   14.66   0
   1   1   8  381.53   15.67   0
   1   1   8  363.27   15.63   0
   1   1   8  357.93   14.74   0
   2   1   8   21.79    1.41   0
   2   1   8   20.69    2.55   0
   2   1   8   19.88    1.57   0
   2   1   8   19.95    2.59   0
   3   1   8    0.56    0.62   0
   3   1   8    1.38    0.85   0
   3   1   8    3.29    2.08   0
   3   1   8    0.66    1.46   0
   8  -2  -8   14.58    2.38   0
   8  -2  -8   11.73    2.12   0
   8  -2  -8   17.97    2.97   0
  -8   2   8   19.02    3.18   0
  -8   2   8   16.84    2.61   0
  -8   2   8    9.27    1.86   0
   7  -2  -8  228.92   10.95   0
   7  -2  -8  242.78   11.24   0
   7  -2  -8  248.78   11.10   0
  -7   2   8  245.42   11.12   0
  -7   2   8  257.02   10.96   0
  -7   2   8  245.67   11.14   0
   6  -2  -8  250.36   11.34   0
   6  -2  -8  255.71   11.08   0
   6  -2  -8  250.60   11.04   0
  -6   2   8  250.20   11.28   0
  -6   2   8  263.21   11.32   0
  -6   2   8  253.96   11.31   0
   5  -2  -8    8.05    1.51   0
   5  -2  -8    5.79    1.00   0
   5  -2  -8    7.08    1.14   0
  -5   2   8    8.62    1.60   0
  -5   2   8    7.34    1.34   0
  -5   2   8    7.11    1.33   0
   4  -2  -8   35.14    2.82   0
   4  -2  -8   36.98    2.02   0
   4  -2  -8   35.02    2.07   0
  -4   2   8   33.38    2.57   0
  -4   2   8   35.64    3.00   0
  -4   2   8   39.86    2.60   0
   3  -2  -8  604.10   24.02   0
  -3   2   8  605.94   23.82   0
  -3   2   8  583.33   24.36   0
  -3   2   8  574.05   23.84   0
   2  -2  -8  260.23   11.14   0
  -2   2   8  264.98   10.90   0
  -2   2   8  262.55   10.84   0
  -2   2   8  256.46   11.59   0
  -2   2   8  260.95   11.38   0
  -1   2   8   77.90    3.54   0
  -1   2   8   71.47    3.55   0
  -1   2   8   78.08    4.38   0
  -1   2   8   72.81    4.45   0
   0   2   8   74.51    3.54   0
   0   2   8   76.47    3.47   0
   0   2   8   78.86    4.67   0
   0   2   8   83.99    4.68   0
   1   2   8  389.72   16.21   0
   1   2   8  375.03   16.16   0
   1   2   8  381.42   14.92   0
   1   2   8  361.84   14.97   0
   2   2   8   80.41    5.28   0
   2   2   8   77.35    4.93   0
   8  -3  -8    4.97    1.85   0
   8  -3  -8    5.43    2.49   0
   8  -3  -8    4.75    1.66   0
  -8   3   8    8.51    1.86   0
  -8   3   8    2.79    1.64   0
  -8   3   8    2.24    1.96   0
   7  -3  -8  245.09   10.72   0
   7  -3  -8  215.94   10.52   0
   7  -3  -8  252.95   11.14   0
  -7   3   8  230.69   10.87   0
  -7   3   8  249.29   11.00   0
  -7   3   8  234.00   10.75   0
   6  -3  -8  338.47   14.44   0
   6  -3  -8  345.43   14.94   0
   6  -3  -8  348.57   14.50   0
  -6   3   8  360.65   14.92   0
  -6   3   8  349.17   15.00   0
  -6   3   8  335.20   14.82   0
   5  -3  -8   40.26    2.36   0
   5  -3  -8   39.53    2.42   0
   5  -3  -8   40.50    3.27   0
  -5   3   8   37.29    3.35   0
  -5   3   8   38.00    2.98   0
  -5   3   8   47.87    3.15   0
   4  -3  -8   85.88    4.64   0
  -4   3   8   70.35    4.25   0
  -4   3   8   90.58    4.96   0
  -4   3   8   86.53    4.40   0
   3  -3  -8  790.12   31.16   0
  -3   3   8  767.17   30.94   0
  -3   3   8  784.04   30.92   0
  -3   3   8  758.38   31.58   0
   2  -3  -8  130.96    6.32   0
  -2   3   8  139.62    5.98   0
  -2   3   8  132.51    5.98   0
  -2   3   8  134.21    6.89   0
  -2   3   8  133.02    6.63   0
  -1   3   8    3.40    0.72   0
  -1   3   8    3.54    1.58   0
  -1   3   8    3.81    0.75   0
  -1   3   8    5.03    1.59   0
   0   3   8  457.07   19.97   0
   0   3   8  463.31   19.85   0
   0   3   8  484.02   18.73   0
   0   3   8  484.65   18.68   0
   1   3   8  227.32   10.55   0
   1   3   8  218.37   10.48   0
   7  -4  -8  675.17   28.01   0
   7  -4  -8  714.07   27.57   0
   7  -4  -8  644.76   27.43   0
  -7   4   8  674.90   27.91   0
  -7   4   8  659.18   27.90   0
  -7   4   8  700.02   28.03   0
   6  -4  -8  578.51   23.31   0
   6  -4  -8  558.07   22.54   0
   6  -4  -8  541.45   22.52   0
  -6   4   8  577.15   23.25   0
  -6   4   8  554.19   23.39   0
  -6   4   8  552.44   23.17   0
   5  -4  -8   46.77    3.65   0
  -5   4   8   45.20    3.31   0
  -5   4   8   46.96    3.45   0
  -5   4   8   46.77    3.84   0
   4  -4  -8    8.56    1.70   0
  -4   4   8    8.35    1.99   0
  -4   4   8    8.12    1.37   0
  -4   4   8    7.24    1.38   0
   3  -4  -8  779.47   31.66   0
  -3   4   8  770.69   31.40   0
  -3   4   8  812.45   31.46   0
  -3   4   8  786.09   32.28   0
  -2   4   8  240.30   10.02   0
  -2   4   8  233.89   11.10   0
  -2   4   8  242.46   10.05   0
  -1   4   8   11.10    1.36   0
  -1   4   8    9.56    1.93   0
  -1   4   8    9.92    1.40   0
  -1   4   8    7.46    1.99   0
   0   4   8  215.21    8.78   0
   0   4   8  221.41   10.41   0
   0   4   8  213.84   10.45   0
   0   4   8  222.14    8.81   0
   6  -5  -8  254.23   11.93   0
   6  -5  -8  302.37   12.00   0
   6  -5  -8  307.72   13.33   0
  -6   5   8  321.15   13.34   0
  -6   5   8  290.17   13.51   0
  -6   5   8  315.97   13.20   0
   5  -5  -8  402.49   17.27   0
  -5   5   8  407.19   17.76   0
  -5   5   8  416.31   17.24   0
  -5   5   8  400.68   17.09   0
   4  -5  -8    8.35    1.83   0
  -4   5   8    4.06    1.25   0
  -4   5   8    3.62    2.10   0
   3  -5  -8  553.27   22.77   0
  -3   5   8  564.11   22.51   0
  -3   5   8  564.13   22.60   0
  -3   5   8  542.12   23.52   0
  -2   5   8   53.38    4.52   0
  -2   5   8   47.99    2.94   0
  -2   5   8   53.04    3.13   0
  -1   9  -9   86.97    5.71   0
  -1   9  -9   92.78    5.99   0
   1  -9   9   84.00    5.55   0
   1  -9   9   87.19    5.46   0
  -2   9  -9    6.99    1.95   0
  -2   9  -9   11.45    2.34   0
   2  -9   9   10.69    1.28   0
   2  -9   9    5.33    1.67   0
   2  -9   9    9.70    1.89   0
  -3   9  -9   20.79    3.58   0
  -3   9  -9   25.23    3.78   0
   3  -9   9   15.76    2.55   0
   3  -9   9   18.37    2.22   0
   1   8  -9   11.04    1.93   0
   1   8  -9   10.82    2.10   0
  -1  -8   9   18.15    2.37   0
  -1  -8   9   14.85    2.36   0
   0   8  -9   39.52    3.70   0
   0   8  -9   35.44    4.08   0
   0  -8   9   38.25    3.54   0
   0  -8   9   38.76    3.57   0
  -1   8  -9  269.09   11.94   0
  -1   8  -9  251.73   11.70   0
   1  -8   9  246.64   10.61   0
   1  -8   9  242.23   11.68   0
   1  -8   9  274.40   11.67   0
  -2   8  -9  366.62   15.91   0
  -2   8  -9  353.33   15.79   0
   2  -8   9  377.75   15.80   0
   2  -8   9  355.77   15.94   0
   2  -8   9  371.83   15.01   0
  -3   8  -9    4.44    1.55   0
  -3   8  -9    5.83    1.75   0
   3  -8   9    5.52    1.91   0
   3  -8   9    5.52    1.26   0
   3  -8   9    6.70    1.74   0
  -4   8  -9  238.75   10.87   0
  -4   8  -9  230.05   10.74   0
   4  -8   9  223.22   10.71   0
   4  -8   9  227.23   11.23   0
   4  -8   9  248.36   10.32   0
   3   7  -9   90.36    5.98   0
   3   7  -9   88.20    5.84   0
  -3  -7   9   91.42    5.45   0
  -3  -7   9   89.95    5.50   0
   2   7  -9   88.63    5.50   0
   2   7  -9   89.50    5.72   0
  -2  -7   9   87.57    5.25   0
  -2  -7   9   93.98    5.36   0
   1   7  -9  105.80    6.21   0
   1   7  -9  106.37    5.98   0
  -1  -7   9  121.25    6.06   0
  -1  -7   9  107.36    5.94   0
   0   7  -9  151.27    7.67   0
   0   7  -9  153.05    7.85   0
   0  -7   9  154.78    7.72   0
   0  -7   9  166.17    7.68   0
  -1   7  -9  513.21   21.53   0
  -1   7  -9  537.79   21.65   0
   1  -7   9  538.04   21.54   0
   1  -7   9  510.30   20.84   0
   1  -7   9  488.32   21.56   0
  -2   7  -9  136.28    6.86   0
  -2   7  -9  144.66    6.99   0
   2  -7   9  136.10    7.15   0
   2  -7   9  140.40    6.93   0
  -3   7  -9   23.09    2.81   0
  -3   7  -9   19.04    2.55   0
   3  -7   9   19.19    2.64   0
   3  -7   9   18.74    2.99   0
   3  -7   9   16.10    2.18   0
  -4   7  -9   31.81    3.09   0
  -4   7  -9   33.23    3.07   0
   4  -7   9   31.78    3.78   0
   4  -7   9   35.31    3.24   0
   4  -7   9   30.99    2.91   0
  -5   7  -9  160.44    7.32   0
  -5   7  -9  154.48    7.24   0
   5  -7   9  152.63    7.63   0
   5  -7   9  132.02    7.99   0
   4   6  -9    4.67    1.99   0
   4   6  -9   11.08    2.32   0
  -4  -6   9    4.64    1.71   0
   3   6  -9  149.37    7.57   0
   3   6  -9  152.36    7.71   0
  -3  -6   9  134.18    7.19   0
  -3  -6   9  140.78    7.24   0
   2   6  -9  557.19   23.79   0
   2   6  -9  552.78   23.85   0
  -2  -6   9  565.29   23.73   0
  -2  -6   9  618.21   23.81   0
   1   6  -9   13.40    2.25   0
   1   6  -9   17.92    2.65   0
  -1  -6   9   17.47    2.43   0
  -1  -6   9   14.36    2.32   0
   0   6  -9  135.43    7.16   0
   0   6  -9  160.71    7.46   0
   0  -6   9  151.31    6.72   0
   0  -6   9  161.47    7.38   0
   0  -6   9  152.48    7.41   0
  -1   6  -9  396.50   17.78   0
  -1   6  -9  431.79   17.93   0
   1  -6   9  429.07   17.51   0
   1  -6   9  464.43   18.01   0
   1  -6   9  422.54   18.07   0
  -2   6  -9  415.35   16.73   0
  -2   6  -9  380.39   16.59   0
   2  -6   9  406.94   16.78   0
   2  -6   9  394.45   16.47   0
   2  -6   9  399.28   17.03   0
  -3   6  -9   13.92    1.98   0
  -3   6  -9   17.60    2.22   0
   3  -6   9   24.02    2.77   0
   3  -6   9   17.64    2.07   0
   3  -6   9   21.37    2.48   0
  -4   6  -9   68.70    3.89   0
  -4   6  -9   68.85    3.81   0
   4  -6   9   70.32    4.63   0
   4  -6   9   70.22    4.25   0
   4  -6   9   68.72    4.29   0
  -5   6  -9  250.47   10.47   0
  -5   6  -9  243.06   10.36   0
   5  -6   9  240.09   11.11   0
   5  -6   9  240.52   11.51   0
   5  -6   9  253.68   11.14   0
   5   5  -9  321.16   14.04   0
   5   5  -9  269.53   12.55   0
  -5  -5   9  298.31   13.41   0
  -5  -5   9  309.74   13.42   0
   4   5  -9   27.83    2.26   0
   4   5  -9   21.77    3.46   0
   4   5  -9   22.82    3.21   0
  -4  -5   9   19.65    3.02   0
  -4  -5   9   26.80    3.06   0
   3   5  -9  175.49    8.77   0
   3   5  -9  186.91    7.93   0
   3   5  -9  180.01    8.87   0
  -3  -5   9  174.55    8.58   0
  -3  -5   9  201.69    8.80   0
   2   5  -9  914.92   39.20   0
   2   5  -9 1049.42   39.39   0
  -2  -5   9  966.48   39.25   0
   1   5  -9  439.15   18.61   0
   1   5  -9  471.35   18.75   0
  -1  -5   9  432.94   18.67   0
   0   5  -9   62.70    4.05   0
   0   5  -9   67.20    3.97   0
   0  -5   9   81.54    4.25   0
   0  -5   9   75.75    3.85   0
   0  -5   9   83.02    4.38   0
  -1   5  -9  102.37    4.68   0
  -1   5  -9   83.64    4.46   0
   1  -5   9   91.26    4.77   0
   1  -5   9   73.95    4.39   0
   1  -5   9   93.73    4.93   0
  -2   5  -9  993.28   41.03   0
  -2   5  -9 1062.46   41.14   0
   2  -5   9 1072.77   41.35   0
   2  -5   9 1020.36   41.21   0
   2  -5   9 1034.24   41.55   0
  -3   5  -9  202.22    8.76   0
  -3   5  -9  202.48    8.70   0
   3  -5   9  196.49    9.39   0
   3  -5   9  209.81    9.21   0
   3  -5   9  210.91    9.16   0
  -4   5  -9   97.18    4.48   0
  -4   5  -9  100.35    4.44   0
   4  -5   9   95.23    5.48   0
   4  -5   9   99.75    5.19   0
   4  -5   9   94.52    5.35   0
   5  -5   9  240.96   11.39   0
   5  -5   9  252.51   11.03   0
   5  -5   9  244.48   11.22   0
   5   4  -9  601.78   24.23   0
   5   4  -9  612.88   25.13   0
   5   4  -9  568.43   24.95   0
  -5  -4   9  594.25   24.79   0
  -5  -4   9  609.36   24.81   0
   4   4  -9  214.38    9.12   0
   4   4  -9  200.67    9.73   0
   4   4  -9  214.70    9.95   0
  -4  -4   9  212.05    9.70   0
  -4  -4   9  204.56    9.63   0
   3   4  -9    6.53    1.13   0
   3   4  -9    5.87    1.38   0
   3   4  -9    4.25    1.25   0
  -3  -4   9    4.26    1.17   0
  -3  -4   9    4.79    1.21   0
   2   4  -9  527.31   20.49   0
   2   4  -9  455.92   20.32   0
  -2  -4   9  509.13   20.46   0
  -2  -4   9  485.50   20.44   0
   1   4  -9 1192.31   49.67   0
   1   4  -9 1264.32   49.75   0
  -1  -4   9 1242.78   49.53   0
  -1  -4   9 1324.62   49.87   0
  -1  -4   9 1251.09   49.87   0
   0   4  -9  357.79   14.94   0
   0   4  -9  373.37   15.01   0
   0  -4   9  367.00   14.99   0
   0  -4   9  348.67   15.20   0
  -1   4  -9  583.89   23.52   0
  -1   4  -9  576.47   23.48   0
   1  -4   9  570.37   23.92   0
   1  -4   9  609.01   23.83   0
   1  -4   9  592.52   23.78   0
  -2   4  -9  209.22    8.32   0
  -2   4  -9  195.66    8.32   0
   2  -4   9  194.77    8.85   0
   2  -4   9  192.46    8.96   0
   2  -4   9  198.22    8.77   0
  -3   4  -9   16.19    1.09   0
  -3   4  -9   17.12    1.12   0
   3  -4   9   17.43    2.07   0
   3  -4   9   15.22    2.28   0
   3  -4   9   16.56    2.32   0
   4  -4   9    8.32    1.42   0
   4  -4   9    2.39    1.42   0
   4  -4   9    5.32    1.48   0
   5  -4   9  263.16   12.94   0
   5  -4   9  287.36   12.04   0
   5  -4   9  272.90   12.40   0
   6   3  -9  409.81   18.87   0
   6   3  -9  464.43   19.12   0
   6   3  -9  440.13   18.31   0
  -6  -3   9  420.79   18.65   0
  -6  -3   9  450.48   18.69   0
   5   3  -9  582.05   23.71   0
   5   3  -9  544.52   23.60   0
   5   3  -9  562.05   23.07   0
  -5  -3   9  544.69   23.44   0
  -5  -3   9  595.49   23.51   0
   4   3  -9  181.00    8.89   0
   4   3  -9  197.47    9.08   0
   4   3  -9  190.52    8.53   0
  -4  -3   9  200.72    8.94   0
  -4  -3   9  194.63    8.94   0
   3   3  -9    3.25    1.03   0
   3   3  -9    4.62    1.19   0
  -3  -3   9    3.00    1.10   0
  -3  -3   9    0.95    0.94   0
   2   3  -9 1313.97   53.15   0
   2   3  -9 1384.87   52.97   0
   2   3  -9 1289.88   53.11   0
  -2  -3   9 1392.41   53.31   0
  -2  -3   9 1344.38   53.31   0
   1   3  -9   34.44    2.36   0
   1   3  -9   30.16    2.19   0
  -1  -3   9   35.20    2.49   0
  -1  -3   9   35.35    2.57   0
  -1  -3   9   32.73    2.48   0
   0   3  -9  109.40    5.01   0
   0   3  -9  110.07    4.98   0
   0  -3   9  107.44    5.41   0
   0  -3   9  113.02    5.40   0
   0  -3   9  114.26    5.35   0
  -1   3  -9   25.90    1.56   0
  -1   3  -9   28.05    1.54   0
   1  -3   9   24.37    2.10   0
   1  -3   9   25.06    2.26   0
   1  -3   9   24.64    2.34   0
   2  -3   9  185.55    8.05   0
   2  -3   9  175.54    8.22   0
   2  -3   9  186.35    8.36   0
   3  -3   9    2.79    1.36   0
   3  -3   9    2.40    0.94   0
   3  -3   9    1.63    1.01   0
   4  -3   9   37.25    3.13   0
   4  -3   9   37.55    3.57   0
   4  -3   9   37.02    2.74   0
   6   2  -9  143.28    7.29   0
   6   2  -9  161.91    7.89   0
   6   2  -9  136.36    7.59   0
  -6  -2   9  153.30    7.55   0
  -6  -2   9  143.99    7.48   0
   5   2  -9  543.79   22.82   0
   5   2  -9  557.02   22.84   0
   5   2  -9  530.95   22.44   0
  -5  -2   9  538.43   22.73   0
  -5  -2   9  572.80   22.75   0
   4   2  -9  144.10    7.13   0
   4   2  -9  144.19    7.07   0
   4   2  -9  154.32    6.96   0
  -4  -2   9  152.81    7.15   0
  -4  -2   9  151.31    7.19   0
   3   2  -9   15.60    1.99   0
   3   2  -9   21.39    2.05   0
   3   2  -9   14.62    1.78   0
  -3  -2   9   17.81    2.13   0
  -3  -2   9   11.79    2.09   0
   2   2  -9  115.46    5.35   0
   2   2  -9  112.30    5.27   0
   2   2  -9  106.52    5.19   0
  -2  -2   9  110.46    5.51   0
  -2  -2   9  118.13    5.49   0
  -2  -2   9  114.67    5.48   0
   1   2  -9   49.46    2.58   0
   1   2  -9   48.03    2.63   0
  -1  -2   9   51.65    2.99   0
  -1  -2   9   50.16    3.05   0
  -1  -2   9   49.90    3.08   0
   0   2  -9   51.39    2.25   0
   0  -2   9   50.54    3.04   0
   0  -2   9   52.84    3.29   0
   0  -2   9   50.82    2.94   0
   1  -2   9   72.84    3.88   0
   1  -2   9   71.45    4.16   0
   2  -2   9  411.01   17.51   0
   2  -2   9  420.79   17.33   0
   2  -2   9  447.82   17.92   0
   3  -2   9   87.75    5.18   0
   3  -2   9   80.70    4.45   0
   3  -2   9   86.42    4.23   0
   4  -2   9    2.16    1.86   0
   4  -2   9    0.17    0.94   0
   4  -2   9   -0.04    1.20   0
   7   1  -9  154.49    8.13   0
   7   1  -9  150.14    7.85   0
   7   1  -9  148.86    8.12   0
  -7  -1   9  164.36    7.91   0
  -7  -1   9  142.06    7.74   0
   6   1  -9   24.31    3.02   0
   6   1  -9   29.10    3.18   0
   6   1  -9   24.54    3.14   0
  -6  -1   9   28.40    3.06   0
  -6  -1   9   23.06    2.97   0
   5   1  -9  265.83   11.37   0
   5   1  -9  257.17   11.20   0
   5   1  -9  259.65   11.33   0
  -5  -1   9  231.09   11.23   0
  -5  -1   9  262.63   11.32   0
   4   1  -9  150.01    6.80   0
   4   1  -9  142.92    6.74   0
   4   1  -9  133.44    6.65   0
  -4  -1   9  153.46    6.88   0
  -4  -1   9  137.63    6.84   0
   3   1  -9   70.06    3.65   0
   3   1  -9   69.52    3.68   0
   3   1  -9   70.72    3.92   0
  -3  -1   9   72.18    3.92   0
  -3  -1   9   71.29    3.96   0
   2   1  -9  192.45    8.20   0
   2   1  -9  183.86    7.79   0
   2   1  -9  184.34    7.78   0
  -2  -1   9  187.86    8.14   0
  -2  -1   9  176.42    8.27   0
  -2  -1   9  185.19    8.24   0
  -1  -1   9   77.53    3.82   0
  -1  -1   9   71.13    3.87   0
  -1  -1   9   75.78    4.15   0
   0  -1   9  186.65    7.82   0
   0  -1   9  174.47    7.88   0
   0  -1   9  179.62    8.25   0
   1  -1   9  103.07    4.94   0
   1  -1   9  103.76    5.47   0
   2  -1   9  506.47   20.82   0
   2  -1   9  525.76   20.65   0
   2  -1   9  509.93   21.41   0
   3  -1   9   58.97    3.51   0
   3  -1   9   58.11    3.21   0
   3  -1   9   64.26    4.58   0
   3  -1   9   59.24    4.13   0
   7   0  -9  246.85   11.15   0
   7   0  -9  235.96   11.03   0
   7   0  -9  224.63   11.03   0
  -7   0   9  233.04   10.98   0
  -7   0   9  241.67   11.01   0
   6   0  -9    1.64    1.16   0
   6   0  -9    1.50    1.18   0
   6   0  -9   -0.98    1.43   0
  -6   0   9    0.40    1.25   0
  -6   0   9   -1.26    1.07   0
   5   0  -9  177.65    8.41   0
   5   0  -9  176.02    8.23   0
   5   0  -9  178.99    8.29   0
  -5   0   9  186.21    8.50   0
  -5   0   9  187.99    8.45   0
   4   0  -9  103.34    5.00   0
   4   0  -9   99.95    4.93   0
   4   0  -9   99.59    5.27   0
  -4   0   9  102.63    5.28   0
  -4   0   9  108.67    5.28   0
   3   0  -9  178.65    7.89   0
   3   0  -9  174.93    7.35   0
   3   0  -9  183.57    7.40   0
  -3   0   9  179.33    7.78   0
  -3   0   9  150.11    7.71   0
   2   0  -9  551.33   22.16   0
  -2   0   9  539.39   22.10   0
  -2   0   9  545.44   22.33   0
  -2   0   9  544.99   22.00   0
  -1   0   9  535.87   21.77   0
  -1   0   9  537.45   21.89   0
  -1   0   9  554.53   22.29   0
   0   0   9   86.51    4.79   0
   0   0   9   84.44    3.99   0
   0   0   9   82.35    4.12   0
   1   0   9   -0.45    1.27   0
   1   0   9    1.56    0.76   0
   2   0   9  326.26   13.92   0
   2   0   9  350.76   14.77   0
   2   0   9  345.03   14.86   0
   2   0   9  335.64   13.75   0
   3   0   9   80.41    5.78   0
   3   0   9   93.78    5.26   0
   3   0   9   84.94    4.01   0
   3   0   9   78.67    4.32   0
   7  -1  -9  510.48   20.64   0
   7  -1  -9  497.98   20.69   0
   7  -1  -9  455.33   20.46   0
  -7   1   9  485.49   20.42   0
  -7   1   9  532.72   20.75   0
  -7   1   9  442.47   20.52   0
   6  -1  -9   41.48    3.71   0
   6  -1  -9   44.67    3.39   0
   6  -1  -9   43.46    3.17   0
  -6   1   9   48.87    3.60   0
  -6   1   9   38.44    3.55   0
   5  -1  -9   80.09    4.31   0
   5  -1  -9   83.01    4.27   0
   5  -1  -9   79.39    4.75   0
  -5   1   9   85.72    4.63   0
  -5   1   9   79.70    4.67   0
   4  -1  -9   80.07    4.59   0
   4  -1  -9   84.67    3.98   0
   4  -1  -9   82.90    3.91   0
  -4   1   9   78.31    4.47   0
  -4   1   9   82.13    4.37   0
   3  -1  -9  143.50    6.74   0
  -3   1   9  137.93    6.48   0
  -3   1   9  144.66    6.63   0
   2  -1  -9   63.18    3.68   0
  -2   1   9   59.95    3.40   0
  -2   1   9   60.86    3.88   0
  -2   1   9   65.45    3.36   0
  -1   1   9   68.55    3.57   0
  -1   1   9   69.94    3.46   0
  -1   1   9   69.71    4.22   0
   0   1   9  312.35   12.94   0
   0   1   9  257.85   11.97   0
   0   1   9  299.23   12.99   0
   0   1   9  302.79   11.94   0
   1   1   9  125.00    5.65   0
   1   1   9  139.86    6.95   0
   1   1   9  122.15    6.68   0
   2   1   9    9.27    2.10   0
   2   1   9    7.76    2.38   0
   2   1   9   11.42    1.27   0
   2   1   9   11.80    1.68   0
   7  -2  -9   29.69    3.91   0
   7  -2  -9   35.59    3.45   0
   7  -2  -9   32.70    3.14   0
  -7   2   9   28.67    3.52   0
  -7   2   9   31.34    3.45   0
  -7   2   9   34.56    3.47   0
   6  -2  -9   29.34    2.46   0
   6  -2  -9   29.43    2.67   0
   6  -2  -9   29.39    3.36   0
  -6   2   9   26.78    3.22   0
  -6   2   9   21.43    2.92   0
  -6   2   9   24.24    2.93   0
   5  -2  -9    7.49    1.56   0
   5  -2  -9    9.72    1.60   0
   5  -2  -9    8.84    1.48   0
  -5   2   9    7.77    1.82   0
  -5   2   9    9.01    1.60   0
  -5   2   9    8.10    1.42   0
   4  -2  -9   96.58    5.06   0
  -4   2   9   89.43    5.30   0
  -4   2   9   84.26    4.77   0
  -4   2   9   90.17    4.71   0
   3  -2  -9  299.83   12.76   0
  -3   2   9  290.63   13.21   0
  -3   2   9  300.32   12.52   0
  -3   2   9  298.92   12.62   0
  -2   2   9   28.36    3.02   0
  -2   2   9   25.95    3.02   0
  -2   2   9   29.83    2.11   0
  -2   2   9   29.01    2.18   0
  -1   2   9  118.14    5.07   0
  -1   2   9  112.49    6.05   0
  -1   2   9  112.09    5.15   0
  -1   2   9  103.58    6.10   0
   0   2   9  266.04   12.06   0
   0   2   9  261.19   10.89   0
   0   2   9  272.64   10.80   0
   0   2   9  260.27   12.07   0
   1   2   9   65.59    5.17   0
   1   2   9   68.65    3.32   0
   1   2   9   73.35    4.96   0
   7  -3  -9  192.98    9.09   0
   7  -3  -9  201.50    9.22   0
   7  -3  -9  189.31    9.73   0
  -7   3   9  212.26    9.75   0
  -7   3   9  203.20    9.69   0
  -7   3   9  195.89    9.64   0
   6  -3  -9   15.34    1.84   0
   6  -3  -9   14.79    2.06   0
   6  -3  -9   12.33    2.15   0
  -6   3   9   10.88    1.81   0
  -6   3   9   10.93    2.09   0
  -6   3   9   12.52    1.91   0
   5  -3  -9  302.34   12.90   0
   5  -3  -9  285.21   11.68   0
   5  -3  -9  293.97   11.71   0
  -5   3   9  282.38   12.69   0
  -5   3   9  285.09   13.12   0
  -5   3   9  301.03   12.71   0
   4  -3  -9  398.01   16.66   0
  -4   3   9  378.25   17.03   0
  -4   3   9  399.14   16.52   0
  -4   3   9  399.79   16.44   0
   3  -3  -9  258.15   11.31   0
  -3   3   9  262.89   11.08   0
  -3   3   9  247.39   11.84   0
  -3   3   9  261.77   11.00   0
  -2   3   9    0.23    0.87   0
  -2   3   9    0.72    0.78   0
  -2   3   9   -0.44    1.68   0
  -1   3   9  159.64    8.08   0
  -1   3   9  144.82    8.02   0
  -1   3   9  163.39    6.76   0
  -1   3   9  159.24    6.84   0
   0   3   9  415.24   18.06   0
   0   3   9  428.41   16.62   0
   0   3   9  409.29   16.66   0
   0   3   9  416.54   18.16   0
   6  -4  -9  109.22    5.46   0
   6  -4  -9  130.49    7.03   0
   6  -4  -9  133.49    5.58   0
  -6   4   9  132.73    6.86   0
  -6   4   9  123.07    6.70   0
  -6   4   9  135.66    7.29   0
   5  -4  -9   -0.93    1.65   0
  -5   4   9    0.26    1.29   0
  -5   4   9    1.10    1.37   0
  -5   4   9    1.26    1.96   0
   4  -4  -9  159.94    7.79   0
  -4   4   9  157.80    7.46   0
  -4   4   9  163.36    7.52   0
  -4   4   9  152.69    8.26   0
   3  -4  -9 1010.78   38.43   0
  -3   4   9 1009.10   38.11   0
  -3   4   9  943.04   39.05   0
  -3   4   9  864.77   37.99   0
  -2   4   9   79.81    4.12   0
  -2   4   9   74.46    5.49   0
  -2   4   9   82.01    4.12   0
   0   8 -10   35.43    3.66   0
   0   8 -10   35.41    4.09   0
   0  -8  10   34.56    3.71   0
  -1   8 -10  106.83    6.20   0
  -1   8 -10   89.21    5.82   0
   1  -8  10   99.93    4.91   0
   1  -8  10  114.78    6.04   0
   1  -8  10   95.61    6.05   0
  -2   8 -10    6.86    1.73   0
  -2   8 -10   11.26    2.12   0
   2  -8  10    8.47    1.50   0
   2  -8  10    8.68    1.78   0
   2  -8  10    6.39    2.04   0
  -3   8 -10  336.69   14.95   0
   3  -8  10  348.82   15.21   0
   2   7 -10   10.16    2.15   0
   2   7 -10    6.48    1.87   0
  -2  -7  10    4.94    1.61   0
  -2  -7  10    9.43    1.99   0
   1   7 -10   66.67    4.69   0
   1   7 -10   71.90    4.99   0
  -1  -7  10   72.68    4.76   0
  -1  -7  10   67.32    4.66   0
   0   7 -10  184.89    8.87   0
   0   7 -10  172.52    8.60   0
   0  -7  10  174.50    7.83   0
   0  -7  10  168.51    8.69   0
   0  -7  10  193.88    8.75   0
  -1   7 -10   27.66    3.13   0
  -1   7 -10   22.72    2.70   0
   1  -7  10   22.44    3.07   0
   1  -7  10   26.52    2.36   0
   1  -7  10   25.30    3.03   0
  -2   7 -10   16.42    2.77   0
  -2   7 -10   16.01    2.55   0
   2  -7  10   20.24    2.82   0
   2  -7  10   18.48    2.42   0
   2  -7  10   16.38    2.23   0
  -3   7 -10  239.97   10.79   0
  -3   7 -10  257.40   10.98   0
   3  -7  10  240.95   10.75   0
   3  -7  10  235.92   11.46   0
   3  -7  10  242.90   11.09   0
   3   6 -10   90.20    5.76   0
   3   6 -10   94.29    5.79   0
  -3  -6  10   83.65    5.34   0
   2   6 -10  119.33    6.56   0
   2   6 -10  106.49    6.32   0
  -2  -6  10  121.61    6.34   0
  -2  -6  10  123.03    6.44   0
   1   6 -10   91.08    5.31   0
   1   6 -10   88.00    5.13   0
  -1  -6  10   87.71    5.10   0
  -1  -6  10   84.70    5.21   0
   0   6 -10  332.75   14.20   0
   0   6 -10  314.80   14.05   0
   0  -6  10  309.09   14.24   0
   0  -6  10  354.36   14.29   0
   0  -6  10  325.14   13.67   0
  -1   6 -10  265.82   11.74   0
  -1   6 -10  266.65   11.68   0
   1  -6  10  261.23   12.02   0
   1  -6  10  283.71   11.93   0
   1  -6  10  264.57   11.49   0
  -2   6 -10  105.38    5.42   0
  -2   6 -10  109.40    5.58   0
   2  -6  10  114.32    5.82   0
   2  -6  10  110.52    5.59   0
   2  -6  10  104.57    6.00   0
  -3   6 -10    7.79    1.41   0
  -3   6 -10    7.87    1.30   0
   3  -6  10    6.40    1.77   0
   3  -6  10   10.05    1.73   0
   3  -6  10    5.30    1.48   0
  -4   6 -10  297.11   11.78   0
  -4   6 -10  286.98   11.81   0
   4  -6  10  271.85   12.49   0
   4  -6  10  274.51   12.44   0
   4  -6  10  273.90   12.91   0
   4   5 -10    0.62    1.24   0
   4   5 -10   -0.54    1.42   0
   4   5 -10    2.66    1.82   0
  -4  -5  10    1.49    1.56   0
  -4  -5  10    2.24    1.54   0
   3   5 -10  180.59    9.29   0
   3   5 -10  202.78    9.52   0
  -3  -5  10  199.37    9.34   0
  -3  -5  10  206.48    9.42   0
   2   5 -10  566.93   22.93   0
   2   5 -10  550.60   22.87   0
  -2  -5  10  535.13   22.87   0
   1   5 -10   -1.19    1.09   0
   1   5 -10   -0.22    0.99   0
  -1  -5  10   -1.26    0.94   0
  -1  -5  10    1.11    1.00   0
   0   5 -10   40.25    2.95   0
   0   5 -10   32.78    2.70   0
   0  -5  10   41.05    3.19   0
   0  -5  10   36.85    2.72   0
   0  -5  10   34.34    2.99   0
  -1   5 -10 1030.84   41.49   0
  -1   5 -10 1053.35   41.54   0
   1  -5  10 1029.96   41.96   0
   1  -5  10 1068.85   41.82   0
   1  -5  10 1042.94   41.65   0
  -2   5 -10  939.26   37.56   0
  -2   5 -10  953.64   37.62   0
   2  -5  10  966.32   38.02   0
   2  -5  10  921.99   38.25   0
   2  -5  10  960.97   38.03   0
  -3   5 -10  177.80    7.57   0
  -3   5 -10  176.61    7.60   0
   3  -5  10  176.05    8.51   0
   3  -5  10  182.50    8.70   0
   3  -5  10  184.55    8.36   0
   4  -5  10  111.40    6.38   0
   4  -5  10  111.35    6.33   0
   4  -5  10  111.58    5.93   0
   5   4 -10  289.63   12.11   0
   5   4 -10  274.25   12.87   0
   5   4 -10  301.13   13.11   0
  -5  -4  10  283.93   12.67   0
  -5  -4  10  244.57   12.48   0
   4   4 -10   90.27    5.46   0
   4   4 -10   80.20    5.12   0
   4   4 -10   84.99    4.62   0
  -4  -4  10   87.95    5.20   0
  -4  -4  10   88.06    5.23   0
   3   4 -10  268.27   11.17   0
   3   4 -10  272.38   11.76   0
   3   4 -10  244.82   11.56   0
  -3  -4  10  275.68   11.75   0
  -3  -4  10  247.76   11.63   0
   2   4 -10  618.28   24.76   0
   2   4 -10  564.98   24.63   0
  -2  -4  10  599.90   24.86   0
  -2  -4  10  635.49   24.88   0
   1   4 -10   44.42    3.05   0
   1   4 -10   44.52    2.90   0
  -1  -4  10   38.93    2.96   0
  -1  -4  10   44.82    3.26   0
  -1  -4  10   47.94    3.32   0
   0   4 -10  478.47   18.97   0
   0   4 -10  444.54   18.87   0
   0  -4  10  474.83   19.19   0
   0  -4  10  461.25   19.37   0
  -1   4 -10  330.47   13.72   0
  -1   4 -10  351.92   13.72   0
   1  -4  10  342.62   14.22   0
   1  -4  10  333.74   14.29   0
   1  -4  10  318.80   14.33   0
  -2   4 -10   18.14    1.24   0
  -2   4 -10   14.55    1.15   0
   2  -4  10   19.14    2.50   0
   2  -4  10   16.04    2.25   0
   2  -4  10   13.24    1.95   0
   3  -4  10    7.29    1.84   0
   3  -4  10    7.01    1.36   0
   3  -4  10    6.85    1.56   0
   4  -4  10   13.30    2.13   0
   4  -4  10   14.59    2.42   0
   4  -4  10   14.61    1.94   0
   5   3 -10   52.65    4.06   0
   5   3 -10   51.93    3.78   0
   5   3 -10   51.00    4.33   0
  -5  -3  10   47.66    3.95   0
  -5  -3  10   60.35    4.21   0
   4   3 -10   54.48    3.92   0
   4   3 -10   56.84    3.52   0
   4   3 -10   50.97    3.67   0
  -4  -3  10   49.04    3.85   0
  -4  -3  10   51.93    3.83   0
   3   3 -10  400.72   16.42   0
   3   3 -10  376.75   16.35   0
   3   3 -10  387.68   16.13   0
  -3  -3  10  382.31   16.50   0
  -3  -3  10  398.68   16.52   0
   2   3 -10  717.75   28.79   0
   2   3 -10  701.16   28.80   0
  -2  -3  10  704.52   29.05   0
  -2  -3  10  738.92   29.04   0
   1   3 -10   24.15    1.94   0
   1   3 -10   23.75    2.07   0
  -1  -3  10   25.04    2.49   0
  -1  -3  10   23.54    2.44   0
  -1  -3  10   26.18    2.49   0
   0   3 -10    7.62    1.14   0
   0   3 -10   11.61    1.32   0
   0  -3  10    9.18    1.46   0
   0  -3  10    9.70    1.49   0
   1  -3  10  190.22    8.82   0
   1  -3  10  189.35    8.50   0
   1  -3  10  193.94    8.71   0
   2  -3  10  177.37    8.43   0
   2  -3  10  181.61    7.92   0
   2  -3  10  166.91    8.11   0
   3  -3  10    7.69    1.99   0
   3  -3  10   10.51    1.72   0
   3  -3  10   11.19    1.53   0
   6   2 -10  316.90   14.03   0
   6   2 -10  307.47   13.58   0
   6   2 -10  301.90   13.92   0
  -6  -2  10  296.90   13.80   0
  -6  -2  10  321.92   13.88   0
   5   2 -10  331.05   14.40   0
   5   2 -10  323.14   14.59   0
   5   2 -10  351.26   14.74   0
  -5  -2  10  323.01   14.65   0
  -5  -2  10  351.75   14.70   0
   4   2 -10    0.93    1.00   0
   4   2 -10    1.36    1.16   0
   4   2 -10    3.53    1.25   0
  -4  -2  10    2.22    1.17   0
  -4  -2  10   -0.71    1.15   0
   3   2 -10  200.10    8.62   0
   3   2 -10  181.56    8.50   0
   3   2 -10  199.31    8.65   0
  -3  -2  10  190.03    8.81   0
  -3  -2  10  192.51    8.86   0
   2   2 -10  761.24   31.79   0
   2   2 -10  813.34   31.86   0
  -2  -2  10  835.97   32.23   0
  -2  -2  10  810.91   32.24   0
  -2  -2  10  783.32   32.27   0
   1   2 -10  130.84    5.77   0
   1   2 -10  154.18    5.85   0
  -1  -2  10  132.41    6.40   0
  -1  -2  10  130.35    6.57   0
  -1  -2  10  133.55    6.51   0
   0  -2  10    1.95    1.30   0
   0  -2  10    0.17    0.84   0
   0  -2  10    2.15    0.96   0
   1  -2  10  112.24    6.08   0
   1  -2  10  116.11    5.45   0
   1  -2  10  111.90    5.60   0
   2  -2  10  340.21   14.94   0
   2  -2  10  341.74   14.50   0
   2  -2  10  347.78   14.25   0
   3  -2  10   19.96    2.22   0
   3  -2  10   20.81    2.66   0
   3  -2  10   18.91    2.97   0
   6   1 -10  477.30   20.63   0
   6   1 -10  490.19   20.51   0
   6   1 -10  496.63   20.66   0
  -6  -1  10  502.31   20.64   0
  -6  -1  10  471.87   20.66   0
   5   1 -10  417.65   17.98   0
   5   1 -10  429.87   18.01   0
   5   1 -10  427.48   18.01   0
  -5  -1  10  421.44   18.17   0
  -5  -1  10  442.66   18.14   0
   4   1 -10   39.78    2.83   0
   4   1 -10   38.23    3.10   0
   4   1 -10   39.60    2.91   0
  -4  -1  10   42.17    3.19   0
  -4  -1  10   36.24    3.16   0
   3   1 -10   98.95    4.86   0
   3   1 -10  108.43    5.32   0
  -3  -1  10   99.39    5.23   0
  -3  -1  10  103.20    5.37   0
   2   1 -10  401.68   16.10   0
   2   1 -10  386.71   16.08   0
  -2  -1  10  421.16   16.80   0
  -2  -1  10  393.76   16.86   0
  -2  -1  10  422.81   17.05   0
  -1  -1  10  191.91    8.95   0
  -1  -1  10  198.84    8.55   0
  -1  -1  10  193.22    8.68   0
   0  -1  10   54.33    3.14   0
   0  -1  10   55.35    3.31   0
   0  -1  10   52.66    3.82   0
   1  -1  10  429.47   17.83   0
   1  -1  10  438.46   18.44   0
   2  -1  10   79.48    4.59   0
   2  -1  10   90.03    4.40   0
   2  -1  10   97.80    5.82   0
   6   0 -10  258.48   11.67   0
   6   0 -10  261.72   11.89   0
   6   0 -10  259.26   11.74   0
  -6   0  10  257.10   11.94   0
  -6   0  10  269.95   11.91   0
   5   0 -10  787.22   31.40   0
   5   0 -10  723.03   31.04   0
   5   0 -10  801.37   31.18   0
  -5   0  10  740.12   31.43   0
  -5   0  10  812.22   31.45   0
   4   0 -10  172.84    8.01   0
   4   0 -10  163.55    7.46   0
   4   0 -10  170.11    7.53   0
  -4   0  10  176.59    8.10   0
  -4   0  10  170.27    7.94   0
   3   0 -10   37.87    2.02   0
   3   0 -10   38.78    3.07   0
   3   0 -10   40.45    2.10   0
  -3   0  10   40.76    2.99   0
  -3   0  10   37.78    2.83   0
  -2   0  10  197.55    8.57   0
  -2   0  10  192.88    8.69   0
  -2   0  10  193.45    9.02   0
  -1   0  10   44.68    2.79   0
  -1   0  10   45.88    3.53   0
  -1   0  10   44.15    2.89   0
   0   0  10    2.15    0.93   0
   0   0  10    4.78    1.62   0
   0   0  10    2.73    0.89   0
   1   0  10   51.08    4.27   0
   1   0  10   52.46    3.20   0
   1   0  10   55.68    4.48   0
   2   0  10   98.03    4.46   0
   2   0  10   87.39    4.74   0
   2   0  10   93.30    5.84   0
   6  -1 -10   60.46    3.95   0
   6  -1 -10   58.07    4.59   0
   6  -1 -10   59.63    3.84   0
  -6   1  10   60.23    4.37   0
  -6   1  10   57.17    4.42   0
   5  -1 -10   34.85    2.69   0
   5  -1 -10   41.12    3.58   0
   5  -1 -10   36.52    2.57   0
  -5   1  10   35.47    3.33   0
  -5   1  10   37.95    3.29   0
   4  -1 -10   84.19    4.85   0
   4  -1 -10   78.59    3.70   0
   4  -1 -10   79.26    3.74   0
  -4   1  10   82.36    4.73   0
  -4   1  10   88.53    4.66   0
   3  -1 -10   19.05    2.19   0
  -3   1  10   11.02    1.61   0
  -3   1  10   12.32    1.95   0
  -2   1  10   27.48    2.23   0
  -2   1  10   27.90    2.43   0
  -2   1  10   26.21    3.13   0
  -1   1  10  101.33    5.08   0
  -1   1  10  112.02    6.01   0
  -1   1  10  108.73    4.96   0
  -1   1  10   97.77    5.99   0
   0   1  10    3.57    2.05   0
   0   1  10    2.09    1.83   0
   0   1  10    4.39    1.09   0
   0   1  10    3.39    0.86   0
   1   1  10   32.10    4.40   0
   1   1  10   28.44    2.47   0
   1   1  10   37.77    4.04   0
   6  -2 -10    9.07    1.54   0
   6  -2 -10    9.29    1.40   0
   6  -2 -10    8.78    2.04   0
  -6   2  10    8.14    1.73   0
  -6   2  10   10.25    2.35   0
  -6   2  10   10.41    2.01   0
   5  -2 -10   41.77    2.35   0
   5  -2 -10   45.90    3.90   0
   5  -2 -10   39.14    2.42   0
  -5   2  10   42.37    4.22   0
  -5   2  10   46.32    3.64   0
  -5   2  10   41.14    3.43   0
   4  -2 -10   47.79    3.85   0
  -4   2  10   52.46    4.40   0
  -4   2  10   50.13    3.39   0
  -4   2  10   45.82    3.55   0
   3  -2 -10  111.92    6.02   0
  -3   2  10  117.39    5.83   0
  -3   2  10  115.30    6.63   0
  -3   2  10  115.99    5.63   0
  -2   2  10  173.30    7.59   0
  -2   2  10  173.07    8.54   0
  -2   2  10  168.30    7.71   0
  -2   2  10  167.47    8.68   0
  -1   2  10   55.17    3.35   0
  -1   2  10   67.26    4.84   0
  -1   2  10   59.32    3.18   0
  -1   2  10   51.13    4.59   0
   0   2  10   12.10    1.85   0
   0   2  10    9.28    2.65   0
   0   2  10   11.64    1.59   0
   0   2  10    9.66    2.40   0
   5  -3 -10   98.21    5.97   0
  -5   3  10  107.12    5.87   0
  -5   3  10  109.04    5.96   0
  -5   3  10  112.92    6.69   0
   4  -3 -10  169.31    8.24   0
  -4   3  10  167.36    8.01   0
  -4   3  10  171.05    7.94   0
  -4   3  10  165.48    8.79   0
   3  -3 -10    0.56    1.53   0
  -3   3  10    0.77    1.19   0
  -3   3  10    0.59    1.07   0
  -3   3  10   -0.14    1.97   0
  -2   3  10    4.50    1.15   0
  -2   3  10    3.69    1.24   0
  -2   3  10    3.79    2.35   0
   1   7 -11  164.44    8.48   0
   1   7 -11  161.86    8.29   0
  -1  -7  11  155.27    8.32   0
   0   7 -11   37.54    3.67   0
   0   7 -11   48.06    4.12   0
   0  -7  11   41.72    3.80   0
   0  -7  11   37.92    3.07   0
   0  -7  11   34.84    3.90   0
  -1   7 -11    4.16    1.75   0
  -1   7 -11    2.26    1.43   0
   1  -7  11    5.15    1.77   0
   1  -7  11    3.15    1.78   0
  -2   7 -11  177.55    8.31   0
   2  -7  11  164.86    9.14   0
   2  -7  11  179.92    8.63   0
   2   6 -11   38.71    3.82   0
   2   6 -11   36.71    3.82   0
  -2  -6  11   35.51    3.63   0
  -2  -6  11   33.99    3.78   0
   1   6 -11   99.69    5.82   0
   1   6 -11  110.90    6.13   0
  -1  -6  11  113.61    6.09   0
  -1  -6  11  100.51    6.03   0
   0   6 -11  251.79   10.91   0
   0   6 -11  233.23   10.75   0
   0  -6  11  233.05   10.51   0
   0  -6  11  228.42   11.09   0
   0  -6  11  253.03   11.07   0
  -1   6 -11   28.52    2.80   0
  -1   6 -11   29.19    2.90   0
   1  -6  11   27.51    3.37   0
   1  -6  11   30.49    3.29   0
   1  -6  11   27.71    2.87   0
  -2   6 -11   -0.27    1.20   0
  -2   6 -11    3.05    1.22   0
   2  -6  11    2.10    1.55   0
   2  -6  11    2.19    1.67   0
   2  -6  11    0.03    1.38   0
   3   5 -11  405.87   16.40   0
   3   5 -11  350.04   16.14   0
  -3  -5  11  351.70   16.15   0
  -3  -5  11  380.73   16.25   0
   2   5 -11    5.13    1.45   0
   2   5 -11    4.17    1.58   0
  -2  -5  11    7.30    1.78   0
   1   5 -11   82.83    4.73   0
   1   5 -11   76.08    4.52   0
  -1  -5  11   78.74    4.47   0
  -1  -5  11   79.73    5.00   0
   0   5 -11  197.30    8.80   0
   0   5 -11  203.19    8.89   0
   0  -5  11  201.82    9.20   0
   0  -5  11  187.46    9.29   0
   0  -5  11  192.67    8.95   0
  -1   5 -11  201.30    8.60   0
  -1   5 -11  188.38    8.47   0
   1  -5  11  207.94    9.15   0
   1  -5  11  181.44    9.19   0
   1  -5  11  191.78    9.00   0
  -2   5 -11  103.90    4.81   0
  -2   5 -11  103.11    4.75   0
   2  -5  11  101.64    5.89   0
   2  -5  11  104.77    5.67   0
   2  -5  11  104.14    6.02   0
   4   4 -11  115.21    6.57   0
   4   4 -11  119.65    6.71   0
   4   4 -11  117.83    6.05   0
  -4  -4  11  124.06    6.66   0
  -4  -4  11  118.22    6.69   0
   3   4 -11   86.71    5.20   0
   3   4 -11   93.24    5.18   0
  -3  -4  11   88.22    5.36   0
  -3  -4  11   86.93    5.28   0
   2   4 -11    1.38    1.06   0
   2   4 -11    0.68    1.20   0
  -2  -4  11    2.24    1.47   0
  -2  -4  11    0.39    1.19   0
   1   4 -11  122.98    5.82   0
   1   4 -11  116.99    5.68   0
  -1  -4  11  115.92    6.22   0
  -1  -4  11  112.18    5.96   0
   0   4 -11  257.68   11.12   0
   0   4 -11  268.65   11.12   0
   0  -4  11  277.58   11.75   0
   0  -4  11  259.23   11.68   0
   0  -4  11  261.54   11.85   0
  -1   4 -11  111.26    4.74   0
  -1   4 -11  110.09    4.77   0
   1  -4  11  106.26    5.91   0
   1  -4  11  107.99    5.70   0
   1  -4  11  110.73    5.96   0
   2  -4  11    0.52    1.36   0
   2  -4  11   -0.02    1.19   0
   2  -4  11   -1.31    1.80   0
   5   3 -11    1.56    1.68   0
   5   3 -11    0.74    1.75   0
   5   3 -11    2.21    1.75   0
  -5  -3  11    3.05    1.83   0
  -5  -3  11    1.07    1.62   0
   4   3 -11   55.66    3.94   0
   4   3 -11   57.54    3.87   0
   4   3 -11   55.86    4.13   0
  -4  -3  11   52.00    4.27   0
  -4  -3  11   52.63    4.22   0
   3   3 -11  367.46   15.58   0
   3   3 -11  362.16   15.53   0
   3   3 -11  376.62   15.47   0
  -3  -3  11  354.65   15.80   0
  -3  -3  11  376.04   15.84   0
   2   3 -11   60.57    3.63   0
   2   3 -11   58.62    3.51   0
  -2  -3  11   61.83    4.08   0
  -2  -3  11   62.41    4.09   0
   1   3 -11   25.49    1.97   0
   1   3 -11   26.25    2.04   0
  -1  -3  11   24.90    2.77   0
  -1  -3  11   21.17    2.84   0
  -1  -3  11   26.59    2.79   0
   0  -3  11  475.23   19.80   0
   0  -3  11  469.60   19.73   0
   1  -3  11  372.97   15.27   0
   1  -3  11  354.95   15.44   0
   1  -3  11  357.05   15.67   0
   2  -3  11   25.06    2.77   0
   2  -3  11   24.06    3.01   0
   2  -3  11   18.98    2.61   0
   5   2 -11    3.50    1.52   0
   5   2 -11    6.21    1.79   0
   5   2 -11    5.71    1.78   0
  -5  -2  11    1.88    1.51   0
  -5  -2  11    4.82    1.85   0
   4   2 -11  129.77    6.84   0
   4   2 -11  132.73    6.71   0
   4   2 -11  141.84    6.81   0
  -4  -2  11  143.65    7.13   0
  -4  -2  11  135.60    7.12   0
   3   2 -11  589.03   23.57   0
   3   2 -11  567.77   23.72   0
   3   2 -11  575.04   23.52   0
  -3  -2  11  572.05   24.00   0
  -3  -2  11  599.62   23.97   0
   2   2 -11  170.08    7.32   0
   2   2 -11  167.66    7.31   0
  -2  -2  11  173.14    8.13   0
  -2  -2  11  173.64    8.02   0
  -2  -2  11  164.88    8.06   0
  -1  -2  11   -0.68    0.98   0
  -1  -2  11   -1.15    1.02   0
  -1  -2  11   -0.86    1.46   0
   0  -2  11  268.61   12.03   0
   0  -2  11  287.13   12.45   0
   0  -2  11  273.40   11.85   0
   1  -2  11  530.21   21.65   0
   1  -2  11  530.60   22.31   0
   1  -2  11  531.38   21.87   0
   2  -2  11    4.29    1.58   0
   2  -2  11    5.87    1.43   0
   5   1 -11   77.43    4.63   0
   5   1 -11   69.64    4.42   0
   5   1 -11   72.01    4.79   0
  -5  -1  11   73.88    5.01   0
  -5  -1  11   73.35    4.84   0
   4   1 -11   38.96    3.59   0
   4   1 -11   43.18    2.87   0
   4   1 -11   36.32    2.92   0
  -4  -1  11   42.32    3.49   0
  -4  -1  11   41.32    3.55   0
   3   1 -11 1195.18   48.08   0
   3   1 -11 1230.56   48.11   0
   3   1 -11 1285.51   48.78   0
  -3  -1  11 1155.27   48.81   0
  -3  -1  11 1255.84   48.78   0
  -2  -1  11  349.05   14.67   0
  -2  -1  11  338.40   14.50   0
  -2  -1  11  340.49   14.85   0
  -1  -1  11    0.45    1.04   0
  -1  -1  11    2.01    1.20   0
  -1  -1  11    0.24    1.79   0
   0  -1  11  183.07    9.02   0
   0  -1  11  184.86    8.13   0
   0  -1  11  174.18    8.29   0
   1  -1  11  181.68    8.03   0
   1  -1  11  178.06    8.95   0
   1  -1  11  156.40    7.63   0
   5   0 -11  170.57    7.89   0
   5   0 -11  162.07    8.39   0
  -5   0  11  175.43    8.57   0
  -5   0  11  177.48    8.44   0
   4   0 -11    7.53    1.07   0
   4   0 -11    6.90    1.13   0
   4   0 -11    6.16    1.76   0
  -4   0  11   10.23    1.97   0
  -4   0  11    9.11    1.80   0
   3   0 -11  332.20   14.14   0
  -3   0  11  322.77   14.15   0
  -3   0  11  328.53   13.99   0
  -2   0  11  131.33    6.13   0
  -2   0  11  120.10    6.23   0
  -2   0  11  124.84    6.80   0
  -1   0  11  103.68    5.52   0
  -1   0  11  113.60    5.35   0
  -1   0  11  103.16    6.24   0
   0   0  11   14.96    2.06   0
   0   0  11   11.09    1.63   0
   0   0  11   19.55    2.75   0
   5  -1 -11   47.22    2.83   0
   5  -1 -11   44.22    3.99   0
   5  -1 -11   42.21    2.69   0
  -5   1  11   42.81    4.07   0
  -5   1  11   40.79    3.81   0
   4  -1 -11    1.71    1.78   0
  -4   1  11    3.31    1.49   0
  -4   1  11    4.26    1.55   0
   3  -1 -11  171.08    8.33   0
  -3   1  11  170.59    8.26   0
  -3   1  11  180.07    8.09   0
  -2   1  11   29.35    4.03   0
  -2   1  11   33.50    3.03   0
  -2   1  11   31.78    4.05   0
  -2   1  11   36.24    2.82   0
  -1   1  11    1.92    1.20   0
  -1   1  11    2.59    2.35   0
  -1   1  11    1.23    2.32   0
  -1   1  11    1.79    1.06   0
  -4   2  11   58.26    4.36   0
  -4   2  11   47.82    6.04   0
  -4   2  11   63.27    4.20   0
  -3   2  11  199.16    8.79   0
  -3   2  11  185.32    8.94   0
   2   5 -12  173.88    8.08   0
   2   5 -12  156.09    7.81   0
  -2  -5  12  138.71    8.66   0
   1   5 -12   38.18    3.40   0
   1   5 -12   32.90    3.11   0
  -1  -5  12   31.14    3.68   0
  -1  -5  12   40.00    3.55   0
  -1  -5  12   35.37    3.67   0
   0   5 -12    3.41    1.35   0
   0   5 -12    2.88    1.18   0
   0  -5  12    1.62    1.61   0
   0  -5  12    5.10    1.92   0
   0  -5  12    7.03    1.90   0
   3   4 -12   61.96    4.31   0
   3   4 -12   63.40    4.47   0
  -3  -4  12   58.66    4.77   0
  -3  -4  12   66.68    4.80   0
   2   4 -12   46.15    3.38   0
   2   4 -12   47.98    3.57   0
  -2  -4  12   46.71    4.03   0
  -2  -4  12   47.25    4.13   0
   1   4 -12   76.34    4.12   0
   1   4 -12   72.89    3.99   0
  -1  -4  12   66.26    4.80   0
  -1  -4  12   77.83    4.82   0
   0   4 -12   65.61    3.39   0
   0   4 -12   67.91    3.33   0
   0  -4  12   62.61    4.65   0
   0  -4  12   66.37    4.46   0
   0  -4  12   74.02    4.85   0
   3   3 -12   54.80    3.68   0
   3   3 -12   63.08    3.99   0
  -3  -3  12   48.86    4.21   0
  -3  -3  12   55.80    4.35   0
   2   3 -12   56.15    3.40   0
   2   3 -12   59.38    3.48   0
  -2  -3  12   56.09    4.27   0
  -2  -3  12   60.15    4.43   0
   1   3 -12   73.81    3.77   0
   1   3 -12   94.67    3.91   0
  -1  -3  12   89.72    5.13   0
  -1  -3  12   85.63    5.22   0
  -1  -3  12   86.47    5.42   0
   0  -3  12  210.74    9.85   0
   0  -3  12  195.94    9.57   0
   4   2 -12   42.10    3.93   0
   4   2 -12   46.85    3.47   0
   4   2 -12   38.75    3.27   0
  -4  -2  12   32.40    3.81   0
  -4  -2  12   32.63    3.93   0
   3   2 -12  230.28    9.56   0
   3   2 -12  220.11    9.45   0
  -3  -2  12  224.69   10.29   0
  -3  -2  12  204.51   10.27   0
  -2  -2  12   -0.80    1.30   0
  -2  -2  12    1.10    1.43   0
  -1  -2  12  337.27   14.87   0
  -1  -2  12  346.88   15.18   0
  -1  -2  12  345.98   14.73   0
   0  -2  12  423.07   19.16   0
   0  -2  12  430.79   18.11   0
  -4  -1  12  332.35   14.77   0
  -3  -1  12  517.67   22.26   0
  -3  -1  12  545.81   22.16   0
  -2  -1  12    0.12    1.39   0
  -2  -1  12   -1.65    1.35   0
  -1  -1  12   78.99    5.05   0
  -1  -1  12   88.09    4.87   0
;
_shelx_hkl_checksum              70074
loop_
_space_group_symop_operation_xyz
'x, y, z'
'-x, -y, -z'
loop_
_atom_site_label
_atom_site_type_symbol
_atom_site_fract_x
_atom_site_fract_y
_atom_site_fract_z
_atom_site_U_iso_or_equiv
_atom_site_adp_type
_atom_site_occupancy
_atom_site_site_symmetry_order
_atom_site_calc_flag
_atom_site_refinement_flags_posn
_atom_site_refinement_flags_adp
Mn1 Mn 0.85749(4) 0.53131(3) 0.37626(3) 0.00998(14) Uani 1 1 d . .
C1 C 0.8801(3) 0.7533(3) 0.5034(2) 0.0146(4) Uani 1 1 d . .
O2 O 0.8701(3) 0.8839(2) 0.58025(19) 0.0225(3) Uani 1 1 d . .
C3 C 0.9242(3) 0.6292(3) 0.2336(2) 0.0189(4) Uani 1 1 d . .
O4 O 0.9709(4) 0.6921(3) 0.1451(2) 0.0363(5) Uani 1 1 d . .
C5 C 0.5853(3) 0.4725(3) 0.3001(2) 0.0154(4) Uani 1 1 d . .
O6 O 0.4161(2) 0.4489(2) 0.25101(19) 0.0259(4) Uani 1 1 d . .
N7 N 0.8328(3) 0.4121(2) 0.53660(19) 0.0107(3) Uani 1 1 d . .
H7 H 0.800(4) 0.471(4) 0.613(3) 0.013 Uiso 1 1 d . U
C8 C 0.6686(3) 0.2097(3) 0.4610(2) 0.0142(4) Uani 1 1 d . .
H8A H 0.527153 0.201998 0.446312 0.017 Uiso 1 1 calc R U
H8B H 0.685297 0.137890 0.525543 0.017 Uiso 1 1 calc R U
C9 C 0.6900(3) 0.1233(3) 0.3079(2) 0.0139(4) Uani 1 1 d . .
C10 C 0.6142(3) -0.0729(3) 0.2311(3) 0.0192(4) Uani 1 1 d . .
H10 H 0.542222 -0.161135 0.273314 0.023 Uiso 1 1 calc R U
C11 C 0.6452(4) -0.1385(3) 0.0913(3) 0.0233(4) Uani 1 1 d . .
H11 H 0.592158 -0.272448 0.035468 0.028 Uiso 1 1 calc R U
C12 C 0.7543(3) -0.0060(3) 0.0344(2) 0.0221(4) Uani 1 1 d . .
H12 H 0.781231 -0.047406 -0.059282 0.027 Uiso 1 1 calc R U
C13 C 0.8235(3) 0.1872(3) 0.1159(2) 0.0172(4) Uani 1 1 d . .
H13 H 0.896582 0.277718 0.075928 0.021 Uiso 1 1 calc R U
N14 N 0.7909(3) 0.2522(2) 0.25065(19) 0.0127(3) Uani 1 1 d . .
loop_
_atom_site_aniso_label
_atom_site_aniso_U_11
_atom_site_aniso_U_22
_atom_site_aniso_U_33
_atom_site_aniso_U_23
_atom_site_aniso_U_13
_atom_site_aniso_U_12
Mn1 0.01154(19) 0.01026(19) 0.01127(19) 0.00525(13) 0.00622(13) 0.00626(14)
C1 0.0122(8) 0.0156(9) 0.0185(9) 0.0098(7) 0.0065(7) 0.0060(7)
O2 0.0225(8) 0.0154(7) 0.0289(8) 0.0030(6) 0.0089(6) 0.0120(6)
C3 0.0243(10) 0.0219(10) 0.0201(10) 0.0109(8) 0.0117(8) 0.0160(8)
O4 0.0595(12) 0.0459(11) 0.0363(10) 0.0334(9) 0.0336(9) 0.0360(10)
C5 0.0194(9) 0.0144(9) 0.0134(8) 0.0029(7) 0.0074(7) 0.0097(7)
O6 0.0175(8) 0.0316(9) 0.0238(8) 0.0009(7) 0.0029(6) 0.0155(7)
N7 0.0114(7) 0.0105(7) 0.0125(7) 0.0052(6) 0.0075(6) 0.0052(6)
C8 0.0125(8) 0.0120(8) 0.0177(9) 0.0067(7) 0.0077(7) 0.0036(7)
C9 0.0113(8) 0.0137(9) 0.0157(9) 0.0050(7) 0.0033(7) 0.0060(7)
C10 0.0176(9) 0.0132(9) 0.0223(10) 0.0049(8) 0.0018(8) 0.0062(7)
C11 0.0244(10) 0.0161(10) 0.0216(10) -0.0016(8) -0.0013(8) 0.0119(8)
C12 0.0237(10) 0.0256(11) 0.0154(9) -0.0002(8) 0.0036(8) 0.0167(9)
C13 0.0178(9) 0.0213(10) 0.0140(9) 0.0049(8) 0.0069(7) 0.0113(8)
N14 0.0130(7) 0.0137(7) 0.0128(7) 0.0042(6) 0.0052(6) 0.0078(6)
loop_
_atom_type_symbol
_atom_type_description
_atom_type_scat_dispersion_real
_atom_type_scat_dispersion_imag
_atom_type_scat_source
C C 0.0033 0.0016 'International Tables Vol C Tables 4.2.6.8 and 6.1.1.4'
H H 0.0000 0.0000 'International Tables Vol C Tables 4.2.6.8 and 6.1.1.4'
N N 0.0061 0.0033 'International Tables Vol C Tables 4.2.6.8 and 6.1.1.4'
O O 0.0106 0.0060 'International Tables Vol C Tables 4.2.6.8 and 6.1.1.4'
Mn Mn 0.3368 0.7283 'International Tables Vol C Tables 4.2.6.8 and 6.1.1.4'
loop_
_geom_angle_atom_site_label_1
_geom_angle_atom_site_label_2
_geom_angle_atom_site_label_3
_geom_angle
_geom_angle_site_symmetry_1
_geom_angle_site_symmetry_3
C5 Mn1 C1 83.89(9) . .
C5 Mn1 C3 91.19(10) . .
C1 Mn1 C3 92.91(9) . .
C5 Mn1 N7 98.96(8) . .
C1 Mn1 N7 93.10(8) . .
C3 Mn1 N7 168.69(8) . .
C5 Mn1 N14 90.79(8) . .
C1 Mn1 N14 168.87(8) . .
C3 Mn1 N14 96.98(8) . .
N7 Mn1 N14 78.03(7) . .
C5 Mn1 N7 177.73(7) . 2_766
C1 Mn1 N7 97.81(8) . 2_766
C3 Mn1 N7 90.23(8) . 2_766
N7 Mn1 N7 79.48(7) . 2_766
N14 Mn1 N7 87.28(6) . 2_766
C5 Mn1 Mn1 139.09(7) . 2_766
C1 Mn1 Mn1 97.12(6) . 2_766
C3 Mn1 Mn1 129.39(7) . 2_766
N7 Mn1 Mn1 40.15(5) . 2_766
N14 Mn1 Mn1 80.52(5) . 2_766
N7 Mn1 Mn1 39.33(4) 2_766 2_766
O2 C1 Mn1 172.27(17) . .
O4 C3 Mn1 178.5(2) . .
O6 C5 Mn1 174.70(19) . .
C8 N7 Mn1 108.74(12) . .
C8 N7 Mn1 118.08(12) . 2_766
Mn1 N7 Mn1 100.52(7) . 2_766
C8 N7 H7 108.4(17) . .
Mn1 N7 H7 113.5(17) . .
Mn1 N7 H7 107.6(17) 2_766 .
N7 C8 C9 108.40(15) . .
N7 C8 H8A 110.0 . .
C9 C8 H8A 110.0 . .
N7 C8 H8B 110.0 . .
C9 C8 H8B 110.0 . .
H8A C8 H8B 108.4 . .
N14 C9 C10 122.12(18) . .
N14 C9 C8 114.70(16) . .
C10 C9 C8 123.18(18) . .
C9 C10 C11 118.8(2) . .
C9 C10 H10 120.6 . .
C11 C10 H10 120.6 . .
C12 C11 C10 119.18(19) . .
C12 C11 H11 120.4 . .
C10 C11 H11 120.4 . .
C13 C12 C11 118.95(19) . .
C13 C12 H12 120.5 . .
C11 C12 H12 120.5 . .
N14 C13 C12 122.3(2) . .
N14 C13 H13 118.8 . .
C12 C13 H13 118.8 . .
C9 N14 C13 118.51(17) . .
C9 N14 Mn1 114.00(12) . .
C13 N14 Mn1 127.30(14) . .
loop_
_geom_bond_atom_site_label_1
_geom_bond_atom_site_label_2
_geom_bond_distance
_geom_bond_site_symmetry_2
Mn1 C5 1.801(2) .
Mn1 C1 1.807(2) .
Mn1 C3 1.817(2) .
Mn1 N7 2.0397(16) .
Mn1 N14 2.0686(17) .
Mn1 N7 2.0752(17) 2_766
Mn1 Mn1 3.1643(6) 2_766
C1 O2 1.152(3) .
C3 O4 1.145(3) .
C5 O6 1.156(3) .
N7 C8 1.470(2) .
N7 H7 0.88(3) .
C8 C9 1.503(3) .
C8 H8A 0.9900 .
C8 H8B 0.9900 .
C9 N14 1.348(2) .
C9 C10 1.386(3) .
C10 C11 1.391(3) .
C10 H10 0.9500 .
C11 C12 1.384(3) .
C11 H11 0.9500 .
C12 C13 1.380(3) .
C12 H12 0.9500 .
C13 N14 1.352(2) .
C13 H13 0.9500 .
loop_
_geom_hbond_atom_site_label_D
_geom_hbond_atom_site_label_H
_geom_hbond_atom_site_label_A
_geom_hbond_distance_DH
_geom_hbond_distance_HA
_geom_hbond_distance_DA
_geom_hbond_angle_DHA
_geom_hbond_site_symmetry_A
C13 H13 O4 0.95 2.51 3.323(3) 143.2 2_765
loop_
_geom_torsion_atom_site_label_1
_geom_torsion_atom_site_label_2
_geom_torsion_atom_site_label_3
_geom_torsion_atom_site_label_4
_geom_torsion
_geom_torsion_site_symmetry_1
Mn1 N7 C8 C9 40.93(17) .
Mn1 N7 C8 C9 -72.62(17) 2_766
N7 C8 C9 N14 -22.3(2) .
N7 C8 C9 C10 157.20(18) .
N14 C9 C10 C11 0.7(3) .
C8 C9 C10 C11 -178.83(19) .
C9 C10 C11 C12 1.3(3) .
C10 C11 C12 C13 -2.0(3) .
C11 C12 C13 N14 0.9(3) .
C10 C9 N14 C13 -1.8(3) .
C8 C9 N14 C13 177.71(17) .
C10 C9 N14 Mn1 173.51(15) .
C8 C9 N14 Mn1 -6.9(2) .
C12 C13 N14 C9 1.0(3) .
C12 C13 N14 Mn1 -173.61(15) .
