#------------------------------------------------------------------------------
#$Date: 2017-09-12 05:57:13 +0300 (Tue, 12 Sep 2017) $
#$Revision: 200555 $
#$URL: file:///home/coder/svn-repositories/cod/cif/1/54/70/1547046.cif $
#------------------------------------------------------------------------------
#
# This file is available in the Crystallography Open Database (COD),
# http://www.crystallography.net/
#
# All data on this site have been placed in the public domain by the
# contributors.
#
data_1547046
loop_
_publ_author_name
'Morris, Patrick J.'
'Moaddel, Ruin'
'Zanos, Panos'
'Moore, Curtis E.'
'Gould, Todd'
'Zarate, Jr, Carlos A'
'Thomas, Craig J.'
_publ_section_title
;
 Synthesis and N-Methyl-d-aspartate (NMDA) Receptor Activity of Ketamine
 Metabolites.
;
_journal_issue                   17
_journal_name_full               'Organic letters'
_journal_page_first              4572
_journal_page_last               4575
_journal_paper_doi               10.1021/acs.orglett.7b02177
_journal_volume                  19
_journal_year                    2017
_chemical_absolute_configuration ad
_chemical_formula_moiety         'C12 H15 Cl N O2, Cl, H2 O'
_chemical_formula_sum            'C12 H17 Cl2 N O3'
_chemical_formula_weight         294.16
_space_group_crystal_system      monoclinic
_space_group_IT_number           4
_space_group_name_Hall           'P 2yb'
_space_group_name_H-M_alt        'P 1 21 1'
_symmetry_space_group_name_Hall  'P 2yb'
_symmetry_space_group_name_H-M   'P 1 21 1'
_atom_sites_solution_hydrogens   mixed
_atom_sites_solution_primary     dual
_atom_sites_solution_secondary   difmap
_audit_creation_date             2017-03-22
_audit_creation_method
;
Olex2 1.2-beta
(compiled 2017.03.14 svn.r3398 for OlexSys, GUI svn.r5328)
;
_cell_angle_alpha                90
_cell_angle_beta                 107.542(2)
_cell_angle_gamma                90
_cell_formula_units_Z            2
_cell_length_a                   7.4047(4)
_cell_length_b                   8.7079(5)
_cell_length_c                   11.7729(6)
_cell_measurement_reflns_used    9986
_cell_measurement_temperature    100.0
_cell_measurement_theta_max      28.270
_cell_measurement_theta_min      2.885
_cell_volume                     723.81(7)
_computing_cell_refinement       'SAINT v8.37A (Bruker, 2016)'
_computing_data_collection       'APEX3 v2016.1-0 (Bruker, 2016)'
_computing_data_reduction        'SAINT v8.37A (Bruker, 2016)'
_computing_molecular_graphics    'Olex2 (Dolomanov et al., 2009)'
_computing_publication_material  'Olex2 (Dolomanov et al., 2009)'
_computing_structure_refinement  'ShelXL (Sheldrick, 2015)'
_computing_structure_solution    'ShelXT (Sheldrick, 2015)'
_diffrn_ambient_temperature      100.0
_diffrn_detector                 'Bruker APEX-II CCD'
_diffrn_detector_area_resol_mean 8.258
_diffrn_detector_type            'CCD Area Detector'
_diffrn_measured_fraction_theta_full 1.000
_diffrn_measured_fraction_theta_max 0.999
_diffrn_measurement_device       'Kappa Four-Circle Diffractometer'
_diffrn_measurement_device_type  'Bruker APEX II Ultra'
_diffrn_measurement_method       '\w and \f scans'
_diffrn_radiation_monochromator  'Double Bounce Multilayer Mirrors'
_diffrn_radiation_probe          x-ray
_diffrn_radiation_type           MoK\a
_diffrn_radiation_wavelength     0.71073
_diffrn_radiation_xray_symbol    K-L~3~
_diffrn_reflns_av_R_equivalents  0.0475
_diffrn_reflns_av_unetI/netI     0.0302
_diffrn_reflns_Laue_measured_fraction_full 1.000
_diffrn_reflns_Laue_measured_fraction_max 0.999
_diffrn_reflns_limit_h_max       9
_diffrn_reflns_limit_h_min       -9
_diffrn_reflns_limit_k_max       11
_diffrn_reflns_limit_k_min       -11
_diffrn_reflns_limit_l_max       15
_diffrn_reflns_limit_l_min       -12
_diffrn_reflns_number            25445
_diffrn_reflns_point_group_measured_fraction_full 1.000
_diffrn_reflns_point_group_measured_fraction_max 0.994
_diffrn_reflns_theta_full        25.000
_diffrn_reflns_theta_max         28.300
_diffrn_reflns_theta_min         1.814
_diffrn_source                   'Micro Focus Rotating Anode'
_diffrn_source_type              'Bruker TXS'
_diffrn_standards_number         0
_exptl_absorpt_coefficient_mu    0.448
_exptl_absorpt_correction_T_max  0.0891
_exptl_absorpt_correction_T_min  0.0635
_exptl_absorpt_correction_type   multi-scan
_exptl_absorpt_process_details
'SADABS-2016/2 (Bruker,2016/2) was used for absorption correction. wR2(int) was 0.1057 before and 0.0817 after correction. The Ratio of minimum to maximum transmission is 0.7127. The \l/2 correction factor is Not present.'
_exptl_crystal_colour            Colorless
_exptl_crystal_colour_primary    Colorless
_exptl_crystal_density_diffrn    1.350
_exptl_crystal_description       Block
_exptl_crystal_F_000             308
_exptl_crystal_size_max          0.213
_exptl_crystal_size_mid          0.207
_exptl_crystal_size_min          0.128
_refine_diff_density_max         0.239
_refine_diff_density_min         -0.193
_refine_diff_density_rms         0.043
_refine_ls_abs_structure_details
;
 Flack x determined using 1605 quotients [(I+)-(I-)]/[(I+)+(I-)]
 (Parsons, Flack and Wagner, Acta Cryst. B69 (2013) 249-259).
;
_refine_ls_abs_structure_Flack   0.02(2)
_refine_ls_extinction_method     none
_refine_ls_goodness_of_fit_ref   1.063
_refine_ls_hydrogen_treatment    mixed
_refine_ls_matrix_type           full
_refine_ls_number_parameters     187
_refine_ls_number_reflns         3572
_refine_ls_number_restraints     7
_refine_ls_restrained_S_all      1.067
_refine_ls_R_factor_all          0.0264
_refine_ls_R_factor_gt           0.0260
_refine_ls_shift/su_max          0.000
_refine_ls_shift/su_mean         0.000
_refine_ls_structure_factor_coef Fsqd
_refine_ls_weighting_details
'w=1/[\s^2^(Fo^2^)+(0.0376P)^2^+0.0706P] where P=(Fo^2^+2Fc^2^)/3'
_refine_ls_weighting_scheme      calc
_refine_ls_wR_factor_gt          0.0652
_refine_ls_wR_factor_ref         0.0655
_reflns_Friedel_coverage         0.871
_reflns_Friedel_fraction_full    1.000
_reflns_Friedel_fraction_max     0.989
_reflns_number_gt                3508
_reflns_number_total             3572
_reflns_threshold_expression     'I > 2\s(I)'
_cod_data_source_file            ol7b02177_si_012.cif
_cod_data_source_block           NIH26
_cod_depositor_comments
;
The following automatic conversions were performed:

'_diffrn_radiation_probe' value 'X-ray' changed to 'x-ray' according
to
/home/data/users/saulius/crontab/automatic-downloads/current/ACS/lib/dictionaries/cif_core.dic
dictionary named 'cif_core.dic' version 2.4.2 from 2011-04-26.

Automatic conversion script
Id: cif_fix_values 4973 2017-02-22 13:04:09Z antanas 
;
_cod_database_code               1547046
_shelx_shelxl_version_number     2016/6
_shelx_space_group_comment
;
The symmetry employed for this shelxl refinement is uniquely defined
by the following loop, which should always be used as a source of
symmetry information in preference to the above space-group names.
They are only intended as comments.
;
_shelx_estimated_absorpt_t_max   0.945
_shelx_estimated_absorpt_t_min   0.911
_olex2_refinement_description
;
1. Fixed Uiso
 At 1.2 times of:
  All C(H) groups, All C(H,H) groups
2. Restrained distances
 O1S-H1SB = O1S-H1SA = N1-H1A = N1-H1C = N1-H1B = O2-H2
 0.95 with sigma of 0.02
3.a Ternary CH refined with riding coordinates:
 C11(H11)
3.b Secondary CH2 refined with riding coordinates:
 C9(H9A,H9B), C10(H10A,H10B), C12(H12A,H12B)
3.c Aromatic/amide H refined with riding coordinates:
 C2(H2A), C3(H3), C4(H4), C5(H5)
;
_shelx_res_file
;
TITL nih26_a.res in P2(1)
    nih26.res
    created by SHELXL-2016/6 at 14:38:42 on 22-Mar-2017
REM Old TITL NIH in P2(1)
REM SHELXT solution in P2(1)
REM R1 0.066, Rweak 0.032, Alpha 0.001, Orientation as input
REM Flack x = 0.029 ( 0.021 ) from Parsons' quotients
REM Formula found by SHELXT: H1c O4 Cl1
CELL 0.71073 7.4047 8.7079 11.7729 90 107.542 90
ZERR 2 0.0004 0.0005 0.0006 0 0.002 0
LATT -1
SYMM -X,0.5+Y,-Z
SFAC C H Cl N O
UNIT 24 34 4 2 6
EQIV $1 1-X,-0.5+Y,-Z
EQIV $2 -X,-0.5+Y,-Z
EQIV $3 +X,-1+Y,+Z
EQIV $4 -1+X,-1+Y,+Z
DFIX 0.95 O1S H1Sb O1S H1Sa N1 H1a N1 H1c N1 H1b O2 H2

L.S. 10
PLAN  20
SIZE 0.213 0.207 0.128
TEMP -173.15
HTAB N1 O2_$1
HTAB N1 O1S
HTAB O1S O1_$2
HTAB O2 Cl2
HTAB N1 Cl2_$3
HTAB O1S Cl2_$4
BOND $H
ACTA 50
fmap 2
REM <olex2.extras>
REM <HklSrc "%.\\NIH26.hkl">
REM </olex2.extras>

WGHT    0.037600    0.070600
FVAR       1.17814
CL1   3    0.108233    0.306542    0.325321    11.00000    0.01853    0.03569 =
         0.02061   -0.00345    0.00902   -0.00413
O1    5    0.096438    0.373641    0.053813    11.00000    0.01850    0.02070 =
         0.01800    0.00069    0.00156    0.00009
O2    5    0.678570    0.688611    0.100463    11.00000    0.02320    0.01788 =
         0.01896   -0.00069    0.00995   -0.00429
H2    2    0.708546    0.782713    0.129873    11.00000    0.03538
N1    4    0.393914    0.204031    0.151348    11.00000    0.01749    0.01475 =
         0.01489   -0.00108    0.00509    0.00014
H1A   2    0.288996    0.157834    0.165344    11.00000    0.01830
H1B   2    0.504752    0.150407    0.180443    11.00000    0.02174
H1C   2    0.369023    0.199841    0.068599    11.00000    0.02624
C1    1    0.344677    0.353444    0.394536    11.00000    0.01909    0.01954 =
         0.01716   -0.00228    0.00472   -0.00078
C2    1    0.400326    0.364713    0.518165    11.00000    0.03095    0.03021 =
         0.01773   -0.00140    0.00958   -0.00264
AFIX  43
H2A   2    0.310783    0.351614    0.560637    11.00000   -1.20000
AFIX   0
C3    1    0.589677    0.395546    0.578640    11.00000    0.03541    0.03062 =
         0.01281   -0.00029    0.00174   -0.00351
AFIX  43
H3    2    0.629847    0.404843    0.662961    11.00000   -1.20000
AFIX   0
C4    1    0.718433    0.412518    0.516173    11.00000    0.02527    0.03028 =
         0.02003    0.00022   -0.00231   -0.00260
AFIX  43
H4    2    0.848023    0.430917    0.557663    11.00000   -1.20000
AFIX   0
C5    1    0.659566    0.402841    0.392774    11.00000    0.01769    0.02652 =
         0.01949    0.00118    0.00388   -0.00105
AFIX  43
H5    2    0.750215    0.415292    0.351042    11.00000   -1.20000
AFIX   0
C6    1    0.469956    0.375190    0.328048    11.00000    0.01792    0.01571 =
         0.01363   -0.00037    0.00343    0.00099
C7    1    0.408213    0.367372    0.191665    11.00000    0.01476    0.01349 =
         0.01428   -0.00078    0.00401    0.00011
C8    1    0.215850    0.443559    0.129686    11.00000    0.01614    0.01816 =
         0.01373    0.00150    0.00625    0.00120
C9    1    0.205626    0.612151    0.154238    11.00000    0.01864    0.01689 =
         0.02094   -0.00032    0.00647    0.00262
AFIX  23
H9A   2    0.237584    0.630763    0.241009    11.00000   -1.20000
H9B   2    0.076413    0.651692    0.115211    11.00000   -1.20000
AFIX   0
C10   1    0.350443    0.692770    0.103247    11.00000    0.02029    0.01475 =
         0.02130    0.00265    0.00712    0.00187
AFIX  23
H10A  2    0.310285    0.681018    0.015536    11.00000   -1.20000
H10B  2    0.353734    0.803848    0.121684    11.00000   -1.20000
AFIX   0
C11   1    0.548295    0.624781    0.155841    11.00000    0.01794    0.01707 =
         0.01493   -0.00095    0.00655   -0.00112
AFIX  13
H11   2    0.594084    0.646250    0.243317    11.00000   -1.20000
AFIX   0
C12   1    0.545766    0.451114    0.135383    11.00000    0.01744    0.01565 =
         0.01464   -0.00015    0.00709    0.00008
AFIX  23
H12A  2    0.675240    0.409823    0.170394    11.00000   -1.20000
H12B  2    0.506820    0.430312    0.048696    11.00000   -1.20000
AFIX   0

CL2   3    0.750773    0.997998    0.232601    11.00000    0.01726    0.02016 =
         0.02203   -0.00086    0.00672    0.00061
O1S   5    0.120990   -0.000202    0.161427    11.00000    0.01651    0.02243 =
         0.01943   -0.00347    0.00465   -0.00263
H1SA  2    0.066227   -0.038193    0.090313    11.00000    0.03299
H1SB  2    0.028755    0.015163    0.195559    11.00000    0.05510
HKLF 4




REM  nih26_a.res in P2(1)
REM R1 =  0.0260 for    3508 Fo > 4sig(Fo)  and  0.0264 for all    3572 data
REM    187 parameters refined using      7 restraints

END

WGHT      0.0376      0.0706

REM Highest difference peak  0.239,  deepest hole -0.193,  1-sigma level  0.043
Q1    1   0.5484  0.5349  0.1541  11.00000  0.05    0.24
Q2    1   0.2011  0.5257  0.1465  11.00000  0.05    0.23
Q3    1   0.3068  0.4050  0.1661  11.00000  0.05    0.20
Q4    1   0.4646  0.4169  0.1646  11.00000  0.05    0.19
Q5    1   0.4292  0.3751  0.2570  11.00000  0.05    0.18
Q6    1   0.4302  0.3147  0.3728  11.00000  0.05    0.17
Q7    1   0.4531  0.6478  0.1331  11.00000  0.05    0.17
Q8    1   0.6723  0.9127  0.2595  11.00000  0.05    0.17
Q9    1   0.2869  0.6437  0.1303  11.00000  0.05    0.16
Q10   1   0.7940  1.0985  0.2439  11.00000  0.05    0.16
Q11   1   0.4963  0.3639  0.5468  11.00000  0.05    0.16
Q12   1   0.9728  0.4443  0.3626  11.00000  0.05    0.16
Q13   1   0.6467  0.3654  0.5388  11.00000  0.05    0.16
Q14   1   0.9776  0.6577  0.3785  11.00000  0.05    0.16
Q15   1   0.7838  0.9023  0.2456  11.00000  0.05    0.15
Q16   1  -0.0086  0.4030  0.0678  11.00000  0.05    0.15
Q17   1   0.5585  0.4004  0.3632  11.00000  0.05    0.15
Q18   1   0.6098  0.6589  0.1291  11.00000  0.05    0.15
Q19   1   0.6937  0.3785  0.4568  11.00000  0.05    0.14
Q20   1   0.0860  0.4126  0.3203  11.00000  0.05    0.14
;
_shelx_res_checksum              28934
_shelx_hkl_file
;
  -1   0   0 2664.83  183.28
  -1   0   0 2897.41  182.98
  -1   0   0 3120.39  181.38
   1   0   0 2881.31  183.48
   1   0   0 2812.12  183.98
   1   0   0 2768.62  184.28
   1   0   0 2867.41  183.28
   1   0   0 2757.42  184.28
   1   0   0 2788.82  185.58
   1   0   0 2830.82  183.48
   1   0   0 3159.08  183.68
  -1   0   0 2696.53  182.28
  -1   0   0 2865.51  183.08
  -1   0   0 2850.71  183.48
  -1   0   0 2612.34  182.28
  -1   0   0 2750.82  183.68
   2   0   0  867.71   54.59
   2   0   0  872.21   55.09
   2   0   0  853.51   54.69
   2   0   0  812.42   54.79
  -2   0   0  850.01   54.89
  -2   0   0  840.02   54.69
  -2   0   0  881.41   53.89
  -2   0   0  825.02   54.49
   2   0   0  825.22   54.69
  -2   0   0  806.82   54.69
  -2   0   0  838.32   54.39
  -2   0   0  841.82   54.99
   2   0   0  857.81   55.09
  -3   0   0   12.90    2.60
   3   0   0    8.20    1.90
  -3   0   0    7.50    2.10
   3   0   0    5.90    1.90
   3   0   0    5.10    2.00
   3   0   0    5.60    1.80
   3   0   0    6.90    1.90
  -3   0   0    8.40    1.80
   3   0   0    6.50    1.90
   3   0   0    4.70    1.50
   3   0   0    7.80    1.70
  -3   0   0    6.80    1.50
  -3   0   0    6.50    1.70
  -3   0   0    6.20    1.70
  -3   0   0    6.10    1.90
  -3   0   0    8.20    1.10
   3   0   0   11.30    2.30
   4   0   0  707.93   49.50
   4   0   0  725.13   49.70
  -4   0   0  767.02   48.90
   4   0   0  718.33   51.09
  -4   0   0  737.53   50.09
  -4   0   0  717.93   48.70
  -4   0   0  741.93   49.80
  -4   0   0  755.82   49.80
  -4   0   0  710.83   47.60
  -4   0   0  820.32   49.50
   4   0   0  721.93   48.80
   4   0   0  820.92   49.80
   4   0   0  752.42   50.19
   4   0   0  717.23   49.40
   4   0   0  727.03   50.19
  -5   0   0  345.07   25.30
   5   0   0  358.86   27.20
   5   0   0  376.56   26.30
  -5   0   0  370.76   27.00
  -5   0   0  390.46   26.90
  -5   0   0  371.26   23.80
   5   0   0  377.26   30.50
   5   0   0  354.86   26.50
   5   0   0  349.77   26.90
   5   0   0  432.06   27.90
  -5   0   0  351.46   25.90
  -6   0   0  738.13   49.50
   6   0   0  725.43   51.79
   6   0   0  697.23   50.89
   6   0   0  723.73   51.59
   6   0   0  773.32   49.70
   6   0   0  713.03   51.69
   6   0   0  822.62   51.39
   6   0   0  763.42   50.79
   7   0   0    9.80    3.40
  -7   0   0   16.70    3.50
  -7   0   0   10.10    3.80
   7   0   0   21.20    4.80
   7   0   0   18.30    4.60
   7   0   0   15.40    4.30
   7   0   0   21.00    4.90
   7   0   0   17.20    4.70
   8   0   0  210.08   19.30
   8   0   0  269.57   20.20
   8   0   0  208.08   18.70
   8   0   0  215.68   19.90
   8   0   0  236.88   20.70
   9   0   0  447.16   31.50
   9   0   0  371.26   31.00
   9   0   0  368.36   30.80
   0  -1   0    0.50    0.40
   0  -1   0    0.00    0.40
   0  -1   0    0.50    0.40
   0  -1   0    0.30    0.40
   0  -1   0    0.50    0.50
   0  -1   0   -0.10    0.40
   0  -1   0    0.00    0.30
   0  -1   0    0.50    0.40
   0  -1   0    1.40    0.50
   0   1   0   -0.20    0.60
   0   1   0    0.30    0.40
   0   1   0    0.50    0.40
   0   1   0    0.50    0.50
   0   1   0    0.40    0.40
   1  -1   0 3117.09  205.28
   1  -1   0 3010.20  205.68
   1  -1   0 3022.30  205.28
  -1  -1   0 3033.30  204.58
  -1  -1   0 3473.85  203.68
  -1  -1   0 2908.41  205.38
  -1  -1   0 2908.41  203.28
   1  -1   0 3647.93  204.68
   1  -1   0 3768.82  204.78
  -1  -1   0 2986.80  203.98
  -1  -1   0 3000.50  205.58
  -1  -1   0 3128.19  203.38
   1  -1   0 3428.66  206.18
   1  -1   0 2906.31  203.28
   1   1   0 3034.20  182.88
   1   1   0 2791.22  185.78
  -1   1   0 2517.45  183.08
  -1   1   0 2962.50  185.68
  -1   1   0 2988.30  184.78
   1   1   0 2953.00  185.38
  -1   1   0 2899.41  186.18
  -1   1   0 2701.73  184.78
   1   1   0 2865.21  185.38
   1   1   0 2861.21  184.28
   1   1   0 2822.22  184.18
   1   1   0 3017.40  186.48
  -1   1   0 2862.01  184.18
  -1   1   0 2804.02  183.48
  -2  -1   0  680.13   45.20
  -2  -1   0  746.33   45.60
  -2  -1   0  674.73   45.50
   2  -1   0  692.43   45.00
  -2  -1   0  774.12   45.60
   2  -1   0  645.54   45.20
  -2  -1   0  749.13   44.30
  -2  -1   0  668.73   45.10
   2  -1   0  693.63   45.20
   2  -1   0  676.33   45.10
   2  -1   0  668.73   45.70
  -2  -1   0  703.53   45.60
  -2  -1   0  677.03   45.60
   2  -1   0  668.43   45.00
  -2  -1   0  667.73   45.30
   2   1   0  684.83   46.60
   2   1   0  664.63   47.40
   2   1   0  713.73   46.80
   2   1   0  694.23   47.00
  -2   1   0  803.62   46.40
  -2   1   0  703.43   47.20
   2   1   0  793.42   47.40
   2   1   0  690.03   46.90
   2   1   0  693.23   46.50
  -2   1   0  773.52   46.80
  -2   1   0  674.83   46.30
  -2   1   0  699.63   46.90
  -2   1   0  712.63   46.20
  -2   1   0  687.53   46.20
  -3  -1   0 3325.97  203.18
   3  -1   0 3241.88  205.28
   3  -1   0 3155.28  203.68
   3  -1   0 3136.49  202.78
   3  -1   0 3151.78  202.98
   3  -1   0 3421.06  204.88
  -3  -1   0 3119.19  202.98
   3  -1   0 3099.39  203.18
   3  -1   0 3294.77  204.18
  -3  -1   0 3169.18  203.28
  -3  -1   0 3121.59  203.08
  -3  -1   0 2983.40  203.18
  -3  -1   0 3162.28  202.68
  -3  -1   0 3054.09  202.98
   3   1   0 3220.58  205.48
  -3   1   0 3222.98  204.38
  -3   1   0 3214.98  204.68
   3   1   0 3075.69  205.78
  -3   1   0 3142.29  204.78
   3   1   0 3160.28  205.38
   3   1   0 3182.18  205.38
  -3   1   0 3262.27  205.88
   3   1   0 3165.28  206.58
   3   1   0 3155.88  205.38
  -3   1   0 3366.96  205.18
   3   1   0 3380.36  205.48
  -3   1   0 3161.58  205.18
  -4  -1   0   36.80    4.80
   4  -1   0   46.50    4.80
   4  -1   0   42.70    5.40
   4  -1   0   59.29    5.40
  -4  -1   0   39.40    4.90
   4  -1   0   48.70    6.10
  -4  -1   0   47.80    5.50
  -4  -1   0   44.50    5.10
  -4  -1   0   41.40    4.70
  -4  -1   0   42.00    5.10
   4  -1   0   44.20    4.90
   4  -1   0   40.90    4.90
  -4  -1   0   42.70    4.60
   4  -1   0   45.10    5.60
   4   1   0   39.50    4.80
   4   1   0   51.39    5.50
  -4   1   0   55.69    5.20
  -4   1   0   44.30    4.50
   4   1   0   39.00    5.00
  -4   1   0   41.80    5.10
  -4   1   0   39.30    5.30
  -4   1   0   41.10    4.00
   4   1   0   42.00    5.10
   4   1   0   40.50    4.90
  -4   1   0   43.70    4.90
   4   1   0   38.50    5.10
  -4   1   0   52.39    4.80
   4   1   0   42.50    5.40
   4   1   0   39.40    5.90
   4   1   0   45.70    5.30
   5  -1   0  356.56   22.40
   5  -1   0  324.47   26.00
  -5  -1   0  320.67   24.40
   5  -1   0  377.26   24.30
   5  -1   0  325.07   25.00
  -5  -1   0  333.57   24.70
   5  -1   0  316.27   24.10
  -5  -1   0  326.17   24.10
   5  -1   0  381.16   25.80
  -5  -1   0  321.27   23.50
  -5  -1   0  311.47   23.90
  -5   1   0  326.37   24.30
   5   1   0  312.07   24.50
   5   1   0  314.47   24.20
  -5   1   0  376.06   22.70
  -5   1   0  315.37   23.60
   5   1   0  310.17   25.10
   5   1   0  362.96   24.70
   5   1   0  335.27   24.20
   5   1   0  374.66   25.50
  -5   1   0  330.17   23.20
  -5   1   0  325.57   25.10
   6  -1   0  347.67   28.00
  -6  -1   0  362.26   26.10
  -6  -1   0  387.46   27.90
   6  -1   0  364.76   27.30
   6  -1   0  344.07   27.00
   6  -1   0  377.56   24.90
  -6  -1   0  355.86   26.80
   6  -1   0  377.86   27.00
   6  -1   0  386.06   28.50
   6  -1   0  451.95   29.10
   6   1   0  349.17   29.80
   6   1   0  361.66   29.70
   6   1   0  470.05   30.20
   6   1   0  368.56   29.30
   6   1   0  465.15   29.20
  -6   1   0  371.16   26.50
  -6   1   0  416.46   29.40
   6   1   0  430.26   29.70
  -6   1   0  445.86   28.10
  -6   1   0  402.46   28.30
   6   1   0  359.86   28.90
  -7  -1   0  643.04   47.10
  -7  -1   0  641.14   45.80
   7  -1   0  779.72   47.70
   7  -1   0  723.93   48.40
   7  -1   0  590.04   47.50
   7   1   0  576.04   42.40
  -7   1   0  579.64   39.90
   7   1   0  607.24   43.00
   7   1   0  594.94   42.00
   7   1   0  557.44   41.20
  -7   1   0  598.04   41.50
   7   1   0  581.54   41.80
   8  -1   0  113.19   12.90
   8  -1   0  111.09   11.50
   8  -1   0  121.79   13.10
   8  -1   0  114.49   11.80
   8  -1   0  116.79   12.60
   8   1   0  117.59   13.30
   8   1   0  109.99   12.70
   8   1   0  110.49   12.20
   8   1   0  125.19   12.20
   8   1   0  106.59   11.50
   9  -1   0   40.50    7.70
   9  -1   0   26.20    6.60
   9  -1   0   34.90    6.90
   9   1   0   28.10    6.60
   9   1   0   34.20    6.80
   9   1   0   37.30    7.30
   0  -2   0 6430.76  403.46
   0  -2   0 6466.05  405.16
   0  -2   0 6229.38  404.26
   0  -2   0 6057.09  403.36
   0  -2   0 6447.76  403.26
   0  -2   0 5859.51  403.56
   0   2   0 6096.09  413.46
   0   2   0 6282.27  413.86
   0   2   0 6480.25  414.76
   0   2   0 6481.05  413.46
   0   2   0 6282.37  413.46
   0   2   0 6542.65  416.76
   0   2   0 6695.63  413.46
   1  -2   0   59.89    5.20
   1  -2   0   78.69    5.10
  -1  -2   0   56.79    5.30
   1  -2   0   61.09    5.00
   1  -2   0   62.59    5.70
  -1  -2   0   65.39    5.30
  -1  -2   0   62.69    5.60
   1  -2   0   61.79    5.20
   1  -2   0   63.49    5.20
   1  -2   0   65.29    4.60
  -1  -2   0   63.09    6.00
  -1  -2   0   65.09    5.60
  -1  -2   0   61.69    5.60
  -1  -2   0   78.89    6.00
   1  -2   0   64.09    5.50
   1   2   0   64.79    5.30
  -1   2   0   64.49    5.40
  -1   2   0   64.99    5.30
   1   2   0   73.79    6.60
  -1   2   0   63.99    5.90
   1   2   0   66.59    5.40
  -1   2   0   75.79    4.90
  -1   2   0   67.19    5.40
   1   2   0   72.99    5.90
   1   2   0   67.19    5.70
   1   2   0   61.69    5.50
  -1   2   0   59.89    5.10
  -1   2   0   65.69    5.60
   1   2   0   65.09    5.70
  -1   2   0   67.29    5.70
   1   2   0   63.69    5.60
  -1   2   0   67.99    5.30
   1   2   0   63.09    5.80
   2  -2   0 1026.90   66.39
   2  -2   0 1032.70   66.59
  -2  -2   0  994.80   66.09
  -2  -2   0 1056.19   66.89
   2  -2   0 1031.60   67.49
  -2  -2   0  982.90   66.89
   2  -2   0 1034.50   67.39
  -2  -2   0 1002.80   67.09
  -2  -2   0 1063.59   67.29
   2  -2   0 1122.79   66.69
  -2  -2   0 1026.50   67.49
   2  -2   0 1009.80   66.59
   2  -2   0 1081.09   66.79
  -2  -2   0  924.41   66.29
   2   2   0 1070.89   69.59
   2   2   0 1048.70   69.39
   2   2   0 1101.59   69.49
   2   2   0 1050.89   69.39
  -2   2   0 1068.99   68.69
  -2   2   0 1037.70   69.79
  -2   2   0 1089.49   68.09
  -2   2   0 1047.40   68.69
  -2   2   0 1068.29   69.09
   2   2   0 1089.99   70.19
  -2   2   0 1107.89   68.99
  -2   2   0 1043.50   68.79
   2   2   0 1057.69   70.19
   2   2   0 1065.69   69.69
  -2   2   0 1020.00   68.79
   2   2   0 1050.59   69.29
  -3  -2   0  525.55   35.50
   3  -2   0  556.54   36.30
   3  -2   0  499.75   34.60
  -3  -2   0  487.25   34.80
  -3  -2   0  516.05   35.40
   3  -2   0  526.25   34.70
  -3  -2   0  505.25   35.20
  -3  -2   0  515.35   35.20
  -3  -2   0  501.05   35.40
   3  -2   0  504.05   35.20
   3  -2   0  502.45   35.00
   3  -2   0  612.44   35.10
  -3  -2   0  527.65   35.80
  -3  -2   0  515.95   33.70
   3  -2   0  493.05   34.50
   3  -2   0  520.65   35.00
   3   2   0  536.65   37.20
  -3   2   0  510.65   36.50
  -3   2   0  511.85   36.40
   3   2   0  563.84   37.30
   3   2   0  533.85   37.20
   3   2   0  525.15   38.10
  -3   2   0  557.34   36.90
  -3   2   0  629.44   36.70
   3   2   0  572.84   37.60
   3   2   0  513.55   37.50
  -3   2   0  549.05   36.40
  -3   2   0  561.64   36.30
   3   2   0  545.05   37.80
   4  -2   0 2107.99  140.19
  -4  -2   0 2135.69  139.59
   4  -2   0 2215.18  141.49
   4  -2   0 2102.09  139.69
  -4  -2   0 2148.29  140.49
   4  -2   0 2213.38  140.09
   4  -2   0 2186.88  139.59
  -4  -2   0 2085.39  139.59
  -4  -2   0 2180.48  140.49
  -4  -2   0 2183.78  140.59
  -4  -2   0 2190.48  138.29
  -4  -2   0 2149.98  140.49
   4  -2   0 2206.38  139.79
   4  -2   0 2166.98  138.99
   4  -2   0 2181.68  141.29
  -4  -2   0 2186.28  140.19
  -4  -2   0 2205.98  140.19
  -4   2   0 2192.28  141.29
   4   2   0 2192.68  141.19
   4   2   0 2136.99  140.49
  -4   2   0 2187.88  139.99
   4   2   0 2349.36  141.19
  -4   2   0 2208.88  139.29
  -4   2   0 2178.18  139.49
  -4   2   0 1932.31  139.49
  -4   2   0 2139.09  139.29
   4   2   0 2178.88  140.49
   4   2   0 2161.98  142.19
   5  -2   0  238.78   18.60
   5  -2   0  241.58   19.70
   5  -2   0  269.37   20.40
  -5  -2   0  255.57   18.70
  -5  -2   0  261.17   19.60
  -5  -2   0  243.08   18.90
  -5  -2   0  255.07   18.30
   5  -2   0  215.78   18.80
   5  -2   0  250.77   18.60
   5  -2   0  252.57   18.50
   5   2   0  271.07   21.10
   5   2   0  270.67   21.10
   5   2   0  278.87   21.90
   5   2   0  260.37   21.30
  -5   2   0  294.97   20.10
  -5   2   0  266.07   19.50
   5   2   0  266.77   20.70
  -5   2   0  323.77   21.00
   5   2   0  270.67   21.00
   5   2   0  266.47   20.50
  -5   2   0  255.87   19.20
  -6  -2   0  334.37   26.90
  -6  -2   0  388.96   26.90
   6  -2   0  352.36   27.80
  -6  -2   0  415.46   26.70
  -6  -2   0  325.97   26.00
   6  -2   0  346.07   26.40
  -6  -2   0  334.27   25.40
   6  -2   0  423.66   28.00
   6  -2   0  343.17   26.40
   6  -2   0  367.66   26.20
  -6   2   0  336.27   25.70
   6   2   0  371.06   26.80
  -6   2   0  349.27   24.40
   6   2   0  419.86   28.30
   6   2   0  342.17   25.90
  -6   2   0  325.97   24.60
   6   2   0  336.67   26.90
   6   2   0  344.87   26.10
  -6   2   0  343.47   24.10
   6   2   0  360.46   26.10
   7  -2   0    7.20    3.70
   7  -2   0    8.50    3.20
   7  -2   0    5.00    2.40
   7  -2   0    5.30    2.90
  -7  -2   0    4.40    3.10
   7  -2   0    4.80    3.50
  -7  -2   0    5.60    2.80
   7   2   0    3.60    2.40
   7   2   0    5.90    3.00
  -7   2   0    5.30    2.40
  -7   2   0    9.40    3.30
   7   2   0    5.80    3.20
   7   2   0    6.00    3.10
   8  -2   0   82.29   10.00
   8  -2   0   80.49   10.00
  -8  -2   0   78.49    8.60
   8  -2   0   79.09   10.20
   8  -2   0   74.49    9.40
   8  -2   0   73.99    9.50
   8   2   0   76.29    9.30
   8   2   0   74.19   10.30
   8   2   0   77.89   10.00
   8   2   0   79.09   10.00
   9  -2   0   33.80    6.70
   9  -2   0   23.60    6.40
   9  -2   0   21.90    6.40
   9   2   0   33.40    6.90
   9   2   0   23.80    6.40
   0  -3   0    0.00    0.90
   0  -3   0    1.20    1.00
   0  -3   0   -0.10    1.00
   0  -3   0    0.00    1.00
   0  -3   0    0.90    0.80
   0  -3   0    1.20    1.50
   0  -3   0    0.70    1.40
   0  -3   0    0.30    1.00
   0   3   0    0.50    1.30
   0   3   0   -0.50    0.90
   0   3   0   -0.20    1.40
   0   3   0   -0.30    1.10
   0   3   0    0.90    1.60
   0   3   0    0.90    0.90
   0   3   0    0.40    1.20
   0   3   0    0.00    1.20
  -1  -3   0  514.65   35.60
  -1  -3   0  483.15   35.50
  -1  -3   0  507.75   35.50
   1  -3   0  512.95   35.80
   1  -3   0  523.95   35.40
  -1  -3   0  513.45   35.60
  -1  -3   0  628.94   35.20
   1  -3   0  524.05   35.10
   1  -3   0  549.25   35.80
  -1  -3   0  581.34   35.90
  -1  -3   0  510.35   35.30
   1  -3   0  519.95   35.10
  -1  -3   0  517.45   36.10
  -1   3   0  535.35   36.60
  -1   3   0  530.35   36.00
  -1   3   0  530.45   35.70
  -1   3   0  541.35   36.40
  -1   3   0  550.34   36.00
   1   3   0  541.15   35.70
   1   3   0  546.25   36.40
   1   3   0  521.35   37.40
  -1   3   0  514.25   36.10
  -1   3   0  539.35   36.20
  -1   3   0  562.14   34.80
   1   3   0  539.65   36.10
   1   3   0  521.55   36.20
   1   3   0  537.05   36.40
  -1   3   0  590.94   35.90
  -2  -3   0 1449.15   97.09
  -2  -3   0 1462.45   97.29
   2  -3   0 1439.36   96.39
   2  -3   0 1422.46   96.49
  -2  -3   0 1520.45   97.29
   2  -3   0 1716.03   95.99
   2  -3   0 1484.55   97.79
   2  -3   0 1459.45   96.99
   2  -3   0 1411.16   96.29
  -2  -3   0 1457.75   96.99
  -2  -3   0 1485.45   97.89
  -2  -3   0 1483.45   97.29
   2  -3   0 1445.26   97.29
  -2  -3   0 1497.05   97.29
  -2  -3   0 1687.73   96.59
  -2   3   0 1488.55   97.19
  -2   3   0 1437.06   97.19
   2   3   0 1475.15   97.99
   2   3   0 1542.45   98.19
  -2   3   0 1503.35   96.89
  -2   3   0 1752.32   96.79
   2   3   0 1402.46   97.29
   2   3   0 1525.55   98.59
   2   3   0 1477.35   98.29
  -2   3   0 1494.05   97.29
  -2   3   0 1467.05   97.79
   2   3   0 1488.05   97.99
   2   3   0 1559.94   98.09
   2   3   0 1619.74   97.19
  -2   3   0 1469.25   98.39
   2   3   0 1453.95   98.99
   2   3   0 1477.15   98.19
  -2   3   0 1504.05   97.29
   3  -3   0 3403.86  231.38
  -3  -3   0 3442.06  230.98
   3  -3   0 3502.25  230.18
   3  -3   0 3528.35  230.38
  -3  -3   0 4104.49  231.38
  -3  -3   0 3532.05  229.98
   3  -3   0 3535.95  230.18
  -3  -3   0 3760.62  230.98
  -3  -3   0 3496.45  231.68
   3  -3   0 4158.08  230.48
   3  -3   0 3487.35  231.68
  -3  -3   0 3544.35  229.58
   3  -3   0 3676.33  230.58
   3  -3   0 3567.64  230.58
   3  -3   0 3509.75  230.28
  -3  -3   0 3379.86  230.58
   3   3   0 3561.44  235.38
  -3   3   0 3480.35  234.28
   3   3   0 3640.04  236.38
  -3   3   0 3451.25  234.48
  -3   3   0 3673.83  234.58
   3   3   0 3453.55  235.68
   3   3   0 3588.64  235.38
  -3   3   0 3520.75  235.98
  -3   3   0 3868.31  234.58
   3   3   0 3536.35  236.38
  -3   3   0 3681.83  234.88
   3   3   0 3765.22  235.68
   3   3   0 4047.89  233.98
  -3   3   0 4178.68  234.88
   3   3   0 3630.84  235.88
   3   3   0 3631.24  235.58
  -4  -3   0   83.79    8.00
  -4  -3   0  108.59    9.30
   4  -3   0   90.09    7.90
  -4  -3   0   83.39    8.60
  -4  -3   0   82.59    8.20
  -4  -3   0   81.09    8.40
   4  -3   0   82.49    7.70
  -4  -3   0   90.19    6.70
   4  -3   0   81.59    7.70
   4  -3   0   96.49    9.60
   4  -3   0   86.39    8.30
   4  -3   0   79.19    8.10
  -4  -3   0   83.49    8.70
   4  -3   0   87.59    7.80
  -4  -3   0   89.19    7.80
  -4   3   0   85.39    7.60
   4   3   0   89.49    8.70
   4   3   0   79.79    8.40
   4   3   0   87.79    8.80
  -4   3   0   83.09    8.90
  -4   3   0   81.69    7.50
   4   3   0   84.19    9.00
   4   3   0   89.19    8.70
  -4   3   0   89.29    7.90
   4   3   0   86.09    8.60
   4   3   0  100.89   10.40
   5  -3   0  464.25   33.60
   5  -3   0  503.45   32.20
  -5  -3   0  544.65   33.80
   5  -3   0  456.95   32.70
   5  -3   0  444.56   32.60
   5  -3   0  472.85   32.50
  -5  -3   0  484.45   33.90
  -5  -3   0  466.55   30.20
  -5  -3   0  442.86   32.40
  -5  -3   0  445.86   32.40
  -5  -3   0  439.06   33.50
   5   3   0  456.35   33.20
   5   3   0  461.65   33.90
  -5   3   0  451.95   31.80
   5   3   0  499.55   34.50
   5   3   0  439.86   33.50
   5   3   0  488.15   33.60
  -5   3   0  472.15   32.70
   5   3   0  453.65   33.50
  -5   3   0  454.55   31.90
  -6  -3   0  193.08   17.20
   6  -3   0  208.98   18.40
  -6  -3   0  197.28   16.40
  -6  -3   0  253.27   18.40
   6  -3   0  181.68   16.90
  -6  -3   0  231.28   17.40
   6  -3   0  233.98   17.10
   6  -3   0  193.08   16.50
   6   3   0  205.28   17.70
   6   3   0  203.78   17.30
  -6   3   0  213.38   16.70
  -6   3   0  202.48   15.50
   6   3   0  195.98   16.90
   6   3   0  214.58   17.70
   6   3   0  195.08   17.90
  -6   3   0  202.68   15.60
   7  -3   0   15.60    4.50
   7  -3   0   23.00    4.90
   7  -3   0   10.90    3.30
  -7  -3   0    7.80    3.20
   7  -3   0    6.60    4.20
  -7  -3   0   14.50    3.70
  -7   3   0   12.20    2.90
   7   3   0   12.90    4.20
   7   3   0   18.00    4.80
  -7   3   0   13.50    4.50
   7   3   0   19.40    4.90
   7   3   0   14.20    4.70
  -8  -3   0  121.69   11.90
   8  -3   0  171.18   15.20
   8  -3   0  118.59   13.00
   8  -3   0  121.29   12.60
   8  -3   0  129.89   13.90
   8  -3   0  115.09   12.10
   8   3   0  120.79   13.40
   8   3   0  138.39   15.30
   8   3   0  139.39   14.30
   8   3   0  155.28   15.00
   9  -3   0   41.20    8.20
   9  -3   0   50.89    8.50
   9  -3   0   73.09   12.50
   9   3   0   46.40    8.60
   0  -4   0 1688.43  106.99
   0  -4   0 1657.73  107.19
   0  -4   0 1671.83  106.39
   0  -4   0 1615.54  106.89
   0  -4   0 1682.13  107.09
   0  -4   0 1647.84  106.69
   0  -4   0 1613.64  106.89
   0  -4   0 1588.44  107.29
   0  -4   0 1677.63  107.39
   0   4   0 1676.23  115.59
   0   4   0 1662.73  115.19
   0   4   0 1701.63  115.09
   0   4   0 1704.33  114.79
   0   4   0 2145.89  114.99
   1  -4   0 2755.72  172.98
   1  -4   0 2761.32  174.18
  -1  -4   0 2710.03  173.48
  -1  -4   0 2690.23  173.28
   1  -4   0 2677.33  173.18
  -1  -4   0 2684.93  173.88
  -1  -4   0 2628.64  173.38
   1  -4   0 2722.03  173.18
  -1  -4   0 2764.82  173.58
   1  -4   0 2710.53  173.08
  -1  -4   0 2737.03  174.28
   1  -4   0 2740.03  173.68
  -1  -4   0 2768.72  172.78
   1  -4   0 2606.94  173.58
  -1  -4   0 2786.32  173.68
   1  -4   0 2440.36  172.88
  -1  -4   0 2665.63  173.48
  -1   4   0 2719.83  175.68
  -1   4   0 2941.91  176.18
  -1   4   0 2733.63  176.68
  -1   4   0 2765.02  175.78
  -1   4   0 2752.92  175.88
  -1   4   0 2711.73  176.48
  -1   4   0 2783.42  175.68
   1   4   0 2778.42  176.38
   1   4   0 2612.64  176.18
   1   4   0 2660.33  177.48
   1   4   0 2707.13  175.48
   1   4   0 2684.03  176.68
   1   4   0 2785.62  176.48
   2  -4   0  873.51   59.69
  -2  -4   0  864.11   59.39
  -2  -4   0  965.40   60.39
  -2  -4   0  877.31   59.29
  -2  -4   0  907.21   59.19
  -2  -4   0  907.61   59.39
   2  -4   0  849.52   58.49
  -2  -4   0  904.41   59.29
   2  -4   0  875.01   58.29
   2  -4   0  911.11   59.29
   2  -4   0  865.71   58.49
   2  -4   0  854.31   59.09
   2  -4   0  893.61   57.09
  -2   4   0  880.41   61.39
   2   4   0  902.21   61.69
  -2   4   0 1007.00   60.89
   2   4   0  846.82   61.59
   2   4   0  844.72   61.19
   2   4   0  875.01   61.29
   2   4   0  903.81   61.59
   2   4   0  870.31   62.59
  -2   4   0  879.01   61.29
  -2   4   0  913.91   60.69
   2   4   0  891.71   60.49
  -2   4   0  962.50   59.49
  -2   4   0  931.41   60.69
  -2   4   0 1027.20   60.69
  -2   4   0 1072.29   60.59
   2   4   0  931.61   61.59
   3  -4   0  447.66   31.30
   3  -4   0  457.35   31.70
   3  -4   0  441.46   32.10
  -3  -4   0  450.25   32.00
  -3  -4   0  460.95   32.80
  -3  -4   0  453.75   30.80
   3  -4   0  456.55   30.90
  -3  -4   0  454.85   32.10
  -3  -4   0  431.16   31.50
   3  -4   0  421.26   31.00
  -3  -4   0  438.26   32.00
   3  -4   0  446.26   31.20
  -3  -4   0  466.35   32.10
  -3  -4   0  459.45   32.10
   3  -4   0  438.06   32.60
   3  -4   0  503.15   30.40
   3   4   0  475.75   33.10
  -3   4   0  498.35   31.70
   3   4   0  453.35   33.70
   3   4   0  441.06   31.90
  -3   4   0  463.85   31.70
  -3   4   0  493.55   30.40
   3   4   0  475.35   31.40
  -3   4   0  463.25   33.30
   3   4   0  441.86   33.00
   3   4   0  425.66   32.50
  -3   4   0  465.85   32.40
   3   4   0  439.66   32.60
  -4  -4   0  380.66   26.30
  -4  -4   0  378.56   27.50
   4  -4   0  371.16   26.80
  -4  -4   0  423.16   27.40
  -4  -4   0  376.46   25.70
   4  -4   0  339.07   27.90
   4  -4   0  350.56   26.30
   4  -4   0  411.66   26.90
   4  -4   0  343.67   26.80
   4  -4   0  374.56   26.50
   4  -4   0  401.56   26.50
  -4  -4   0  359.16   28.00
  -4   4   0  370.06   25.90
   4   4   0  373.96   27.80
  -4   4   0  372.56   26.40
   4   4   0  399.66   27.70
   4   4   0  357.86   27.10
   4   4   0  368.76   27.50
  -4   4   0  348.57   26.50
   4   4   0  383.36   28.10
  -4   4   0  376.36   26.00
   5  -4   0  138.69   11.60
   5  -4   0  123.79   11.40
   5  -4   0  136.99   13.30
  -5  -4   0  136.59   11.20
   5  -4   0  131.09   11.20
  -5  -4   0  139.69   12.90
   5  -4   0  124.99   10.90
  -5  -4   0  129.79   12.10
  -5  -4   0  141.99    9.90
   5  -4   0  135.49   12.00
  -5  -4   0  123.99   12.50
  -5   4   0  150.08   11.50
   5   4   0  126.29   12.90
   5   4   0  146.49   13.40
  -5   4   0  135.99   11.10
   5   4   0  145.89   12.80
   5   4   0  141.49   13.40
  -5   4   0  128.09   11.70
  -5   4   0  135.69   11.80
   6  -4   0  152.38   13.40
  -6  -4   0  165.28   13.30
   6  -4   0  188.68   14.90
   6  -4   0  156.58   12.70
  -6  -4   0  158.28   14.70
   6  -4   0  139.39   14.90
  -6  -4   0  159.58   14.70
  -6  -4   0  153.18   14.00
   6  -4   0  143.19   13.20
   6   4   0  181.88   16.40
  -6   4   0  155.88   13.50
  -6   4   0  190.48   13.40
   6   4   0  150.98   14.80
   6   4   0  159.88   15.20
   6   4   0  156.68   15.20
  -6   4   0  157.28   14.10
  -7  -4   0   10.00    3.70
   7  -4   0   18.70    4.90
  -7  -4   0   18.90    4.40
   7  -4   0   12.80    3.80
   7  -4   0   13.70    5.00
   7  -4   0   10.30    3.70
   7   4   0   10.60    4.10
   7   4   0   13.50    4.70
   7   4   0   13.60    4.80
   7   4   0   19.00    5.10
   8  -4   0  310.57   26.20
   8  -4   0  288.27   23.80
   8  -4   0  347.07   24.40
  -8  -4   0  273.97   22.80
   8  -4   0  287.17   24.70
   8   4   0  297.37   25.70
   8   4   0  301.77   25.90
   8   4   0  307.27   26.20
   8   4   0  369.46   28.10
   0  -5   0    1.80    1.90
   0  -5   0    1.30    1.90
   0   5   0    0.80    1.30
   0   5   0    1.40    1.50
   0   5   0    1.00    1.40
   0   5   0    1.30    1.80
   0   5   0    1.70    1.60
   0   5   0    0.40    1.80
   0   5   0    2.30    2.10
   1  -5   0  504.75   35.60
  -1  -5   0  490.05   36.70
   1  -5   0  599.24   37.00
   1  -5   0  506.85   35.90
  -1  -5   0  485.85   36.10
  -1  -5   0  514.15   36.10
  -1  -5   0  494.75   36.60
   1  -5   0  518.25   35.80
  -1  -5   0  519.35   35.70
  -1  -5   0  512.05   36.20
  -1  -5   0  520.95   36.30
  -1  -5   0  511.65   35.20
   1  -5   0  624.24   37.10
   1  -5   0  513.55   35.90
   1  -5   0  487.95   35.80
   1  -5   0  517.65   37.00
  -1  -5   0  556.04   36.50
  -1  -5   0  531.75   36.40
  -1   5   0  567.94   35.30
  -1   5   0  548.35   37.50
  -1   5   0  533.55   37.90
  -1   5   0  532.05   37.00
  -1   5   0  496.15   37.60
  -1   5   0  540.25   37.40
   1   5   0  562.04   37.50
   1   5   0  550.94   38.50
   1   5   0  620.74   37.10
  -1   5   0  531.55   37.00
   1   5   0  535.15   37.70
   1   5   0  509.85   38.70
  -1   5   0  533.55   37.30
   1   5   0  551.54   37.70
   1   5   0  559.54   37.80
   2  -5   0  192.48   15.60
   2  -5   0  182.28   16.10
  -2  -5   0  206.78   16.10
  -2  -5   0  198.58   15.90
  -2  -5   0  188.08   15.80
   2  -5   0  207.98   15.50
   2  -5   0  203.78   16.10
   2  -5   0  189.58   15.20
  -2  -5   0  226.08   16.30
  -2  -5   0  206.58   16.50
  -2  -5   0  186.08   15.30
  -2  -5   0  206.98   16.90
  -2  -5   0  196.78   15.90
   2   5   0  177.98   14.80
  -2   5   0  173.88   14.20
  -2   5   0  177.98   14.00
   2   5   0  179.68   14.00
   2   5   0  189.98   15.20
   2   5   0  181.98   15.00
   2   5   0  217.38   17.10
  -2   5   0  172.48   14.20
  -2   5   0  222.48   16.10
   2   5   0  176.28   15.10
  -2   5   0  192.08   15.30
   2   5   0  179.88   15.00
  -2   5   0  183.98   12.50
  -2   5   0  185.78   14.10
  -2   5   0  211.08   14.50
   2   5   0  179.98   14.50
  -3  -5   0  850.61   58.49
   3  -5   0  838.32   59.09
   3  -5   0  839.62   57.59
   3  -5   0  962.80   55.99
   3  -5   0  877.71   58.49
  -3  -5   0  801.92   58.99
  -3  -5   0  834.22   57.29
   3  -5   0  839.82   57.19
   3  -5   0  935.01   58.89
   3  -5   0  855.91   57.49
  -3  -5   0  838.62   59.59
   3   5   0  862.31   58.39
  -3   5   0  988.70   58.69
  -3   5   0  818.52   56.99
   3   5   0  886.01   57.19
   3   5   0  842.22   57.29
  -3   5   0  856.11   56.19
  -3   5   0  858.51   57.09
   3   5   0  857.41   58.99
   3   5   0  825.32   58.79
   3   5   0  818.32   58.19
   3   5   0  854.01   58.69
   4  -5   0   79.99    7.00
   4  -5   0  100.39    8.40
  -4  -5   0   76.99    8.80
   4  -5   0   82.39    8.50
  -4  -5   0   70.69    8.80
   4  -5   0   77.39    9.30
   4  -5   0   80.19    8.10
   4  -5   0   99.39    8.50
  -4  -5   0   76.09    7.30
   4  -5   0   85.89    8.60
  -4  -5   0   79.19    7.40
  -4  -5   0   67.19    8.40
   4   5   0   74.89    6.90
  -4   5   0   74.39    7.50
   4   5   0   77.99    8.60
  -4   5   0   79.69    7.40
   4   5   0   73.69    8.70
   4   5   0   64.69    8.10
   4   5   0   75.59    8.00
   4   5   0   75.79    9.00
   4   5   0   73.49    9.10
  -4   5   0   76.29    7.50
   5  -5   0  129.89   12.90
  -5  -5   0  162.98   12.40
   5  -5   0  134.69   12.70
  -5  -5   0  150.48   11.40
   5  -5   0  141.09   14.30
   5  -5   0  182.58   13.20
   5  -5   0  133.09   12.50
   5  -5   0  144.49   12.70
  -5  -5   0  190.38   14.50
   5  -5   0  143.89   12.10
   5   5   0  141.89   13.60
   5   5   0  136.59   13.80
   5   5   0  127.29   12.40
   5   5   0  135.19   13.50
  -5   5   0  177.28   12.20
  -5   5   0  146.59   12.40
  -5   5   0  136.99   11.70
   5   5   0  144.29   13.50
  -6  -5   0  201.78   17.60
  -6  -5   0  186.98   17.20
   6  -5   0  203.48   16.20
  -6  -5   0  188.88   16.40
   6  -5   0  195.58   18.50
  -6   5   0  219.48   17.60
   6   5   0  216.18   17.80
   6   5   0  197.58   18.70
   6   5   0  224.68   18.90
   6   5   0  207.58   18.70
   6   5   0  223.28   19.70
   7  -5   0  211.08   16.70
  -7  -5   0  200.98   18.00
   7  -5   0  184.58   16.30
   7  -5   0  188.38   17.00
  -7  -5   0  179.78   16.30
   7  -5   0  186.68   18.30
   7   5   0  182.38   17.80
   7   5   0  185.78   17.80
   7   5   0  186.68   17.30
   7   5   0  177.88   17.30
   8  -5   0   22.70    6.80
   8  -5   0   31.20    6.00
   8  -5   0   25.60    6.10
   8   5   0   32.70    7.40
   8   5   0   28.80    7.20
   8   5   0   35.30    7.50
   8   5   0   38.70    7.80
   0  -6   0 1073.99   72.09
   0  -6   0 1062.39   71.39
   0  -6   0 1116.19   72.09
   0  -6   0 1081.09   72.19
   0  -6   0 1073.89   71.69
   0  -6   0 1128.29   70.89
   0  -6   0  998.00   71.39
   0   6   0 1096.29   75.59
   0   6   0 1142.79   74.69
   0   6   0 1164.58   74.39
   0   6   0 1151.48   73.29
   0   6   0 1061.49   74.49
   0   6   0 1155.08   76.39
   0   6   0 1116.09   75.79
   0   6   0 1125.89   74.19
  -1  -6   0  542.95   40.90
   1  -6   0  571.54   41.20
   1  -6   0  608.74   41.00
   1  -6   0  587.84   40.40
   1  -6   0  597.04   41.50
  -1  -6   0  576.44   41.30
  -1  -6   0  584.34   41.20
  -1  -6   0  551.74   41.50
  -1  -6   0  592.04   41.00
   1  -6   0  608.54   40.60
   1  -6   0  604.44   41.10
  -1  -6   0  685.83   41.10
  -1  -6   0  570.74   41.10
  -1   6   0  584.74   40.50
  -1   6   0  589.04   37.80
   1   6   0  626.74   39.90
   1   6   0  597.54   40.90
   1   6   0  588.14   41.20
   1   6   0  590.04   40.70
   1   6   0  569.24   39.90
   1   6   0  547.05   41.20
  -1   6   0  583.74   40.10
   1   6   0  605.04   40.70
  -1   6   0  581.94   40.00
  -1   6   0  568.74   40.20
   1   6   0  588.64   40.80
  -1   6   0  580.34   40.80
   2  -6   0  128.69   11.80
  -2  -6   0  107.09   11.70
  -2  -6   0  124.39   12.00
   2  -6   0  119.69   11.20
   2  -6   0  125.49   10.80
  -2  -6   0  129.09   11.70
   2  -6   0  160.68   11.90
  -2  -6   0  123.29   11.30
   2  -6   0  124.59   11.40
   2  -6   0  116.69   12.00
  -2  -6   0  134.49   11.00
   2   6   0  163.58   12.00
  -2   6   0  121.19   12.20
   2   6   0  159.48   12.90
   2   6   0  113.49   11.80
   2   6   0  169.98   14.00
  -2   6   0  164.28   12.30
  -2   6   0  122.19   11.50
  -2   6   0  128.49   11.60
   2   6   0  163.18   13.10
  -2   6   0  127.39   11.90
   3  -6   0  588.74   40.80
  -3  -6   0  593.64   41.70
  -3  -6   0  562.04   42.20
   3  -6   0  625.14   41.10
  -3  -6   0  583.14   41.50
   3  -6   0  575.84   42.10
   3  -6   0  596.74   41.60
   3  -6   0  586.24   40.20
  -3   6   0  586.24   40.30
   3   6   0  571.94   41.70
   3   6   0  596.84   43.80
   3   6   0  582.84   41.50
  -3   6   0  590.44   39.70
  -3   6   0  607.04   40.50
   3   6   0  605.34   42.40
  -3   6   0  574.74   40.10
   3   6   0  586.54   40.30
   4  -6   0  194.18   14.70
   4  -6   0  170.18   14.70
  -4  -6   0  171.08   15.60
  -4  -6   0  213.18   14.30
   4  -6   0  170.38   16.60
  -4  -6   0  180.38   14.20
  -4  -6   0  154.88   15.90
  -4  -6   0  171.98   15.50
   4  -6   0  167.58   14.80
   4  -6   0  182.98   12.80
  -4   6   0  160.68   13.60
   4   6   0  166.98   13.80
   4   6   0  168.68   15.10
  -4   6   0  176.08   13.70
   4   6   0  172.18   13.60
  -4   6   0  154.38   13.20
  -4   6   0  174.68   11.90
   4   6   0  150.98   15.00
   4   6   0  180.08   15.80
   4   6   0  164.58   15.20
   5  -6   0  123.29   12.40
  -5  -6   0  146.29   13.90
  -5  -6   0  128.49   11.10
   5  -6   0  151.38   14.90
  -5  -6   0  124.99   13.00
  -5  -6   0  136.69   14.00
   5  -6   0  128.69   12.30
   5  -6   0  140.59   12.20
   5  -6   0  169.68   13.10
   5   6   0  141.39   12.60
   5   6   0  130.99   13.40
   5   6   0  129.79   13.10
  -5   6   0  133.49   11.40
   5   6   0  140.19   13.80
  -5   6   0  142.39   12.10
   5   6   0  126.99   13.40
  -6  -6   0  194.88   16.50
   6  -6   0  204.98   15.00
   6  -6   0  157.18   14.10
   6  -6   0  164.58   14.70
  -6  -6   0  143.99   15.10
  -6  -6   0  144.39   14.70
   6  -6   0  149.79   16.00
   6  -6   0  156.38   14.30
   6   6   0  158.68   14.90
   6   6   0  158.78   16.00
   6   6   0  164.58   15.60
   6   6   0  186.88   16.80
   6   6   0  157.08   15.80
   7  -6   0    0.40    2.70
   7  -6   0    4.30    4.50
   7  -6   0    4.80    2.90
   7  -6   0    2.00    2.90
  -7  -6   0    3.00    2.90
   7  -6   0    2.40    2.90
  -7  -6   0    3.70    3.70
   7   6   0    1.60    2.80
   7   6   0    0.60    3.30
   7   6   0    3.60    3.80
   7   6   0    3.20    3.50
   7   6   0    7.10    3.70
   8  -6   0  143.49   15.20
  -8  -6   0  190.98   15.80
   8   6   0  138.49   15.90
   8   6   0  156.08   16.30
   0  -7   0    1.90    2.30
   0  -7   0    3.60    2.80
   0  -7   0    1.20    1.90
   0  -7   0    1.60    2.60
   0  -7   0    0.10    1.70
   0  -7   0    3.80    2.90
   0  -7   0    2.00    2.00
   0   7   0    1.70    1.20
   0   7   0    0.30    1.70
   0   7   0    0.60    1.60
   0   7   0    4.10    2.50
  -1  -7   0  711.03   48.20
  -1  -7   0  716.53   48.80
  -1  -7   0  682.33   49.20
   1  -7   0  748.73   49.60
  -1  -7   0  689.03   49.40
   1  -7   0  846.72   50.59
   1  -7   0  681.83   48.50
  -1  -7   0  667.13   48.90
   1  -7   0  691.33   49.40
  -1   7   0  722.93   52.29
  -1   7   0  737.93   52.89
  -1   7   0  695.43   51.29
   1   7   0  707.43   52.99
  -1   7   0  890.31   51.89
   1   7   0  846.52   51.39
   1   7   0  800.92   52.29
  -1   7   0  734.63   48.50
   1   7   0  801.02   51.19
   1   7   0  739.63   51.79
  -1   7   0  730.73   48.60
  -1   7   0  698.93   51.09
  -2  -7   0  559.54   42.50
  -2  -7   0  580.24   41.20
  -2  -7   0  604.84   41.80
   2  -7   0  570.44   42.10
   2  -7   0  640.24   41.80
   2  -7   0  565.34   41.00
   2  -7   0  599.64   42.10
  -2  -7   0  589.04   40.50
   2   7   0  706.03   43.60
  -2   7   0  710.33   43.70
   2   7   0  589.44   42.80
  -2   7   0  584.64   42.40
  -2   7   0  602.04   42.50
   2   7   0  602.34   41.90
   2   7   0  581.54   43.10
   2   7   0  597.74   44.30
  -2   7   0  565.44   41.90
  -2   7   0  608.84   42.10
   3  -7   0  174.38   12.60
  -3  -7   0  154.88   14.70
  -3  -7   0  141.09   11.90
  -3  -7   0  121.89   12.10
  -3  -7   0  118.39   12.50
   3  -7   0  116.19   11.90
   3  -7   0  173.68   14.30
   3  -7   0  123.09   12.50
  -3  -7   0  167.38   14.00
   3  -7   0  126.59   13.30
   3   7   0  117.69   12.60
  -3   7   0  119.09   10.90
   3   7   0  112.09   10.40
   3   7   0  120.69   12.10
  -3   7   0  121.49   10.60
  -3   7   0  123.79   10.30
  -3   7   0  114.19   10.70
   4  -7   0   59.79    7.70
   4  -7   0   62.79    8.30
   4  -7   0   65.39    7.80
   4  -7   0   58.79    9.20
  -4  -7   0   70.69    7.50
   4  -7   0   59.99    7.60
  -4  -7   0   67.19    9.10
  -4  -7   0   65.19    8.60
  -4  -7   0  100.29   10.00
   4  -7   0   63.59    7.40
  -4   7   0   82.89    8.00
   4   7   0   59.29    8.00
   4   7   0   67.99    7.20
   4   7   0   62.29    8.30
   4   7   0   56.39    8.30
  -4   7   0   66.79    7.20
  -4   7   0   58.59    7.70
  -5  -7   0  216.08   18.40
  -5  -7   0  205.28   19.40
   5  -7   0  211.48   17.90
   5  -7   0  236.38   18.10
   5  -7   0  214.88   17.70
  -5  -7   0  211.78   18.70
  -5  -7   0  212.48   16.50
   5  -7   0  210.88   17.20
   5  -7   0  200.88   19.20
   5   7   0  221.38   20.80
  -5   7   0  246.68   18.30
   5   7   0  263.27   19.50
   5   7   0  212.68   20.40
   5   7   0  212.28   20.40
   5   7   0  290.57   21.60
   6  -7   0   52.69    9.50
   6  -7   0   49.80    7.20
  -6  -7   0   42.80    7.50
   6  -7   0   53.69    7.00
  -6  -7   0   44.70    7.70
   6  -7   0   49.00    6.70
   6  -7   0   43.40    7.20
   6   7   0   41.40    6.80
   6   7   0   38.50    7.60
   6   7   0   43.20    7.70
   6   7   0   36.30    7.70
   6   7   0   41.90    7.90
  -7  -7   0   64.09    9.00
   7  -7   0   71.79    9.30
   7  -7   0   75.19    9.20
   7  -7   0   72.79    8.60
   7   7   0   71.09   10.20
   7   7   0   80.19   11.00
   7   7   0   67.79   10.70
   0  -8   0  181.58   14.90
   0  -8   0  150.58   14.50
   0  -8   0  144.79   14.70
   0  -8   0  156.28   14.10
   0  -8   0  184.08   13.90
   0   8   0  142.09   13.70
   0   8   0  159.78   12.30
   0   8   0  209.68   15.40
   0   8   0  194.48   14.90
  -1  -8   0   43.10    5.90
  -1  -8   0   50.29    7.80
  -1  -8   0   58.89    7.20
   1  -8   0   70.19    8.60
  -1  -8   0   63.49    8.00
  -1  -8   0   65.99    7.90
   1  -8   0   46.40    6.90
  -1  -8   0   52.09    7.60
   1  -8   0   49.00    6.70
   1  -8   0   37.70    6.60
  -1   8   0   52.39    6.50
  -1   8   0   46.70    5.90
   1   8   0   45.40    6.20
   1   8   0   42.60    6.10
   1   8   0   48.20    6.00
  -1   8   0   39.70    5.70
   1   8   0   38.80    7.20
   1   8   0   53.39    7.30
  -2  -8   0   11.50    4.30
   2  -8   0   18.40    5.20
  -2  -8   0   24.20    5.40
  -2  -8   0   19.60    4.80
  -2  -8   0   23.90    4.60
   2  -8   0   20.80    4.80
   2  -8   0   14.80    4.60
  -2  -8   0   23.80    6.10
   2  -8   0   13.30    3.90
   2   8   0   15.60    4.20
  -2   8   0   12.00    3.40
   2   8   0   17.40    5.40
   2   8   0   16.10    3.70
  -2   8   0   19.50    4.10
  -2   8   0   19.10    4.60
   2   8   0   17.60    4.10
   2   8   0   19.70    4.90
   3  -8   0   49.80    8.00
   3  -8   0   39.50    5.80
  -3  -8   0   56.69    7.10
  -3  -8   0   40.40    7.20
   3  -8   0   52.89    8.60
   3  -8   0   47.30    6.50
  -3  -8   0   48.20    8.60
  -3  -8   0   51.09    8.00
  -3  -8   0   61.09    6.50
   3   8   0   51.99    7.50
   3   8   0   58.69    6.60
  -3   8   0   63.29    7.00
  -3   8   0   44.60    6.40
   3   8   0   51.49    8.80
   3   8   0   61.99    8.30
   4  -8   0  203.38   15.50
   4  -8   0  174.78   15.20
   4  -8   0  173.28   15.40
   4  -8   0  173.08   17.10
   4  -8   0  170.08   15.90
  -4  -8   0  168.98   16.20
  -4  -8   0  172.98   15.20
  -4  -8   0  164.68   16.90
  -4  -8   0  212.88   17.20
   4   8   0  179.48   15.10
  -4   8   0  195.08   15.60
   4   8   0  189.18   17.10
   4   8   0  170.68   16.90
  -4   8   0  175.98   14.60
  -5  -8   0   88.19    9.00
   5  -8   0   79.39    9.40
   5  -8   0   95.69   10.30
   5  -8   0  113.69   11.30
  -5  -8   0  102.09   11.20
   5  -8   0  104.49   12.60
   5  -8   0   87.09    9.40
   5   8   0   97.29   11.10
   5   8   0   94.29   11.30
   5   8   0   89.09    9.40
   5   8   0   93.79   11.20
   6  -8   0  155.38   16.50
   6  -8   0  123.29   12.80
   6  -8   0  159.68   13.80
  -6  -8   0  142.69   14.10
   6  -8   0  125.09   12.90
   6  -8   0  112.19   11.90
  -6  -8   0  153.28   14.80
   6   8   0  130.99   14.40
   6   8   0  152.78   15.90
   6   8   0  139.59   15.00
   0  -9   0   -1.80    1.30
   0  -9   0   -1.80    1.70
   0  -9   0   -0.50    2.50
   0   9   0    0.00    2.20
   0   9   0    0.60    1.90
   0   9   0   -2.50    1.10
   1  -9   0   68.79    8.30
   1  -9   0   75.99    8.40
   1  -9   0   59.59    9.50
  -1  -9   0   71.09    8.50
  -1  -9   0   69.79    8.30
   1  -9   0   83.69    9.70
  -1  -9   0   72.29    8.90
  -1  -9   0   71.19    9.50
   1   9   0   80.89    8.20
   1   9   0   91.29   10.70
  -1   9   0   90.29    9.10
   1   9   0   68.79    8.60
  -1   9   0   61.99    8.00
  -1   9   0   69.09    8.10
   1   9   0   64.19    8.40
   2  -9   0  171.58   16.80
   2  -9   0  183.38   15.60
   2  -9   0  180.98   17.40
  -2  -9   0  219.48   17.60
   2  -9   0  176.48   16.00
  -2  -9   0  177.38   16.60
  -2  -9   0  194.98   15.80
  -2  -9   0  182.78   16.40
  -2   9   0  177.88   16.30
   2   9   0  174.78   16.80
  -2   9   0  239.48   16.90
   2   9   0  171.48   16.80
   2   9   0  217.58   16.20
   2   9   0  211.98   19.20
   3  -9   0  123.59   12.90
   3  -9   0  122.69   11.70
  -3  -9   0  132.79   13.10
  -3  -9   0  122.19   12.60
  -3  -9   0  116.09   13.00
   3  -9   0  156.48   13.30
   3  -9   0  126.89   13.70
   3   9   0  120.69   12.90
   3   9   0  132.79   12.10
  -3   9   0  139.19   12.80
  -3   9   0  160.48   12.50
   3   9   0  126.59   13.40
   3   9   0  130.69   14.60
   4  -9   0    6.40    3.10
  -4  -9   0   14.80    5.00
  -4  -9   0   10.50    4.00
   4  -9   0   11.80    3.70
   4  -9   0    4.30    4.00
   4  -9   0    8.60    4.30
  -4  -9   0   13.70    3.90
   4  -9   0   10.90    3.80
   4   9   0   17.10    5.90
  -4   9   0    8.10    3.40
   4   9   0   15.90    5.20
   4   9   0   11.90    4.40
   5  -9   0  139.99   14.20
   5  -9   0  137.09   13.50
   5  -9   0  184.28   15.10
  -5  -9   0  149.39   15.00
   5  -9   0  150.48   14.20
  -5  -9   0  140.69   14.90
   5   9   0  161.78   16.40
   5   9   0  133.79   14.60
   5   9   0  151.78   15.00
   0 -10   0  519.85   36.30
   0 -10   0  469.25   36.10
   0 -10   0  474.25   35.90
   0 -10   0  487.15   36.90
   0  10   0  554.84   36.80
   0  10   0  479.55   36.60
   0  10   0  497.25   37.00
   1 -10   0   36.10    7.20
  -1 -10   0   44.10    7.70
  -1 -10   0   39.00    6.10
  -1 -10   0   43.00    7.40
   1 -10   0   47.00    7.80
   1 -10   0   43.30    6.70
   1 -10   0   50.39    8.30
  -1  10   0   45.20    6.20
  -1  10   0   42.40    6.90
   1  10   0   47.90    7.70
   1  10   0   58.49    7.80
  -1  10   0   31.60    6.10
   2 -10   0  137.19   14.40
   2 -10   0  138.19   14.70
  -2 -10   0  144.59   14.70
  -2 -10   0  133.09   13.90
   2 -10   0  141.69   13.80
   2 -10   0  160.78   13.90
  -2 -10   0  157.48   14.80
   2  10   0  148.29   14.70
  -2  10   0  158.08   13.70
   2  10   0  146.29   16.20
   2  10   0  160.38   14.90
   3 -10   0   15.80    4.40
   3 -10   0   16.00    5.20
   3 -10   0   15.40    4.80
  -3 -10   0   18.60    4.90
  -3 -10   0   19.00    5.20
   3 -10   0   17.80    4.80
  -3 -10   0   16.80    4.50
   3  10   0   18.50    5.00
   3  10   0   23.30    6.30
   3  10   0   14.50    5.10
  -3  10   0   19.90    4.30
   4 -10   0   22.70    6.30
  -4 -10   0   15.60    6.20
   4 -10   0   20.00    5.70
   4 -10   0   17.40    5.00
  -4 -10   0   18.50    5.80
  -4 -10   0   18.90    4.70
   4 -10   0   21.90    5.10
   4  10   0   15.80    5.30
   4  10   0   17.30    5.70
   0 -11   0   -2.10    2.40
   0 -11   0    0.30    3.60
   0 -11   0    2.10    3.40
   0 -11   0    0.50    2.20
   0  11   0   -1.50    2.60
   1 -11   0    5.40    4.10
   1 -11   0    5.60    3.00
  -1 -11   0    3.90    3.50
  -1 -11   0    4.80    4.00
   1 -11   0    0.60    3.00
   1 -11   0    5.50    4.30
   1  11   0    4.00    3.30
   1  11   0    3.20    3.30
  -1  11   0    2.70    2.70
  -2 -11   0   21.70    5.70
   2 -11   0   18.50    5.50
  -2 -11   0   19.30    5.20
  -2  11   0   23.60    4.90
   2  11   0   21.90    5.40
   2  11   0   14.80    5.40
  -3 -11   0  115.29   13.00
   3 -11   0  114.39   13.60
  -3 -11   0  142.89   13.60
   3  11   0  144.39   15.10
   9   0  -1   86.39   10.10
   9   0  -1   70.89    9.50
   9   0  -1   69.69    9.50
   9   0  -1   65.79    9.90
   9   0  -1   74.09   10.00
  -8   0   1  114.19   11.20
   8   0  -1  116.19   12.40
   8   0  -1  124.59   12.40
   8   0  -1  112.59   13.00
  -8   0   1  104.59   12.90
   8   0  -1  155.28   13.50
   8   0  -1  109.79   12.10
   7   0  -1  220.18   19.70
   7   0  -1  236.98   19.80
  -7   0   1  238.18   19.40
  -7   0   1  301.57   20.90
   7   0  -1  243.18   21.00
   7   0  -1  234.58   20.20
   7   0  -1  245.38   20.50
   7   0  -1  306.87   21.90
   6   0  -1    1.30    1.60
   6   0  -1    2.20    2.20
   6   0  -1    3.60    1.80
   6   0  -1    3.70    2.50
  -6   0   1    8.80    3.20
  -6   0   1    3.40    2.20
   6   0  -1    3.80    2.40
   6   0  -1    3.80    2.60
  -6   0   1    4.90    2.20
   6   0  -1    1.60    1.90
  -6   0   1    1.90    1.50
  -6   0   1    3.70    1.00
  -5   0   1  623.54   39.50
  -5   0   1  589.54   42.00
   5   0  -1  629.54   41.90
   5   0  -1  598.64   40.50
  -5   0   1  591.84   40.60
   5   0  -1  606.24   41.90
   5   0  -1  639.14   42.10
   5   0  -1  601.94   41.50
  -5   0   1  596.84   41.50
   5   0  -1  615.84   42.40
   5   0  -1  610.74   42.20
  -5   0   1  582.44   40.70
   4   0  -1    6.60    1.70
   4   0  -1   13.30    3.40
  -4   0   1    1.50    1.50
  -4   0   1    5.50    1.80
  -4   0   1    4.80    1.20
   4   0  -1    6.50    2.20
   4   0  -1    4.80    2.00
   4   0  -1    5.60    1.90
  -4   0   1    4.10    1.80
  -4   0   1    6.00    2.10
   4   0  -1    2.90    2.00
   4   0  -1    6.20    2.20
   4   0  -1    3.70    1.60
  -4   0   1    4.40    2.10
  -4   0   1    2.60    2.10
  -4   0   1   10.10    2.40
   4   0  -1    8.20    2.40
  -4   0   1    7.20    2.20
  -3   0   1 3296.47  210.88
  -3   0   1 3230.18  211.08
  -3   0   1 3232.28  211.68
   3   0  -1 3403.46  210.28
  -3   0   1 3190.78  211.68
  -3   0   1 3282.37  210.58
   3   0  -1 3546.55  210.78
   3   0  -1 3397.36  211.38
   3   0  -1 3203.98  211.78
   3   0  -1 3191.98  210.78
  -3   0   1 3406.36  210.88
  -3   0   1 3083.39  210.18
   3   0  -1 3400.96  210.78
   3   0  -1 3267.67  210.98
   2   0  -1 1422.36   95.79
  -2   0   1 1473.95   96.39
   2   0  -1 1719.13   96.59
  -2   0   1 1559.04   95.69
  -2   0   1 1439.66   95.79
   2   0  -1 1395.56   95.49
  -2   0   1 1597.44   95.59
   2   0  -1 1412.46   95.49
   2   0  -1 1502.65   95.69
  -2   0   1 1473.55   95.69
  -2   0   1 1453.95   95.49
   2   0  -1 1472.15   95.59
   2   0  -1 1426.16   95.29
  -1   0   1 1429.46   90.39
   1   0  -1 1380.06   90.39
   1   0  -1 1373.06   90.39
   1   0  -1 1374.66   90.59
  -1   0   1 1410.66   90.49
   1   0  -1 1397.96   90.49
  -1   0   1 1437.36   90.49
  -1   0   1 1459.95   90.49
  -1   0   1 1437.06   90.89
  -1   0   1 1440.66   90.69
   1   0  -1 1394.06   90.39
   1   0  -1 1396.66   90.39
  -1   0   1 1339.77   91.49
   1   0  -1 1361.56   90.69
   1   0  -1 1479.85   90.49
  -1   0   1 1549.24   90.59
   0   0  -1  874.81   55.39
   0   0  -1  840.82   54.79
  -1   0  -1  301.57   20.90
   1   0   1  311.77   21.00
  -1   0  -1  340.57   20.60
   1   0   1  306.67   20.70
  -1   0  -1  297.57   21.20
   1   0   1  303.77   21.30
   1   0   1  315.77   21.00
  -1   0  -1  301.77   21.20
   1   0   1  366.06   20.90
   1   0   1  362.86   20.70
  -2   0  -1 1535.95  101.29
   2   0   1 1538.05  101.59
   2   0   1 1676.33  101.59
   2   0   1 1599.74  102.59
  -2   0  -1 1822.02  102.39
   2   0   1 1510.45  101.69
   2   0   1 1574.44  101.69
   2   0   1 1694.73  101.89
  -2   0  -1 1583.74  101.89
  -2   0  -1 1514.05  101.59
  -2   0  -1 1522.95  101.49
  -2   0  -1 1528.15  102.09
   2   0   1 1546.85  102.09
  -3   0  -1 4809.62  315.47
  -3   0  -1 4862.21  317.47
   3   0   1 5040.20  315.97
   3   0   1 4962.40  316.77
  -3   0  -1 5720.23  316.47
   3   0   1 5047.50  315.97
   3   0   1 4755.52  316.27
   3   0   1 4615.14  315.77
   3   0   1 5055.49  315.77
  -3   0  -1 4959.10  316.27
  -3   0  -1 4981.50  315.87
  -3   0  -1 4726.53  319.57
   3   0   1 4882.31  317.17
   4   0   1   37.90    4.30
   4   0   1   32.00    4.60
  -4   0  -1   30.40    4.30
   4   0   1   30.90    5.40
  -4   0  -1   27.30    4.40
  -4   0  -1   28.70    3.70
   4   0   1   25.80    4.60
  -4   0  -1   31.50    3.30
  -4   0  -1   29.10    3.60
   4   0   1   36.80    3.80
   4   0   1   29.30    4.10
   4   0   1   34.70    4.30
   4   0   1   30.00    3.80
   4   0   1   31.00    4.50
  -4   0  -1   27.70    3.70
  -5   0  -1  662.23   43.30
   5   0   1  617.44   45.00
   5   0   1  667.83   44.00
   5   0   1  627.34   44.10
   5   0   1  608.64   45.10
   5   0   1  590.44   44.00
  -5   0  -1  753.92   43.00
  -5   0  -1  609.64   44.00
   5   0   1  618.74   44.60
   5   0   1  727.53   43.50
  -5   0  -1  615.14   44.40
   6   0   1    1.70    2.30
  -6   0  -1    0.90    1.40
   6   0   1    0.50    2.10
  -6   0  -1    3.30    1.70
   6   0   1    0.50    1.20
   6   0   1    2.60    2.60
   6   0   1   -1.20    1.90
   6   0   1   -1.20    2.30
  -6   0  -1    0.30    2.00
   6   0   1    1.40    2.10
   7   0   1   20.50    5.20
   7   0   1   34.60    6.30
   7   0   1   47.10    6.40
   7   0   1   28.10    5.30
  -7   0  -1   41.70    6.40
   7   0   1   28.10    6.20
   8   0   1    6.70    3.60
   8   0   1    7.50    3.40
   8   0   1    9.80    4.20
   8   0   1    3.70    3.20
   8   0   1    7.20    4.20
   9   0   1  224.88   20.60
   9   0   1  239.68   21.80
   9   0   1  243.28   20.80
   9  -1  -1  237.08   20.20
   9  -1  -1  224.38   19.20
   9  -1  -1  185.68   18.60
   9  -1  -1  205.28   19.50
   9  -1  -1  208.98   18.80
   9   1  -1  219.98   21.10
   9   1  -1  311.67   24.20
   9   1  -1  215.08   21.40
   9   1  -1  273.57   22.30
   8  -1  -1  357.36   26.20
   8  -1  -1  274.47   24.70
  -8  -1   1  270.57   23.00
   8  -1  -1  355.16   25.10
   8  -1  -1  300.37   24.90
   8  -1  -1  297.87   24.10
  -8  -1   1  303.17   24.50
   8   1  -1  295.67   25.20
  -8   1   1  288.97   22.40
   8   1  -1  288.97   24.10
   8   1  -1  293.77   24.50
   8   1  -1  364.46   25.60
   8   1  -1  269.27   23.50
  -7  -1   1   14.70    4.00
   7  -1  -1   12.90    4.50
   7  -1  -1   13.60    4.10
   7  -1  -1   14.50    4.50
   7  -1  -1   17.10    4.10
   7  -1  -1   14.80    4.60
   7  -1  -1   15.70    4.20
  -7  -1   1   13.00    3.20
  -7  -1   1   10.40    4.10
  -7   1   1   10.60    3.30
   7   1  -1   13.70    4.00
   7   1  -1   14.00    4.00
   7   1  -1   11.40    3.10
  -7   1   1    9.60    3.30
   7   1  -1   17.30    4.90
   7   1  -1   20.20    4.90
  -7   1   1   10.60    2.90
   7   1  -1   10.80    3.70
  -6  -1   1  155.58   14.00
  -6  -1   1  169.78   14.80
   6  -1  -1  171.08   12.10
   6  -1  -1  157.78   14.50
   6  -1  -1  156.58   15.20
  -6  -1   1  159.98   13.50
   6  -1  -1  168.38   15.10
   6  -1  -1  185.78   14.40
   6  -1  -1  175.58   14.40
  -6  -1   1  207.68   14.00
   6  -1  -1  156.08   14.10
   6   1  -1  141.79   13.70
  -6   1   1  176.38   13.90
  -6   1   1  174.08   12.00
   6   1  -1  157.08   14.30
   6   1  -1  159.18   14.20
  -6   1   1  171.48   14.30
   6   1  -1  174.88   13.70
   6   1  -1  151.98   13.90
   6   1  -1  181.78   14.90
  -6   1   1  158.98   12.90
  -5  -1   1  271.47   20.30
   5  -1  -1  250.67   20.60
  -5  -1   1  251.07   19.10
  -5  -1   1  263.37   19.70
   5  -1  -1  294.77   18.20
   5  -1  -1  250.97   19.50
   5  -1  -1  249.18   20.30
  -5  -1   1  259.67   20.20
  -5  -1   1  283.97   17.60
   5  -1  -1  251.17   19.90
   5  -1  -1  259.47   19.80
   5  -1  -1  272.07   21.30
  -5  -1   1  274.97   17.60
  -5   1   1  294.77   18.20
  -5   1   1  253.87   18.90
   5   1  -1  247.28   20.10
  -5   1   1  258.67   19.80
  -5   1   1  266.37   18.30
   5   1  -1  268.57   20.70
   5   1  -1  259.67   19.60
  -5   1   1  256.27   19.60
   5   1  -1  255.77   20.00
   5   1  -1  271.97   20.00
   5   1  -1  257.47   20.00
   4  -1  -1 1044.40   60.79
   4  -1  -1  926.51   63.19
   4  -1  -1  930.81   61.99
   4  -1  -1  933.31   63.09
   4  -1  -1  975.50   63.49
  -4  -1   1  921.51   62.59
  -4  -1   1  923.31   62.39
  -4  -1   1  935.51   62.09
   4  -1  -1  949.60   62.19
   4  -1  -1  926.91   62.49
   4  -1  -1  906.61   62.09
  -4  -1   1  931.11   61.89
   4  -1  -1  924.81   62.29
  -4   1   1  913.71   59.39
  -4   1   1  912.51   59.99
   4   1  -1  932.41   60.89
  -4   1   1  894.51   59.49
   4   1  -1  924.71   60.19
  -4   1   1  897.51   59.99
  -4   1   1  912.01   60.89
  -4   1   1  907.21   58.89
   4   1  -1  892.81   60.19
   4   1  -1  942.21   60.09
   4   1  -1  893.51   61.99
  -4   1   1  898.91   58.79
   4   1  -1  890.41   60.19
   4   1  -1  874.81   60.19
  -3  -1   1  320.47   23.00
  -3  -1   1  317.17   21.90
  -3  -1   1  319.67   22.00
   3  -1  -1  308.67   22.40
  -3  -1   1  304.87   21.90
   3  -1  -1  320.47   21.60
   3  -1  -1  317.07   22.40
   3  -1  -1  327.97   20.50
  -3  -1   1  309.67   22.40
  -3  -1   1  293.07   21.70
  -3  -1   1  319.37   21.70
   3  -1  -1  289.37   21.40
   3  -1  -1  290.97   21.40
   3   1  -1  305.07   23.20
   3   1  -1  332.77   24.70
   3   1  -1  322.77   23.40
   3   1  -1  379.26   23.60
  -3   1   1  369.36   22.30
  -3   1   1  388.26   24.50
  -3   1   1  373.96   23.50
   3   1  -1  312.67   23.20
   3   1  -1  334.77   23.40
  -3   1   1  318.17   22.80
  -3   1   1  316.37   22.80
   3   1  -1  308.07   23.20
  -3   1   1  328.87   22.50
  -3   1   1  330.57   23.10
  -3   1   1  321.97   23.00
   3   1  -1  324.47   23.60
   2  -1  -1 1776.12  115.09
   2  -1  -1 1752.22  115.69
   2  -1  -1 1743.73  115.49
  -2  -1   1 1739.13  115.59
  -2  -1   1 1775.12  115.39
  -2  -1   1 1773.82  115.29
   2  -1  -1 1767.22  114.79
   2  -1  -1 1761.92  115.09
  -2  -1   1 1957.70  116.29
  -2  -1   1 1776.02  115.49
  -2  -1   1 1820.82  115.19
   2  -1  -1 1823.72  115.29
   2  -1  -1 1802.12  115.79
  -2  -1   1 1782.52  115.39
   2  -1  -1 1853.21  115.19
  -2  -1   1 1853.41  115.49
  -2   1   1 1774.02  112.69
  -2   1   1 1753.82  112.79
   2   1  -1 1748.93  113.09
  -2   1   1 1711.63  112.79
  -2   1   1 1804.72  114.09
   2   1  -1 1766.72  113.29
   2   1  -1 1643.94  112.99
  -2   1   1 1775.22  113.09
  -2   1   1 1728.53  113.39
   2   1  -1 1740.03  113.19
   2   1  -1 1788.12  113.19
   2   1  -1 1803.02  114.09
  -2   1   1 1733.33  113.49
   2   1  -1 1823.02  112.99
  -2   1   1 1823.82  112.79
  -1  -1   1 2099.19  132.29
   1  -1  -1 2006.30  132.99
  -1  -1   1 2074.09  133.99
   1  -1  -1 2193.78  132.09
  -1  -1   1 2023.40  133.09
   1  -1  -1 1974.70  132.99
   1  -1  -1 1966.70  133.09
  -1  -1   1 2070.09  131.89
   1  -1  -1 1876.61  131.89
   1  -1  -1 2236.48  133.29
  -1  -1   1 2123.39  133.59
  -1  -1   1 2134.59  132.19
   1  -1  -1 1938.81  134.19
  -1  -1   1 2157.68  131.89
  -1  -1   1 2107.99  131.99
  -1   1   1 2080.09  134.29
  -1   1   1 2085.89  134.69
  -1   1   1 2042.40  133.29
   1   1  -1 2100.09  133.19
  -1   1   1 2173.28  134.99
   1   1  -1 2141.89  133.49
   1   1  -1 2058.79  135.49
   1   1  -1 2139.89  133.19
  -1   1   1 1907.81  133.99
   1   1  -1 2099.49  133.19
   1   1  -1 2096.39  133.49
  -1   1   1 2082.59  134.39
   1   1  -1 2083.09  135.09
  -1   1   1 2120.69  133.09
   0  -1  -1 1798.52  116.89
   0  -1  -1 1599.74  116.19
   0  -1  -1 1836.02  114.79
   0  -1  -1 1761.62  115.89
   0  -1  -1 1706.33  116.59
   0  -1   1 1727.63  117.39
   0  -1   1 2086.09  116.59
   0  -1  -1 1765.12  116.69
   0  -1  -1 1797.02  114.99
   0  -1  -1 1847.72  114.99
   0  -1   1 1785.22  117.39
   0  -1   1 1813.52  116.69
   0  -1   1 1874.11  114.99
   0  -1  -1 1800.02  116.89
   0   1   1 1788.12  123.59
   0   1   1 1864.41  123.29
   0   1   1 1870.01  122.69
   0   1  -1 1647.14  123.09
   0   1   1 2162.68  122.99
   0   1   1 1811.92  124.29
   0   1   1 2071.09  122.59
   0   1  -1 1823.72  121.49
   0   1   1 1858.21  123.59
   0   1  -1 1878.11  123.29
   0   1  -1 2130.79  122.89
   0   1  -1 2016.70  123.49
   0   1  -1 1876.11  121.49
   0   1  -1 1884.31  123.09
   1  -1   1  459.45   29.90
  -1  -1  -1  430.36   29.70
  -1  -1  -1  421.46   29.10
  -1  -1  -1  502.35   28.80
  -1  -1  -1  452.15   29.40
   1  -1   1  434.06   28.80
   1  -1   1  426.16   28.90
  -1  -1  -1  427.96   28.80
   1  -1   1  437.46   28.80
   1  -1   1  439.06   29.30
   1  -1   1  448.26   28.90
   1  -1   1  510.25   28.90
  -1  -1  -1  433.86   29.20
  -1  -1  -1  434.56   29.30
  -1  -1  -1  446.46   29.40
   1   1   1  436.26   29.10
  -1   1  -1  432.76   30.10
   1   1   1  441.66   29.80
   1   1   1  427.56   30.00
   1   1   1  447.66   29.20
   1   1   1  452.25   29.70
   1   1   1  442.46   29.70
   1   1   1  514.05   30.00
   1   1   1  435.46   30.10
  -1   1  -1  527.45   29.70
  -1   1  -1  432.16   29.20
  -2  -1  -1 1275.47   81.79
   2  -1   1 1200.18   81.29
   2  -1   1 1282.57   80.79
  -2  -1  -1 1261.47   81.19
  -2  -1  -1 1255.77   81.29
  -2  -1  -1 1226.68   80.79
   2  -1   1 1266.77   80.79
   2  -1   1 1211.98   81.59
  -2  -1  -1 1241.88   80.79
   2  -1   1 1221.58   80.59
   2  -1   1 1306.67   81.69
  -2  -1  -1 1348.57   81.19
   2   1   1 1307.87   84.19
   2   1   1 1297.27   83.89
   2   1   1 1234.98   84.49
   2   1   1 1377.86   84.99
  -2   1  -1 1510.35   84.09
  -2   1  -1 1204.18   83.69
   2   1   1 1249.77   84.99
   2   1   1 1266.97   84.49
   2   1   1 1219.58   84.79
   2   1   1 1247.98   84.39
  -2   1  -1 1286.27   84.59
  -2   1  -1 1526.75   84.19
  -2   1  -1 1354.26   83.69
  -2   1  -1 1257.07   84.19
  -3  -1  -1  815.12   54.89
   3  -1   1  786.12   54.29
   3  -1   1  989.80   55.99
   3  -1   1 1005.80   54.59
  -3  -1  -1  771.22   53.89
   3  -1   1  731.53   54.59
  -3  -1  -1  763.22   54.29
  -3  -1  -1  776.12   54.39
   3  -1   1  871.21   53.49
   3  -1   1  826.62   53.59
  -3  -1  -1  823.92   54.29
  -3  -1  -1  807.32   54.69
  -3   1  -1  984.00   56.09
   3   1   1  942.71   56.29
   3   1   1  985.10   56.99
  -3   1  -1  811.32   56.09
   3   1   1  939.61   57.39
  -3   1  -1  812.92   55.19
   3   1   1  752.62   55.69
   3   1   1  843.32   55.99
  -3   1  -1  823.52   55.39
   3   1   1  892.41   56.89
  -3   1  -1  748.33   54.89
   3   1   1  794.32   55.99
   3   1   1  792.52   56.59
   3   1   1  886.21   56.29
  -3   1  -1  809.52   54.99
  -4  -1  -1  408.66   29.50
   4  -1   1  444.16   28.40
   4  -1   1  419.26   29.70
  -4  -1  -1  406.86   29.30
   4  -1   1  463.85   28.30
   4  -1   1  430.96   29.50
  -4  -1  -1  439.86   30.10
   4  -1   1  414.26   29.60
  -4  -1  -1  422.76   30.10
   4  -1   1  427.96   31.10
   4  -1   1  440.56   30.80
  -4  -1  -1  434.56   29.90
   4  -1   1  436.76   30.40
  -4   1  -1  411.46   29.00
  -4   1  -1  421.16   29.50
  -4   1  -1  411.66   28.50
   4   1   1  389.96   29.80
   4   1   1  431.26   29.30
   4   1   1  394.36   29.20
   4   1   1  388.06   29.80
  -4   1  -1  373.96   29.60
  -4   1  -1  431.46   27.70
  -4   1  -1  486.85   28.50
   4   1   1  403.36   29.30
   4   1   1  402.76   29.50
  -4   1  -1  489.45   28.20
   5  -1   1   41.40    5.70
   5  -1   1   42.70    5.00
  -5  -1  -1   46.10    5.80
  -5  -1  -1   38.80    5.30
   5  -1   1   42.30    5.30
   5  -1   1   43.00    6.50
   5  -1   1   49.60    6.50
   5  -1   1   62.29    6.00
  -5  -1  -1   39.10    4.50
  -5  -1  -1   45.60    5.20
   5  -1   1   44.90    4.00
   5   1   1   41.00    5.40
  -5   1  -1   40.90    4.30
  -5   1  -1   41.70    3.70
   5   1   1   53.99    6.80
  -5   1  -1   59.79    6.00
  -5   1  -1   37.70    4.40
   5   1   1   40.10    5.60
   5   1   1   42.50    6.00
  -5   1  -1   63.29    7.00
   5   1   1   43.30    5.60
   5   1   1   44.10    5.50
   5   1   1   39.40    5.50
  -6  -1  -1  542.95   38.90
   6  -1   1  587.14   40.60
   6  -1   1  544.05   40.00
  -6  -1  -1  585.74   39.70
  -6  -1  -1  639.34   41.30
   6  -1   1  569.04   41.70
   6  -1   1  555.04   41.90
   6  -1   1  596.74   38.20
   6  -1   1  644.14   41.20
   6   1   1  563.24   40.60
  -6   1  -1  560.44   40.30
   6   1   1  582.84   40.90
   6   1   1  599.24   40.60
   6   1   1  551.24   41.50
   6   1   1  569.24   41.80
   6   1   1  618.04   41.00
   6   1   1  588.14   40.10
   7  -1   1   78.99    9.00
   7  -1   1   94.49   10.80
   7  -1   1  121.19   10.70
   7  -1   1   79.99   10.40
  -7  -1  -1   92.39    9.90
  -7  -1  -1   84.49    8.40
   7   1   1  102.19   11.30
   7   1   1  102.59   10.30
   7   1   1   80.29   10.30
   7   1   1   82.69    9.50
   7   1   1   92.39   10.10
   8  -1   1  342.17   26.80
   8  -1   1  332.67   26.50
   8  -1   1  365.26   28.30
   8  -1   1  358.16   28.40
   8   1   1  430.76   30.80
   8   1   1  380.06   30.10
   8   1   1  378.06   31.30
   8   1   1  438.36   32.40
   8   1   1  360.76   29.90
   9  -1   1   16.60    4.90
   9  -1   1   18.10    5.80
   9  -1   1   14.60    5.20
   9   1   1    9.60    4.30
   9   1   1   17.90    5.50
   9  -2  -1   31.60    6.70
   9  -2  -1   24.20    6.10
   9  -2  -1   38.20    7.20
   9  -2  -1   31.80    7.40
   9   2  -1   32.30    8.50
   9   2  -1   32.50    7.40
   9   2  -1   34.40    7.50
   9   2  -1   26.90    6.30
   8  -2  -1   93.59   11.00
  -8  -2   1  109.19   11.80
   8  -2  -1  106.59   11.10
   8  -2  -1  108.09   12.00
   8  -2  -1   91.69   11.30
  -8  -2   1  101.19   10.40
   8  -2  -1  112.09   11.40
   8   2  -1   94.89   11.50
   8   2  -1   96.59   11.10
   8   2  -1  128.59   12.60
   8   2  -1  107.79   12.30
  -8   2   1   96.79    9.90
  -7  -2   1  422.86   30.50
   7  -2  -1  405.36   30.60
   7  -2  -1  391.86   29.70
  -7  -2   1  395.16   29.60
  -7  -2   1  418.86   29.70
   7  -2  -1  376.66   29.50
   7  -2  -1  406.76   31.30
   7   2  -1  405.56   30.80
   7   2  -1  405.86   30.80
   7   2  -1  429.66   31.20
  -7   2   1  406.06   30.20
  -7   2   1  395.86   29.50
   7   2  -1  418.26   31.90
  -7   2   1  395.06   29.10
  -6  -2   1  346.27   26.60
   6  -2  -1  391.06   26.60
  -6  -2   1  350.96   27.20
   6  -2  -1  380.16   28.30
   6  -2  -1  357.96   26.70
   6  -2  -1  348.97   26.60
  -6  -2   1  378.76   27.20
  -6   2   1  443.86   29.10
   6   2  -1  375.26   29.70
   6   2  -1  379.66   30.30
   6   2  -1  427.26   29.80
   6   2  -1  369.76   29.60
  -6   2   1  424.56   27.80
   6   2  -1  476.25   30.60
  -6   2   1  365.46   29.00
  -6   2   1  380.06   28.10
   6   2  -1  385.56   29.40
   5  -2  -1  435.86   29.40
  -5  -2   1  425.46   27.30
  -5  -2   1  390.66   29.80
   5  -2  -1  463.95   31.00
  -5  -2   1  436.76   30.40
   5  -2  -1  412.06   29.50
   5  -2  -1  408.36   29.40
   5  -2  -1  402.86   29.80
  -5  -2   1  417.76   29.90
   5  -2  -1  407.06   30.70
  -5  -2   1  396.26   29.50
  -5  -2   1  410.66   29.20
   5   2  -1  422.86   31.60
  -5   2   1  473.95   29.70
   5   2  -1  417.46   31.00
   5   2  -1  444.96   31.00
   5   2  -1  416.76   31.00
   5   2  -1  431.26   31.00
  -5   2   1  407.26   30.10
  -5   2   1  432.16   29.80
   4  -2  -1   98.39    9.00
  -4  -2   1  104.49    9.50
   4  -2  -1  106.99    9.10
  -4  -2   1  106.19    9.80
  -4  -2   1  104.49    8.90
   4  -2  -1   96.59    8.30
   4  -2  -1  118.19   10.00
   4  -2  -1   95.99    8.60
   4  -2  -1  105.59   10.10
  -4  -2   1  110.09    9.40
  -4  -2   1   99.59    9.50
   4  -2  -1  106.89   10.10
  -4  -2   1   97.19    9.20
  -4  -2   1  117.19    7.80
  -4  -2   1   96.39    8.90
  -4  -2   1  104.59    9.20
   4  -2  -1   99.99    8.80
   4  -2  -1  102.39    8.90
  -4   2   1  111.29    9.30
   4   2  -1  120.09   10.40
  -4   2   1  117.19    9.30
  -4   2   1  125.49    9.80
   4   2  -1  108.19   10.00
  -4   2   1  114.89   10.70
  -4   2   1  120.29   10.60
   4   2  -1  113.79   10.50
  -4   2   1  102.09    9.30
   4   2  -1  113.49   10.20
  -4   2   1  110.09    9.30
   4   2  -1  111.99   10.20
   4   2  -1  109.69   11.60
  -4   2   1  111.39    9.70
  -4   2   1  115.79    7.60
   4   2  -1  128.99   10.40
  -3  -2   1  736.13   50.19
  -3  -2   1  740.73   49.80
   3  -2  -1  731.53   50.59
  -3  -2   1  740.83   50.19
   3  -2  -1  738.13   49.60
  -3  -2   1  740.53   49.99
   3  -2  -1  856.91   49.80
   3  -2  -1  734.83   50.59
  -3  -2   1  692.33   48.70
  -3  -2   1  903.21   50.19
  -3  -2   1  714.93   49.99
   3  -2  -1  722.13   49.60
   3  -2  -1  736.43   49.30
   3  -2  -1  741.23   49.70
  -3   2   1  685.43   49.40
  -3   2   1  712.83   48.50
  -3   2   1  730.63   48.70
   3   2  -1  757.22   49.30
   3   2  -1  712.53   49.20
   3   2  -1  732.83   49.60
   3   2  -1  705.83   50.19
   3   2  -1  725.13   49.20
  -3   2   1  744.83   48.90
   3   2  -1  708.63   49.10
  -3   2   1  765.62   48.50
  -3   2   1  790.12   47.30
   3   2  -1  837.42   49.99
  -3   2   1  700.23   49.20
   2  -2  -1  746.63   49.00
  -2  -2   1  708.93   49.20
  -2  -2   1  707.33   50.09
  -2  -2   1  730.43   49.50
   2  -2  -1  729.33   48.80
  -2  -2   1  704.63   49.20
   2  -2  -1  697.33   48.90
  -2  -2   1  861.81   49.40
   2  -2  -1  744.23   48.80
   2  -2  -1  772.32   49.00
   2  -2  -1  708.43   49.50
  -2  -2   1  718.63   49.30
   2  -2  -1  881.01   49.20
   2  -2  -1  691.03   49.50
   2  -2  -1  718.73   48.90
  -2  -2   1  846.12   49.80
   2   2  -1  748.13   50.89
   2   2  -1  777.92   51.39
  -2   2   1  755.42   50.39
  -2   2   1  833.12   50.59
  -2   2   1  736.53   50.19
  -2   2   1  773.72   51.29
   2   2  -1  769.62   50.09
   2   2  -1  756.82   51.09
  -2   2   1  794.72   50.59
  -2   2   1  782.72   51.29
   2   2  -1  801.22   50.89
   2   2  -1  785.12   50.99
  -2   2   1  749.53   50.59
   2   2  -1  757.72   51.49
   2   2  -1  755.02   50.79
   1  -2  -1 3590.74  229.48
  -1  -2   1 4061.09  227.78
   1  -2  -1 3538.35  227.78
   1  -2  -1 3425.76  231.58
   1  -2  -1 3602.54  230.48
  -1  -2   1 3566.74  228.28
  -1  -2   1 3392.76  229.88
   1  -2  -1 3792.32  231.18
  -1  -2   1 3588.24  227.88
  -1  -2   1 3521.05  230.28
  -1  -2   1 3544.85  229.78
   1  -2  -1 3296.37  230.48
  -1  -2   1 3658.63  232.38
   1  -2  -1 3374.56  230.28
  -1  -2   1 3571.74  230.08
   1   2  -1 3738.23  236.38
   1   2  -1 3658.83  234.98
  -1   2   1 3495.85  235.98
   1   2  -1 3554.34  235.68
   1   2  -1 3871.31  235.58
   1   2  -1 3630.84  234.78
  -1   2   1 3445.56  234.88
  -1   2   1 3572.64  234.58
  -1   2   1 3611.24  236.48
   1   2  -1 3636.94  235.68
  -1   2   1 3660.33  235.78
   1   2  -1 3671.83  235.18
   1   2  -1 3753.62  233.68
  -1   2   1 3764.22  233.18
   1   2  -1 3754.62  233.08
  -1   2   1 3666.23  237.08
   0  -2   1 4458.95  298.07
   0  -2   1 4638.94  298.47
   0  -2  -1 4623.54  298.67
   0  -2  -1 4594.14  299.17
   0  -2   1 4448.85  298.17
   0  -2   1 5393.26  296.57
   0  -2   1 4518.85  296.57
   0  -2  -1 4421.76  297.47
   0  -2   1 4842.82  298.37
   0  -2   1 4564.24  301.37
   0  -2  -1 4221.88  298.27
   0  -2  -1 4859.61  299.17
   0  -2  -1 4643.34  296.27
   0  -2  -1 4479.05  297.57
   0  -2  -1 4538.95  298.87
   0   2   1 4900.61  302.77
   0   2  -1 4912.01  300.67
   0   2   1 4517.95  300.67
   0   2   1 4411.76  302.67
   0   2  -1 4322.17  299.07
   0   2   1 4596.94  299.27
   0   2   1 4674.13  301.57
   0   2   1 4634.94  301.47
   0   2   1 5430.86  302.37
   0   2  -1 4461.95  301.97
   0   2  -1 4570.84  299.27
   0   2  -1 4566.34  299.47
   0   2   1 4667.73  302.17
   0   2   1 4753.32  301.77
  -1  -2  -1 4515.15  289.57
  -1  -2  -1 4657.93  286.67
   1  -2   1 4309.37  282.77
   1  -2   1 4319.77  286.87
  -1  -2  -1 4532.85  285.17
   1  -2   1 4400.26  286.17
  -1  -2  -1 4255.47  282.57
  -1  -2  -1 4437.76  287.77
  -1  -2  -1 4364.36  284.77
   1  -2   1 4251.87  284.97
   1  -2   1 4715.43  285.67
  -1  -2  -1 4518.85  287.07
   1  -2   1 4604.94  286.97
   1  -2   1 4288.77  284.57
   1  -2   1 4290.07  286.77
   1  -2   1 4486.45  286.37
   1   2   1 4476.05  282.17
  -1   2  -1 4355.36  283.87
   1   2   1 4172.58  285.77
   1   2   1 4331.07  282.87
  -1   2  -1 4343.47  285.47
  -1   2  -1 4279.87  285.37
   1   2   1 4365.06  286.47
   1   2   1 4144.09  285.37
   1   2   1 4268.37  286.37
   1   2   1 4454.75  283.97
   1   2   1 4561.84  281.67
  -1   2  -1 4811.82  284.07
   1   2   1 4646.64  286.37
  -1   2  -1 4516.95  285.57
  -1   2  -1 4563.34  285.07
  -2  -2  -1   94.29    6.90
   2  -2   1   71.39    5.90
   2  -2   1   73.69    6.90
  -2  -2  -1   75.49    6.20
  -2  -2  -1   80.89    5.60
   2  -2   1   73.39    6.30
   2  -2   1   72.69    6.40
  -2  -2  -1   66.79    6.30
   2  -2   1   69.99    5.90
   2  -2   1   68.79    6.00
  -2  -2  -1   69.79    6.70
  -2  -2  -1   65.59    5.40
   2  -2   1   72.39    5.10
   2   2   1   64.09    6.10
  -2   2  -1   63.39    5.30
   2   2   1   65.39    5.90
   2   2   1   73.79    6.30
   2   2   1   81.19    6.90
   2   2   1   64.09    5.90
   2   2   1   63.79    6.30
  -2   2  -1   62.29    5.20
   2   2   1   67.59    5.10
  -2   2  -1   60.39    5.00
  -2   2  -1   64.49    6.30
  -2   2  -1   63.89    5.10
  -2   2  -1   64.29    5.80
  -3  -2  -1 3100.79  202.58
   3  -2   1 3349.47  202.28
   3  -2   1 3009.60  202.58
  -3  -2  -1 3189.58  202.88
   3  -2   1 3071.79  201.98
  -3  -2  -1 3148.28  202.98
  -3  -2  -1 3186.08  203.38
  -3  -2  -1 3133.69  203.08
   3  -2   1 3171.78  203.68
   3  -2   1 3147.89  202.08
   3  -2   1 3096.29  202.08
  -3  -2  -1 3073.69  202.18
  -3  -2  -1 3372.66  202.08
  -3  -2  -1 3217.48  203.28
  -3   2  -1 3241.18  204.18
   3   2   1 3462.85  205.18
   3   2   1 3110.69  204.68
   3   2   1 3101.39  204.98
   3   2   1 3106.79  204.78
  -3   2  -1 3077.29  204.08
   3   2   1 3112.19  206.08
   3   2   1 3231.38  205.38
  -3   2  -1 3494.15  203.68
  -3   2  -1 3150.28  203.48
  -3   2  -1 3243.78  203.78
  -3   2  -1 3191.08  205.68
   3   2   1 3153.88  203.98
   3   2   1 3028.50  205.38
   4  -2   1   93.29    8.30
   4  -2   1   88.49    9.60
   4  -2   1  124.49    8.80
  -4  -2  -1  106.69    9.80
   4  -2   1  100.49    9.60
  -4  -2  -1   84.49    8.10
  -4  -2  -1  101.29    9.30
  -4  -2  -1  119.49    9.30
   4  -2   1   98.69    8.40
  -4  -2  -1   96.99    8.80
   4  -2   1   97.19    7.90
  -4  -2  -1   89.89    8.10
   4  -2   1  105.09    8.80
   4  -2   1   97.49    9.30
   4   2   1   91.89    9.00
  -4   2  -1   94.29    8.00
   4   2   1   96.49    9.20
   4   2   1  122.99    9.80
  -4   2  -1   92.69    8.30
  -4   2  -1   93.49    8.10
   4   2   1   83.39    9.20
   4   2   1  103.29    8.60
  -4   2  -1  107.29    7.90
   4   2   1  103.19   10.70
   4   2   1  127.19    9.70
   4   2   1   97.69    9.80
   4   2   1   93.29    9.50
  -4   2  -1   94.09    9.60
  -5  -2  -1  111.49    9.90
   5  -2   1  119.19   11.60
   5  -2   1  111.69   10.90
   5  -2   1  107.89    9.90
   5  -2   1  116.89   10.00
   5  -2   1  117.59    9.00
  -5  -2  -1  148.19   10.80
  -5  -2  -1  115.09   10.60
   5  -2   1  109.79   10.00
   5  -2   1  113.39   11.70
  -5  -2  -1  109.39    9.40
   5   2   1  118.79   11.60
  -5   2  -1  122.79   10.50
   5   2   1  119.19   11.00
  -5   2  -1  118.09    9.30
   5   2   1  123.69   10.70
   5   2   1  134.49   11.30
   5   2   1  118.29   10.90
  -5   2  -1  117.99    9.30
   5   2   1  118.39   11.80
  -6  -2  -1  154.88   12.90
   6  -2   1  188.78   15.60
  -6  -2  -1  163.18   14.70
   6  -2   1  172.78   15.70
   6  -2   1  173.28   13.80
   6  -2   1  167.88   14.20
  -6  -2  -1  170.58   13.80
  -6  -2  -1  172.68   14.20
   6   2   1  174.68   14.70
  -6   2  -1  162.18   12.60
   6   2   1  163.48   14.20
   6   2   1  161.68   14.80
  -6   2  -1  161.58   12.40
  -6   2  -1  154.38   13.80
   6   2   1  210.58   16.70
   6   2   1  163.68   14.70
   6   2   1  220.68   16.90
   6   2   1  179.68   15.10
   7  -2   1  305.37   24.40
   7  -2   1  329.57   26.30
  -7  -2  -1  323.97   23.40
  -7  -2  -1  327.17   25.20
   7  -2   1  346.17   26.50
   7  -2   1  302.17   25.40
   7   2   1  296.57   24.00
   7   2   1  305.17   24.90
   7   2   1  304.97   25.10
   7   2   1  308.27   23.60
   8  -2   1   24.10    6.10
   8  -2   1   24.40    5.50
   8  -2   1   15.10    4.50
   8  -2   1   20.70    5.90
   8  -2   1   41.30    7.60
   8   2   1   24.90    5.80
   8   2   1   22.60    6.10
   8   2   1   24.90    5.80
   8   2   1   23.80    5.80
   9  -2   1  238.58   20.60
   9   2   1  188.58   18.40
   9  -3  -1  143.89   14.30
   9  -3  -1  140.09   14.60
   9   3  -1  153.48   15.90
   8  -3  -1  174.98   16.20
  -8  -3   1  178.08   16.30
   8  -3  -1  151.68   15.00
   8  -3  -1  189.38   17.70
  -8  -3   1  171.98   15.30
   8  -3  -1  169.38   15.40
   8   3  -1  186.08   16.90
   8   3  -1  195.78   17.30
   8   3  -1  163.78   16.20
   8   3  -1  172.68   17.80
  -7  -3   1    3.80    3.00
   7  -3  -1    4.30    2.20
   7  -3  -1    7.00    3.30
  -7  -3   1    6.90    3.20
   7  -3  -1    4.00    3.00
  -7  -3   1    8.20    3.50
   7  -3  -1    7.80    2.90
   7   3  -1    4.70    3.60
  -7   3   1    6.10    2.60
  -7   3   1    6.30    2.80
   7   3  -1    6.60    3.70
   7   3  -1    7.30    3.20
   7   3  -1    5.90    3.40
  -6  -3   1  434.66   33.10
  -6  -3   1  430.96   32.60
   6  -3  -1  442.96   32.20
   6  -3  -1  502.45   32.70
   6  -3  -1  431.56   32.50
  -6  -3   1  470.45   29.10
  -6  -3   1  449.26   33.00
   6  -3  -1  425.06   33.60
  -6  -3   1  444.46   32.60
   6   3  -1  417.66   32.60
   6   3  -1  432.86   33.70
   6   3  -1  422.66   32.80
   6   3  -1  451.85   33.10
  -6   3   1  541.75   31.80
  -6   3   1  426.16   31.60
  -6   3   1  444.16   31.10
  -5  -3   1  439.16   32.50
  -5  -3   1  457.15   32.40
   5  -3  -1  443.66   31.60
   5  -3  -1  445.46   31.40
   5  -3  -1  455.15   32.30
  -5  -3   1  526.85   32.20
   5  -3  -1  452.95   33.30
  -5  -3   1  441.46   29.80
   5  -3  -1  419.26   31.40
   5  -3  -1  423.86   31.80
  -5   3   1  455.45   33.90
   5   3  -1  470.75   35.00
  -5   3   1  456.65   33.50
  -5   3   1  563.44   34.90
  -5   3   1  485.15   34.50
   5   3  -1  461.55   34.90
  -5   3   1  559.74   34.20
   5   3  -1  482.95   35.80
  -4  -3   1    6.70    2.70
  -4  -3   1    4.90    2.10
   4  -3  -1   10.00    3.10
   4  -3  -1    9.80    3.30
  -4  -3   1    7.10    1.70
  -4  -3   1    7.40    2.70
   4  -3  -1    7.10    2.10
  -4  -3   1    7.70    2.30
   4  -3  -1    5.70    2.10
  -4  -3   1    7.30    2.50
   4  -3  -1    8.90    2.40
  -4  -3   1    6.40    2.20
  -4  -3   1    7.10    3.00
   4  -3  -1    8.00    2.10
   4  -3  -1   10.80    2.60
   4  -3  -1    8.40    2.30
   4  -3  -1    7.10    2.20
  -4  -3   1    7.10    2.30
   4   3  -1   10.20    3.40
   4   3  -1    7.60    2.50
   4   3  -1    6.60    2.40
   4   3  -1    7.80    2.70
  -4   3   1    7.80    2.60
  -4   3   1    8.60    2.40
  -4   3   1   13.00    2.70
  -4   3   1   11.30    2.70
  -4   3   1    8.40    2.10
   4   3  -1    8.40    2.90
  -4   3   1    8.60    2.30
   4   3  -1    8.10    3.00
   4   3  -1    8.60    3.30
  -4   3   1    6.60    2.70
   4   3  -1    5.40    2.30
  -3  -3   1  107.59   11.30
   3  -3  -1  118.59    9.60
   3  -3  -1  112.59   10.60
   3  -3  -1  118.59    9.40
  -3  -3   1  123.89    9.20
   3  -3  -1  127.99    9.70
  -3  -3   1  118.69    9.60
  -3  -3   1  112.59   10.00
   3  -3  -1  112.49    9.30
   3  -3  -1  117.09   10.40
  -3  -3   1  108.89    9.70
   3  -3  -1  121.69    9.80
  -3  -3   1  117.39    9.90
  -3  -3   1  113.69   10.20
  -3   3   1  133.29   11.30
  -3   3   1  117.19    9.90
  -3   3   1  126.29    9.90
   3   3  -1  110.99   11.10
   3   3  -1  111.49   10.40
   3   3  -1  122.29   10.70
   3   3  -1  152.98   11.60
  -3   3   1  109.69    9.70
   3   3  -1  113.79   10.40
   3   3  -1  115.59   10.60
  -3   3   1  114.39   10.00
  -3   3   1  124.39    8.70
  -3   3   1  153.08   10.90
   3   3  -1  130.19   11.40
   3   3  -1  114.59   10.40
  -3   3   1  147.39   10.40
  -2  -3   1 1650.83  105.59
  -2  -3   1 1608.44  105.49
   2  -3  -1 1658.53  105.99
  -2  -3   1 1527.45  105.49
  -2  -3   1 1624.64  106.99
  -2  -3   1 1660.43  105.69
   2  -3  -1 1715.23  105.39
   2  -3  -1 1617.54  104.99
  -2  -3   1 1594.84  104.99
  -2  -3   1 1619.74  105.49
   2  -3  -1 1659.73  105.89
   2  -3  -1 1600.34  105.09
  -2   3   1 1659.63  107.59
  -2   3   1 1628.44  108.39
  -2   3   1 1624.04  107.09
  -2   3   1 1654.73  108.09
  -2   3   1 1751.22  107.39
   2   3  -1 1674.93  108.09
   2   3  -1 1647.94  108.19
  -2   3   1 1601.94  107.49
   2   3  -1 1912.31  107.29
   2   3  -1 1558.24  107.89
  -2   3   1 1592.24  107.49
  -2   3   1 1639.24  108.39
   2   3  -1 1638.44  108.49
   2   3  -1 1825.82  109.19
   2   3  -1 1613.54  108.09
  -1  -3   1 2150.88  136.89
  -1  -3   1 2068.29  136.69
  -1  -3   1 2087.19  136.59
  -1  -3   1 2138.39  135.49
   1  -3  -1 2080.59  136.19
  -1  -3   1 2371.56  138.39
  -1  -3   1 2061.59  136.79
   1  -3  -1 2153.38  137.09
  -1  -3   1 2194.28  136.79
   1  -3  -1 2126.49  136.49
  -1  -3   1 2044.70  136.59
   1  -3  -1 2115.69  136.49
  -1  -3   1 2143.19  136.69
   1  -3  -1 2073.69  136.39
   1  -3  -1 2110.99  136.69
   1  -3  -1 2094.29  136.79
   1  -3  -1 2122.49  136.79
   1   3  -1 2032.90  132.69
  -1   3   1 1972.50  131.89
   1   3  -1 2013.20  131.99
  -1   3   1 2086.69  131.99
   1   3  -1 2102.69  132.09
   1   3  -1 2047.30  131.89
  -1   3   1 2201.88  131.99
  -1   3   1 2022.60  131.69
  -1   3   1 2020.00  132.19
  -1   3   1 2071.79  131.89
   1   3  -1 2060.89  131.99
   1   3  -1 2073.59  132.19
   1   3  -1 2069.99  132.89
   1   3  -1 1997.70  131.99
  -1   3   1 2035.30  131.19
   0  -3  -1 7314.97  473.25
   0  -3  -1 7168.78  469.25
   0  -3   1 7162.98  473.15
   0  -3   1 7454.75  474.35
   0  -3   1 6950.70  472.35
   0  -3   1 6924.51  470.65
   0  -3  -1 7058.69  472.15
   0  -3   1 7599.94  471.55
   0  -3   1 7300.47  471.15
   0  -3   1 6996.30  470.95
   0  -3  -1 7200.88  473.25
   0  -3  -1 7373.56  471.85
   0  -3   1 7690.43  471.85
   0  -3  -1 7447.46  473.35
   0  -3   1 7887.11  471.45
   0   3   1 7248.17  480.75
   0   3   1 7203.38  480.85
   0   3  -1 7247.27  482.65
   0   3  -1 7554.44  480.55
   0   3   1 7590.54  484.05
   0   3   1 7578.44  480.65
   0   3  -1 7633.74  479.95
   0   3  -1 7559.44  479.65
   0   3   1 7703.33  482.05
   0   3   1 7164.78  481.15
   0   3  -1 7543.45  482.25
   0   3   1 7407.16  485.05
   0   3   1 7674.13  481.65
   0   3  -1 7040.70  480.15
   0   3  -1 7503.95  481.75
   0   3  -1 7413.96  477.85
   0   3   1 7659.13  481.75
  -1  -3  -1   27.80    3.50
   1  -3   1   27.50    3.80
  -1  -3  -1   29.20    3.60
  -1  -3  -1   29.10    3.00
  -1  -3  -1   28.30    3.60
   1  -3   1   27.60    3.10
  -1  -3  -1   26.30    3.50
   1  -3   1   33.50    3.40
   1  -3   1   28.30    3.40
   1  -3   1   36.10    3.80
  -1  -3  -1   27.90    4.20
   1  -3   1   41.60    3.90
  -1  -3  -1   28.90    3.30
  -1  -3  -1   29.20    3.60
   1  -3   1   30.10    4.20
   1  -3   1   30.20    3.40
  -1   3  -1   30.40    3.30
   1   3   1   32.10    4.10
   1   3   1   30.90    3.70
  -1   3  -1   43.80    3.90
   1   3   1   32.20    4.00
   1   3   1   39.50    4.70
   1   3   1   43.00    4.20
   1   3   1   27.50    4.30
  -1   3  -1   31.10    3.40
  -1   3  -1   26.30    3.90
  -1   3  -1   27.00    3.10
   1   3   1   38.40    4.30
  -1   3  -1   38.30    3.70
   1   3   1   32.70    4.10
   1   3   1   43.60    4.30
  -1   3  -1   30.40    3.90
   2  -3   1  101.09    7.20
  -2  -3  -1   82.19    7.90
  -2  -3  -1   91.49    6.50
  -2  -3  -1   85.09    7.60
  -2  -3  -1   79.69    7.50
   2  -3   1   77.09    6.70
   2  -3   1   96.19    7.20
   2  -3   1   76.39    7.30
  -2  -3  -1   82.29    6.80
   2  -3   1   80.39    7.70
   2  -3   1   85.09    6.40
  -2  -3  -1   75.69    7.30
  -2  -3  -1   78.79    8.00
   2  -3   1   86.29    8.40
   2  -3   1   97.19    6.60
  -2  -3  -1   82.39    7.70
   2  -3   1   76.29    6.90
   2   3   1   84.29    7.20
   2   3   1   70.59    7.20
   2   3   1   74.59    7.70
  -2   3  -1   71.59    6.70
  -2   3  -1   68.09    5.90
  -2   3  -1   69.29    7.10
   2   3   1   69.89    5.90
  -2   3  -1   64.19    6.00
  -2   3  -1   63.69    5.70
   2   3   1   63.69    6.70
   2   3   1   65.39    6.60
   2   3   1   66.69    6.60
  -2   3  -1   75.59    5.50
   2   3   1   90.19    7.10
   2   3   1   64.29    6.60
  -2   3  -1   75.89    5.90
  -3  -3  -1  163.68   13.40
   3  -3   1  165.18   12.80
   3  -3   1  169.28   12.90
   3  -3   1  168.88   13.50
  -3  -3  -1  186.28   13.40
  -3  -3  -1  173.18   12.40
   3  -3   1  163.88   12.70
  -3  -3  -1  172.28   14.50
   3  -3   1  204.28   13.40
   3  -3   1  161.78   12.90
   3  -3   1  164.28   13.20
  -3  -3  -1  178.98   13.90
  -3  -3  -1  182.68   14.30
  -3  -3  -1  169.48   13.50
  -3  -3  -1  166.58   13.50
  -3  -3  -1  176.78   12.10
   3  -3   1  161.28   14.20
   3  -3   1  177.28   14.40
  -3   3  -1  158.68   12.90
  -3   3  -1  203.38   13.00
  -3   3  -1  196.58   13.00
   3   3   1  163.38   14.10
   3   3   1  182.98   15.90
   3   3   1  171.68   14.10
   3   3   1  150.38   14.30
  -3   3  -1  169.38   13.70
   3   3   1  180.08   14.20
   3   3   1  173.38   12.60
  -3   3  -1  216.28   13.60
   4  -3   1  214.78   15.80
  -4  -3  -1  211.68   16.40
  -4  -3  -1  215.98   14.20
   4  -3   1  210.88   17.60
  -4  -3  -1  199.58   16.80
  -4  -3  -1  212.98   17.10
  -4  -3  -1  213.88   16.80
  -4  -3  -1  207.98   15.40
   4  -3   1  211.98   15.90
  -4  -3  -1  208.28   15.90
   4  -3   1  216.98   15.80
   4  -3   1  211.18   16.50
   4  -3   1  214.38   15.80
   4   3   1  234.88   17.90
  -4   3  -1  217.38   16.60
   4   3   1  228.98   18.40
  -4   3  -1  226.38   16.70
   4   3   1  217.18   17.50
  -4   3  -1  226.98   15.90
  -4   3  -1  253.17   16.00
   4   3   1  216.08   18.70
   4   3   1  225.08   17.60
   4   3   1  196.48   17.60
   5  -3   1  329.27   22.30
   5  -3   1  296.57   23.50
   5  -3   1  326.97   25.00
  -5  -3  -1  321.87   23.30
   5  -3   1  317.17   22.70
   5  -3   1  307.57   22.80
  -5  -3  -1  300.37   23.50
   5  -3   1  322.07   23.90
   5  -3   1  304.97   22.70
  -5   3  -1  362.66   22.50
  -5   3  -1  313.97   23.00
   5   3   1  324.07   24.70
   5   3   1  321.57   25.30
   5   3   1  311.17   24.30
   5   3   1  315.47   25.30
   6  -3   1  214.28   18.00
   6  -3   1  238.38   16.90
   6  -3   1  229.48   19.90
   6  -3   1  281.67   18.80
   6  -3   1  230.18   17.90
  -6  -3  -1  237.88   17.50
   6  -3   1  225.28   19.00
  -6  -3  -1  222.18   18.00
  -6  -3  -1  224.38   17.80
  -6   3  -1  225.98   16.40
   6   3   1  243.38   20.40
  -6   3  -1  233.98   17.30
   6   3   1  238.38   19.40
   6   3   1  245.68   19.80
   7  -3   1   94.39   10.60
   7  -3   1   82.19    9.40
  -7  -3  -1   88.79   10.30
  -7  -3  -1   99.19    9.30
   7  -3   1  111.69   12.10
   7  -3   1   96.59   10.00
   7   3   1   85.49    9.90
   7   3   1   85.69   11.00
   7   3   1   89.19   10.40
   7   3   1   96.59   11.60
   8  -3   1  221.88   19.50
   8  -3   1  237.98   21.40
   8  -3   1  257.67   20.10
   8  -3   1  235.58   21.20
   8   3   1  234.88   21.80
   8   3   1  230.98   21.20
   8   3   1  310.37   22.70
   8   3   1  231.48   22.10
  -9  -4   1  116.99   11.80
   9  -4  -1  102.09   13.10
   9   4  -1  110.19   12.90
   8  -4  -1  148.39   13.70
   8  -4  -1  129.99   13.20
   8  -4  -1  127.29   14.40
  -8  -4   1  144.89   13.60
   8  -4  -1  126.89   13.40
   8   4  -1  116.29   12.90
   8   4  -1  127.69   14.60
   8   4  -1  125.69   13.40
   8   4  -1  129.09   13.90
  -7  -4   1   80.69    9.90
  -7  -4   1   74.49    9.60
   7  -4  -1   82.59   11.00
  -7  -4   1   90.29    9.70
   7  -4  -1   78.39    9.20
   7  -4  -1   78.59    9.60
   7  -4  -1   75.99    8.90
   7   4  -1   90.49   10.80
   7   4  -1   81.69   10.90
   7   4  -1   93.69   11.20
  -7   4   1  122.49   10.90
   7   4  -1   92.09   11.80
  -7   4   1  110.49    9.70
   6  -4  -1  236.68   19.60
   6  -4  -1  250.57   19.70
   6  -4  -1  233.98   19.90
  -6  -4   1  229.08   20.40
   6  -4  -1  243.08   21.60
  -6  -4   1  314.07   21.90
   6  -4  -1  261.77   18.70
  -6  -4   1  259.67   17.30
  -6  -4   1  237.78   19.50
   6  -4  -1  271.77   19.90
  -6  -4   1  247.68   20.40
   6   4  -1  317.57   22.20
   6   4  -1  234.28   20.60
   6   4  -1  247.68   21.50
  -6   4   1  247.58   20.00
   6   4  -1  242.38   20.90
  -6   4   1  246.88   19.30
  -5  -4   1  336.27   25.10
  -5  -4   1  319.57   23.80
  -5  -4   1  378.96   25.30
   5  -4  -1  317.17   23.90
   5  -4  -1  317.37   25.60
   5  -4  -1  299.47   24.10
   5  -4  -1  309.57   23.60
  -5  -4   1  302.87   25.40
   5  -4  -1  315.67   23.90
  -5  -4   1  380.36   22.80
   5  -4  -1  313.67   23.50
   5   4  -1  315.27   24.60
   5   4  -1  307.97   23.90
  -5   4   1  301.37   22.80
  -5   4   1  323.27   23.10
   5   4  -1  313.37   25.00
  -5   4   1  294.47   22.40
  -4  -4   1  552.34   34.60
   4  -4  -1  460.65   33.10
   4  -4  -1  450.65   33.20
  -4  -4   1  451.95   33.00
   4  -4  -1  463.65   33.10
  -4  -4   1  468.65   34.00
  -4  -4   1  551.54   32.80
  -4  -4   1  472.65   35.00
   4  -4  -1  445.56   32.70
  -4  -4   1  455.85   34.50
  -4  -4   1  463.95   34.20
   4  -4  -1  534.85   35.40
  -4   4   1  470.65   32.60
   4   4  -1  484.35   33.70
  -4   4   1  490.75   30.00
   4   4  -1  467.75   33.20
   4   4  -1  435.66   33.10
   4   4  -1  454.55   33.90
   4   4  -1  452.65   33.40
  -4   4   1  448.36   31.90
  -4   4   1  524.45   33.20
  -4   4   1  478.75   29.90
  -4   4   1  430.16   32.30
  -3  -4   1 1271.87   83.89
   3  -4  -1 1306.97   82.99
  -3  -4   1 1246.08   83.99
   3  -4  -1 1297.17   84.49
   3  -4  -1 1267.07   84.09
  -3  -4   1 1274.97   83.79
   3  -4  -1 1328.67   83.59
  -3  -4   1 1253.47   82.79
   3  -4  -1 1229.68   83.09
   3  -4  -1 1255.17   83.29
  -3  -4   1 1265.07   83.59
   3  -4  -1 1235.58   82.79
   3  -4  -1 1263.07   82.19
  -3  -4   1 1305.07   83.89
   3  -4  -1 1279.77   82.99
  -3  -4   1 1262.67   84.69
  -3  -4   1 1258.67   83.99
   3   4  -1 1207.48   82.19
   3   4  -1 1266.37   82.49
   3   4  -1 1202.78   80.99
  -3   4   1 1245.18   81.29
  -3   4   1 1212.28   82.79
   3   4  -1 1214.38   83.09
   3   4  -1 1267.77   82.69
   3   4  -1 1322.87   82.59
   3   4  -1 1235.88   80.99
  -3   4   1 1285.27   81.49
  -3   4   1 1217.08   81.49
  -3   4   1 1248.68   81.49
   3   4  -1 1263.17   83.19
   3   4  -1 1208.78   82.19
   3   4  -1 1240.68   82.19
  -3   4   1 1281.97   80.79
  -2  -4   1  191.68   15.10
  -2  -4   1  189.38   15.10
  -2  -4   1  194.28   16.10
  -2  -4   1  181.88   15.10
   2  -4  -1  184.38   14.50
   2  -4  -1  193.28   15.10
   2  -4  -1  191.68   14.70
  -2  -4   1  201.48   15.50
  -2  -4   1  233.88   15.80
   2  -4  -1  190.58   14.70
  -2  -4   1  192.48   14.70
   2  -4  -1  195.48   13.60
   2  -4  -1  197.58   15.50
   2  -4  -1  201.28   15.20
  -2  -4   1  189.58   15.10
   2  -4  -1  190.08   15.40
   2   4  -1  175.58   14.90
  -2   4   1  202.08   14.70
   2   4  -1  236.18   15.60
   2   4  -1  190.98   15.00
   2   4  -1  189.58   15.90
  -2   4   1  185.08   15.30
  -2   4   1  198.08   13.90
  -2   4   1  192.38   14.60
   2   4  -1  185.58   15.20
   2   4  -1  207.48   15.50
   2   4  -1  201.28   14.70
  -2   4   1  192.58   14.50
  -2   4   1  203.48   15.60
   2   4  -1  189.98   15.10
   2   4  -1  194.58   14.00
  -2   4   1  180.68   15.00
  -2   4   1  195.88   14.80
   1  -4  -1 2600.14  168.88
  -1  -4   1 2598.04  168.78
   1  -4  -1 2385.06  168.18
   1  -4  -1 2657.13  168.58
  -1  -4   1 2565.44  168.98
  -1  -4   1 2647.73  168.78
   1  -4  -1 2666.63  168.68
  -1  -4   1 3014.50  167.58
   1  -4  -1 2576.64  169.18
   1  -4  -1 2772.32  168.78
  -1  -4   1 2624.64  169.78
   1  -4  -1 2494.45  168.38
  -1  -4   1 2497.05  168.58
   1  -4  -1 2552.24  168.08
  -1  -4   1 2663.13  168.98
   1   4  -1 2667.93  166.58
  -1   4   1 2581.64  166.28
   1   4  -1 2539.75  166.18
  -1   4   1 2575.34  166.18
   1   4  -1 2662.33  165.28
   1   4  -1 2554.14  165.88
  -1   4   1 2719.93  165.08
   1   4  -1 2477.55  166.28
   1   4  -1 2569.94  166.88
   1   4  -1 2586.84  166.28
  -1   4   1 2637.24  166.58
  -1   4   1 2532.15  166.38
  -1   4   1 2494.85  165.88
   1   4  -1 2592.64  167.28
  -1   4   1 2596.14  166.38
   0  -4   1 1371.26   91.19
   0  -4   1 1379.66   90.39
   0  -4   1 1411.56   91.19
   0  -4   1 1360.36   91.29
   0  -4  -1 1558.14   92.39
   0  -4  -1 1413.66   91.29
   0  -4   1 1448.06   91.99
   0  -4   1 1368.86   91.59
   0  -4   1 1375.96   91.29
   0  -4  -1 1363.66   90.89
   0  -4  -1 1262.07   91.09
   0  -4  -1 1403.96   91.49
   0  -4  -1 1574.24   91.39
   0  -4  -1 1370.66   91.39
   0   4   1 1438.56   94.29
   0   4   1 1332.27   93.29
   0   4   1 1421.26   93.49
   0   4  -1 1644.94   92.19
   0   4  -1 1402.46   93.79
   0   4  -1 1598.54   92.89
   0   4  -1 1386.06   93.89
   0   4  -1 1410.46   93.29
   0   4   1 1419.76   93.69
   0   4   1 1443.76   94.39
   0   4  -1 1414.76   93.19
   0   4   1 1398.46   93.49
   0   4  -1 1414.96   93.49
   0   4   1 1390.96   93.29
   1  -4   1   81.39    6.70
   1  -4   1   71.39    6.30
  -1  -4  -1   69.89    7.60
  -1  -4  -1   69.69    6.60
  -1  -4  -1   63.49    5.70
   1  -4   1   65.39    6.20
  -1  -4  -1   85.99    7.00
  -1  -4  -1   69.59    6.30
  -1  -4  -1   74.59    7.50
   1  -4   1   57.69    6.50
  -1  -4  -1   63.79    6.40
   1  -4   1   61.59    6.80
   1  -4   1   71.29    6.50
   1  -4   1   60.09    6.70
  -1  -4  -1   63.59    6.60
   1  -4   1   60.49    6.10
  -1  -4  -1   66.49    6.80
  -1   4  -1   82.29    6.40
   1   4   1   60.49    6.40
   1   4   1   70.89    6.90
  -1   4  -1   60.89    5.70
  -1   4  -1   67.39    6.30
   1   4   1   81.09    6.90
   1   4   1   63.39    7.50
  -1   4  -1   59.39    5.70
   1   4   1   72.69    7.20
  -1   4  -1   63.19    6.70
  -1   4  -1   59.79    6.20
   1   4   1   65.69    6.30
  -1   4  -1   85.99    6.70
   1   4   1   57.39    6.60
   1   4   1   59.79    6.40
   2  -4   1  446.06   33.00
  -2  -4  -1  465.55   33.00
  -2  -4  -1  465.15   33.00
  -2  -4  -1  567.24   34.20
   2  -4   1  556.84   32.10
   2  -4   1  450.45   32.00
  -2  -4  -1  486.35   33.30
   2  -4   1  450.95   33.60
   2  -4   1  429.96   32.20
   2  -4   1  514.95   30.70
  -2  -4  -1  462.85   32.90
   2  -4   1  454.25   32.20
  -2  -4  -1  461.75   32.30
  -2  -4  -1  459.55   33.10
  -2  -4  -1  468.05   33.90
   2   4   1  562.94   33.30
  -2   4  -1  454.65   31.70
  -2   4  -1  447.96   31.30
   2   4   1  434.66   32.40
   2   4   1  475.35   34.60
   2   4   1  476.85   31.90
   2   4   1  446.56   33.10
   2   4   1  469.15   32.70
   2   4   1  431.36   32.40
  -2   4  -1  459.45   31.50
  -2   4  -1  493.25   31.40
   2   4   1  457.45   32.60
  -2   4  -1  488.95   33.40
  -2   4  -1  455.45   31.50
  -3  -4  -1  275.17   21.10
   3  -4   1  272.17   20.30
  -3  -4  -1  279.77   19.80
   3  -4   1  269.27   20.30
  -3  -4  -1  292.27   21.90
   3  -4   1  290.47   21.10
   3  -4   1  296.67   21.70
  -3  -4  -1  276.47   20.70
  -3  -4  -1  289.97   22.20
  -3  -4  -1  277.87   21.10
  -3  -4  -1  309.27   19.70
   3  -4   1  269.37   20.10
   3  -4   1  273.77   22.00
  -3  -4  -1  270.77   21.30
   3  -4   1  272.97   20.00
  -3  -4  -1  296.77   21.40
   3  -4   1  307.27   19.60
   3  -4   1  282.77   20.80
   3   4   1  331.07   22.70
   3   4   1  310.57   22.40
  -3   4  -1  323.67   21.40
  -3   4  -1  291.57   20.60
  -3   4  -1  292.37   19.60
   3   4   1  313.87   22.80
   3   4   1  346.27   24.80
  -3   4  -1  293.67   21.10
  -3   4  -1  280.97   22.80
   3   4   1  292.07   20.70
  -3   4  -1  304.17   22.00
   3   4   1  291.17   22.00
   3   4   1  274.47   22.00
  -3   4  -1  272.57   20.50
   3   4   1  294.57   22.90
   4  -4   1   69.89    6.50
   4  -4   1   57.99    6.10
  -4  -4  -1   62.69    5.80
   4  -4   1   62.69    7.00
   4  -4   1   63.39    6.80
  -4  -4  -1   59.49    6.80
  -4  -4  -1   80.29    7.30
   4  -4   1   57.49    6.40
  -4  -4  -1   53.49    7.50
   4  -4   1   61.59    7.90
  -4  -4  -1   87.59    8.30
  -4  -4  -1   59.79    5.40
   4  -4   1   73.89    6.80
   4   4   1   67.09    7.80
   4   4   1   89.99    8.70
   4   4   1   70.99    5.70
   4   4   1   62.79    8.20
   4   4   1   63.69    7.30
  -4   4  -1   79.89    7.10
   4   4   1   59.89    7.60
   4   4   1   63.79    7.20
  -4   4  -1   66.89    6.10
  -4   4  -1   57.79    6.90
  -4   4  -1   63.39    5.90
  -5  -4  -1  562.44   40.20
  -5  -4  -1  579.74   41.10
  -5  -4  -1  600.04   42.50
   5  -4   1  581.54   41.00
   5  -4   1  586.54   43.30
  -5  -4  -1  561.14   41.30
   5  -4   1  627.74   41.10
   5  -4   1  648.54   41.50
   5  -4   1  617.74   41.60
   5  -4   1  587.14   42.00
   5  -4   1  597.54   41.00
  -5  -4  -1  639.44   38.80
  -5   4  -1  555.94   38.60
  -5   4  -1  584.84   40.10
   5   4   1  608.04   41.80
   5   4   1  566.04   41.90
   5   4   1  590.44   41.50
   5   4   1  561.64   41.90
   5   4   1  626.14   41.60
  -6  -4  -1  239.98   18.80
   6  -4   1  227.38   20.70
   6  -4   1  228.98   18.50
   6  -4   1  223.08   17.60
   6  -4   1  219.98   19.10
  -6  -4  -1  264.67   20.30
   6  -4   1  258.77   18.90
  -6   4  -1  217.88   15.70
   6   4   1  262.87   20.70
   6   4   1  234.68   20.30
   6   4   1  220.58   19.00
   6   4   1  242.28   19.70
  -6   4  -1  209.88   17.10
  -6   4  -1  226.48   17.90
   7  -4   1  110.49   10.30
   7  -4   1   82.39   11.10
   7  -4   1   81.59    9.90
   7  -4   1  111.39   10.60
  -7  -4  -1   86.99    9.50
  -7  -4  -1  127.39   14.90
   7   4   1  102.99   12.40
   7   4   1   96.69   10.80
   7   4   1   86.09   10.40
   7   4   1   88.29   11.00
   8  -4   1   37.80    6.70
   8  -4   1   35.20    7.20
   8  -4   1   37.80    6.50
   8  -4   1   43.70    8.80
   8   4   1   38.80    7.30
   8   4   1   39.60    7.60
   8   4   1   48.60    9.00
   8   4   1   44.70    8.90
   8  -5  -1   69.29    9.00
  -8  -5   1   90.19    9.90
   8  -5  -1   70.59    9.70
   8  -5  -1   68.59    9.30
   8  -5  -1   70.39   11.50
   8   5  -1   80.09   10.60
   8   5  -1   65.69   10.30
   8   5  -1   70.89   10.20
   8   5  -1   70.69    9.70
   7  -5  -1   50.69    7.10
  -7  -5   1   38.50    7.50
  -7  -5   1   38.20    6.80
   7  -5  -1   36.70    6.20
   7  -5  -1   53.69    9.20
   7  -5  -1   35.90    6.20
  -7  -5   1   34.30    6.70
   7   5  -1   30.90    6.80
   7   5  -1   34.40    6.90
  -7   5   1   32.80    5.10
   7   5  -1   33.60    7.00
   7   5  -1   31.40    6.80
  -6  -5   1   40.10    7.20
   6  -5  -1   37.70    6.10
   6  -5  -1   48.20    7.90
   6  -5  -1   53.49    6.30
   6  -5  -1   47.20    6.70
   6  -5  -1   42.80    6.50
   6  -5  -1   37.90    7.50
  -6  -5   1   50.29    4.80
  -6  -5   1   48.10    7.90
  -6  -5   1   42.00    7.10
  -6   5   1   49.60    6.80
   6   5  -1   43.60    7.30
   6   5  -1   45.50    7.70
  -6   5   1   45.50    6.00
   6   5  -1   48.00    7.70
   6   5  -1   44.20    7.90
   5  -5  -1  375.86   28.40
  -5  -5   1  419.96   30.20
   5  -5  -1  393.06   29.00
  -5  -5   1  406.96   30.30
   5  -5  -1  399.56   28.90
  -5  -5   1  395.46   30.80
  -5  -5   1  394.16   27.70
   5  -5  -1  395.86   28.70
  -5  -5   1  402.96   28.50
   5  -5  -1  402.26   28.20
   5  -5  -1  423.16   31.20
   5   5  -1  409.76   31.00
   5   5  -1  398.26   31.20
  -5   5   1  472.75   29.80
   5   5  -1  403.06   31.00
   5   5  -1  412.96   29.90
  -5   5   1  389.76   29.10
  -5   5   1  397.06   29.70
   5   5  -1  415.66   31.10
   4  -5  -1  238.68   17.30
   4  -5  -1  238.08   20.00
   4  -5  -1  231.58   18.10
   4  -5  -1  235.48   18.30
  -4  -5   1  234.58   17.80
   4  -5  -1  235.98   18.30
  -4  -5   1  249.18   18.30
  -4  -5   1  257.17   19.70
   4  -5  -1  240.88   18.20
   4  -5  -1  247.18   18.80
  -4  -5   1  237.28   20.30
  -4  -5   1  247.88   19.70
  -4   5   1  260.37   19.40
  -4   5   1  246.48   19.20
   4   5  -1  295.47   19.00
   4   5  -1  235.48   20.20
  -4   5   1  249.97   18.80
  -4   5   1  260.37   19.60
  -4   5   1  265.47   17.40
   4   5  -1  259.07   20.60
   4   5  -1  228.88   20.10
   4   5  -1  266.27   21.10
   3  -5  -1  316.97   23.30
  -3  -5   1  309.07   23.00
   3  -5  -1  301.67   23.40
   3  -5  -1  303.87   23.20
   3  -5  -1  373.36   22.00
   3  -5  -1  328.07   24.70
   3  -5  -1  308.07   23.90
  -3  -5   1  359.86   25.50
  -3  -5   1  309.37   23.80
  -3  -5   1  295.57   23.80
  -3  -5   1  308.07   23.70
   3  -5  -1  309.67   22.90
   3   5  -1  317.07   23.80
   3   5  -1  298.37   23.80
   3   5  -1  308.97   23.60
  -3   5   1  319.97   24.10
  -3   5   1  291.17   22.40
  -3   5   1  294.67   22.40
   3   5  -1  325.77   23.70
  -3   5   1  334.87   23.00
  -3   5   1  309.07   21.90
  -3   5   1  307.67   23.50
  -3   5   1  342.27   22.30
   3   5  -1  305.67   22.00
   3   5  -1  308.77   24.00
   3   5  -1  305.07   22.50
   3   5  -1  330.77   23.90
   2  -5  -1  565.34   37.70
  -2  -5   1  551.14   38.40
   2  -5  -1  533.25   37.50
   2  -5  -1  552.14   38.70
  -2  -5   1  542.25   38.20
   2  -5  -1  542.35   37.10
   2  -5  -1  562.94   38.20
  -2  -5   1  540.25   38.00
  -2  -5   1  566.94   38.30
  -2  -5   1  512.65   38.70
  -2  -5   1  540.65   38.20
   2  -5  -1  541.35   37.80
  -2  -5   1  513.55   37.80
   2  -5  -1  586.84   37.80
  -2   5   1  548.75   37.90
   2   5  -1  545.35   39.50
  -2   5   1  511.55   37.40
   2   5  -1  543.15   38.20
  -2   5   1  534.25   38.50
   2   5  -1  567.44   38.00
  -2   5   1  557.74   37.60
   2   5  -1  524.25   38.50
   2   5  -1  585.24   36.90
   2   5  -1  526.65   38.20
   2   5  -1  666.83   39.10
  -2   5   1  527.25   38.30
  -2   5   1  561.54   38.00
  -2   5   1  535.85   36.30
  -2   5   1  549.54   38.40
   1  -5  -1 1707.13  111.19
   1  -5  -1 1569.04  110.99
   1  -5  -1 1649.04  111.29
  -1  -5   1 1681.83  111.49
  -1  -5   1 1712.83  111.69
   1  -5  -1 1864.21  111.59
   1  -5  -1 1706.23  111.79
  -1  -5   1 1619.84  111.49
  -1  -5   1 1682.23  111.49
  -1  -5   1 1760.52  111.59
   1  -5  -1 1641.04  111.99
  -1  -5   1 1713.93  111.59
   1  -5  -1 1656.13  110.89
  -1  -5   1 1684.83  111.99
  -1  -5   1 1993.10  110.29
  -1   5   1 1664.43  112.39
   1   5  -1 1748.72  112.39
  -1   5   1 1710.03  112.69
  -1   5   1 1688.13  112.39
   1   5  -1 1705.93  111.09
  -1   5   1 1695.33  111.99
   1   5  -1 1699.93  111.69
   1   5  -1 1758.52  112.69
   1   5  -1 1682.43  112.49
   1   5  -1 1670.83  112.29
   1   5  -1 1710.83  113.19
   1   5  -1 1741.03  113.59
  -1   5   1 1929.51  112.29
   1   5  -1 1872.01  112.39
  -1   5   1 1637.24  112.59
  -1   5   1 1742.73  110.79
  -1   5   1 1694.03  113.19
   0  -5  -1  779.62   54.39
   0  -5  -1  814.72   54.69
   0  -5   1  788.82   55.09
   0  -5   1  752.42   54.79
   0  -5  -1  817.02   54.79
   0  -5   1  871.31   54.89
   0  -5   1  827.22   54.69
   0  -5  -1  776.72   55.19
   0  -5   1  799.52   54.59
   0  -5  -1  918.71   54.59
   0  -5  -1  796.32   54.69
   0  -5   1  815.72   54.39
   0  -5   1  822.62   55.09
   0  -5  -1  822.42   54.89
   0  -5  -1  822.02   54.19
   0   5  -1  832.22   55.39
   0   5   1  848.82   55.99
   0   5   1  835.62   55.59
   0   5   1  846.92   55.99
   0   5   1  841.22   56.69
   0   5   1  858.21   56.09
   0   5  -1  860.61   55.79
   0   5  -1  822.62   54.69
   0   5  -1  755.32   53.79
   0   5  -1  824.62   55.99
   0   5   1  840.02   55.59
   0   5  -1  821.82   55.39
   0   5  -1  821.32   56.09
   0   5   1  859.71   57.29
   0   5   1  826.52   55.39
   1  -5   1  185.98   15.90
  -1  -5  -1  186.48   15.40
   1  -5   1  186.58   14.60
   1  -5   1  239.18   15.60
  -1  -5  -1  178.88   15.00
  -1  -5  -1  190.38   14.40
  -1  -5  -1  194.08   14.90
   1  -5   1  183.68   14.80
  -1  -5  -1  183.28   15.10
   1  -5   1  190.58   15.90
   1  -5   1  195.48   14.80
   1  -5   1  188.98   14.90
  -1  -5  -1  192.68   16.00
   1  -5   1  181.38   15.40
  -1  -5  -1  187.08   15.00
  -1  -5  -1  240.98   16.00
   1  -5   1  186.18   15.00
  -1   5  -1  223.88   14.20
   1   5   1  188.88   14.90
   1   5   1  186.18   14.70
  -1   5  -1  171.78   14.20
   1   5   1  182.98   14.30
  -1   5  -1  179.88   13.90
   1   5   1  177.08   16.40
  -1   5  -1  178.68   13.90
   1   5   1  188.58   14.90
   1   5   1  187.38   14.70
   1   5   1  165.78   15.00
   1   5   1  196.48   15.00
  -1   5  -1  171.18   14.20
  -1   5  -1  190.18   15.10
  -1   5  -1  176.18   14.20
   2  -5   1  149.29   13.10
   2  -5   1  142.29   13.30
   2  -5   1  152.68   12.50
  -2  -5  -1  154.08   12.50
  -2  -5  -1  147.49   12.80
  -2  -5  -1  142.09   12.80
   2  -5   1  142.39   12.70
  -2  -5  -1  178.28   14.50
   2  -5   1  168.68   13.70
   2  -5   1  144.19   12.20
  -2  -5  -1  146.39   12.90
   2  -5   1  183.88   12.30
  -2  -5  -1  159.38   13.80
  -2  -5  -1  158.08   13.10
  -2  -5  -1  159.68   11.80
   2  -5   1  152.58   12.10
   2  -5   1  151.88   12.40
   2   5   1  151.68   13.90
   2   5   1  161.18   13.40
  -2   5  -1  171.28   13.70
   2   5   1  165.58   13.00
   2   5   1  169.18   13.80
  -2   5  -1  160.68   12.40
  -2   5  -1  161.88   12.40
   2   5   1  160.38   12.90
   2   5   1  161.28   13.70
  -2   5  -1  170.78   12.60
  -2   5  -1  143.89   12.60
  -2   5  -1  164.68   14.20
   2   5   1  167.68   13.70
  -2   5  -1  152.48   12.10
   2   5   1  150.08   15.00
  -3  -5  -1  134.29   13.00
   3  -5   1  120.89   12.40
  -3  -5  -1  124.79   11.30
  -3  -5  -1  138.29   10.20
  -3  -5  -1  122.69   11.70
   3  -5   1  141.19    9.30
  -3  -5  -1  130.69   10.80
   3  -5   1  132.59   10.70
   3  -5   1  135.99   12.00
   3  -5   1  130.39   12.10
  -3  -5  -1  124.99   11.60
   3  -5   1  131.09   11.20
  -3   5  -1  119.39    9.30
   3   5   1  122.89   10.30
  -3   5  -1  126.79   10.10
   3   5   1  132.59   11.80
   3   5   1  117.29   10.80
  -3   5  -1  124.09   10.10
  -3   5  -1  120.09   11.40
   3   5   1  159.88   13.10
   3   5   1  120.49   11.40
  -3   5  -1  119.29   10.30
   3   5   1  115.39   11.50
   3   5   1  132.69   12.10
   3   5   1  124.59   11.60
   4  -5   1  850.71   60.79
  -4  -5  -1  970.20   59.39
   4  -5   1  875.41   59.99
   4  -5   1  862.11   62.49
  -4  -5  -1  828.02   60.89
  -4  -5  -1 1020.70   62.19
  -4  -5  -1  948.11   59.29
   4  -5   1  923.91   61.09
   4  -5   1  864.01   60.29
   4  -5   1  895.11   60.19
   4   5   1  827.02   60.09
   4   5   1  909.51   58.19
   4   5   1  865.41   60.69
   4   5   1  857.61   60.99
   4   5   1  886.71   59.99
   4   5   1  914.81   60.49
  -4   5  -1  921.91   58.09
   4   5   1  870.41   60.39
  -5  -5  -1   48.20    6.30
   5  -5   1   46.20    6.00
   5  -5   1   44.30    5.40
  -5  -5  -1   54.79    5.30
   5  -5   1   41.50    5.90
   5  -5   1   47.00    6.60
  -5  -5  -1   50.89    7.60
   5  -5   1   44.70    5.90
   5  -5   1   48.20    8.10
   5  -5   1   56.19    6.60
   5   5   1   42.70    6.50
  -5   5  -1   42.90    4.60
  -5   5  -1   52.09    6.20
   5   5   1   43.20    7.10
   5   5   1   60.79    8.10
   5   5   1   48.50    7.70
   5   5   1   41.20    7.30
  -5   5  -1   50.19    4.90
   6  -5   1  326.57   22.80
  -6  -5  -1  368.26   24.10
   6  -5   1  274.97   22.40
   6  -5   1  272.07   23.50
   6  -5   1  290.17   25.50
   6  -5   1  290.37   22.90
   6   5   1  292.27   24.10
   6   5   1  312.47   24.30
   6   5   1  305.87   24.50
   6   5   1  287.17   24.80
   6   5   1  291.87   24.80
   7  -5   1   52.99    8.50
   7  -5   1   60.29    8.90
   7  -5   1   49.50    6.70
   7  -5   1   60.79    6.90
   7  -5   1   59.39    7.10
   7   5   1   71.29   10.10
   7   5   1   50.19    9.00
   7   5   1   57.79    8.60
   7   5   1   52.49    8.40
   7   5   1   49.30    8.30
   8  -5   1   36.30    6.40
   8   5   1   29.70    7.40
  -8  -6   1  107.99   11.50
   8  -6  -1   84.49   10.60
   8  -6  -1   94.39   11.10
   8   6  -1   85.39   11.30
   7  -6  -1   73.59    8.70
  -7  -6   1   71.29    9.40
   7  -6  -1   70.39   10.90
   7  -6  -1   64.29    7.90
  -7  -6   1   77.29    9.60
   7  -6  -1   73.39    8.50
  -7  -6   1   72.29   10.40
   7   6  -1   72.89   10.00
   7   6  -1   72.49   10.20
   7   6  -1   78.49   10.40
   7   6  -1   63.39    8.00
   7   6  -1   70.39    9.90
  -6  -6   1   30.70    6.60
   6  -6  -1   30.10    5.60
   6  -6  -1   38.90    6.20
  -6  -6   1   28.20    6.50
   6  -6  -1   25.70    5.60
   6  -6  -1   36.90    5.90
  -6  -6   1   32.90    6.50
   6  -6  -1   41.80    7.90
  -6   6   1   37.10    6.20
   6   6  -1   37.70    7.30
   6   6  -1   30.00    6.80
   6   6  -1   34.30    7.00
  -6   6   1   30.10    5.10
   6   6  -1   40.80    6.40
   6   6  -1   42.50    7.70
  -5  -6   1  456.05   35.50
  -5  -6   1  453.45   33.00
  -5  -6   1  490.55   34.90
   5  -6  -1  574.44   34.60
   5  -6  -1  433.76   33.30
   5  -6  -1  455.65   35.70
   5  -6  -1  463.95   33.40
  -5  -6   1  467.65   32.70
   5  -6  -1  476.65   33.70
  -5  -6   1  438.96   34.70
   5   6  -1  473.85   36.00
   5   6  -1  530.45   37.10
  -5   6   1  503.45   34.60
  -5   6   1  462.45   34.30
  -5   6   1  476.25   34.70
   5   6  -1  501.45   36.60
   5   6  -1  475.25   34.50
   4  -6  -1  578.54   43.00
  -4  -6   1  590.64   41.00
   4  -6  -1  592.54   41.10
   4  -6  -1  608.44   41.40
   4  -6  -1  591.24   41.90
  -4  -6   1  579.94   43.50
   4  -6  -1  595.74   39.50
   4  -6  -1  595.04   41.50
   4  -6  -1  621.84   41.70
  -4  -6   1  613.04   42.60
  -4   6   1  577.74   41.00
  -4   6   1  557.04   39.20
   4   6  -1  678.43   41.00
   4   6  -1  559.94   42.20
   4   6  -1  551.44   42.10
   4   6  -1  570.94   42.10
  -4   6   1  592.94   39.80
  -4   6   1  585.14   40.80
   4   6  -1  662.23   40.80
  -4   6   1  598.94   41.10
   4   6  -1  587.24   42.70
  -3  -6   1 1527.45  102.59
   3  -6  -1 1602.54  100.89
   3  -6  -1 1514.65  100.99
   3  -6  -1 1537.55  100.59
  -3  -6   1 1541.75  101.49
   3  -6  -1 1494.25   99.99
  -3  -6   1 1455.25  101.09
   3  -6  -1 1554.44  101.99
  -3  -6   1 1550.74  100.49
   3   6  -1 1646.84  106.19
   3   6  -1 1713.73  103.79
   3   6  -1 1525.45  105.69
   3   6  -1 1598.04  105.29
   3   6  -1 1613.54  104.49
  -3   6   1 1579.54  104.69
  -3   6   1 1548.84  102.79
   3   6  -1 1641.54  105.79
  -3   6   1 1556.84  105.79
  -3   6   1 1547.25  103.69
   2  -6  -1  624.34   44.20
   2  -6  -1  647.14   44.90
  -2  -6   1  653.43   45.30
   2  -6  -1  638.14   45.30
  -2  -6   1  658.53   45.00
   2  -6  -1  660.23   45.20
   2  -6  -1  631.24   44.70
  -2  -6   1  716.23   46.90
   2  -6  -1  656.03   45.40
  -2  -6   1  644.84   45.30
   2   6  -1  671.03   45.90
  -2   6   1  617.74   44.00
   2   6  -1  659.83   44.80
   2   6  -1  668.23   43.40
  -2   6   1  667.03   44.70
   2   6  -1  638.34   44.80
  -2   6   1  613.84   44.70
  -2   6   1  676.33   42.50
  -2   6   1  624.34   44.00
  -2   6   1  624.34   45.00
  -2   6   1  670.03   45.80
  -1  -6   1  338.47   24.50
  -1  -6   1  323.97   24.50
  -1  -6   1  314.47   22.80
   1  -6  -1  349.67   24.70
   1  -6  -1  323.27   23.80
   1  -6  -1  338.47   24.90
  -1  -6   1  333.47   24.70
   1  -6  -1  300.97   23.90
   1  -6  -1  321.27   24.30
  -1  -6   1  344.97   24.50
   1  -6  -1  332.57   24.00
  -1  -6   1  336.17   24.60
  -1  -6   1  316.57   24.60
   1   6  -1  321.17   23.50
   1   6  -1  328.97   25.00
   1   6  -1  320.97   22.70
  -1   6   1  292.87   22.80
   1   6  -1  314.47   25.90
  -1   6   1  301.77   23.50
   1   6  -1  304.17   23.10
  -1   6   1  324.47   23.60
   1   6  -1  318.77   24.20
  -1   6   1  333.47   21.60
  -1   6   1  312.77   23.10
   1   6  -1  330.67   23.60
   0  -6   1  144.89   12.40
   0  -6   1  133.09   12.40
   0  -6  -1  144.59   12.50
   0  -6   1  144.89   11.40
   0  -6  -1  133.49   12.00
   0  -6   1  172.18   13.60
   0  -6  -1  148.79   12.50
   0  -6  -1  183.48   13.10
   0  -6  -1  140.59   12.60
   0  -6   1  134.49   12.90
   0  -6  -1  143.99   12.90
   0  -6   1  145.79   12.70
   0  -6  -1  146.49   12.20
   0  -6   1  121.39   12.30
   0   6   1  129.59   11.70
   0   6   1  133.39   12.20
   0   6   1  141.49   12.00
   0   6  -1  152.98   12.90
   0   6   1  131.99   12.10
   0   6   1  149.09   13.20
   0   6  -1  134.69   11.50
   0   6  -1  140.89   11.70
   0   6  -1  136.49   10.90
   0   6   1  131.79   11.40
   0   6   1  136.19   13.90
   0   6  -1  132.59   11.30
   0   6  -1  129.99    9.80
   1  -6   1  322.67   24.90
   1  -6   1  371.26   24.70
   1  -6   1  341.77   23.80
  -1  -6  -1  305.37   24.10
   1  -6   1  344.07   25.30
  -1  -6  -1  306.47   24.10
  -1  -6  -1  332.17   23.90
  -1  -6  -1  330.57   24.40
   1  -6   1  305.17   23.90
   1   6   1  334.17   24.90
  -1   6  -1  339.57   24.40
  -1   6  -1  337.37   24.80
   1   6   1  357.96   26.50
  -1   6  -1  337.97   24.00
  -1   6  -1  342.77   24.20
   1   6   1  347.57   24.60
   1   6   1  314.37   24.70
   1   6   1  338.37   25.40
   1   6   1  334.47   25.00
   2  -6   1  678.33   50.69
   2  -6   1  827.22   49.80
  -2  -6  -1  718.83   51.59
   2  -6   1  715.73   50.19
   2  -6   1  783.02   51.79
   2  -6   1  745.83   49.70
  -2  -6  -1  691.43   49.90
  -2  -6  -1  730.33   49.10
   2  -6   1  704.93   49.90
  -2  -6  -1  772.42   50.89
  -2  -6  -1  751.42   50.99
  -2   6  -1  658.53   48.00
  -2   6  -1  695.13   48.40
   2   6   1  796.32   50.39
   2   6   1  708.03   49.30
  -2   6  -1  761.82   48.70
   2   6   1  767.32   50.99
   2   6   1  730.43   50.09
   2   6   1  706.03   49.00
  -2   6  -1  691.53   48.60
   2   6   1  746.03   50.19
  -3  -6  -1  377.46   30.50
  -3  -6  -1  395.76   28.70
   3  -6   1  386.86   29.10
   3  -6   1  397.66   30.90
   3  -6   1  477.95   29.80
  -3  -6  -1  404.16   29.80
  -3   6  -1  410.36   30.20
  -3   6  -1  486.45   30.40
   3   6   1  417.76   32.10
  -3   6  -1  407.26   29.80
   3   6   1  426.76   31.40
   3   6   1  523.95   31.40
  -3   6  -1  411.06   30.50
   3   6   1  401.36   32.60
   3   6   1  478.85   32.70
  -4  -6  -1   53.59    5.30
   4  -6   1   50.29    5.80
   4  -6   1   54.09    6.30
  -4  -6  -1   48.20    7.10
   4  -6   1   59.09    7.20
   4  -6   1   55.69    4.50
  -4  -6  -1   54.09    5.80
   4  -6   1   51.89    6.90
   4  -6   1   47.90    6.40
   4  -6   1   45.00    7.90
  -4  -6  -1   56.19    7.70
   4   6   1   48.40    6.60
   4   6   1   55.19    7.20
   4   6   1   59.29    8.50
  -4   6  -1   57.49    5.50
  -4   6  -1   46.00    6.10
   4   6   1   43.30    6.70
   4   6   1   57.59    6.00
  -4   6  -1   53.49    5.50
   4   6   1   46.50    7.50
  -5  -6  -1  483.35   35.40
  -5  -6  -1  495.45   32.40
  -5  -6  -1  464.75   34.60
   5  -6   1  487.05   36.50
   5  -6   1  447.86   33.50
   5  -6   1  487.75   34.50
   5  -6   1  480.75   34.80
   5   6   1  469.95   35.60
   5   6   1  449.36   34.90
   5   6   1  485.35   35.40
   5   6   1  469.05   34.40
   5   6   1  477.85   36.00
   6  -6   1   53.99    6.90
   6  -6   1   51.79    6.90
   6  -6   1   69.49    8.50
   6  -6   1   52.19    7.00
  -6  -6  -1   58.29    7.80
  -6  -6  -1   57.39    7.80
   6  -6   1   46.20    9.00
   6   6   1   55.49    8.00
   6   6   1   49.70    8.60
   6   6   1   65.39    9.50
   6   6   1   54.79    8.00
   6   6   1   54.59    8.80
   7  -6   1   15.70    4.50
   7  -6   1   12.50    4.00
   7  -6   1   16.00    5.90
   7  -6   1   23.30    5.60
   7  -6   1   13.90    4.30
  -7  -6  -1   17.10    4.60
   7   6   1   20.20    5.80
   7   6   1   17.70    5.70
   7   6   1   17.70    5.40
   7   6   1   22.60    6.20
   7   6   1   15.30    5.20
   7  -7  -1   51.49    7.80
  -7  -7   1   41.70    7.80
   7  -7  -1   38.80    6.50
   7  -7  -1   46.80    9.40
  -7  -7   1   52.39    9.00
   7  -7  -1   37.80    7.10
   7  -7  -1   41.40    7.30
  -7  -7   1   65.69   10.00
   7   7  -1   44.60    8.10
   7   7  -1   44.80    8.50
   7   7  -1   39.50    8.30
   7   7  -1   55.79    9.30
   6  -7  -1  254.27   22.90
   6  -7  -1  264.67   20.80
   6  -7  -1  246.08   20.70
  -6  -7   1  253.97   22.90
   6  -7  -1  267.07   21.00
  -6  -7   1  272.47   22.40
   6  -7  -1  269.97   21.20
  -6  -7   1  249.18   21.80
  -6   7   1  304.47   21.50
   6   7  -1  282.97   23.70
   6   7  -1  283.07   23.90
   6   7  -1  288.87   24.10
   6   7  -1  269.67   24.10
   6   7  -1  270.07   21.90
  -5  -7   1   71.49    9.90
  -5  -7   1   65.69    8.60
   5  -7  -1   44.40    8.40
   5  -7  -1   58.39    7.70
   5  -7  -1   72.09    8.00
   5  -7  -1   70.79    7.90
   5  -7  -1   45.00    7.20
  -5  -7   1   67.19    7.10
  -5  -7   1   46.90    8.00
  -5   7   1   48.00    7.00
   5   7  -1   45.20    6.20
   5   7  -1   44.70    7.70
  -5   7   1   63.89    7.20
   5   7  -1   70.39    9.00
   5   7  -1   58.89    8.70
  -4  -7   1   79.59    9.90
  -4  -7   1   72.59    9.50
   4  -7  -1   99.29    9.60
   4  -7  -1   74.99    8.20
   4  -7  -1  100.69   11.00
   4  -7  -1   78.19    8.30
  -4  -7   1   81.49    8.80
  -4  -7   1   74.49   10.40
   4  -7  -1  106.29   11.30
   4  -7  -1   75.99    9.00
  -4   7   1   77.29    8.70
   4   7  -1   87.99   10.20
  -4   7   1   75.29    8.60
   4   7  -1   86.89    9.90
   4   7  -1   89.09    8.10
   4   7  -1   81.19    9.70
  -3  -7   1    1.40    2.30
   3  -7  -1    1.20    2.10
   3  -7  -1    1.50    2.10
   3  -7  -1    2.60    2.60
   3  -7  -1    3.30    2.90
   3  -7  -1    1.30    2.10
  -3  -7   1   -1.20    2.40
  -3  -7   1    2.20    3.00
  -3  -7   1    2.70    3.00
  -3   7   1    1.30    2.00
  -3   7   1    1.60    2.40
  -3   7   1    2.30    1.90
   3   7  -1   -0.70    2.70
   3   7  -1   -1.00    1.50
   3   7  -1    1.60    1.40
  -3   7   1    0.50    0.70
  -3   7   1    0.70    2.20
   2  -7  -1  146.19   13.20
   2  -7  -1  176.08   14.40
  -2  -7   1  127.79   14.00
  -2  -7   1  133.79   13.20
  -2  -7   1  144.89   13.40
  -2  -7   1  176.58   13.70
   2  -7  -1  138.49   12.40
  -2  -7   1  148.69   13.70
   2  -7  -1  145.09   13.80
   2  -7  -1  144.99   13.20
   2   7  -1  146.59   13.40
  -2   7   1  161.68   10.60
   2   7  -1  142.49   11.60
   2   7  -1  150.38   14.20
  -2   7   1  143.59   13.20
  -2   7   1  145.29   13.20
  -2   7   1  136.49   12.40
   2   7  -1  147.39   13.30
   2   7  -1  152.18   13.40
   1  -7  -1  297.77   22.30
   1  -7  -1  295.97   22.00
   1  -7  -1  276.77   21.50
  -1  -7   1  290.67   22.60
  -1  -7   1  295.67   22.60
  -1  -7   1  289.47   22.20
  -1  -7   1  281.67   22.50
   1  -7  -1  265.97   21.70
   1  -7  -1  300.47   22.80
  -1  -7   1  290.67   20.80
   1   7  -1  304.07   22.10
  -1   7   1  287.27   20.60
   1   7  -1  288.77   22.90
  -1   7   1  278.57   22.60
   1   7  -1  320.47   22.90
   1   7  -1  287.17   23.70
   1   7  -1  343.77   21.90
  -1   7   1  337.97   23.00
  -1   7   1  275.57   22.40
   0  -7  -1  330.27   25.20
   0  -7  -1  354.66   25.90
   0  -7   1  335.87   24.50
   0  -7   1  355.56   26.60
   0  -7   1  423.56   26.90
   0  -7   1  326.37   26.10
   0  -7  -1  344.17   25.30
   0  -7   1  336.87   25.90
   0  -7   1  341.07   25.40
   0  -7   1  337.17   26.20
   0   7   1  352.76   25.40
   0   7  -1  340.07   25.40
   0   7   1  358.26   25.50
   0   7   1  338.87   26.70
   0   7  -1  318.37   24.70
   0   7  -1  343.27   23.10
   0   7  -1  347.17   24.70
   0   7  -1  366.76   25.60
   1  -7   1  297.77   21.80
  -1  -7  -1  283.57   21.90
  -1  -7  -1  298.97   22.60
   1  -7   1  304.67   22.60
   1  -7   1  270.27   22.30
   1  -7   1  299.27   22.60
  -1  -7  -1  296.97   23.00
  -1  -7  -1  293.17   21.70
  -1  -7  -1  315.27   23.10
   1  -7   1  297.27   22.00
   1  -7   1  301.87   23.20
   1  -7   1  268.17   22.90
  -1   7  -1  295.67   22.40
  -1   7  -1  284.07   21.60
  -1   7  -1  315.47   22.00
  -1   7  -1  307.27   21.50
   1   7   1  281.97   21.70
  -1   7  -1  251.97   21.20
   1   7   1  279.87   23.30
   1   7   1  302.47   22.60
   1   7   1  295.67   22.40
  -2  -7  -1  670.03   46.20
   2  -7   1  690.53   46.20
  -2  -7  -1  671.33   44.90
   2  -7   1  662.03   46.90
   2  -7   1  660.93   45.90
  -2  -7  -1  649.14   46.40
   2  -7   1  656.33   45.20
   2  -7   1  639.84   47.20
   2  -7   1  684.73   46.00
   2   7   1  641.44   49.50
  -2   7  -1  827.12   48.00
   2   7   1  692.43   48.80
   2   7   1  637.94   48.30
  -2   7  -1  671.03   47.60
  -2   7  -1  688.53   47.00
   2   7   1  706.13   48.80
   2   7   1  726.13   48.00
  -3  -7  -1  535.25   38.70
  -3  -7  -1  527.35   37.50
   3  -7   1  529.95   38.80
  -3  -7  -1  594.54   36.50
   3  -7   1  527.85   37.00
  -3  -7  -1  500.35   38.10
   3  -7   1  517.65   39.50
  -3   7  -1  517.85   37.50
  -3   7  -1  532.45   37.10
   3   7   1  543.55   38.30
  -3   7  -1  631.74   37.70
  -3   7  -1  519.95   37.00
   3   7   1  550.94   39.50
   3   7   1  510.05   39.80
   4  -7   1  108.69    9.90
   4  -7   1   81.59    8.70
   4  -7   1   73.59    8.20
   4  -7   1   87.39   10.60
   4  -7   1   84.39    9.90
  -4  -7  -1   77.59    9.40
  -4  -7  -1   80.99    8.20
  -4  -7  -1   87.99    7.50
  -4  -7  -1   71.19    8.90
  -4   7  -1   79.39    7.50
   4   7   1   81.79    9.00
   4   7   1  111.99   11.10
   4   7   1   81.59   10.70
   4   7   1   75.19    9.50
  -4   7  -1   84.29    8.60
   5  -7   1  134.79   11.80
   5  -7   1  111.99   11.70
   5  -7   1  107.19   11.40
  -5  -7  -1  109.99    9.80
   5  -7   1  109.59   12.80
   5  -7   1  129.49   11.20
  -5  -7  -1  120.39   12.60
  -5  -7  -1  102.19   11.20
   5   7   1  111.89   11.90
   5   7   1  100.99   11.90
   5   7   1  114.89   11.10
   5   7   1  106.09   12.30
   5   7   1  102.29   12.20
  -6  -7  -1   54.09    8.60
   6  -7   1   37.70    6.10
   6  -7   1   52.09    9.40
   6  -7   1   40.90    7.10
  -6  -7  -1   46.20    7.20
   6  -7   1   45.70    7.10
   6  -7   1   40.00    6.70
   6   7   1   39.40    7.40
   6   7   1   51.59    9.10
   6   7   1   39.40    7.00
   6   7   1   46.40    8.10
   6   7   1   40.00    7.90
  -7  -7  -1   28.90    5.90
   7  -7   1   25.30    6.10
   7  -7   1   29.20    6.00
   7   7   1   26.50    6.90
   7   7   1   29.90    6.10
  -6  -8   1   86.89   12.20
  -6  -8   1  119.49   13.10
  -6  -8   1   95.69   11.40
   6  -8  -1  114.29   11.10
   6  -8  -1   93.89   11.10
   6  -8  -1  119.89   11.90
   6  -8  -1   89.59   12.20
   6  -8  -1  133.19   12.00
   6   8  -1  100.29   12.00
   6   8  -1   95.49   11.60
   6   8  -1   98.79   11.80
   5  -8  -1  229.28   19.90
   5  -8  -1  246.58   19.80
   5  -8  -1  237.08   20.00
   5  -8  -1  239.88   22.10
  -5  -8   1  226.18   20.70
  -5  -8   1  232.78   19.00
  -5  -8   1  230.58   22.10
   5  -8  -1  278.67   20.20
  -5  -8   1  270.97   21.70
  -5   8   1  230.88   19.30
   5   8  -1  237.88   21.50
   5   8  -1  310.97   23.10
   5   8  -1  230.68   21.00
   4  -8  -1   22.60    4.70
   4  -8  -1   19.20    4.80
  -4  -8   1   22.40    4.80
   4  -8  -1   33.20    5.50
   4  -8  -1   21.60    5.70
  -4  -8   1   19.90    5.10
  -4  -8   1   24.40    5.50
  -4  -8   1   21.80    6.20
   4  -8  -1   21.40    4.80
  -4   8   1   19.10    4.40
  -4   8   1   20.50    4.60
   4   8  -1   23.50    5.50
   4   8  -1   27.70    6.50
   4   8  -1   20.80    4.00
   3  -8  -1    1.30    3.10
   3  -8  -1    2.10    3.10
  -3  -8   1    2.20    2.20
  -3  -8   1   -1.40    2.00
  -3  -8   1    1.70    2.20
   3  -8  -1    2.10    2.30
  -3  -8   1    2.50    2.40
   3  -8  -1    2.20    2.70
  -3  -8   1    1.00    2.20
   3   8  -1    1.60    1.70
  -3   8   1    2.30    2.60
   3   8  -1   -0.50    2.30
   3   8  -1    2.50    2.60
  -3   8   1    2.70    2.40
   3   8  -1   -1.30    2.40
   2  -8  -1   61.29    8.20
   2  -8  -1   64.79    8.20
   2  -8  -1   63.79    7.90
  -2  -8   1   53.69    8.30
  -2  -8   1   69.39    8.80
  -2  -8   1   97.09    9.60
   2  -8  -1   65.39    7.40
  -2  -8   1   69.49    8.20
  -2  -8   1   68.49    8.60
   2   8  -1   58.19    6.10
  -2   8   1   66.29    7.70
  -2   8   1   54.29    7.10
   2   8  -1   56.79    8.60
   2   8  -1   63.69    8.30
  -2   8   1   54.79    7.30
   1  -8  -1   11.60    3.80
   1  -8  -1   14.30    4.30
  -1  -8   1   13.70    3.80
   1  -8  -1    8.10    3.10
  -1  -8   1   10.10    4.40
  -1  -8   1   11.70    3.90
  -1  -8   1   14.30    3.00
  -1  -8   1   15.90    4.60
   1  -8  -1   20.50    4.60
  -1  -8   1    9.30    3.80
   1   8  -1   12.40    2.90
  -1   8   1   11.90    3.80
   1   8  -1   14.70    3.20
  -1   8   1   11.00    1.90
  -1   8   1    9.70    2.90
   1   8  -1   15.30    4.50
  -1   8   1   19.70    4.60
   1   8  -1   12.10    3.70
   0  -8   1   93.79   10.40
   0  -8   1  112.69   10.40
   0  -8   1   85.29    9.90
   0  -8  -1   88.49    9.60
   0  -8   1   93.49   10.40
   0  -8   1  106.99    9.30
   0  -8  -1  100.79   10.00
   0  -8   1   96.39   10.30
   0  -8  -1   98.79   10.90
   0   8  -1   87.09    8.70
   0   8   1   84.79    8.10
   0   8   1   85.09    9.30
   0   8   1   74.19   10.10
   0   8  -1   91.69    6.80
   0   8  -1  115.59    9.80
   0   8   1   96.19    8.00
   0   8  -1  102.49    9.90
   0   8  -1   94.59    6.70
   0   8   1   82.09    9.50
   0   8   1  110.19   10.00
   1  -8   1  788.22   56.89
  -1  -8  -1  849.91   58.29
   1  -8   1  823.72   58.49
   1  -8   1  806.52   57.89
   1  -8   1  862.41   58.19
  -1  -8  -1  937.31   58.39
   1  -8   1  826.32   58.49
  -1  -8  -1  829.02   56.89
  -1  -8  -1  869.41   58.29
   1  -8   1  837.52   56.89
   1   8   1  932.31   59.59
  -1   8  -1  926.81   59.29
  -1   8  -1  809.02   58.89
   1   8   1  873.31   61.69
   1   8   1  878.91   60.09
   1   8   1  870.31   59.19
   1   8   1  858.71   59.99
  -1   8  -1  860.81   58.69
  -2  -8  -1   68.79    8.60
   2  -8   1   73.79    9.20
  -2  -8  -1   75.09    7.60
   2  -8   1   64.29    8.30
   2  -8   1   84.99   10.10
  -2  -8  -1   72.29    8.90
   2  -8   1   85.69    8.30
  -2  -8  -1   70.59    8.70
   2   8   1   62.39    8.70
  -2   8  -1   82.69    8.20
   2   8   1   67.29    9.90
  -2   8  -1   58.59    6.90
   2   8   1   90.79    9.50
   2   8   1   72.69    8.20
  -2   8  -1   90.99    8.60
   3  -8   1  329.97   25.30
   3  -8   1  321.77   26.20
  -3  -8  -1  369.56   23.70
  -3  -8  -1  317.87   24.60
   3  -8   1  327.87   24.20
  -3  -8  -1  324.97   25.60
  -3  -8  -1  297.27   25.20
   3  -8   1  320.77   26.40
   3   8   1  330.17   27.00
   3   8   1  327.57   27.80
  -3   8  -1  340.57   24.90
  -3   8  -1  331.67   25.50
   3   8   1  404.76   26.50
  -4  -8  -1   -0.50    2.00
   4  -8   1    3.90    2.10
   4  -8   1    3.10    3.80
   4  -8   1    3.20    3.40
   4  -8   1    2.10    3.00
  -4  -8  -1    0.40    2.10
   4  -8   1    0.30    1.70
  -4  -8  -1    3.70    2.60
   4   8   1    2.30    2.80
   4   8   1    2.30    2.70
   4   8   1    2.90    2.60
  -4   8  -1    3.00    2.00
   4   8   1    6.30    4.40
  -5  -8  -1   21.40    5.40
   5  -8   1   20.50    4.50
   5  -8   1   14.40    3.90
   5  -8   1   15.90    4.20
   5  -8   1   13.50    4.70
   5  -8   1   18.40    5.50
  -5  -8  -1   15.80    5.30
   5   8   1   15.00    5.10
   5   8   1   24.50    6.00
   5   8   1   22.10    4.90
   5   8   1   21.70    6.40
   6  -8   1  143.39   12.80
   6  -8   1  111.29   12.10
   6  -8   1  111.19   11.40
  -6  -8  -1  102.29   11.40
   6   8   1  154.08   16.00
   6   8   1  101.69   14.40
   6   8   1  142.29   14.80
  -6  -9   1  135.79   14.60
   6  -9  -1  137.09   13.20
   6   9  -1  190.38   18.70
   5  -9  -1    5.30    2.80
   5  -9  -1   10.00    4.40
  -5  -9   1    3.50    3.20
   5  -9  -1    7.70    4.10
   5  -9  -1    7.20    3.00
  -5  -9   1    5.30    3.10
  -5  -9   1   12.30    4.70
   5  -9  -1    8.40    4.00
   5   9  -1    8.20    4.00
   5   9  -1    9.00    4.30
  -5   9   1    4.50    2.60
  -4  -9   1   86.19   11.30
   4  -9  -1   86.19    9.20
   4  -9  -1   85.19   10.70
   4  -9  -1   77.89    9.50
  -4  -9   1   94.89   11.10
   4  -9  -1  112.49   11.50
  -4  -9   1   79.19    9.60
   4  -9  -1   82.19    9.00
  -4  -9   1   91.49   11.20
   4   9  -1   85.39   10.80
   4   9  -1   75.79    9.40
  -4   9   1   87.29    9.20
  -3  -9   1    2.00    2.50
  -3  -9   1    5.10    2.80
  -3  -9   1   -1.50    3.20
   3  -9  -1    2.10    2.00
  -3  -9   1    4.20    3.40
  -3  -9   1    3.00    2.50
   3  -9  -1    5.50    3.20
   3  -9  -1    2.80    3.20
   3  -9  -1    2.50    2.70
   3   9  -1    1.60    2.20
  -3   9   1    0.00    2.70
   3   9  -1    1.20    3.10
  -3   9   1    4.00    2.20
   3   9  -1    2.70    4.00
  -2  -9   1  318.47   25.60
  -2  -9   1  386.66   27.00
   2  -9  -1  320.77   25.30
   2  -9  -1  316.07   26.50
   2  -9  -1  340.47   26.20
  -2  -9   1  321.67   27.50
  -2  -9   1  399.26   27.50
   2  -9  -1  309.77   26.30
  -2  -9   1  316.17   26.20
   2   9  -1  348.97   26.30
   2   9  -1  358.86   24.10
   2   9  -1  322.27   25.50
  -2   9   1  318.77   25.70
   2   9  -1  322.17   26.90
  -2   9   1  313.37   24.90
  -2   9   1  329.37   25.00
  -1  -9   1   69.39    8.30
  -1  -9   1   48.20    8.10
  -1  -9   1   58.79    7.80
   1  -9  -1   43.90    7.00
   1  -9  -1   40.60    7.20
   1  -9  -1   51.89    7.90
  -1  -9   1   44.40    7.60
  -1  -9   1   43.90    8.00
   1  -9  -1   74.09    8.20
   1   9  -1   53.49    6.10
   1   9  -1   53.29    7.20
   1   9  -1   51.59    7.10
  -1   9   1   53.49    6.90
  -1   9   1   53.69    7.40
  -1   9   1   50.19    6.80
   0  -9  -1  206.98   17.30
   0  -9  -1  189.98   16.10
   0  -9   1  195.18   17.00
   0  -9  -1  187.68   16.10
   0  -9   1  181.78   15.90
   0  -9  -1  183.78   16.50
   0  -9   1  187.78   17.00
   0  -9   1  174.38   16.90
   0  -9   1  170.48   16.10
   0   9  -1  194.38   16.30
   0   9   1  202.68   17.00
   0   9  -1  240.88   16.60
   0   9   1  191.28   17.00
   0   9  -1  196.28   16.90
   0   9   1  183.58   16.80
   1  -9   1  162.88   15.10
  -1  -9  -1  138.49   12.90
  -1  -9  -1  134.49   13.60
   1  -9   1  134.59   13.20
   1  -9   1  166.18   15.20
  -1  -9  -1  143.39   14.10
   1  -9   1  162.88   14.30
   1   9   1  147.39   12.90
  -1   9  -1  130.89   11.90
  -1   9  -1  140.19   12.90
   1   9   1  129.99   13.30
   1   9   1  126.59   14.10
   1   9   1  183.58   14.70
  -2  -9  -1  209.68   16.80
   2  -9   1  213.78   19.20
  -2  -9  -1  185.68   17.70
   2  -9   1  216.88   17.30
   2  -9   1  222.08   19.40
  -2  -9  -1  250.17   19.40
  -2  -9  -1  208.48   18.60
   2  -9   1  207.48   18.00
   2   9   1  193.78   17.90
   2   9   1  219.48   17.50
  -2   9  -1  221.58   16.70
  -2   9  -1  208.78   17.20
   2   9   1  211.38   19.70
   2   9   1  205.28   18.40
  -3  -9  -1  102.09   11.20
   3  -9   1   78.99    9.00
   3  -9   1  117.99   12.30
   3  -9   1   83.39   10.00
  -3  -9  -1   90.49   10.40
   3  -9   1   90.59   11.30
  -3  -9  -1   81.49    9.60
   3   9   1   78.19   10.10
   3   9   1   93.99    9.50
   3   9   1   81.99   11.60
   3   9   1   92.69   10.50
  -3   9  -1   77.09    8.10
   4  -9   1   21.30    5.30
  -4  -9  -1   23.80    5.90
   4  -9   1   24.40    5.30
   4  -9   1   37.00    5.70
   4  -9   1   19.30    4.70
   4  -9   1   18.00    5.70
  -4  -9  -1   24.00    6.10
  -4  -9  -1   23.20    5.00
   4   9   1   28.90    6.30
   4   9   1   21.90    6.00
   4   9   1   26.00    6.50
   5  -9   1   23.50    5.50
  -5  -9  -1   11.40    4.50
   5  -9   1   17.00    6.10
   5  -9   1    8.10    4.40
  -5  -9  -1    9.60    4.20
   5  -9   1   10.20    4.20
   5   9   1   11.90    4.70
   5   9   1   14.00    5.70
   4 -10  -1   64.69    8.30
  -4 -10   1   89.69   12.60
   4 -10  -1   72.29    9.70
   4 -10  -1   97.59   11.80
   4 -10  -1   74.89    8.90
   4 -10  -1   60.99    9.30
  -4 -10   1   88.19   10.10
  -4 -10   1   98.39   11.30
   4  10  -1   78.69   11.40
   4  10  -1   75.19   10.10
   4  10  -1   66.69    9.40
  -4  10   1   76.79    8.70
  -3 -10   1  608.54   45.50
  -3 -10   1  562.14   46.00
   3 -10  -1  624.94   45.00
   3 -10  -1  610.24   45.80
  -3 -10   1  600.84   45.20
   3 -10  -1  709.53   44.50
   3 -10  -1  638.94   45.80
   3  10  -1  639.54   47.20
  -3  10   1  685.53   45.90
   3  10  -1  633.04   46.70
   2 -10  -1   79.19    9.80
  -2 -10   1   58.39   10.30
  -2 -10   1   90.79    9.80
  -2 -10   1   93.29   10.70
   2 -10  -1   64.39    8.20
   2 -10  -1   60.79    9.90
   2 -10  -1   78.19    9.70
  -2 -10   1   93.29   10.50
  -2 -10   1   61.49    9.00
  -2  10   1   76.89    9.90
   2  10  -1   68.69    9.80
  -2  10   1   93.99    9.70
   2  10  -1   78.59    9.60
  -2  10   1   71.99    8.90
  -1 -10   1   50.29    8.30
  -1 -10   1   51.59    7.70
   1 -10  -1   47.90    7.20
   1 -10  -1   47.20    8.00
  -1 -10   1   50.19    8.00
  -1 -10   1   64.79    8.30
  -1 -10   1   37.30    7.30
   1 -10  -1   55.39    8.10
   1 -10  -1   62.29    8.00
  -1  10   1   52.79    7.40
  -1  10   1   55.59    8.10
  -1  10   1   53.09    7.70
   1  10  -1   49.20    7.90
   1  10  -1   54.19    7.50
   0 -10   1    5.30    3.80
   0 -10  -1    1.90    3.00
   0 -10   1    2.80    2.90
   0 -10  -1   10.10    4.20
   0 -10  -1    2.80    2.90
   0 -10  -1    6.20    3.80
   0 -10   1    2.30    2.90
   0  10   1    2.30    3.30
   0  10   1    7.10    3.40
   0  10  -1    5.70    3.50
   0  10  -1    3.60    2.90
   0  10   1    7.10    3.10
   1 -10   1   57.99    9.30
   1 -10   1   56.99    8.20
   1 -10   1   48.10    8.00
  -1 -10  -1   50.19    8.20
  -1 -10  -1   70.29    9.00
  -1 -10  -1   63.69    8.60
  -1 -10  -1   55.69    8.10
   1 -10   1   50.29    7.70
   1  10   1   54.49    9.30
   1  10   1   41.50    7.20
  -1  10  -1   48.50    6.50
   1  10   1   52.69    7.30
   1  10   1   49.50    7.00
   2 -10   1   94.39   11.10
   2 -10   1   85.39   10.10
  -2 -10  -1   74.09    9.80
   2 -10   1   84.69   10.70
  -2 -10  -1   76.29    9.50
   2  10   1   85.09   10.20
   2  10   1  105.59   11.20
   2  10   1   86.19   11.40
  -2  10  -1   77.89    8.60
  -3 -10  -1  150.48   15.30
   3 -10   1  145.29   14.60
   3 -10   1  193.28   14.90
  -3 -10  -1  157.18   14.90
   3 -10   1  170.98   17.00
   3 -10   1  185.98   16.80
  -3 -10  -1  138.39   14.80
   3  10   1  174.18   16.80
   3  10   1  156.28   16.50
   3  10   1  207.98   19.20
  -4 -10  -1    3.00    3.50
   4 -10   1    2.50    3.00
   4 -10   1    2.00    3.00
  -4 -10  -1   -2.40    3.30
   4 -10   1    2.00    2.90
   4 -10   1    1.30    4.10
   4  10   1    1.90    2.80
   4  10   1   -0.30    4.10
   3 -11  -1   42.40    8.20
  -3 -11   1   46.20    7.80
   3  11  -1   44.40    7.90
  -3  11   1   57.59    7.50
   2 -11  -1  247.78   22.10
  -2 -11   1  269.27   22.30
  -2 -11   1  258.47   22.50
  -2  11   1  303.77   22.60
   2  11  -1  256.47   22.20
   1 -11  -1   21.50    5.00
   1 -11  -1   20.20    5.70
   1 -11  -1   16.40    5.40
   1 -11  -1   25.00    6.20
  -1 -11   1   21.80    5.20
  -1 -11   1   16.20    5.10
  -1 -11   1   27.40    6.70
  -1  11   1   21.20    5.10
   1  11  -1   14.30    4.00
   0 -11   1  171.28   16.20
   0 -11  -1  210.48   16.80
   0 -11   1  162.98   15.60
   0 -11  -1  148.79   16.60
   0 -11   1  155.18   16.80
   0 -11  -1  160.88   16.40
   0 -11   1  181.68   16.70
   0  11   1  201.38   17.20
   0  11  -1  168.58   15.70
   0  11   1  196.38   17.00
   1 -11   1   38.40    7.40
  -1 -11  -1   44.70    7.80
  -1 -11  -1   40.30    7.70
   1 -11   1   44.50    7.80
   1 -11   1   62.49    9.80
   1  11   1   50.09    8.00
   1  11   1   43.10    7.70
  -2 -11  -1   16.60    5.50
  -2 -11  -1   19.50    5.40
   2 -11   1   28.30    7.10
   2  11   1   28.10    6.10
  -9   0   2  187.18   15.60
   9   0  -2  144.39   15.60
   9   0  -2  208.78   17.10
   9   0  -2  167.28   17.00
   9   0  -2  154.88   16.50
   9   0  -2  196.08   17.30
  -8   0   2   68.99    8.70
  -8   0   2   67.49    8.50
   8   0  -2   74.89    9.60
   8   0  -2   82.09    9.50
   8   0  -2   93.49   10.70
   8   0  -2   72.29    9.30
   8   0  -2   73.69    9.50
   7   0  -2   34.00    6.00
  -7   0   2   37.40    5.00
   7   0  -2   36.00    6.20
   7   0  -2   37.80    6.80
  -7   0   2   43.20    6.80
   7   0  -2   38.30    6.90
   7   0  -2   44.70    6.50
  -7   0   2   33.50    5.50
   7   0  -2   42.70    4.80
  -6   0   2 2322.67  146.39
   6   0  -2 2263.57  146.69
   6   0  -2 2262.27  145.79
  -6   0   2 2213.88  145.89
   6   0  -2 2287.37  146.19
   6   0  -2 2215.78  146.19
  -6   0   2 2262.07  143.59
   6   0  -2 2153.58  146.59
  -6   0   2 2201.38  144.69
   5   0  -2  148.79   12.60
  -5   0   2  141.29   12.80
   5   0  -2  145.59   12.70
  -5   0   2  168.58   10.90
   5   0  -2  131.89   11.30
  -5   0   2  142.29   11.80
  -5   0   2  138.69   12.10
   5   0  -2  143.79   13.60
   5   0  -2  147.19   12.40
  -5   0   2  175.38   13.00
  -5   0   2  141.49   12.00
   5   0  -2  134.29   12.50
   5   0  -2  140.49   13.10
   5   0  -2  146.59   12.40
   5   0  -2  150.38   13.10
  -5   0   2  184.98   13.20
  -5   0   2  140.29   12.60
   4   0  -2  516.95   35.80
   4   0  -2  539.05   35.80
  -4   0   2  466.35   35.20
   4   0  -2  536.45   35.20
  -4   0   2  506.75   35.90
  -4   0   2  491.25   36.20
   4   0  -2  522.15   36.60
  -4   0   2  528.95   35.70
  -4   0   2  575.64   34.70
   4   0  -2  551.24   36.70
  -4   0   2  512.75   37.30
   4   0  -2  512.75   36.00
  -4   0   2  567.04   36.00
   4   0  -2  525.35   37.20
   4   0  -2  529.55   36.10
  -3   0   2  491.95   35.10
   3   0  -2  545.15   36.10
   3   0  -2  531.15   35.10
  -3   0   2  519.75   35.30
  -3   0   2  512.15   35.20
  -3   0   2  540.85   35.60
   3   0  -2  516.25   36.30
   3   0  -2  507.25   35.70
  -3   0   2  527.85   36.80
   3   0  -2  510.45   35.40
  -3   0   2  596.24   35.80
   3   0  -2  509.45   35.50
  -3   0   2  503.05   35.80
   3   0  -2  523.65   35.50
   3   0  -2  529.35   35.40
  -3   0   2  575.94   35.40
  -2   0   2  593.04   40.00
   2   0  -2  591.44   39.10
  -2   0   2  610.54   39.40
  -2   0   2  628.74   39.50
   2   0  -2  587.94   39.60
  -2   0   2  582.94   39.20
   2   0  -2  600.64   39.20
  -2   0   2  578.24   39.50
   2   0  -2  574.14   39.20
   2   0  -2  546.05   39.50
  -2   0   2  610.34   39.10
  -2   0   2  640.44   39.20
  -2   0   2  617.74   39.30
   2   0  -2  580.54   39.10
   2   0  -2  598.54   39.20
   1   0  -2    7.40    1.30
  -1   0   2    9.20    1.30
   1   0  -2   12.20    1.40
  -1   0   2   11.20    1.80
  -1   0   2    7.60    1.40
   1   0  -2    8.20    1.60
   1   0  -2    8.90    1.40
  -1   0   2   11.00    1.50
  -1   0   2    9.20    1.50
   1   0  -2    9.50    1.30
  -1   0   2   12.50    1.50
   1   0  -2    9.60    1.30
  -1   0   2   11.40    1.70
   1   0  -2    8.20    1.30
  -1   0   2    8.20    1.40
   0   0   2 1541.65  100.19
   0   0  -2 1654.23  100.49
   0   0   2 1595.34   99.99
   0   0  -2 1608.34  100.29
   0   0   2 1589.44  100.79
   0   0   2 1498.65  100.79
   0   0  -2 1475.55  100.79
  -1   0  -2  383.76   25.50
   1   0   2  382.26   24.90
   1   0   2  383.06   25.90
   1   0   2  397.06   24.90
  -1   0  -2  402.26   24.90
  -1   0  -2  374.36   25.30
   1   0   2  380.56   25.40
   1   0   2  387.56   25.40
  -1   0  -2  359.36   24.70
   2   0   2    2.50    1.30
   2   0   2    2.00    0.70
  -2   0  -2    1.90    1.00
   2   0   2    1.60    0.90
  -2   0  -2    1.70    0.80
   2   0   2    3.10    1.20
  -2   0  -2    0.70    0.90
   2   0   2    2.00    0.80
   2   0   2    2.40    1.30
   2   0   2    3.50    0.90
   2   0   2    1.00    0.80
  -2   0  -2    2.90    0.90
  -3   0  -2 1117.49   69.79
   3   0   2 1088.59   71.09
   3   0   2 1064.29   71.79
  -3   0  -2 1031.80   71.59
  -3   0  -2 1039.60   71.59
   3   0   2 1063.59   70.99
   3   0   2 1027.90   70.99
  -3   0  -2 1241.88   71.39
   3   0   2 1182.58   71.79
  -3   0  -2 1120.19   69.89
   3   0   2 1064.89   72.39
   3   0   2 1026.00   70.89
   3   0   2 1138.69   69.79
   4   0   2  132.39   10.20
  -4   0  -2  116.69   10.50
  -4   0  -2  124.79    8.90
   4   0   2  114.39   10.90
  -4   0  -2  130.09    8.80
   4   0   2  121.79   10.10
   4   0   2  140.39   10.60
   4   0   2  126.89   12.00
   4   0   2  114.09   10.50
   4   0   2  112.99   10.00
  -4   0  -2  151.48   10.10
   4   0   2  120.89   10.30
   4   0   2  112.99   11.10
   5   0   2  119.29   11.70
  -5   0  -2  123.99   11.40
  -5   0  -2  130.09    9.30
   5   0   2  124.09   12.30
   5   0   2  146.09   11.10
  -5   0  -2  132.89   11.10
   5   0   2  120.29   11.30
  -5   0  -2  125.89    9.10
   5   0   2  127.09   10.60
   5   0   2  120.29   10.80
   5   0   2  124.69   11.00
   6   0   2   37.60    4.70
  -6   0  -2   36.80    3.40
   6   0   2   49.99    5.90
   6   0   2   36.60    6.70
  -6   0  -2   61.59    6.50
   6   0   2   47.40    6.00
   6   0   2   41.30    5.60
   6   0   2   32.60    6.00
   6   0   2   36.70    6.50
   7   0   2   13.80    4.40
   7   0   2   13.20    4.60
   7   0   2   13.30    3.90
   7   0   2    9.60    3.60
   7   0   2    8.70    4.10
   8   0   2  334.27   27.80
   8   0   2  337.87   26.20
   8   0   2  325.17   26.50
   8   0   2  343.77   26.40
   9  -1  -2  290.17   23.80
   9  -1  -2  223.48   21.30
  -9  -1   2  283.67   21.60
   9  -1  -2  314.97   23.30
   9  -1  -2  232.58   21.60
   9  -1  -2  242.78   22.50
   9   1  -2  255.07   23.50
   9   1  -2  326.57   24.70
   9   1  -2  315.17   25.60
   9   1  -2  253.17   23.60
  -8  -1   2  136.49   14.40
   8  -1  -2  171.18   15.10
   8  -1  -2  144.09   15.10
  -8  -1   2  155.68   13.00
   8  -1  -2  163.08   14.70
   8  -1  -2  127.09   14.30
  -8  -1   2  151.48   13.90
   8  -1  -2  144.59   14.20
  -8   1   2  137.79   13.60
   8   1  -2  191.98   15.70
   8   1  -2  139.89   14.50
   8   1  -2  150.08   14.40
   8   1  -2  186.18   16.50
   8   1  -2  148.59   14.70
  -8   1   2  139.39   14.10
  -7  -1   2  142.39   13.00
   7  -1  -2  144.79   13.90
   7  -1  -2  127.19   13.20
   7  -1  -2  127.19   12.80
   7  -1  -2  134.39   13.10
   7  -1  -2  150.18   13.50
  -7  -1   2  146.59   13.40
  -7  -1   2  145.49    9.70
  -7  -1   2  136.59   12.30
  -7   1   2  150.68   13.30
   7   1  -2  150.08   12.60
   7   1  -2  154.78   13.90
  -7   1   2  146.39   11.20
   7   1  -2  130.99   13.50
  -7   1   2  178.68   14.50
   7   1  -2  138.39   13.30
   7   1  -2  143.19   14.50
   6  -1  -2  403.76   29.20
   6  -1  -2  411.26   29.60
  -6  -1   2  377.86   29.10
  -6  -1   2  412.46   26.90
   6  -1  -2  397.36   29.80
  -6  -1   2  416.06   30.00
   6  -1  -2  416.76   29.60
   6  -1  -2  429.96   30.90
  -6  -1   2  391.46   29.10
   6   1  -2  429.96   30.60
  -6   1   2  483.75   30.90
  -6   1   2  373.16   31.30
  -6   1   2  422.66   29.80
  -6   1   2  416.46   28.70
  -6   1   2  409.76   30.50
   6   1  -2  429.86   30.00
   6   1  -2  429.96   31.50
   6   1  -2  417.66   30.50
   6   1  -2  425.06   30.90
   6   1  -2  405.46   30.70
   6   1  -2  424.76   31.30
  -5  -1   2 2071.79  140.59
  -5  -1   2 2461.15  139.69
  -5  -1   2 2193.98  138.79
   5  -1  -2 2063.39  140.99
  -5  -1   2 2043.20  139.29
   5  -1  -2 2144.09  139.09
   5  -1  -2 2099.69  138.49
   5  -1  -2 2012.20  138.49
   5  -1  -2 2125.09  139.99
   5  -1  -2 2208.58  139.99
  -5  -1   2 2107.39  138.29
  -5   1   2 1971.10  136.69
  -5   1   2 2028.00  137.29
  -5   1   2 1991.50  135.49
   5   1  -2 2143.39  136.89
   5   1  -2 2285.87  135.99
   5   1  -2 2136.69  136.19
   5   1  -2 2005.90  136.09
   5   1  -2 1942.31  135.99
   5   1  -2 2043.60  136.69
  -5   1   2 2039.50  136.09
  -5   1   2 1962.00  134.69
  -5   1   2 2269.37  136.29
  -5   1   2 2383.56  134.89
   5   1  -2 2123.99  136.09
  -4  -1   2  159.28   13.20
  -4  -1   2  162.28   13.20
   4  -1  -2  167.38   13.90
   4  -1  -2  157.08   13.40
  -4  -1   2  165.88   13.00
   4  -1  -2  160.48   12.80
  -4  -1   2  153.58   12.50
  -4  -1   2  166.38   13.20
   4  -1  -2  153.88   12.70
   4  -1  -2  160.98   13.50
   4  -1  -2  165.18   12.70
   4  -1  -2  164.28   13.00
  -4  -1   2  196.28   13.80
  -4  -1   2  161.28   12.70
  -4  -1   2  150.18   13.90
   4   1  -2  174.48   13.50
  -4   1   2  149.39   13.10
  -4   1   2  167.18   13.00
  -4   1   2  166.78   13.90
  -4   1   2  173.18   12.60
   4   1  -2  167.28   14.60
  -4   1   2  164.48   12.90
   4   1  -2  160.78   13.40
   4   1  -2  169.48   13.60
   4   1  -2  181.58   13.60
  -4   1   2  179.08   14.80
  -4   1   2  169.58   13.10
   4   1  -2  205.78   14.10
   4   1  -2  170.18   14.00
  -4   1   2  165.48   13.40
  -4   1   2  187.98   12.60
   3  -1  -2 2062.19  133.49
   3  -1  -2 1987.90  133.29
  -3  -1   2 2179.58  133.89
   3  -1  -2 2048.90  134.19
  -3  -1   2 2036.70  133.59
   3  -1  -2 2071.09  133.29
   3  -1  -2 1996.40  133.89
   3  -1  -2 2256.47  133.49
  -3  -1   2 2126.09  133.89
  -3  -1   2 2039.10  134.79
   3  -1  -2 2036.50  133.99
  -3  -1   2 2024.80  133.69
   3  -1  -2 2005.30  133.39
  -3  -1   2 2084.79  133.89
  -3  -1   2 2159.68  133.69
  -3   1   2 2023.60  132.39
   3   1  -2 1923.21  132.39
  -3   1   2 2089.19  131.69
  -3   1   2 2033.30  133.09
   3   1  -2 2109.89  132.69
  -3   1   2 2046.10  132.09
   3   1  -2 1998.50  133.49
  -3   1   2 2038.10  131.99
   3   1  -2 2049.79  132.49
   3   1  -2 2083.39  132.89
   3   1  -2 2343.37  132.79
  -3   1   2 2033.20  132.09
   3   1  -2 2046.90  131.99
  -3   1   2 2056.29  132.69
  -3   1   2 1984.00  133.29
   2  -1  -2  211.18   15.80
  -2  -1   2  223.68   16.20
   2  -1  -2  222.38   16.50
   2  -1  -2  224.68   15.90
   2  -1  -2  231.28   15.70
  -2  -1   2  246.78   16.70
   2  -1  -2  239.58   16.00
   2  -1  -2  212.18   15.80
  -2  -1   2  228.28   16.30
  -2  -1   2  222.08   15.40
  -2  -1   2  262.67   16.30
  -2  -1   2  238.58   16.60
  -2  -1   2  232.18   16.10
  -2  -1   2  225.28   16.20
  -2   1   2  245.68   15.70
  -2   1   2  215.18   15.40
   2   1  -2  226.98   15.90
  -2   1   2  221.98   16.20
  -2   1   2  233.38   15.30
   2   1  -2  244.18   15.30
   2   1  -2  226.68   15.90
   2   1  -2  212.78   15.70
  -2   1   2  221.18   16.20
   2   1  -2  218.98   15.50
   2   1  -2  212.38   15.90
   2   1  -2  227.98   16.50
  -2   1   2  209.98   15.70
  -2   1   2  220.38   15.60
   2   1  -2  214.38   15.80
   2   1  -2  257.97   16.40
   1  -1  -2  251.27   15.20
   1  -1  -2  223.68   16.20
  -1  -1   2  218.88   15.80
  -1  -1   2  232.88   16.10
  -1  -1   2  245.28   15.30
  -1  -1   2  225.18   15.80
  -1  -1   2  226.88   16.40
   1  -1  -2  224.38   16.10
  -1  -1   2  225.78   15.80
  -1  -1   2  278.67   15.60
   1  -1  -2  251.97   15.90
   1  -1  -2  226.68   16.10
   1  -1  -2  229.68   15.80
   1  -1  -2  220.98   15.70
  -1  -1   2  224.98   16.20
  -1   1   2  216.18   15.00
  -1   1   2  217.08   15.20
   1   1  -2  251.57   15.10
  -1   1   2  204.48   14.80
   1   1  -2  210.78   14.90
   1   1  -2  212.98   14.80
   1   1  -2  219.68   14.50
   1   1  -2  212.48   15.40
   1   1  -2  221.68   14.40
  -1   1   2  219.68   15.40
  -1   1   2  210.48   14.90
  -1   1   2  247.78   15.00
  -1   1   2  243.98   14.30
   1   1  -2  206.68   14.80
  -1   1   2  205.68   15.20
   0  -1   2 2155.08  142.89
   0  -1  -2 2198.18  141.29
   0  -1   2 2139.49  143.79
   0  -1   2 2427.76  143.49
   0  -1   2 2176.78  141.59
   0  -1  -2 2257.57  143.49
   0  -1  -2 2334.77  144.09
   0  -1  -2 2267.27  141.89
   0  -1  -2 2170.38  143.09
   0  -1  -2 2194.08  141.69
   0  -1  -2 2083.29  143.09
   0   1   2 2210.08  148.59
   0   1   2 2276.37  146.49
   0   1  -2 2294.27  147.89
   0   1   2 2243.78  147.89
   0   1   2 2533.85  146.89
   0   1   2 2212.48  148.29
   0   1   2 2161.28  148.19
   0   1  -2 2545.55  147.09
   0   1   2 2230.98  147.69
   0   1  -2 2176.58  147.19
  -1  -1  -2 4017.30  269.77
   1  -1   2 4348.06  269.37
  -1  -1  -2 4527.95  269.37
   1  -1   2 3972.30  270.37
  -1  -1  -2 4076.79  269.77
  -1  -1  -2 3880.41  267.47
  -1  -1  -2 4112.69  269.77
   1  -1   2 3997.50  272.67
   1  -1   2 4853.11  269.67
   1   1   2 4117.59  282.07
  -1   1  -2 4766.62  280.97
   1   1   2 4120.79  283.37
   1   1   2 5054.49  282.77
   1   1   2 4857.21  282.07
   1   1   2 4761.52  282.07
   1   1   2 3900.41  282.67
   1   1   2 4251.27  284.37
   1   1   2 4185.58  283.07
  -1   1  -2 4096.59  279.77
  -1   1  -2 3924.81  280.57
  -1   1  -2 4635.54  281.27
   2  -1   2  246.78   15.60
  -2  -1  -2  244.18   17.30
  -2  -1  -2  229.58   16.50
  -2  -1  -2  234.78   15.70
  -2  -1  -2  239.88   16.00
   2  -1   2  241.28   16.00
  -2  -1  -2  222.38   16.10
  -2  -1  -2  227.98   15.50
   2  -1   2  234.08   16.70
   2  -1   2  220.48   15.80
   2  -1   2  239.18   15.80
   2  -1   2  234.48   17.00
  -2  -1  -2  218.08   16.20
   2   1   2  221.88   16.50
   2   1   2  239.88   16.70
   2   1   2  232.68   16.50
   2   1   2  242.08   16.80
   2   1   2  238.08   15.60
   2   1   2  231.58   17.10
   2   1   2  221.18   17.00
  -2   1  -2  212.68   16.10
   2   1   2  230.78   16.20
  -2   1  -2  278.47   16.10
  -2   1  -2  284.57   17.80
   3  -1   2  953.90   62.89
   3  -1   2  944.31   61.19
   3  -1   2  947.91   61.59
  -3  -1  -2  943.01   61.89
   3  -1   2 1095.39   61.29
  -3  -1  -2  921.81   60.99
  -3  -1  -2  940.01   61.79
   3  -1   2  919.91   62.59
   3  -1   2  933.81   61.39
   3  -1   2  872.51   61.49
  -3  -1  -2  954.80   62.09
  -3  -1  -2  933.71   62.49
  -3   1  -2  984.50   62.09
   3   1   2  979.90   62.89
   3   1   2  954.80   63.29
  -3   1  -2 1048.60   61.89
   3   1   2  955.10   62.59
  -3   1  -2  917.61   62.29
   3   1   2  921.81   62.59
   3   1   2  942.41   62.89
   3   1   2  951.10   62.89
  -3   1  -2  948.21   63.09
   3   1   2  936.21   63.89
   4  -1   2  229.38   18.40
  -4  -1  -2  224.98   16.40
   4  -1   2  274.87   17.80
   4  -1   2  287.77   19.00
   4  -1   2  223.78   17.20
   4  -1   2  232.08   17.40
  -4  -1  -2  220.58   17.60
   4  -1   2  225.68   17.10
   4  -1   2  217.08   16.10
  -4  -1  -2  262.97   17.00
  -4  -1  -2  229.18   17.60
   4  -1   2  263.47   19.40
   4  -1   2  260.97   17.10
  -4  -1  -2  229.28   18.10
  -4   1  -2  241.98   16.00
  -4   1  -2  242.78   18.50
   4   1   2  235.78   18.10
   4   1   2  218.98   18.60
   4   1   2  232.78   18.30
  -4   1  -2  239.18   17.40
   4   1   2  252.87   18.20
   4   1   2  302.97   19.80
  -4   1  -2  253.87   19.20
   4   1   2  244.88   19.30
  -4   1  -2  280.97   18.20
   4   1   2  231.18   18.30
   5  -1   2  377.66   27.50
   5  -1   2  387.96   28.00
   5  -1   2  377.56   29.00
  -5  -1  -2  425.86   26.90
  -5  -1  -2  391.16   28.20
   5  -1   2  350.16   29.00
  -5  -1  -2  440.86   26.50
   5  -1   2  352.96   27.50
   5  -1   2  421.76   26.60
   5   1   2  486.45   30.30
   5   1   2  368.46   30.00
  -5   1  -2  415.36   26.70
   5   1   2  393.96   30.70
   5   1   2  384.96   29.20
   5   1   2  410.06   29.50
   5   1   2  392.56   29.10
  -5   1  -2  471.55   29.30
   5   1   2  391.46   29.40
   6  -1   2   13.10    3.50
   6  -1   2    7.70    3.00
   6  -1   2   18.90    4.70
  -6  -1  -2   11.80    3.40
   6  -1   2   12.70    4.00
   6  -1   2   16.90    3.60
   6  -1   2   13.40    2.20
   6  -1   2   13.30    4.40
   6   1   2   16.00    4.80
   6   1   2   11.50    3.60
   6   1   2    9.80    3.50
   6   1   2   16.00    4.00
   6   1   2   13.10    4.00
   6   1   2    9.70    3.10
   6   1   2   12.80    3.40
  -6   1  -2    9.70    3.00
   7  -1   2  261.67   21.10
   7  -1   2  224.78   20.60
   7  -1   2  244.38   19.50
   7  -1   2  217.78   20.70
   7  -1   2  277.17   20.30
   7   1   2  235.68   18.30
   7   1   2  213.88   18.00
   7   1   2  205.88   17.80
   7   1   2  198.28   19.00
   8  -1   2  124.69   13.60
   8  -1   2  114.89   11.90
   8  -1   2  127.69   13.60
   8  -1   2  136.59   13.00
   8  -1   2  129.29   13.50
   8   1   2  132.39   13.40
   8   1   2  131.09   14.70
   8   1   2  139.49   15.00
   8   1   2  176.58   14.90
   9  -2  -2   55.59    9.80
   9  -2  -2   52.99    8.90
   9  -2  -2   54.09    8.30
   9  -2  -2   59.69    8.70
  -9  -2   2   70.19    8.40
   9  -2  -2   60.39    9.10
   9   2  -2   62.39    8.60
   9   2  -2   47.80    8.40
   9   2  -2   59.39   10.20
   9   2  -2   60.29    8.70
  -8  -2   2  276.77   23.80
   8  -2  -2  273.97   23.50
   8  -2  -2  294.27   23.90
  -8  -2   2  298.37   23.50
   8  -2  -2  266.67   23.60
   8  -2  -2  291.47   23.70
   8  -2  -2  366.46   26.20
  -8   2   2  290.17   22.60
   8   2  -2  287.67   23.00
   8   2  -2  261.97   22.20
   8   2  -2  267.67   22.50
  -8   2   2  257.47   21.10
   8   2  -2  277.47   23.60
  -7  -2   2   41.50    6.80
   7  -2  -2   27.90    5.50
  -7  -2   2   26.90    5.20
   7  -2  -2   27.60    5.20
  -7  -2   2   29.30    5.60
   7  -2  -2   30.20    5.80
   7  -2  -2   21.60    5.80
   7   2  -2   32.30    6.10
   7   2  -2   26.00    5.70
   7   2  -2   27.30    5.60
  -7   2   2   25.70    5.20
   7   2  -2   33.50    6.80
  -7   2   2   42.20    6.80
  -6  -2   2   15.20    4.10
  -6  -2   2   11.10    1.80
   6  -2  -2   10.20    3.10
   6  -2  -2    7.90    3.00
   6  -2  -2    7.60    3.30
  -6  -2   2   17.90    4.20
   6  -2  -2   12.70    3.60
  -6  -2   2   15.80    4.10
   6  -2  -2   10.40    3.20
   6   2  -2    9.60    3.20
  -6   2   2   13.80    3.80
  -6   2   2   11.40    2.70
   6   2  -2    7.60    3.90
  -6   2   2    7.60    3.30
   6   2  -2   12.30    4.10
  -6   2   2   14.00    3.30
   6   2  -2    9.50    3.10
   6   2  -2   12.20    3.90
  -6   2   2   10.70    1.60
  -6   2   2   11.60    3.60
   6   2  -2   10.40    3.40
  -5  -2   2  331.17   25.90
   5  -2  -2  329.97   26.00
  -5  -2   2  397.26   23.40
   5  -2  -2  336.77   25.70
   5  -2  -2  325.47   24.70
  -5  -2   2  339.97   24.60
  -5  -2   2  357.56   25.60
   5  -2  -2  343.47   24.80
   5  -2  -2  325.17   24.90
  -5  -2   2  335.17   25.40
  -5  -2   2  339.27   25.20
   5  -2  -2  329.17   24.50
   5   2  -2  319.97   25.10
  -5   2   2  346.37   22.90
  -5   2   2  317.27   25.70
   5   2  -2  346.37   25.00
   5   2  -2  390.76   25.80
  -5   2   2  341.67   24.40
  -5   2   2  327.27   24.60
  -5   2   2  339.07   24.20
   5   2  -2  329.07   24.80
   5   2  -2  347.67   25.90
   5   2  -2  339.27   25.10
  -5   2   2  335.87   24.90
   4  -2  -2   87.59    8.10
   4  -2  -2   95.89    8.20
  -4  -2   2   89.49    8.40
  -4  -2   2   95.49    8.70
   4  -2  -2   91.69    9.00
   4  -2  -2   81.59    7.80
  -4  -2   2  100.29    8.70
   4  -2  -2   85.39    8.20
   4  -2  -2   98.69    8.40
  -4  -2   2   84.89    8.50
  -4  -2   2  105.79    7.60
   4  -2  -2   85.59    8.40
  -4  -2   2   97.39    8.90
  -4  -2   2   95.49    8.80
  -4  -2   2  104.79   10.20
  -4  -2   2  100.69    8.40
   4  -2  -2   96.59    9.60
  -4   2   2  100.19    9.00
  -4   2   2  103.59    9.40
   4   2  -2  103.59    9.80
  -4   2   2  112.59   10.50
  -4   2   2  138.59    9.60
   4   2  -2  107.49    9.80
  -4   2   2  103.19    9.00
  -4   2   2   99.29   10.20
  -4   2   2  106.89    8.10
   4   2  -2  115.19   10.10
   4   2  -2  111.49   10.10
   4   2  -2  100.49    9.50
  -4   2   2  107.69    9.20
   4   2  -2  137.59   10.90
   4   2  -2  102.99   10.90
  -3  -2   2   82.39    6.90
  -3  -2   2   66.09    6.30
   3  -2  -2   54.79    6.50
  -3  -2   2   79.09    6.20
   3  -2  -2   62.39    6.00
   3  -2  -2   54.29    6.00
  -3  -2   2   69.49    6.70
  -3  -2   2   58.39    5.50
  -3  -2   2   66.39    6.50
   3  -2  -2   61.39    6.70
  -3  -2   2   63.19    6.20
   3  -2  -2   69.29    6.10
  -3  -2   2   81.59    6.90
   3  -2  -2   56.19    5.80
  -3  -2   2   59.99    6.80
   3   2  -2   71.99    6.90
  -3   2   2   68.99    7.10
   3   2  -2   65.79    6.10
   3   2  -2   65.89    6.50
  -3   2   2   65.49    5.20
  -3   2   2   63.89    6.30
   3   2  -2   61.39    6.30
  -3   2   2   70.49    5.90
  -3   2   2   76.79    6.30
  -3   2   2   66.19    6.80
  -3   2   2   64.49    6.90
   3   2  -2   58.49    7.00
  -3   2   2   68.39    6.20
   3   2  -2   66.99    6.60
  -3   2   2   62.49    6.10
   3   2  -2   69.39    6.90
   3   2  -2   67.59    6.40
   2  -2  -2 5530.75  354.66
  -2  -2   2 5204.58  353.16
   2  -2  -2 5347.36  351.06
  -2  -2   2 5219.28  350.56
  -2  -2   2 5688.83  353.96
  -2  -2   2 5473.85  352.86
   2  -2  -2 5355.86  347.57
   2  -2  -2 5830.82  349.57
  -2  -2   2 5448.05  353.56
   2  -2  -2 5155.28  351.46
  -2  -2   2 5253.37  349.77
  -2  -2   2 5389.56  347.57
   2  -2  -2 5174.88  352.76
  -2  -2   2 6292.87  356.36
  -2   2   2 5201.38  342.57
   2   2  -2 5428.16  342.27
  -2   2   2 5187.08  344.57
  -2   2   2 5149.58  347.37
  -2   2   2 5381.86  344.67
  -2   2   2 5326.97  347.37
   2   2  -2 5708.93  345.07
  -2   2   2 5421.56  348.27
   2   2  -2 5226.08  345.77
   2   2  -2 5417.46  348.37
   2   2  -2 5635.64  342.87
   1  -2  -2  886.31   56.19
  -1  -2   2  894.11   56.59
  -1  -2   2  821.32   56.29
   1  -2  -2  829.32   56.49
   1  -2  -2  854.71   56.39
   1  -2  -2  854.21   56.19
  -1  -2   2  856.11   56.99
  -1  -2   2  850.81   56.19
   1  -2  -2  837.12   56.29
  -1  -2   2 1008.60   56.79
  -1  -2   2  881.61   56.39
   1  -2  -2  866.11   56.29
  -1  -2   2  853.41   56.29
   1  -2  -2  833.22   56.29
   1  -2  -2  876.31   56.79
   1   2  -2  915.91   57.79
  -1   2   2  893.61   58.19
  -1   2   2  911.01   57.89
  -1   2   2  865.51   57.79
  -1   2   2  868.01   57.89
   1   2  -2 1031.30   58.69
  -1   2   2  823.32   57.69
   1   2  -2  884.81   57.89
   1   2  -2  972.70   57.69
   1   2  -2  859.51   57.59
  -1   2   2  866.71   57.69
   1   2  -2  837.72   57.69
  -1   2   2  874.51   57.99
  -1   2   2  864.81   57.69
   0  -2  -2 1049.99   67.69
   0  -2  -2  996.40   67.79
   0  -2   2 1017.90   67.69
   0  -2  -2  972.30   68.19
   0  -2   2 1162.88   67.99
   0  -2   2 1096.59   68.69
   0  -2  -2  991.40   68.09
   0  -2  -2 1231.08   69.09
   0  -2   2 1039.50   67.79
   0  -2   2 1034.80   67.99
   0  -2  -2 1034.20   68.29
   0  -2   2 1068.19   68.69
   0   2  -2  991.40   67.99
   0   2  -2 1190.68   69.39
   0   2   2 1081.99   69.49
   0   2   2 1032.40   68.89
   0   2  -2 1219.68   68.29
   0   2  -2 1063.29   68.59
   0   2  -2  978.10   68.49
   0   2   2 1067.99   68.99
   0   2  -2 1065.69   68.49
   0   2  -2 1089.09   69.19
   0   2   2 1058.19   68.89
   0   2   2 1081.19   69.39
   0   2   2 1031.70   68.89
   0   2   2  983.10   68.69
   1  -2   2  199.08   14.30
  -1  -2  -2  206.18   15.20
  -1  -2  -2  202.48   14.10
   1  -2   2  210.98   14.90
  -1  -2  -2  195.78   14.40
  -1  -2  -2  230.28   14.30
   1  -2   2  210.58   13.90
   1  -2   2  219.48   14.00
   1  -2   2  198.18   15.30
  -1  -2  -2  205.58   14.40
   1  -2   2  206.28   13.80
   1  -2   2  189.38   13.80
   1   2   2  201.18   15.60
  -1   2  -2  205.18   15.10
   1   2   2  204.18   15.00
   1   2   2  203.98   15.40
  -1   2  -2  244.48   14.70
   1   2   2  211.18   15.00
   1   2   2  204.08   15.00
   1   2   2  215.38   14.70
   1   2   2  207.98   15.60
   1   2   2  209.68   15.00
   1   2   2  220.68   15.10
   2  -2   2  116.49    9.00
   2  -2   2  112.39   10.30
   2  -2   2  139.09   10.20
  -2  -2  -2  115.59    9.60
   2  -2   2  132.69    8.90
   2  -2   2  147.09    9.20
  -2  -2  -2  119.69    9.90
  -2  -2  -2  123.79    8.70
  -2  -2  -2  129.19   10.40
   2  -2   2  116.49    9.60
  -2  -2  -2  122.59    9.40
  -2  -2  -2  109.59    9.60
  -2  -2  -2  140.89    9.50
   2  -2   2  128.79    9.10
   2  -2   2  115.59    9.00
  -2   2  -2  108.49    9.90
   2   2   2  123.69    9.40
   2   2   2  115.49    9.40
   2   2   2  112.99   10.00
   2   2   2  111.99    9.60
   2   2   2  120.89    9.50
  -2   2  -2  112.79    9.10
  -2   2  -2  115.99    8.50
   2   2   2  115.29    9.90
   2   2   2  132.39    8.60
  -3  -2  -2  270.97   21.60
   3  -2   2  356.16   20.90
   3  -2   2  285.37   21.30
  -3  -2  -2  272.37   21.00
  -3  -2  -2  280.77   20.20
  -3  -2  -2  263.77   21.00
   3  -2   2  286.97   20.30
   3  -2   2  300.17   19.40
   3  -2   2  267.97   21.20
   3  -2   2  326.67   20.40
   3  -2   2  274.87   20.50
  -3  -2  -2  292.57   20.20
   3  -2   2  356.36   20.70
  -3  -2  -2  291.57   20.60
  -3   2  -2  309.17   20.60
   3   2   2  359.86   22.10
   3   2   2  332.07   19.90
   3   2   2  284.67   22.10
   3   2   2  302.77   20.70
   3   2   2  287.67   21.70
  -3   2  -2  281.97   20.90
   3   2   2  297.57   22.30
   3   2   2  280.87   21.60
  -3   2  -2  293.17   22.60
   4  -2   2 1046.30   70.89
  -4  -2  -2 1083.69   70.99
   4  -2   2 1062.89   72.79
  -4  -2  -2 1122.69   71.19
   4  -2   2 1144.19   72.59
  -4  -2  -2 1022.40   70.39
   4  -2   2 1030.60   70.89
   4  -2   2 1162.68   71.09
   4  -2   2 1140.79   72.89
  -4  -2  -2 1039.30   71.89
   4  -2   2 1092.69   71.39
   4  -2   2 1102.09   70.69
   4   2   2 1031.70   73.49
   4   2   2 1325.37   76.09
  -4   2  -2 1094.19   73.29
   4   2   2 1062.89   75.69
   4   2   2 1082.29   74.39
  -4   2  -2 1108.39   73.19
   4   2   2 1173.08   75.99
  -4   2  -2 1160.68   75.69
  -4   2  -2 1096.49   73.69
   4   2   2 1246.48   74.99
   4   2   2 1064.19   74.39
   5  -2   2   48.00    7.00
   5  -2   2   46.50    6.20
  -5  -2  -2   53.69    5.70
  -5  -2  -2   45.20    4.60
   5  -2   2   44.70    5.30
  -5  -2  -2   44.70    6.00
   5  -2   2   48.20    5.20
   5  -2   2   48.80    5.50
   5  -2   2   45.30    6.60
   5  -2   2   45.30    4.50
  -5  -2  -2   48.70    5.20
   5   2   2   50.39    6.00
  -5   2  -2   44.00    5.40
  -5   2  -2   54.99    4.80
   5   2   2   46.90    6.40
   5   2   2   47.70    7.00
   5   2   2   45.00    6.60
   5   2   2   47.50    6.80
   5   2   2   54.59    5.90
   5   2   2   49.90    6.40
   6  -2   2  258.87   20.00
   6  -2   2  249.68   21.10
   6  -2   2  240.28   21.00
   6  -2   2  256.67   19.90
   6  -2   2  267.17   19.70
  -6  -2  -2  260.17   18.90
  -6  -2  -2  278.27   20.10
  -6  -2  -2  273.57   20.70
   6   2   2  314.97   24.10
   6   2   2  385.96   26.70
   6   2   2  364.36   25.20
  -6   2  -2  264.37   23.20
   6   2   2  327.27   24.00
   6   2   2  322.37   25.90
   6   2   2  298.07   24.40
   7  -2   2   40.50    6.20
   7  -2   2   44.70    7.60
   7  -2   2   36.00    7.10
   7  -2   2   37.80    6.20
   7  -2   2   37.20    7.10
   7   2   2   40.40    6.70
   7   2   2   38.00    6.40
   7   2   2   65.29    9.00
   7   2   2   37.30    6.80
   7   2   2   42.60    7.60
   8  -2   2   30.20    6.60
   8  -2   2   34.10    6.90
   8  -2   2   23.00    5.20
   8  -2   2   36.60    7.80
   8  -2   2   29.70    5.70
   8   2   2   25.90    5.50
   8   2   2   27.40    7.00
   8   2   2   35.60    7.30
   8   2   2   27.50    6.10
   9  -3  -2  204.08   18.20
   9  -3  -2  149.09   14.90
   9  -3  -2  129.29   14.60
   9  -3  -2  142.89   15.00
  -9  -3   2  158.08   14.70
   9   3  -2  213.58   18.20
   9   3  -2  150.28   16.60
   8  -3  -2   74.69    9.10
   8  -3  -2   80.89   10.90
   8  -3  -2   87.19    9.90
  -8  -3   2   89.39   10.60
  -8  -3   2   73.59    8.90
  -8  -3   2   75.99    9.50
   8  -3  -2   84.99    9.90
   8   3  -2   68.19    9.00
   8   3  -2   76.69    9.60
   8   3  -2   95.69   10.60
  -8   3   2   71.89    8.40
   8   3  -2   78.69   10.90
   7  -3  -2  246.88   21.40
   7  -3  -2  285.57   20.30
   7  -3  -2  261.87   20.30
  -7  -3   2  224.78   19.70
  -7  -3   2  234.58   20.40
   7  -3  -2  221.68   19.10
  -7  -3   2  220.48   19.50
  -7   3   2  291.57   20.20
   7   3  -2  295.77   21.80
   7   3  -2  232.78   20.70
   7   3  -2  225.58   20.30
   7   3  -2  231.58   21.50
  -7   3   2  231.58   20.20
  -6  -3   2  177.58   12.20
  -6  -3   2  156.08   14.90
  -6  -3   2  179.18   15.10
   6  -3  -2  157.08   15.40
   6  -3  -2  160.28   14.10
  -6  -3   2  173.18   15.30
   6  -3  -2  150.38   14.00
   6  -3  -2  176.58   14.20
   6   3  -2  158.88   15.40
  -6   3   2  199.98   16.10
   6   3  -2  152.28   14.50
  -6   3   2  172.88   14.70
   6   3  -2  155.28   15.00
  -6   3   2  164.58   14.40
  -6   3   2  205.38   14.20
   6   3  -2  160.88   15.10
   5  -3  -2  195.58   16.40
   5  -3  -2  207.08   18.00
  -5  -3   2  223.38   17.20
   5  -3  -2  232.98   17.60
  -5  -3   2  230.88   15.60
  -5  -3   2  218.98   17.50
  -5  -3   2  228.68   17.20
   5  -3  -2  191.58   16.50
   5  -3  -2  218.18   16.90
  -5  -3   2  216.58   17.80
  -5   3   2  227.98   14.10
   5   3  -2  204.98   17.60
  -5   3   2  214.98   16.50
   5   3  -2  212.48   17.90
  -5   3   2  203.18   16.60
   5   3  -2  214.78   17.50
  -5   3   2  204.38   17.30
   5   3  -2  226.98   17.50
  -5   3   2  210.28   16.40
  -5   3   2  205.48   16.80
  -4  -3   2  154.48   15.30
   4  -3  -2  211.98   14.20
  -4  -3   2  205.28   14.30
   4  -3  -2  163.68   13.50
  -4  -3   2  153.38   13.90
  -4  -3   2  161.98   14.20
   4  -3  -2  171.38   13.50
  -4  -3   2  174.28   14.10
   4  -3  -2  159.58   14.40
  -4  -3   2  162.98   13.60
   4  -3  -2  156.48   13.10
  -4  -3   2  157.18   12.60
   4  -3  -2  167.88   13.40
   4  -3  -2  159.28   14.50
  -4  -3   2  143.89   13.70
  -4  -3   2  209.98   14.10
   4  -3  -2  211.48   13.90
  -4   3   2  197.58   13.30
  -4   3   2  160.08   10.90
   4   3  -2  191.58   13.70
   4   3  -2  159.38   13.30
   4   3  -2  143.49   13.00
   4   3  -2  144.49   14.00
  -4   3   2  160.88   13.80
  -4   3   2  141.09   12.00
   4   3  -2  148.29   13.40
  -4   3   2  143.39   12.70
  -4   3   2  150.98   12.30
  -4   3   2  146.59   13.20
   4   3  -2  151.18   13.20
   4   3  -2  156.38   13.70
   4   3  -2  162.58   13.00
  -3  -3   2 1253.97   85.19
   3  -3  -2 1257.17   85.49
   3  -3  -2 1248.38   85.39
  -3  -3   2 1202.68   85.49
   3  -3  -2 1505.25   84.79
   3  -3  -2 1339.17   84.59
   3  -3  -2 1503.35   84.39
  -3  -3   2 1267.77   85.29
  -3  -3   2 1226.38   84.79
  -3  -3   2 1294.67   84.59
   3  -3  -2 1298.87   84.49
  -3  -3   2 1278.97   84.89
  -3  -3   2 1223.78   84.99
   3  -3  -2 1388.16   84.59
   3  -3  -2 1164.48   84.29
   3   3  -2 1245.98   83.39
   3   3  -2 1383.66   83.59
   3   3  -2 1239.88   83.49
   3   3  -2 1284.97   84.19
   3   3  -2 1247.28   82.99
  -3   3   2 1243.78   82.79
   3   3  -2 1217.08   83.69
  -3   3   2 1410.86   83.29
  -3   3   2 1222.98   82.79
  -3   3   2 1269.47   82.69
  -3   3   2 1267.37   83.19
  -3   3   2 1317.07   84.09
   3   3  -2 1235.58   84.19
  -3   3   2 1252.47   82.99
   3   3  -2 1252.57   83.29
  -3   3   2 1230.88   83.99
  -2  -3   2  305.77   22.80
   2  -3  -2  324.97   23.00
  -2  -3   2  317.17   22.90
  -2  -3   2  306.77   22.20
   2  -3  -2  301.37   22.10
  -2  -3   2  319.67   22.60
   2  -3  -2  323.67   22.10
  -2  -3   2  303.07   22.60
   2  -3  -2  315.77   22.20
  -2  -3   2  376.76   23.00
  -2  -3   2  311.97   23.50
  -2  -3   2  328.47   22.40
   2  -3  -2  317.87   22.90
   2   3  -2  311.77   23.20
  -2   3   2  320.27   22.10
  -2   3   2  322.97   22.10
  -2   3   2  315.07   23.00
   2   3  -2  325.97   22.90
   2   3  -2  315.57   21.00
   2   3  -2  378.46   22.70
  -2   3   2  308.57   22.40
   2   3  -2  317.37   22.10
   2   3  -2  303.07   22.40
   2   3  -2  295.27   22.20
  -2   3   2  296.47   22.10
  -2   3   2  320.67   22.80
   2   3  -2  306.27   22.40
  -2   3   2  339.47   22.20
   2   3  -2  302.97   22.30
  -1  -3   2  410.66   27.30
   1  -3  -2  391.76   27.20
  -1  -3   2  381.96   26.80
   1  -3  -2  458.05   27.30
  -1  -3   2  438.26   27.50
   1  -3  -2  376.06   27.10
  -1  -3   2  378.56   27.90
   1  -3  -2  386.46   26.90
   1  -3  -2  378.26   27.50
   1  -3  -2  382.76   26.70
   1  -3  -2  392.46   27.40
  -1  -3   2  395.66   27.20
   1  -3  -2  398.86   27.10
   1   3  -2  378.46   26.40
  -1   3   2  364.46   25.90
  -1   3   2  378.66   26.20
   1   3  -2  372.16   26.40
  -1   3   2  392.96   26.40
   1   3  -2  368.26   27.00
  -1   3   2  384.46   26.70
   1   3  -2  377.56   26.00
  -1   3   2  408.96   26.50
  -1   3   2  388.66   26.90
  -1   3   2  380.46   26.80
  -1   3   2  380.06   26.40
   1   3  -2  443.76   26.70
   1   3  -2  387.76   24.90
   0  -3   2  483.35   33.30
   0  -3   2  470.25   33.40
   0  -3  -2  540.35   33.30
   0  -3   2  472.15   32.60
   0  -3  -2  490.25   33.40
   0  -3  -2  487.45   32.90
   0  -3   2  497.35   31.90
   0  -3   2  478.75   33.40
   0  -3   2  478.75   32.70
   0  -3   2  472.05   32.80
   0  -3  -2  481.75   32.50
   0  -3  -2  569.64   33.30
   0  -3  -2  481.75   33.00
   0  -3   2  482.75   32.10
   0   3  -2  459.65   31.50
   0   3   2  539.75   31.30
   0   3  -2  489.75   31.50
   0   3   2  474.15   31.90
   0   3   2  499.35   32.10
   0   3   2  458.15   32.40
   0   3   2  452.45   31.90
   0   3  -2  454.05   30.90
   0   3  -2  474.05   30.50
   0   3  -2  468.85   32.10
   0   3   2  451.05   31.80
   0   3  -2  457.65   32.00
   0   3   2  455.35   31.90
   0   3  -2  464.15   31.10
   0   3   2  480.15   32.50
   1  -3   2  503.95   34.60
   1  -3   2  537.55   35.80
  -1  -3  -2  498.45   34.90
  -1  -3  -2  524.95   35.20
  -1  -3  -2  512.95   35.30
  -1  -3  -2  572.14   33.90
   1  -3   2  524.95   34.70
   1  -3   2  552.04   33.80
   1  -3   2  518.15   35.20
  -1  -3  -2  481.45   35.10
  -1  -3  -2  517.25   35.50
   1  -3   2  515.65   34.80
   1  -3   2  515.55   34.90
  -1  -3  -2  491.75   35.90
   1  -3   2  619.64   35.50
  -1  -3  -2  527.55   35.60
   1   3   2  520.15   34.40
   1   3   2  507.85   34.00
   1   3   2  497.65   34.00
  -1   3  -2  486.85   32.80
  -1   3  -2  496.45   33.30
  -1   3  -2  540.25   33.90
   1   3   2  501.55   34.40
   1   3   2  509.95   35.10
  -1   3  -2  516.25   32.80
   1   3   2  499.75   34.30
   1   3   2  489.75   34.80
  -1   3  -2  514.65   34.50
  -1   3  -2  509.35   33.70
   2  -3   2  932.81   60.69
  -2  -3  -2  925.81   62.49
  -2  -3  -2  926.81   61.49
  -2  -3  -2  954.60   61.89
   2  -3   2  889.21   62.49
  -2  -3  -2  906.81   60.69
   2  -3   2  917.51   60.79
  -2  -3  -2  898.61   61.39
  -2  -3  -2  969.10   59.89
  -2  -3  -2  905.41   61.59
   2  -3   2  932.31   60.79
  -2  -3  -2  930.71   61.89
   2  -3   2 1078.29   60.99
   2   3   2  911.01   60.99
   2   3   2  947.01   62.09
   2   3   2  879.51   60.89
   2   3   2  938.11   61.49
  -2   3  -2  872.91   60.59
  -2   3  -2  950.00   59.59
  -2   3  -2  918.91   61.99
  -2   3  -2  962.20   58.69
   2   3   2  922.71   61.09
  -2   3  -2  914.61   59.89
  -2   3  -2  929.11   59.99
   2   3   2  918.71   61.89
   2   3   2  921.31   60.09
  -3  -3  -2  290.37   19.40
   3  -3   2  270.97   21.90
   3  -3   2  296.97   20.00
   3  -3   2  278.67   20.60
  -3  -3  -2  290.07   21.10
  -3  -3  -2  289.27   20.90
  -3  -3  -2  286.77   21.70
   3  -3   2  275.97   20.50
  -3  -3  -2  283.67   19.20
   3  -3   2  297.67   18.90
   3  -3   2  276.47   19.90
   3  -3   2  267.07   20.00
   3  -3   2  277.87   21.10
  -3  -3  -2  285.67   20.30
   3  -3   2  337.77   20.40
   3   3   2  302.27   23.30
  -3   3  -2  348.57   21.50
   3   3   2  327.57   22.70
   3   3   2  292.37   22.40
  -3   3  -2  289.87   23.20
   3   3   2  279.37   22.10
   3   3   2  304.57   22.50
   3   3   2  326.27   20.80
  -3   3  -2  341.67   22.10
   3   3   2  275.67   22.90
  -3   3  -2  284.47   21.00
  -4  -3  -2   29.60    4.60
   4  -3   2   35.70    4.30
   4  -3   2   39.10    4.40
   4  -3   2   44.70    4.60
   4  -3   2   31.10    5.80
   4  -3   2   34.40    4.50
  -4  -3  -2   27.30    3.90
   4  -3   2   32.50    4.30
  -4  -3  -2   38.80    3.90
  -4  -3  -2   38.40    5.40
   4  -3   2   36.50    5.30
   4  -3   2   33.20    4.70
   4   3   2   29.00    5.90
   4   3   2   30.80    4.40
   4   3   2   30.60    5.40
  -4   3  -2   37.20    4.30
  -4   3  -2   28.80    4.00
   4   3   2   27.70    5.50
   4   3   2   30.70    5.00
   4   3   2   33.50    4.70
   5  -3   2  453.55   30.60
  -5  -3  -2  418.16   30.20
   5  -3   2  520.45   31.20
  -5  -3  -2  422.16   30.60
   5  -3   2  418.96   32.20
   5  -3   2  391.66   32.20
  -5  -3  -2  428.86   31.70
   5  -3   2  427.96   31.90
   5  -3   2  449.66   30.80
  -5  -3  -2  495.45   30.40
   5  -3   2  407.66   30.00
   5   3   2  488.55   33.40
  -5   3  -2  403.46   29.80
   5   3   2  478.65   32.00
  -5   3  -2  415.76   30.30
   5   3   2  397.56   31.30
   5   3   2  436.06   32.40
   6  -3   2  116.69   10.00
   6  -3   2   83.19    9.00
   6  -3   2   98.29   11.40
  -6  -3  -2  100.99   10.40
   6  -3   2   99.59    8.30
  -6  -3  -2  100.69    9.30
   6   3   2   88.69   10.20
   6   3   2  103.69   10.50
   6   3   2   86.89   10.60
   6   3   2   99.99   10.90
  -6   3  -2   93.89   10.10
   6   3   2   87.19    9.90
   7  -3   2   24.00    4.90
   7  -3   2   22.60    5.60
  -7  -3  -2   16.70    3.50
   7  -3   2   18.00    4.30
   7  -3   2   17.10    5.50
   7   3   2   23.00    5.50
   7   3   2   19.00    5.30
   7   3   2   27.80    6.90
   7   3   2   26.40    6.80
   8  -3   2    5.80    3.50
   8  -3   2    7.10    3.00
   8  -3   2    5.10    3.50
   8  -3   2    9.10    3.20
   8  -3   2    3.70    3.20
   8   3   2    6.10    3.80
   8   3   2    7.90    5.00
   8   3   2    4.50    2.90
   8   3   2    4.30    3.30
   9  -4  -2   45.20    8.20
  -9  -4   2   48.50    7.90
   9   4  -2   48.20    8.40
  -8  -4   2  247.38   20.80
  -8  -4   2  245.28   19.90
   8  -4  -2  205.08   19.00
  -8  -4   2  248.88   20.40
   8  -4  -2  222.18   19.50
   8  -4  -2  224.28   21.00
   8  -4  -2  216.98   19.20
   8   4  -2  227.18   20.40
  -8   4   2  222.88   18.50
   8   4  -2  228.38   20.70
   8   4  -2  249.78   21.70
  -7  -4   2  166.28   15.60
   7  -4  -2  171.68   16.40
  -7  -4   2  150.18   15.00
  -7  -4   2  161.58   15.00
   7  -4  -2  171.78   15.10
   7  -4  -2  159.88   14.50
   7   4  -2  171.98   16.50
   7   4  -2  176.58   16.60
  -7   4   2  163.08   15.20
  -7   4   2  207.18   15.50
   7   4  -2  158.78   15.90
  -6  -4   2  146.59   11.70
   6  -4  -2  174.88   14.00
   6  -4  -2  140.79   14.70
   6  -4  -2  189.78   14.20
  -6  -4   2  147.79   14.60
  -6  -4   2  145.79   14.50
  -6  -4   2  150.18   14.40
   6  -4  -2  186.38   14.10
   6  -4  -2  135.59   13.00
   6   4  -2  127.49   13.50
   6   4  -2  137.59   13.30
  -6   4   2  144.39   12.80
  -6   4   2  124.09   12.70
   6   4  -2  135.49   13.20
   6   4  -2  139.49   13.30
  -6   4   2  151.98   12.50
  -5  -4   2  429.76   31.10
   5  -4  -2  402.96   30.30
   5  -4  -2  403.16   30.50
  -5  -4   2  415.26   31.60
   5  -4  -2  425.86   32.40
  -5  -4   2  496.15   29.90
   5  -4  -2  423.16   30.60
  -5  -4   2  438.06   31.00
  -5  -4   2  472.15   32.10
  -5  -4   2  403.46   32.00
   5  -4  -2  429.36   30.50
  -5   4   2  394.96   31.00
   5   4  -2  513.55   32.10
  -5   4   2  458.25   30.60
   5   4  -2  414.36   31.70
  -5   4   2  403.26   30.70
  -5   4   2  426.36   30.80
  -5   4   2  411.16   30.70
   4  -4  -2   74.29    7.10
  -4  -4   2   73.99    8.10
   4  -4  -2   82.19    7.60
  -4  -4   2   66.99    7.90
   4  -4  -2   75.49    8.50
   4  -4  -2   78.09    7.70
   4  -4  -2   77.19    7.20
  -4  -4   2   78.29    7.90
  -4  -4   2   93.09    7.50
  -4  -4   2   73.59    7.70
   4  -4  -2   64.79    7.20
  -4  -4   2   70.89    9.90
   4   4  -2   74.49    7.90
   4   4  -2   75.19    9.60
  -4   4   2   75.89    7.20
  -4   4   2   71.49    7.30
  -4   4   2   72.59    6.00
   4   4  -2   68.79    7.90
   4   4  -2   70.69    8.50
   4   4  -2   66.69    7.60
  -4   4   2   86.49    8.50
  -4   4   2   75.69    7.60
  -3  -4   2  237.28   20.80
  -3  -4   2  281.57   19.50
   3  -4  -2  240.98   19.10
  -3  -4   2  244.98   18.40
  -3  -4   2  259.07   19.60
   3  -4  -2  246.28   17.90
  -3  -4   2  254.07   19.30
   3  -4  -2  242.68   18.00
   3  -4  -2  243.48   18.30
   3  -4  -2  229.38   18.50
   3  -4  -2  255.37   19.70
  -3  -4   2  266.27   19.50
   3  -4  -2  273.47   18.70
  -3  -4   2  254.87   19.10
  -3  -4   2  248.18   18.90
   3  -4  -2  245.68   19.30
  -3   4   2  246.18   18.70
  -3   4   2  264.47   19.30
  -3   4   2  254.07   18.70
  -3   4   2  243.88   19.70
  -3   4   2  249.78   18.70
   3   4  -2  235.08   19.50
  -3   4   2  258.57   19.80
   3   4  -2  269.17   19.50
   3   4  -2  289.67   20.70
   3   4  -2  254.07   19.40
   3   4  -2  246.68   19.10
  -3   4   2  241.48   17.70
  -3   4   2  238.88   18.40
   3   4  -2  254.47   19.10
  -3   4   2  284.57   19.00
   3   4  -2  256.57   19.40
   3   4  -2  246.78   20.00
   3   4  -2  244.88   17.70
   2  -4  -2  308.57   20.80
  -2  -4   2  275.17   23.30
   2  -4  -2  307.07   21.90
  -2  -4   2  283.17   22.10
   2  -4  -2  276.97   21.30
   2  -4  -2  302.57   22.30
  -2  -4   2  354.66   22.40
   2  -4  -2  331.77   21.90
  -2  -4   2  287.47   21.60
   2  -4  -2  277.37   21.00
  -2  -4   2  321.17   22.10
  -2  -4   2  308.97   21.90
  -2  -4   2  286.97   21.80
   2  -4  -2  289.97   21.90
   2  -4  -2  291.97   21.40
  -2  -4   2  311.37   22.10
   2   4  -2  277.97   21.70
  -2   4   2  292.77   21.40
   2   4  -2  291.47   21.90
  -2   4   2  298.87   21.60
  -2   4   2  292.57   22.00
  -2   4   2  302.57   21.30
   2   4  -2  293.87   21.60
  -2   4   2  295.07   21.70
  -2   4   2  316.07   21.10
   2   4  -2  286.17   22.70
  -2   4   2  287.67   22.00
   2   4  -2  320.67   22.00
   2   4  -2  348.97   20.30
   2   4  -2  289.67   21.80
   2   4  -2  277.37   21.50
  -2   4   2  286.37   22.20
   2   4  -2  358.56   22.60
  -1  -4   2  913.21   62.19
  -1  -4   2  928.01   61.99
   1  -4  -2  884.61   62.39
   1  -4  -2  907.71   61.79
  -1  -4   2  918.81   61.89
  -1  -4   2  966.10   62.39
   1  -4  -2  979.20   62.29
  -1  -4   2  980.20   62.19
   1  -4  -2  974.60   61.99
   1  -4  -2  940.51   62.09
  -1  -4   2  948.81   60.29
  -1  -4   2  937.51   63.39
   1  -4  -2  895.01   61.69
   1  -4  -2  957.00   61.99
  -1   4   2  950.10   61.89
  -1   4   2  887.21   62.59
  -1   4   2  953.60   63.09
   1   4  -2 1001.30   63.69
   1   4  -2 1026.00   62.79
  -1   4   2  931.61   62.99
   1   4  -2  936.21   61.09
  -1   4   2  908.21   62.49
   1   4  -2  919.51   62.59
  -1   4   2  938.21   62.59
   1   4  -2 1054.49   62.19
   1   4  -2  963.30   62.99
  -1   4   2  946.81   62.69
   1   4  -2  888.41   62.09
   0  -4   2 1636.84  114.69
   0  -4   2 1774.72  113.79
   0  -4  -2 1712.53  113.99
   0  -4   2 1714.63  113.79
   0  -4  -2 1723.23  114.09
   0  -4   2 1849.61  113.79
   0  -4  -2 1895.71  113.79
   0  -4  -2 1753.02  113.99
   0  -4   2 1754.72  113.99
   0  -4  -2 1788.22  114.09
   0  -4  -2 1731.23  114.19
   0  -4   2 1813.32  114.69
   0  -4  -2 1837.92  113.39
   0  -4  -2 1865.61  114.49
   0  -4   2 1747.53  114.89
   0  -4  -2 1705.13  114.69
   0  -4   2 1666.33  114.39
   0  -4   2 1731.93  112.89
   0   4  -2 1746.73  116.29
   0   4   2 1984.50  116.59
   0   4  -2 1782.02  117.39
   0   4  -2 1744.93  116.29
   0   4   2 1820.62  117.09
   0   4   2 2167.28  117.79
   0   4   2 1755.42  117.69
   0   4  -2 1775.02  117.29
   0   4   2 1747.93  117.19
   0   4  -2 1746.03  116.69
   0   4   2 1681.13  117.69
   0   4  -2 1752.22  115.99
  -1  -4  -2  121.89   10.10
   1  -4   2  147.49   10.10
   1  -4   2  127.09   10.00
  -1  -4  -2  113.29    9.90
   1  -4   2  115.39    9.50
   1  -4   2  120.69   11.20
   1  -4   2  117.99   10.50
   1  -4   2  123.69    9.60
  -1  -4  -2  120.19   10.20
  -1  -4  -2  112.39   10.20
  -1  -4  -2  125.99    8.90
  -1  -4  -2  130.39   11.10
   1  -4   2  118.59    9.80
   1  -4   2  137.49   10.60
  -1  -4  -2  108.89    9.90
   1   4   2  116.39    9.90
   1   4   2  111.39   10.40
  -1   4  -2  123.89    9.10
   1   4   2  119.99    9.70
  -1   4  -2  116.59    9.50
  -1   4  -2  111.59    8.50
  -1   4  -2  113.59    9.90
   1   4   2  109.09    9.70
   1   4   2  116.09    9.80
   1   4   2  115.39   10.60
   1   4   2  113.39   10.10
   1   4   2  119.69   10.10
  -1   4  -2  117.79    8.70
   2  -4   2 1211.98   74.89
  -2  -4  -2 1274.77   73.99
   2  -4   2 1311.47   76.49
  -2  -4  -2 1127.99   75.69
   2  -4   2 1150.18   73.69
  -2  -4  -2 1090.59   75.69
  -2  -4  -2 1080.19   73.79
  -2  -4  -2 1106.09   74.99
   2  -4   2 1137.59   75.29
  -2  -4  -2 1141.49   75.69
   2  -4   2 1144.39   76.19
   2  -4   2 1130.09   75.09
   2  -4   2 1218.28   75.29
  -2  -4  -2 1096.09   76.49
   2  -4   2 1069.59   76.79
   2   4   2 1091.49   74.79
  -2   4  -2 1232.28   72.89
   2   4   2 1343.67   75.39
  -2   4  -2 1106.79   73.79
  -2   4  -2 1118.19   73.49
   2   4   2 1087.39   75.69
   2   4   2 1112.39   74.89
  -2   4  -2 1097.39   74.69
  -2   4  -2 1088.39   73.29
   2   4   2 1110.19   74.89
  -2   4  -2 1084.09   72.79
   2   4   2 1120.39   73.99
   2   4   2 1140.19   75.89
  -3  -4  -2  338.27   24.80
   3  -4   2  383.86   22.60
   3  -4   2  311.37   24.40
  -3  -4  -2  319.77   23.10
   3  -4   2  333.27   23.70
   3  -4   2  331.27   23.30
   3  -4   2  377.56   25.60
   3  -4   2  324.77   25.80
  -3  -4  -2  332.97   24.20
  -3  -4  -2  349.27   22.50
  -3  -4  -2  321.87   24.40
   3  -4   2  350.56   24.80
  -3  -4  -2  343.07   24.50
   3  -4   2  334.27   23.80
   3  -4   2  337.47   23.90
   3   4   2  463.95   30.60
  -3   4  -2  382.66   26.60
   3   4   2  380.06   28.10
   3   4   2  378.16   26.50
   3   4   2  357.26   27.80
  -3   4  -2  440.96   27.00
   3   4   2  396.96   28.10
   3   4   2  339.27   28.60
   3   4   2  354.96   28.60
  -3   4  -2  376.26   25.20
  -3   4  -2  461.65   28.00
   3   4   2  378.66   28.00
  -3   4  -2  355.46   25.10
   4  -4   2  161.38   12.30
   4  -4   2  161.18   12.90
   4  -4   2  144.19   13.00
  -4  -4  -2  149.69   13.40
  -4  -4  -2  156.58   11.30
  -4  -4  -2  155.98   12.50
   4  -4   2  147.49   12.00
  -4  -4  -2  145.29   12.70
   4  -4   2  151.68   12.30
   4  -4   2  182.38   12.90
   4  -4   2  141.89   14.30
  -4   4  -2  145.39   11.80
   4   4   2  142.29   14.00
  -4   4  -2  182.28   12.90
   4   4   2  142.89   13.00
   4   4   2  146.29   13.60
   4   4   2  136.19   13.00
  -5  -4  -2   62.39    7.80
  -5  -4  -2   64.79    6.00
   5  -4   2   67.19    6.70
   5  -4   2   60.49    7.50
  -5  -4  -2   66.19    6.70
   5  -4   2   73.49    7.10
   5  -4   2   79.89    7.30
   5  -4   2   66.89    7.60
  -5  -4  -2   74.39    7.50
   5  -4   2   59.59    6.60
   5  -4   2   50.69    7.80
  -5   4  -2   68.79    7.20
   5   4   2   59.29    8.70
  -5   4  -2   63.09    7.10
   5   4   2   69.09    8.10
   5   4   2   80.29    9.00
   5   4   2   94.09   10.20
   5   4   2   72.59    8.70
   6  -4   2  493.75   31.70
  -6  -4  -2  407.86   29.20
   6  -4   2  399.06   31.90
   6  -4   2  367.06   29.00
   6  -4   2  420.86   28.70
  -6  -4  -2  394.36   30.60
   6  -4   2  397.96   29.40
   6   4   2  589.44   40.90
   6   4   2  523.15   41.00
   6   4   2  559.04   40.50
   7  -4   2  232.98   17.80
   7  -4   2  165.48   16.90
   7  -4   2  165.18   15.10
  -7  -4  -2  173.68   14.50
   7  -4   2  193.08   15.90
   7   4   2  182.98   17.40
   7   4   2  203.58   18.70
   7   4   2  196.08   17.50
   7   4   2  174.48   17.80
   8  -4   2  204.78   17.40
   8  -4   2  189.18   18.80
   8   4   2  214.58   22.50
   8   4   2  188.38   19.70
   8   4   2  251.77   20.60
   8  -5  -2  230.58   21.70
   8  -5  -2  220.48   19.80
  -8  -5   2  234.38   21.20
  -8  -5   2  267.27   21.30
  -8  -5   2  255.37   21.50
   8  -5  -2  235.18   20.40
   8  -5  -2  237.18   20.60
   8   5  -2  239.58   20.80
   8   5  -2  243.68   21.40
   8   5  -2  240.68   21.20
   8   5  -2  230.08   21.70
   7  -5  -2  458.15   35.00
   7  -5  -2  487.85   37.40
   7  -5  -2  530.85   35.60
  -7  -5   2  489.55   36.60
  -7  -5   2  456.65   35.70
  -7  -5   2  470.65   36.40
   7   5  -2  480.35   36.00
   7   5  -2  499.75   37.30
  -7   5   2  492.65   35.20
  -7   5   2  481.55   34.40
   7   5  -2  457.85   36.00
   7   5  -2  456.75   35.70
  -6  -5   2  372.66   26.00
   6  -5  -2  353.06   26.60
  -6  -5   2  354.46   28.80
   6  -5  -2  401.66   28.00
   6  -5  -2  362.26   27.60
   6  -5  -2  369.06   29.50
   6  -5  -2  388.66   27.90
  -6  -5   2  382.46   28.70
   6  -5  -2  384.06   28.60
  -6  -5   2  360.56   29.30
  -6   5   2  403.16   28.70
  -6   5   2  366.16   28.80
  -6   5   2  455.75   29.20
   6   5  -2  374.86   30.60
   6   5  -2  356.16   29.40
   6   5  -2  407.66   30.50
   6   5  -2  373.46   29.60
   5  -5  -2  127.29   11.60
  -5  -5   2  135.39   13.30
   5  -5  -2  156.08   12.30
   5  -5  -2  125.69   13.10
   5  -5  -2  135.39   11.90
   5  -5  -2  126.19   11.20
  -5  -5   2  174.68   13.90
  -5  -5   2  126.49   11.90
  -5  -5   2  118.09   10.90
  -5  -5   2  132.39   13.70
   5  -5  -2  143.69   12.10
  -5   5   2  136.49    9.20
  -5   5   2  138.09   12.30
  -5   5   2  135.49   12.20
   5   5  -2  161.78   14.10
  -5   5   2  130.59   12.20
   5   5  -2  149.59   13.40
  -5   5   2  141.19    9.20
   5   5  -2  124.59   13.50
   5   5  -2  144.29   11.80
   5   5  -2  127.99   12.80
   4  -5  -2  468.85   36.50
  -4  -5   2  509.15   36.10
   4  -5  -2  485.25   35.00
   4  -5  -2  473.55   34.60
   4  -5  -2  537.45   34.40
   4  -5  -2  591.34   35.70
   4  -5  -2  497.75   35.30
  -4  -5   2  507.15   34.90
  -4  -5   2  474.55   36.10
   4  -5  -2  471.95   34.80
  -4   5   2  456.05   33.50
   4   5  -2  477.75   35.00
  -4   5   2  448.26   32.30
  -4   5   2  482.15   33.80
   4   5  -2  489.35   34.80
   4   5  -2  460.45   34.40
  -4   5   2  464.75   33.50
  -4   5   2  456.45   33.60
   4   5  -2  566.24   33.20
   3  -5  -2  267.67   20.40
  -3  -5   2  259.77   21.30
   3  -5  -2  270.57   19.90
  -3  -5   2  255.97   21.20
   3  -5  -2  271.67   21.00
   3  -5  -2  329.17   21.40
  -3  -5   2  272.17   22.90
   3  -5  -2  279.67   20.90
  -3  -5   2  279.97   21.50
   3  -5  -2  292.57   23.30
   3  -5  -2  312.77   19.90
  -3  -5   2  271.57   21.20
   3  -5  -2  284.17   23.00
  -3   5   2  264.67   19.40
   3   5  -2  262.97   19.80
   3   5  -2  255.77   20.30
   3   5  -2  311.67   21.20
  -3   5   2  275.97   21.40
  -3   5   2  258.87   19.90
  -3   5   2  276.87   20.30
  -3   5   2  257.97   21.00
   3   5  -2  258.07   18.70
   3   5  -2  256.07   20.40
  -3   5   2  296.97   20.20
   3   5  -2  251.27   20.50
   2  -5  -2   59.59    7.30
  -2  -5   2   87.49    7.80
  -2  -5   2   61.89    7.20
   2  -5  -2   61.99    7.10
  -2  -5   2   79.49    7.80
  -2  -5   2   60.49    8.20
  -2  -5   2   59.49    7.10
  -2  -5   2   76.89    7.70
   2  -5  -2   64.79    6.80
   2  -5  -2   88.49    7.30
  -2  -5   2   57.99    7.10
   2  -5  -2   59.29    6.50
   2  -5  -2   60.39    7.60
  -2  -5   2   58.49    7.10
   2  -5  -2   68.19    7.50
   2  -5  -2   69.09    7.00
  -2   5   2   66.09    6.80
  -2   5   2   59.89    7.20
  -2   5   2   82.49    7.30
  -2   5   2   87.49    7.70
  -2   5   2   65.19    6.70
   2   5  -2   61.89    5.40
   2   5  -2   79.79    7.30
   2   5  -2   56.19    6.70
  -2   5   2   59.89    6.60
   2   5  -2   64.09    7.10
   2   5  -2   59.79    6.80
  -2   5   2   58.39    7.00
  -2   5   2   66.09    7.50
   2   5  -2   57.29    6.80
   2   5  -2   77.69    7.50
   2   5  -2   64.29    8.00
   2   5  -2   50.89    6.90
  -2   5   2   60.69    5.90
   1  -5  -2   23.90    4.20
   1  -5  -2   24.80    4.20
  -1  -5   2   27.50    5.80
  -1  -5   2   21.70    4.00
   1  -5  -2   23.20    3.80
   1  -5  -2   29.10    4.60
   1  -5  -2   26.90    4.50
  -1  -5   2   25.00    4.40
  -1  -5   2   19.00    3.90
  -1  -5   2   17.20    3.90
   1  -5  -2   21.90    4.00
  -1  -5   2   22.10    2.70
  -1  -5   2   26.20    4.50
   1  -5  -2   25.40    4.60
  -1  -5   2   24.20    4.20
  -1  -5   2   23.20    4.60
   1  -5  -2   35.00    4.50
  -1   5   2   28.80    4.80
   1   5  -2   26.10    3.50
   1   5  -2   24.10    4.30
  -1   5   2   30.20    3.60
  -1   5   2   33.60    4.70
  -1   5   2   45.70    5.80
   1   5  -2   26.80    4.20
   1   5  -2   28.30    4.60
   1   5  -2   25.70    4.70
  -1   5   2   30.50    4.70
  -1   5   2   26.40    4.60
   1   5  -2   29.20    4.40
  -1   5   2   25.40    4.10
   1   5  -2   31.60    3.10
   1   5  -2   27.70    4.90
  -1   5   2   29.00    4.90
  -1   5   2   35.70    4.60
   1   5  -2   30.90    5.00
  -1   5   2   24.10    4.40
   0  -5   2 1663.53  110.39
   0  -5   2 1727.53  111.89
   0  -5   2 1980.00  109.39
   0  -5   2 1676.53  110.29
   0  -5  -2 1586.94  111.09
   0  -5  -2 1647.14  110.39
   0  -5  -2 1657.33  110.29
   0  -5  -2 1710.53  109.69
   0  -5  -2 1563.74  110.29
   0  -5   2 1750.42  111.39
   0  -5   2 1583.24  110.69
   0  -5  -2 1691.23  110.39
   0  -5  -2 1870.41  111.09
   0  -5   2 1630.54  111.09
   0  -5  -2 1688.63  109.99
   0   5  -2 1701.03  109.49
   0   5  -2 1664.23  109.49
   0   5   2 1589.84  109.69
   0   5  -2 1650.43  107.79
   0   5  -2 1698.83  106.59
   0   5  -2 1664.43  108.39
   0   5  -2 1628.74  107.99
   0   5   2 1747.23  110.39
   0   5   2 1671.73  109.29
   0   5   2 1750.02  109.39
   0   5  -2 1609.14  108.69
   0   5  -2 1672.13  108.59
   0   5   2 1686.13  109.29
   0   5   2 1702.23  109.09
  -1  -5  -2 1369.36   92.29
   1  -5   2 1440.16   92.99
  -1  -5  -2 1399.46   93.39
  -1  -5  -2 1396.96   92.39
  -1  -5  -2 1390.96   92.39
  -1  -5  -2 1357.46   91.89
   1  -5   2 1416.36   93.09
  -1  -5  -2 1420.66   90.89
   1  -5   2 1380.36   91.49
  -1  -5  -2 1539.85   92.69
   1  -5   2 1400.56   91.99
  -1  -5  -2 1369.86   92.49
   1  -5   2 1405.06   91.59
   1  -5   2 1387.66   92.59
  -1  -5  -2 1451.25   92.19
  -1   5  -2 1404.56   90.49
   1   5   2 1315.47   91.59
   1   5   2 1381.96   91.09
  -1   5  -2 1564.84   89.39
   1   5   2 1372.46   90.59
  -1   5  -2 1353.46   90.19
   1   5   2 1353.46   90.69
  -1   5  -2 1316.87   89.59
   1   5   2 1414.76   92.09
   1   5   2 1426.46   91.09
   1   5   2 1383.36   91.09
   1   5   2 1291.77   90.49
  -2  -5  -2  372.16   27.10
   2  -5   2  363.36   27.40
  -2  -5  -2  387.46   25.10
   2  -5   2  386.26   26.20
  -2  -5  -2  355.26   26.80
  -2  -5  -2  354.16   26.80
   2  -5   2  349.67   27.80
   2  -5   2  371.56   26.40
  -2  -5  -2  405.86   26.60
  -2  -5  -2  367.56   27.30
   2  -5   2  413.56   26.70
   2  -5   2  377.76   27.00
   2   5   2  360.26   28.10
   2   5   2  362.96   26.30
   2   5   2  357.96   27.10
  -2   5  -2  368.16   25.80
   2   5   2  361.46   27.00
  -2   5  -2  359.16   27.00
  -2   5  -2  361.26   25.20
  -2   5  -2  400.86   26.00
  -2   5  -2  411.96   25.20
  -3  -5  -2  725.43   49.10
  -3  -5  -2  714.83   47.40
   3  -5   2  713.73   47.60
   3  -5   2  672.63   49.90
  -3  -5  -2  678.73   48.40
   3  -5   2  735.93   46.10
  -3  -5  -2  696.73   48.60
   3  -5   2  691.93   48.90
   3  -5   2  716.03   49.10
   3  -5   2  784.32   48.50
   3   5   2  749.53   49.20
   3   5   2  723.33   50.59
   3   5   2  716.63   50.59
  -3   5  -2  728.13   49.00
   3   5   2  764.62   50.79
  -3   5  -2  728.23   47.70
   3   5   2  703.43   51.29
   3   5   2  747.83   50.49
  -3   5  -2  758.42   48.00
   4  -5   2   32.50    4.40
  -4  -5  -2   41.10    4.00
  -4  -5  -2   33.30    3.50
   4  -5   2   35.00    3.90
   4  -5   2   36.00    4.60
  -4  -5  -2   34.50    5.30
   4  -5   2   33.10    5.00
   4  -5   2   33.60    6.70
   4  -5   2   33.70    5.60
  -4  -5  -2   31.60    5.40
  -4  -5  -2   50.59    6.80
   4  -5   2   38.20    5.50
   4   5   2   27.10    5.70
  -4   5  -2   43.40    5.10
   4   5   2   51.59    4.80
   4   5   2   31.90    6.40
   4   5   2   38.70    6.50
   4   5   2   34.30    6.20
   4   5   2   37.50    6.20
   4   5   2   34.10    6.10
   5  -5   2   93.39    9.70
  -5  -5  -2   95.39   10.20
   5  -5   2   93.59    9.80
   5  -5   2  124.79   10.00
   5  -5   2   91.99    9.20
   5  -5   2   93.79   11.20
  -5  -5  -2   96.89    9.40
   5   5   2   89.29   10.00
   5   5   2  117.99   11.40
   5   5   2   91.79   10.80
  -5   5  -2   94.99    9.10
   5   5   2  110.39   11.30
   5   5   2  138.09   12.30
   5   5   2   92.79   11.30
   6  -5   2  534.15   40.80
   6  -5   2  695.13   41.50
   6  -5   2  561.54   42.50
   6  -5   2  531.15   43.40
  -6  -5  -2  576.14   42.50
  -6  -5  -2  647.04   41.50
   6   5   2  649.64   46.50
   6   5   2  522.75   44.50
   6   5   2  575.84   44.50
   6   5   2  663.93   45.20
   6   5   2  709.43   45.60
  -7  -5  -2   50.69    6.80
   7  -5   2   52.59    8.30
   7  -5   2   46.80    6.30
   7  -5   2   51.79    6.80
   7  -5   2   46.00    8.60
   7   5   2   58.19    8.20
   7   5   2   49.90    8.60
   7   5   2   57.09    9.60
   7   5   2   55.69    9.60
   7   5   2   60.29    8.30
   8  -5   2   16.80    4.40
   8   5   2   20.40    5.80
   8  -6  -2   12.20    4.20
  -8  -6   2   17.40    6.00
   8  -6  -2   20.70    5.00
  -8  -6   2   20.30    5.40
  -8  -6   2   17.20    5.80
   8   6  -2   15.90    5.80
   8   6  -2   23.70    6.40
  -7  -6   2  162.58   15.80
  -7  -6   2  144.79   15.80
   7  -6  -2  135.49   14.10
   7  -6  -2  152.68   14.40
  -7  -6   2  173.98   16.50
   7  -6  -2  168.38   16.70
   7  -6  -2  197.88   15.50
   7   6  -2  164.18   14.20
   7   6  -2  157.18   16.10
   7   6  -2  135.99   14.80
  -7   6   2  180.08   14.40
   7   6  -2  157.98   15.90
   7   6  -2  154.88   15.70
  -6  -6   2  382.56   30.30
  -6  -6   2  374.06   26.60
   6  -6  -2  383.46   28.30
   6  -6  -2  359.96   29.90
  -6  -6   2  390.96   29.50
  -6  -6   2  370.36   29.30
   6  -6  -2  371.36   27.70
   6  -6  -2  365.46   28.00
  -6   6   2  361.06   27.60
   6   6  -2  357.26   29.20
   6   6  -2  374.96   27.10
   6   6  -2  346.37   28.60
   6   6  -2  361.56   28.80
  -6   6   2  351.16   26.90
   6   6  -2  431.96   30.00
  -5  -6   2   81.79   11.10
   5  -6  -2   80.09    9.10
   5  -6  -2   92.09    9.50
  -5  -6   2  104.19   10.90
   5  -6  -2   82.79    8.90
   5  -6  -2   88.99    8.10
   5  -6  -2   83.39   10.30
   5  -6  -2   94.89    9.50
  -5  -6   2   80.39    9.70
  -5  -6   2   92.49    8.70
   5   6  -2   98.19   11.40
  -5   6   2   99.99    9.20
  -5   6   2  104.79   10.00
   5   6  -2   92.69   10.30
   5   6  -2   83.39   10.00
   5   6  -2   88.89   10.50
  -5   6   2   91.49    9.50
   5   6  -2   97.19    9.10
   4  -6  -2  321.17   24.00
   4  -6  -2  354.06   23.20
   4  -6  -2  315.47   25.90
  -4  -6   2  330.37   26.50
   4  -6  -2  315.17   24.40
   4  -6  -2  350.36   25.20
   4  -6  -2  325.87   24.60
  -4  -6   2  340.47   25.80
   4  -6  -2  322.47   24.30
  -4  -6   2  325.17   24.40
  -4   6   2  324.37   24.40
   4   6  -2  334.27   25.80
   4   6  -2  340.37   23.50
   4   6  -2  330.67   25.40
  -4   6   2  314.17   23.60
   4   6  -2  303.87   25.10
  -4   6   2  324.07   23.80
  -4   6   2  385.66   25.20
  -3  -6   2  736.73   53.59
   3  -6  -2  696.53   51.49
   3  -6  -2  709.33   52.59
  -3  -6   2  885.01   53.39
   3  -6  -2  781.62   52.19
  -3  -6   2  753.32   52.89
   3  -6  -2  787.52   51.69
   3   6  -2  699.03   52.89
  -3   6   2  714.23   53.19
  -3   6   2  699.13   51.89
  -3   6   2  833.92   51.29
   3   6  -2  795.42   50.79
   3   6  -2  763.12   53.39
  -3   6   2  758.72   52.19
   3   6  -2  737.73   52.69
   3   6  -2  942.81   54.09
  -2  -6   2  187.78   17.10
  -2  -6   2  193.58   16.30
  -2  -6   2  178.08   16.00
   2  -6  -2  205.28   16.30
   2  -6  -2  192.38   16.10
   2  -6  -2  196.98   15.90
   2  -6  -2  186.28   15.40
  -2  -6   2  200.88   16.10
   2  -6  -2  197.88   15.40
  -2  -6   2  207.78   16.20
   2   6  -2  184.78   15.10
   2   6  -2  189.68   15.80
  -2   6   2  185.28   14.80
   2   6  -2  188.28   15.00
  -2   6   2  179.98   15.50
  -2   6   2  198.18   13.70
  -2   6   2  189.78   15.80
  -2   6   2  167.18   14.50
   2   6  -2  195.18   13.40
   2   6  -2  168.88   14.70
  -2   6   2  177.68   15.50
  -1  -6   2  434.46   25.50
  -1  -6   2  365.96   27.20
   1  -6  -2  390.26   27.60
   1  -6  -2  356.06   26.70
  -1  -6   2  362.86   28.10
  -1  -6   2  366.46   27.30
   1  -6  -2  369.76   27.20
  -1  -6   2  360.36   26.90
   1  -6  -2  370.16   26.70
  -1  -6   2  362.36   27.80
  -1  -6   2  343.67   27.10
  -1  -6   2  364.26   27.50
   1  -6  -2  372.96   26.90
   1   6  -2  390.26   26.60
  -1   6   2  388.26   27.50
   1   6  -2  365.16   29.30
  -1   6   2  365.66   27.60
   1   6  -2  356.16   26.40
  -1   6   2  383.26   27.00
   1   6  -2  360.96   25.10
  -1   6   2  395.56   27.40
   1   6  -2  361.26   26.60
  -1   6   2  372.06   25.50
  -1   6   2  347.07   26.40
   1   6  -2  370.26   25.50
  -1   6   2  359.86   26.50
   0  -6   2 1020.70   73.39
   0  -6   2 1067.99   74.29
   0  -6   2 1220.98   72.29
   0  -6  -2 1070.69   73.79
   0  -6  -2 1074.69   73.29
   0  -6  -2 1006.30   73.29
   0  -6  -2 1228.68   73.09
   0  -6   2 1039.40   72.99
   0  -6  -2 1122.09   73.59
   0  -6  -2 1115.59   73.29
   0  -6   2 1316.07   74.99
   0  -6   2  971.30   73.69
   0   6   2 1045.00   70.09
   0   6   2 1029.20   70.89
   0   6  -2 1048.30   70.29
   0   6  -2 1019.80   68.89
   0   6   2 1015.90   69.49
   0   6  -2 1073.59   66.59
   0   6  -2 1065.49   69.29
   0   6   2 1055.79   71.59
   0   6  -2 1029.10   68.49
   0   6   2 1105.09   69.89
   0   6   2 1039.80   69.69
   0   6  -2 1009.40   68.29
  -1  -6  -2   42.80    5.30
  -1  -6  -2   43.00    5.40
   1  -6   2   27.00    4.70
  -1  -6  -2   24.00    4.50
   1  -6   2   27.90    4.60
   1  -6   2   25.40    4.70
  -1  -6  -2   34.00    5.40
  -1  -6  -2   29.70    3.80
   1  -6   2   29.50    5.70
  -1  -6  -2   30.40    5.00
   1  -6   2   28.60    5.40
   1  -6   2   31.00    4.20
  -1   6  -2   40.20    5.30
   1   6   2   28.60    5.10
  -1   6  -2   29.10    4.00
   1   6   2   30.10    5.80
  -1   6  -2   29.30    4.00
   1   6   2   34.80    5.10
   1   6   2   32.80    5.30
   1   6   2   31.00    5.10
   1   6   2   31.80    5.50
  -1   6  -2   27.90    3.90
  -2  -6  -2  203.58   18.00
   2  -6   2  236.68   18.10
   2  -6   2  217.68   17.40
   2  -6   2  228.98   19.00
   2  -6   2  223.48   17.20
  -2  -6  -2  221.18   18.30
  -2  -6  -2  254.27   16.60
   2  -6   2  239.68   19.60
  -2  -6  -2  234.18   18.40
   2  -6   2  258.87   18.20
  -2  -6  -2  232.78   17.80
   2   6   2  235.08   19.80
  -2   6  -2  244.48   16.90
   2   6   2  239.28   19.10
  -2   6  -2  228.68   17.50
   2   6   2  237.58   18.80
   2   6   2  229.88   18.20
  -2   6  -2  228.98   17.40
   2   6   2  235.88   18.40
   2   6   2  234.68   18.90
  -3  -6  -2  592.14   42.10
   3  -6   2  574.04   42.10
   3  -6   2  586.94   41.10
  -3  -6  -2  612.14   39.20
   3  -6   2  618.24   41.30
   3  -6   2  599.54   43.30
  -3  -6  -2  593.64   40.60
   3  -6   2  601.04   40.70
   3   6   2  611.94   43.20
  -3   6  -2  708.13   42.20
   3   6   2  622.24   44.80
   3   6   2  606.64   44.60
   3   6   2  567.74   44.20
   3   6   2  714.73   46.40
   3   6   2  613.74   44.30
  -3   6  -2  618.94   42.90
   4  -6   2   75.79    8.00
   4  -6   2  105.69    9.50
  -4  -6  -2   89.09    7.10
   4  -6   2   88.09    6.50
  -4  -6  -2   73.69    9.10
  -4  -6  -2   95.19    7.50
   4  -6   2   90.99    9.50
  -4  -6  -2   85.69    9.40
   4  -6   2   86.49    8.70
   4  -6   2  104.99   10.00
  -4  -6  -2   81.79    7.80
   4  -6   2  120.19   12.00
   4   6   2   88.09    9.90
   4   6   2   81.69   10.50
   4   6   2   90.29    9.80
   4   6   2   88.99    9.80
  -4   6  -2   84.89    8.20
   4   6   2   85.79    8.10
   4   6   2   86.79    9.50
  -5  -6  -2   63.09    8.60
   5  -6   2   53.59    7.90
   5  -6   2   55.79    6.60
  -5  -6  -2   66.79    7.80
   5  -6   2   59.39    7.20
   5  -6   2   55.09    9.40
   5  -6   2   62.99    8.00
  -5  -6  -2   64.69    6.40
   5   6   2   69.59    8.90
   5   6   2   60.49    9.40
   5   6   2   87.99    9.70
   5   6   2   56.89    8.60
   5   6   2   52.79    8.00
   6  -6   2  293.97   21.80
   6  -6   2  265.97   22.40
   6  -6   2  313.57   25.00
  -6  -6  -2  252.07   21.20
   6  -6   2  262.17   21.20
   6  -6   2  263.87   21.10
  -6  -6  -2  297.27   26.50
   6   6   2  274.47   23.50
   6   6   2  308.57   23.90
   6   6   2  274.07   23.80
   6   6   2  267.07   22.80
   6   6   2  283.67   24.70
   7  -6   2   89.29   11.90
   7  -6   2   65.79    8.00
   7  -6   2   70.39    8.20
   7  -6   2   54.99    9.10
   7   6   2   67.99    9.30
   7   6   2   60.29    8.90
   7   6   2   58.09   10.10
   7   6   2   76.19   10.20
   7   6   2   78.89   10.30
   7  -7  -2   75.59    9.00
   7  -7  -2   89.99   12.20
  -7  -7   2   71.19    9.60
  -7  -7   2   81.89   11.20
  -7  -7   2   71.89   10.50
   7  -7  -2   92.79   10.20
   7   7  -2   77.19   10.60
   7   7  -2   72.19   11.70
   7   7  -2   79.39   11.10
   7   7  -2   81.59   10.20
   6  -7  -2   17.90    4.50
   6  -7  -2   16.40    4.20
  -6  -7   2   23.40    5.70
  -6  -7   2   26.50    6.80
   6  -7  -2   17.20    4.80
   6  -7  -2   15.20    5.70
  -6  -7   2   16.50    5.10
   6  -7  -2   20.30    4.90
   6   7  -2   24.60    6.00
  -6   7   2   16.40    4.00
  -6   7   2   15.10    5.20
   6   7  -2   14.50    5.20
   6   7  -2   22.10    5.90
  -5  -7   2  295.47   25.80
   5  -7  -2  307.77   23.70
   5  -7  -2  291.87   23.20
  -5  -7   2  336.67   23.60
  -5  -7   2  288.77   24.90
   5  -7  -2  300.47   23.90
   5  -7  -2  347.77   26.40
  -5  -7   2  304.97   24.80
  -5   7   2  437.46   28.00
   5   7  -2  299.97   27.50
   5   7  -2  341.67   25.90
   5   7  -2  409.76   28.80
   5   7  -2  334.57   28.00
  -5   7   2  354.56   26.90
  -4  -7   2  547.65   40.90
   4  -7  -2  535.05   38.10
   4  -7  -2  540.75   37.80
  -4  -7   2  563.74   39.80
  -4  -7   2  552.44   38.50
  -4  -7   2  552.44   39.80
   4  -7  -2  510.95   38.20
   4  -7  -2  541.65   38.80
  -4   7   2  547.05   37.40
   4   7  -2  541.65   37.40
   4   7  -2  524.15   39.90
   4   7  -2  537.65   40.10
   4   7  -2  622.94   40.40
  -4   7   2  543.45   38.90
  -3  -7   2  457.35   31.10
  -3  -7   2  415.36   30.60
   3  -7  -2  376.56   29.00
  -3  -7   2  406.66   31.70
   3  -7  -2  436.66   30.70
  -3  -7   2  375.66   29.70
   3  -7  -2  401.46   29.80
   3   7  -2  392.56   30.70
  -3   7   2  399.76   28.40
   3   7  -2  387.16   30.50
  -3   7   2  397.36   30.10
   3   7  -2  393.86   31.20
  -3   7   2  365.26   31.00
   3   7  -2  494.95   28.90
  -3   7   2  498.85   31.40
   2  -7  -2  206.88   16.00
   2  -7  -2  167.98   14.60
   2  -7  -2  175.68   14.60
  -2  -7   2  177.18   15.50
   2  -7  -2  171.18   15.30
  -2  -7   2  163.68   14.90
  -2  -7   2  167.48   15.40
  -2  -7   2  179.98   15.50
  -2   7   2  173.48   15.10
   2   7  -2  187.38   15.70
  -2   7   2  196.38   13.70
  -2   7   2  160.58   16.90
   2   7  -2  182.78   15.40
  -2   7   2  209.68   15.60
   2   7  -2  212.58   15.30
   2   7  -2  174.38   13.50
   2   7  -2  173.38   15.90
  -2   7   2  169.38   15.80
  -1  -7   2   96.29   10.00
  -1  -7   2  115.79   10.80
   1  -7  -2   97.29    9.50
  -1  -7   2   90.39    9.50
   1  -7  -2  124.19   10.50
  -1  -7   2   86.39    9.80
  -1  -7   2   95.69    8.20
  -1  -7   2  133.39   12.00
   1  -7  -2   92.59    9.60
   1  -7  -2   85.79    9.70
  -1  -7   2   88.79    9.70
   1   7  -2   99.79    8.60
   1   7  -2   88.99   10.00
   1   7  -2   87.49    9.30
  -1   7   2  121.39    9.00
  -1   7   2   98.79   10.40
   1   7  -2  110.09    9.90
   1   7  -2  108.59    8.60
  -1   7   2  105.99   10.10
  -1   7   2  130.29   10.70
   0  -7  -2   35.20    5.60
   0  -7   2   43.20    6.80
   0  -7   2   35.70    6.40
   0  -7   2   37.10    5.50
   0  -7  -2   30.30    5.50
   0  -7  -2   36.50    4.90
   0  -7   2   35.50    4.30
   0  -7   2   35.10    5.50
   0  -7  -2   45.70    6.20
   0  -7   2   52.99    6.80
   0  -7  -2   39.20    6.20
   0  -7  -2   33.40    5.70
   0  -7   2   33.70    6.00
   0   7  -2   37.90    5.20
   0   7   2   46.10    7.00
   0   7  -2   44.10    5.70
   0   7  -2   54.09    5.30
   0   7   2   42.10    6.30
   0   7  -2   52.39    6.30
   0   7   2   39.40    5.60
   0   7   2   36.00    6.10
   1  -7   2  184.48   13.80
   1  -7   2  192.08   15.10
  -1  -7  -2  149.99   14.10
  -1  -7  -2  187.88   13.50
   1  -7   2  161.98   15.30
  -1  -7  -2  178.48   14.50
   1  -7   2  157.78   14.10
   1  -7   2  150.88   13.50
   1  -7   2  157.38   14.20
  -1  -7  -2  158.08   14.30
   1  -7   2  168.38   15.30
  -1   7  -2  151.38   12.30
   1   7   2  166.08   15.20
  -1   7  -2  145.79   12.40
   1   7   2  167.58   13.90
   1   7   2  168.48   14.10
   1   7   2  154.08   13.80
  -1   7  -2  145.59   12.60
  -2  -7  -2  319.47   23.50
  -2  -7  -2  324.67   25.60
  -2  -7  -2  330.77   25.70
   2  -7   2  409.76   25.80
   2  -7   2  291.27   25.70
   2  -7   2  346.97   27.00
   2  -7   2  320.67   24.60
   2  -7   2  342.87   24.50
  -2  -7  -2  382.66   25.60
   2  -7   2  333.17   25.40
   2   7   2  294.27   24.60
  -2   7  -2  310.77   22.80
   2   7   2  289.97   24.30
   2   7   2  325.07   24.50
  -2   7  -2  313.17   23.70
  -2   7  -2  356.36   23.70
   2   7   2  385.16   26.90
  -3  -7  -2  361.86   26.80
  -3  -7  -2  349.07   25.80
  -3  -7  -2  390.66   24.30
   3  -7   2  349.27   26.10
   3  -7   2  364.26   27.30
   3  -7   2  345.57   28.30
  -3  -7  -2  346.07   27.10
   3  -7   2  322.47   25.10
  -3   7  -2  354.36   25.90
  -3   7  -2  380.56   25.60
   3   7   2  385.46   28.80
   3   7   2  358.66   29.50
   3   7   2  392.86   28.90
   3   7   2  373.56   27.80
   4  -7   2  112.19    9.70
  -4  -7  -2   97.69   11.20
   4  -7   2   98.99    9.90
   4  -7   2   97.59   11.00
  -4  -7  -2  106.19    9.20
   4  -7   2  104.19   10.60
  -4  -7  -2   88.79   10.20
   4  -7   2   95.29   11.90
   4   7   2  115.69   12.10
   4   7   2  129.79   13.40
   4   7   2   97.69   11.00
   4   7   2  102.49   11.50
  -5  -7  -2  226.08   20.40
   5  -7   2  282.47   19.50
   5  -7   2  223.98   19.30
  -5  -7  -2  216.98   19.30
   5  -7   2  285.27   20.90
   5  -7   2  240.58   20.20
   5  -7   2  262.87   22.90
   5   7   2  231.68   19.70
   5   7   2  247.58   21.80
   5   7   2  235.28   20.70
   5   7   2  237.98   20.40
   6  -7   2  154.58   16.90
   6  -7   2  168.98   14.50
   6  -7   2  142.39   14.20
   6  -7   2  149.99   14.90
   6  -7   2  148.89   13.60
  -6  -7  -2  185.18   14.90
   6   7   2  189.08   15.60
   6   7   2  139.29   15.30
   6   7   2  136.19   15.80
   6   7   2  135.39   14.60
   6   7   2  144.39   15.30
   7  -7   2   71.29    9.00
   7   7   2   92.79   11.60
  -7  -8   2   95.49   11.80
   7  -8  -2   97.89   10.90
   7   8  -2  130.49   14.10
   7   8  -2   93.59   12.30
   6  -8  -2   61.19   10.00
   6  -8  -2   43.10    7.10
   6  -8  -2   51.59    7.20
   6  -8  -2   40.20    7.00
  -6  -8   2   60.29    9.40
   6  -8  -2   42.50    6.90
  -6  -8   2   35.90    8.40
  -6  -8   2   51.39    8.80
   6   8  -2   36.50    8.00
   6   8  -2   64.89    9.20
   6   8  -2   46.20    8.50
  -6   8   2   51.89    7.20
   5  -8  -2   84.09    9.70
  -5  -8   2   92.79   11.50
  -5  -8   2  126.19   13.30
  -5  -8   2  101.89   11.60
   5  -8  -2   78.29   10.00
   5  -8  -2  128.19   13.40
   5  -8  -2   98.39   10.40
   5  -8  -2   87.69   10.20
  -5  -8   2  109.29   10.50
  -5   8   2   92.39    9.90
   5   8  -2   92.89   11.20
   5   8  -2   78.39    9.80
  -5   8   2   75.49    9.00
   5   8  -2   83.09   10.60
   4  -8  -2  226.18   17.00
   4  -8  -2  235.38   18.90
  -4  -8   2  156.98   16.10
  -4  -8   2  180.88   17.00
   4  -8  -2  166.38   16.00
  -4  -8   2  184.88   16.10
   4  -8  -2  172.78   15.10
   4   8  -2  179.38   16.90
   4   8  -2  171.08   16.20
  -4   8   2  196.98   16.10
  -4   8   2  180.88   15.70
  -3  -8   2   71.09    9.50
  -3  -8   2   91.69   10.70
   3  -8  -2   82.49   10.30
  -3  -8   2   96.49   11.30
   3  -8  -2  122.09   11.30
   3  -8  -2   76.59    9.10
   3  -8  -2  102.49    9.60
  -3  -8   2   92.09   10.10
  -3  -8   2   87.99   10.00
  -3   8   2   93.69    9.60
  -3   8   2  108.59   10.00
   3   8  -2   87.99   10.80
   3   8  -2   93.79   10.40
   3   8  -2   87.59    9.90
  -3   8   2   79.09    9.90
  -2  -8   2  904.81   62.39
   2  -8  -2  860.01   61.59
  -2  -8   2  922.21   62.89
   2  -8  -2  979.70   61.79
  -2  -8   2  865.41   62.09
  -2  -8   2  851.31   62.19
   2  -8  -2  960.60   62.89
   2  -8  -2  923.21   62.59
  -2   8   2  882.61   61.49
   2   8  -2  877.31   61.49
   2   8  -2  936.71   62.19
   2   8  -2  914.01   60.79
  -2   8   2  947.81   59.39
  -2   8   2  874.61   62.29
   1  -8  -2  184.68   16.30
   1  -8  -2  242.88   17.20
  -1  -8   2  187.48   16.70
   1  -8  -2  237.98   17.90
  -1  -8   2  179.38   16.10
  -1  -8   2  180.48   16.80
  -1  -8   2  184.78   17.70
  -1  -8   2  207.88   14.80
   1  -8  -2  178.48   16.20
  -1  -8   2  191.88   17.10
   1   8  -2  171.98   14.00
  -1   8   2  180.38   16.00
   1   8  -2  235.68   16.30
   1   8  -2  196.58   16.50
  -1   8   2  203.28   14.50
  -1   8   2  181.18   15.70
   0  -8   2  137.49   11.90
   0  -8   2  125.89   12.50
   0  -8  -2  115.69   10.80
   0  -8   2  115.09   11.80
   0  -8  -2  126.69   12.10
   0  -8   2  111.89   12.20
   0  -8   2  117.29   12.60
   0  -8   2  147.89   13.20
   0  -8  -2  122.79   12.00
   0  -8   2  131.49   10.60
   0  -8  -2  132.59   12.30
   0   8   2  122.79   11.70
   0   8  -2  127.19   11.70
   0   8   2  149.79   11.00
   0   8   2  117.79   12.90
   0   8  -2  124.99   11.00
   0   8   2  116.59   11.40
   0   8   2  119.79   11.90
   0   8  -2  129.49   11.70
   1  -8   2   12.30    3.30
  -1  -8  -2   13.50    4.30
   1  -8   2   18.90    4.30
  -1  -8  -2   18.10    4.80
   1  -8   2   10.70    4.40
   1  -8   2   11.40    3.60
   1  -8   2   23.60    5.30
  -1  -8  -2   16.30    3.40
   1  -8   2    7.60    3.00
   1  -8   2    6.80    3.60
   1   8   2   13.30    3.90
   1   8   2   15.10    4.50
   1   8   2   13.60    5.20
  -1   8  -2   18.50    3.80
  -1   8  -2   13.00    3.10
   1   8   2   17.40    4.30
  -1   8  -2   16.50    3.60
   2  -8   2    4.90    3.50
  -2  -8  -2   -0.80    2.00
   2  -8   2    3.20    2.50
  -2  -8  -2    1.10    1.90
   2  -8   2    0.10    3.10
   2  -8   2    8.00    2.90
  -2  -8  -2    2.80    1.60
  -2  -8  -2    1.00    2.80
   2  -8   2    0.10    2.50
   2   8   2    2.20    2.80
   2   8   2    0.00    1.90
  -2   8  -2    2.40    2.30
  -2   8  -2    0.40    2.10
  -2   8  -2    3.10    1.80
   2   8   2    4.70    3.00
   2   8   2    0.40    1.90
   3  -8   2  149.49   12.50
   3  -8   2  133.19   11.10
   3  -8   2  118.69   12.70
  -3  -8  -2  118.09   12.20
  -3  -8  -2   95.99   11.70
  -3  -8  -2  107.49   11.00
   3  -8   2  121.49   13.60
   3   8   2  104.69   11.20
   3   8   2  116.39   12.40
   3   8   2  156.38   14.70
   3   8   2  120.59   12.70
  -4  -8  -2  679.53   41.90
  -4  -8  -2  546.75   38.60
   4  -8   2  550.44   40.90
   4  -8   2  525.45   41.90
  -4  -8  -2  553.14   40.30
   4  -8   2  517.05   39.70
   4  -8   2  550.74   39.80
   4   8   2  543.55   40.70
   4   8   2  550.24   42.80
   4   8   2  622.14   42.50
   4   8   2  562.54   41.80
   5  -8   2   10.40    3.70
  -5  -8  -2   13.70    4.40
  -5  -8  -2   10.90    4.00
   5  -8   2    8.80    3.60
   5  -8   2    7.60    3.10
   5  -8   2    7.70    4.20
   5  -8   2    9.20    3.60
   5   8   2    9.00    4.50
   5   8   2    6.50    3.30
   5   8   2   10.20    4.30
   6  -8   2  165.78   15.10
  -6  -8  -2  119.29   13.00
   6  -8   2  153.78   13.60
   6  -8   2  122.59   13.00
   6   8   2  124.99   14.70
   6   8   2  135.69   17.30
   6   8   2  132.49   14.40
   6  -9  -2    4.60    3.20
  -6  -9   2    1.00    2.60
   6  -9  -2    0.90    2.40
   6   9  -2    2.80    3.10
   6   9  -2    1.30    2.80
   5  -9  -2  164.48   15.00
   5  -9  -2  168.08   15.90
   5  -9  -2  189.88   18.00
  -5  -9   2  166.28   16.40
  -5  -9   2  183.78   16.90
  -5  -9   2  148.69   16.80
   5  -9  -2  159.48   14.90
   5  -9  -2  194.78   16.30
  -5   9   2  174.18   15.30
   5   9  -2  172.68   17.40
   5   9  -2  175.28   16.40
   4  -9  -2  201.38   17.30
  -4  -9   2  193.78   17.60
  -4  -9   2  207.68   17.90
   4  -9  -2  189.98   18.80
   4  -9  -2  200.08   17.90
   4  -9  -2  200.78   18.50
  -4  -9   2  208.38   19.20
  -4  -9   2  264.27   20.20
  -4  -9   2  186.48   19.20
   4  -9  -2  249.58   17.80
   4   9  -2  209.78   19.00
   4   9  -2  195.08   17.80
  -4   9   2  199.98   17.20
  -4   9   2  212.58   17.50
   4   9  -2  203.48   18.50
  -3  -9   2  132.29   13.20
   3  -9  -2  120.49   12.80
  -3  -9   2  114.39   12.40
  -3  -9   2  136.59   13.60
   3  -9  -2  129.89   12.20
  -3  -9   2  156.38   15.10
   3  -9  -2  126.69   12.70
  -3  -9   2  122.19   13.40
   3  -9  -2  121.49   12.90
   3   9  -2  126.99   13.00
  -3   9   2  132.49   12.30
   3   9  -2  117.19   13.50
  -3   9   2  127.79   12.40
  -3   9   2  127.59   13.30
   3   9  -2  163.68   14.30
  -2  -9   2   48.40    7.80
   2  -9  -2   50.19    7.60
   2  -9  -2   42.30    6.80
  -2  -9   2   47.30    8.00
  -2  -9   2   42.40    8.10
  -2  -9   2   42.40    7.10
   2  -9  -2   47.50    7.70
   2  -9  -2   57.79    7.70
  -2  -9   2   42.20    7.20
   2   9  -2   65.59    8.20
   2   9  -2   53.79    7.20
  -2   9   2   39.00    6.60
  -2   9   2   60.09    7.70
  -2   9   2   46.30    7.80
   1  -9  -2  147.59   14.70
  -1  -9   2  157.68   15.60
   1  -9  -2  167.18   14.40
  -1  -9   2  195.88   16.00
  -1  -9   2  176.48   15.70
   1  -9  -2  155.58   14.60
  -1  -9   2  155.68   15.10
   1  -9  -2  163.08   14.90
  -1  -9   2  137.69   14.00
   1   9  -2  197.68   15.00
   1   9  -2  186.48   15.20
  -1   9   2  154.08   15.50
  -1   9   2  206.68   16.30
  -1   9   2  166.68   15.20
   1   9  -2  157.18   15.10
   0  -9  -2  130.19   12.40
   0  -9   2  155.88   13.90
   0  -9  -2  128.49   12.60
   0  -9  -2  118.59   12.40
   0  -9   2  120.39   13.20
   0  -9  -2  119.99   11.60
   0  -9   2  127.89   12.70
   0  -9   2  122.69   13.00
   0  -9   2  126.69   12.20
   0   9  -2  121.69   11.80
   0   9   2  116.59   12.00
   0   9   2  113.09   12.40
   0   9   2  128.59   12.70
   0   9   2  142.19   14.30
   0   9   2  140.09   10.90
   0   9  -2  133.69   11.60
   1  -9   2  215.58   19.20
   1  -9   2  216.08   17.60
   1  -9   2  211.88   18.40
  -1  -9  -2  231.28   18.60
  -1  -9  -2  227.08   18.30
  -1  -9  -2  204.38   16.50
   1  -9   2  202.88   18.80
  -1  -9  -2  202.18   18.00
   1   9   2  220.08   18.70
  -1   9  -2  229.48   17.50
   1   9   2  223.18   19.00
   1   9   2  229.98   21.00
   1   9   2  228.18   19.20
  -1   9  -2  224.88   18.10
   2  -9   2   74.19    9.70
   2  -9   2   48.50    6.30
  -2  -9  -2   38.90    7.40
   2  -9   2   52.59    8.50
  -2  -9  -2   45.40    7.30
   2  -9   2   58.29    7.80
   2   9   2   77.79   10.70
  -2   9  -2   55.59    6.40
   2   9   2   57.99    8.20
   2   9   2   76.99    9.30
   2   9   2   64.19    8.20
   3  -9   2  221.28   20.90
   3  -9   2  284.87   19.00
   3  -9   2  218.48   19.20
  -3  -9  -2  206.98   19.10
   3  -9   2  239.38   20.70
  -3  -9  -2  213.28   18.50
   3   9   2  287.37   21.40
   3   9   2  223.88   20.30
   3   9   2  238.28   21.70
   3   9   2  216.58   19.30
  -4  -9  -2   14.30    4.80
   4  -9   2   16.90    3.80
   4  -9   2   17.60    5.50
   4  -9   2   12.60    4.30
   4  -9   2   16.00    6.10
   4  -9   2   19.50    4.80
  -4  -9  -2   15.30    4.00
  -4  -9  -2   18.20    5.50
   4   9   2   17.00    4.80
   4   9   2   16.10    5.20
   4   9   2   17.60    5.50
   4   9   2   11.70    4.70
   5  -9   2  128.29   12.50
  -5  -9  -2  117.99   12.50
   5  -9   2  137.29   13.40
   5   9   2  124.69   13.40
  -5 -10   2    8.60    4.80
   5 -10  -2   12.00    4.10
   5  10  -2   11.30    4.70
   5  10  -2    8.80    4.70
  -4 -10   2   35.70    6.60
  -4 -10   2   26.80    6.90
   4 -10  -2   37.80    7.90
   4 -10  -2   39.90    7.20
  -4 -10   2   42.80    9.30
   4 -10  -2   37.80    7.10
   4 -10  -2   34.90    6.20
  -4 -10   2   35.50    9.30
   4 -10  -2   47.10    6.60
  -4  10   2   28.80    5.70
   4  10  -2   31.10    6.80
   4  10  -2   30.30    6.80
   4  10  -2   43.20    7.90
  -3 -10   2  103.79   12.20
   3 -10  -2  104.79   11.10
   3 -10  -2   99.89   12.20
   3 -10  -2  125.69   12.40
   3 -10  -2  116.19   12.80
  -3 -10   2  140.59   13.70
  -3 -10   2   93.29   11.60
  -3 -10   2   99.99   13.30
  -3 -10   2   98.49   11.40
  -3  10   2  122.79   11.50
  -3  10   2   99.99   11.70
   3  10  -2   98.09   12.30
  -3  10   2  100.69   10.80
   3  10  -2  102.89   11.10
   3  10  -2   96.19   11.80
  -2 -10   2   10.60    4.30
  -2 -10   2   11.70    4.10
  -2 -10   2   13.60    5.30
   2 -10  -2   10.30    4.40
   2 -10  -2   10.40    3.60
  -2 -10   2   13.80    4.50
   2 -10  -2   10.70    3.90
   2 -10  -2    8.30    4.30
  -2 -10   2   13.40    4.50
  -2  10   2   11.30    4.30
   2  10  -2    9.80    3.20
  -2  10   2   11.50    4.00
  -2  10   2   12.90    4.30
   2  10  -2   15.40    5.00
   1 -10  -2   36.50    6.50
  -1 -10   2   36.50    7.00
  -1 -10   2   36.70    7.60
   1 -10  -2   43.20    7.30
  -1 -10   2   32.40    6.40
  -1 -10   2   32.40    6.80
   1 -10  -2   30.30    5.60
   1 -10  -2   34.30    6.70
  -1 -10   2   30.20    6.40
  -1  10   2   40.00    7.10
  -1  10   2   33.90    6.30
   1  10  -2   27.90    5.40
   1  10  -2   45.30    6.80
  -1  10   2   32.40    5.90
   0 -10  -2  173.78   14.30
   0 -10  -2  161.48   14.70
   0 -10   2  172.78   16.00
   0 -10  -2  144.19   14.70
   0 -10  -2  145.99   13.90
   0 -10   2  134.69   13.60
   0 -10   2  175.28   16.00
   0 -10   2  129.69   14.20
   0 -10   2  139.49   14.40
   0  10   2  188.88   15.80
   0  10  -2  138.79   13.50
   0  10   2  208.48   16.40
   0  10   2  155.18   15.10
   1 -10   2   34.00    6.90
   1 -10   2   48.40    7.80
   1 -10   2   36.70    7.50
   1 -10   2   34.10    6.30
  -1 -10  -2   45.30    7.60
  -1 -10  -2   41.50    7.20
  -1 -10  -2   36.00    7.00
   1  10   2   41.30    7.10
  -1  10  -2   32.30    5.20
   1  10   2   46.30    7.20
   1  10   2   40.70    7.80
   1  10   2   43.40    7.20
  -2 -10  -2  245.58   20.00
   2 -10   2  271.77   20.60
  -2 -10  -2  210.18   19.80
   2 -10   2  232.08   19.00
  -2 -10  -2  220.98   19.90
   2 -10   2  249.78   21.50
   2 -10   2  224.88   21.30
   2  10   2  245.08   22.20
   2  10   2  221.78   18.90
   2  10   2  216.38   19.40
   2  10   2  216.68   19.70
   3 -10   2   37.00    7.60
   3 -10   2   39.40    6.30
  -3 -10  -2   48.20    7.20
   3 -10   2   43.80    7.30
  -3 -10  -2   41.60    7.30
  -3 -10  -2   42.00    7.40
   3 -10   2   44.40    7.90
   3  10   2   47.00    8.20
   3  10   2   55.39    8.60
   3  10   2   36.80    8.50
   4 -10   2   33.50    6.60
  -4 -10  -2   38.60    7.60
   4 -10   2   39.40    7.20
   4  10   2   43.90    8.50
   3 -11  -2   70.99   10.30
  -3 -11   2   62.89    9.60
  -3  11   2   74.99    9.30
  -2 -11   2    2.40    3.10
  -2 -11   2    4.00    4.10
   2 -11  -2   -0.30    3.10
  -2 -11   2    2.30    3.50
   2 -11  -2    0.80    2.30
  -2  11   2    3.70    3.30
   2  11  -2    2.80    3.00
  -2  11   2    3.00    3.10
  -1 -11   2   78.59    9.60
   1 -11  -2   59.99    7.90
  -1 -11   2   75.89   11.90
  -1 -11   2   46.60    9.10
   1 -11  -2   56.29   10.20
  -1 -11   2   72.39    9.90
  -1 -11   2   63.69    8.60
  -1  11   2   73.79    9.00
  -1  11   2   57.29    8.00
   0 -11  -2  125.49   13.60
   0 -11   2  125.89   15.40
   0 -11  -2  121.99   12.70
   0 -11   2  171.18   15.80
   0 -11   2  113.79   13.10
   0  11   2  113.69   12.30
   0  11  -2  115.39   11.10
   0  11   2  123.39   12.60
  -1 -11  -2  204.58   18.30
  -1 -11  -2  195.68   18.10
   1 -11   2  193.88   17.70
   1 -11   2  204.78   18.90
   1  11   2  229.78   21.60
   1  11   2  224.58   19.70
   2 -11   2   20.40    6.10
  -2 -11  -2   25.10    6.00
  -2 -11  -2   40.90    7.60
   2  11   2   34.80    7.40
   9   0  -3  260.07   23.20
   9   0  -3  317.47   23.70
  -9   0   3  278.47   22.60
   9   0  -3  285.77   24.50
   9   0  -3  279.67   24.40
   9   0  -3  267.87   23.30
   8   0  -3    5.50    3.10
   8   0  -3    4.80    3.70
   8   0  -3    5.70    2.90
  -8   0   3    6.90    3.50
   8   0  -3    6.60    3.50
   8   0  -3    3.20    3.10
  -8   0   3    4.00    2.50
   7   0  -3  694.93   52.19
   7   0  -3  742.23   51.89
  -7   0   3  871.61   49.99
   7   0  -3  820.52   50.69
   7   0  -3  719.13   52.79
  -7   0   3  725.23   52.19
   7   0  -3  696.33   52.19
   7   0  -3  746.93   53.39
  -7   0   3  741.93   51.19
  -6   0   3  399.86   25.60
   6   0  -3  308.57   25.30
   6   0  -3  288.67   24.70
   6   0  -3  292.07   23.10
   6   0  -3  357.66   25.60
  -6   0   3  394.66   25.80
   6   0  -3  307.97   24.20
  -6   0   3  392.36   25.20
  -6   0   3  315.37   22.60
   6   0  -3  304.97   24.40
  -6   0   3  289.87   25.90
   5   0  -3  313.97   22.60
  -5   0   3  302.77   21.60
  -5   0   3  286.27   21.60
   5   0  -3  352.56   22.80
  -5   0   3  315.27   22.50
   5   0  -3  277.17   21.30
  -5   0   3  310.17   20.60
   5   0  -3  293.97   21.20
  -5   0   3  297.87   21.70
  -5   0   3  270.97   22.30
  -5   0   3  277.07   22.00
   5   0  -3  294.47   22.50
   5   0  -3  280.77   22.70
   5   0  -3  297.87   21.90
  -5   0   3  292.17   23.70
  -4   0   3  383.76   27.50
   4   0  -3  362.26   27.10
  -4   0   3  466.15   27.70
   4   0  -3  468.85   28.30
  -4   0   3  388.06   27.10
  -4   0   3  387.36   29.20
   4   0  -3  359.46   27.10
   4   0  -3  379.46   28.30
  -4   0   3  375.86   26.90
   4   0  -3  391.76   27.50
   4   0  -3  391.46   27.30
  -4   0   3  370.16   27.40
   4   0  -3  381.06   26.70
   4   0  -3  380.86   28.10
   4   0  -3  370.66   27.30
   3   0  -3  394.26   26.90
  -3   0   3  394.66   26.70
  -3   0   3  398.46   28.00
   3   0  -3  388.66   26.70
   3   0  -3  402.66   27.60
   3   0  -3  441.36   27.80
  -3   0   3  392.86   27.40
  -3   0   3  367.26   26.40
   3   0  -3  360.46   26.60
  -3   0   3  389.66   26.70
   3   0  -3  390.96   26.50
  -3   0   3  377.86   26.80
   3   0  -3  394.86   27.00
  -3   0   3  354.06   26.70
   3   0  -3  403.86   26.80
  -3   0   3  387.76   26.90
   2   0  -3 1452.45   97.39
   2   0  -3 1503.45   97.39
   2   0  -3 1512.35   97.49
  -2   0   3 1563.74   97.49
  -2   0   3 1545.55   97.59
   2   0  -3 1483.55   97.29
  -2   0   3 1537.15   97.69
  -2   0   3 1383.46   98.09
   2   0  -3 1492.75   98.09
   2   0  -3 1453.65   97.29
  -2   0   3 1487.65   98.09
   2   0  -3 1546.55   97.69
  -2   0   3 1542.45   97.29
   2   0  -3 1719.53   97.79
  -2   0   3 1471.55   97.69
  -2   0   3 1553.74   97.59
   1   0  -3 8217.28  562.94
  -1   0   3 8448.55  566.24
  -1   0   3 8313.87  562.84
   1   0  -3 8651.23  562.04
  -1   0   3 8598.94  563.94
   1   0  -3 9931.81  561.44
   1   0  -3 9574.04  560.04
   1   0  -3 9999.00  563.14
  -1   0   3 8664.13  563.04
   1   0  -3 8703.33  566.84
  -1   0   3 8486.95  562.64
  -1   0   3 8469.55  562.44
  -1   0   3 8166.18  567.94
   1   0  -3 8643.44  565.74
   0   0   3 3473.45  234.28
   0   0   3 3504.75  236.28
   0   0   3 3523.35  237.48
   0   0  -3 4041.10  234.28
   0   0   3 3727.93  234.68
   0   0  -3 3869.71  234.08
   0   0   3 3432.96  235.78
  -1   0  -3   21.00    1.70
   1   0   3   20.60    2.60
   1   0   3   19.70    1.90
   1   0   3   31.60    3.50
   1   0   3   22.50    2.00
   1   0   3   17.90    2.60
  -1   0  -3   25.80    1.80
   2   0   3  144.89    9.80
   2   0   3  130.99    9.20
  -2   0  -3  118.59   10.20
  -2   0  -3  145.09    9.50
   2   0   3  157.58    9.90
   2   0   3  127.39   10.40
   2   0   3  156.08    9.70
  -2   0  -3  132.99   10.50
   2   0   3  121.49   10.90
   2   0   3  118.99   10.30
   2   0   3  129.89    9.40
  -2   0  -3  134.49    9.60
  -3   0  -3   36.20    3.70
   3   0   3   39.60    3.40
   3   0   3   43.90    4.40
  -3   0  -3   35.60    4.50
   3   0   3   44.80    4.10
   3   0   3   35.60    5.00
   3   0   3   47.50    4.20
  -3   0  -3   36.30    4.40
   3   0   3   36.30    3.90
   3   0   3   39.30    4.90
   3   0   3   34.20    4.50
   3   0   3   36.10    3.80
   4   0   3  142.99   11.60
   4   0   3  133.69   12.30
   4   0   3  149.49    9.60
   4   0   3  131.49   11.30
   4   0   3  173.78   11.70
  -4   0  -3  140.09   11.00
   4   0   3  145.19   11.50
   4   0   3  147.49   13.20
  -4   0  -3  149.99   11.50
  -4   0  -3  140.19   12.10
   4   0   3  146.09   12.30
   4   0   3  151.98   11.70
   5   0   3 1375.06  100.69
  -5   0  -3 1438.96   99.29
   5   0   3 1714.53   99.99
  -5   0  -3 1535.15  100.49
   5   0   3 1468.15  100.29
   5   0   3 1419.96  101.39
   5   0   3 1553.84  100.09
   5   0   3 1683.23   99.89
   6   0   3    4.40    3.20
   6   0   3    5.40    2.70
   6   0   3    6.70    2.20
   6   0   3    6.70    2.90
  -6   0  -3    3.60    2.30
   6   0   3    6.50    3.80
   6   0   3    6.30    3.20
   7   0   3   97.89   10.70
   7   0   3  130.29   12.90
   7   0   3  107.69   11.80
   7   0   3  105.09   10.80
   8   0   3   32.10    7.70
   8   0   3   31.70    6.20
   8   0   3   28.30    5.60
   8   0   3   29.80    6.30
   8   0   3   24.00    6.20
   9  -1  -3   52.19    9.00
  -9  -1   3   36.10    6.90
   9  -1  -3   34.40    6.70
   9  -1  -3   37.40    6.80
   9  -1  -3   30.30    6.70
   9  -1  -3   31.60    6.40
  -9   1   3   34.20    6.60
   9   1  -3   33.90    6.50
   9   1  -3   43.60    8.50
   9   1  -3   29.80    6.60
   9   1  -3   48.80    8.30
   8  -1  -3  471.85   36.40
   8  -1  -3  599.04   37.40
   8  -1  -3  471.25   37.30
   8  -1  -3  425.26   36.00
   8  -1  -3  493.45   37.10
  -8  -1   3  516.95   36.50
   8   1  -3  403.96   34.20
  -8   1   3  508.25   34.90
   8   1  -3  465.15   36.10
   8   1  -3  482.55   35.40
   8   1  -3  473.35   34.80
  -8   1   3  495.05   35.50
   7  -1  -3  152.48   13.90
  -7  -1   3  157.98   13.60
   7  -1  -3  147.39   14.00
   7  -1  -3  138.09   14.10
  -7  -1   3  140.09   13.50
   7  -1  -3  138.69   13.30
   7  -1  -3  139.79   13.20
  -7  -1   3  167.38   14.00
   7   1  -3  127.19   12.90
   7   1  -3  140.19   12.10
   7   1  -3  147.19   13.70
   7   1  -3  131.19   13.00
  -7   1   3  160.18   11.40
  -7   1   3  130.49   10.80
  -7   1   3  132.49   13.10
  -7   1   3  125.29   12.40
  -7   1   3  125.19   13.80
   6  -1  -3  532.05   40.00
  -6  -1   3  609.24   38.00
   6  -1  -3  584.24   40.00
   6  -1  -3  566.54   41.30
  -6  -1   3  581.04   41.20
  -6  -1   3  587.64   42.50
   6  -1  -3  566.34   40.20
  -6  -1   3  578.14   40.70
  -6  -1   3  558.44   40.40
   6  -1  -3  550.64   40.10
   6   1  -3  617.24   42.30
   6   1  -3  507.05   42.10
  -6   1   3  593.84   40.80
   6   1  -3  737.13   43.70
  -6   1   3  619.34   43.00
  -6   1   3  581.64   44.00
   6   1  -3  583.14   42.70
  -6   1   3  580.14   42.50
  -6   1   3  682.83   41.80
   6   1  -3  625.14   43.50
  -5  -1   3   40.80    5.30
  -5  -1   3   43.50    5.70
   5  -1  -3   33.70    4.90
  -5  -1   3   35.80    4.90
   5  -1  -3   36.70    5.00
   5  -1  -3   31.20    5.20
  -5  -1   3   50.49    5.80
  -5  -1   3   46.10    6.10
   5  -1  -3   42.50    5.50
   5  -1  -3   36.90    5.70
   5  -1  -3   32.80    5.30
  -5  -1   3   36.60    5.30
  -5  -1   3   43.80    5.60
   5  -1  -3   46.60    6.30
  -5  -1   3   48.50    7.20
   5   1  -3   44.90    5.80
  -5   1   3   34.30    4.20
  -5   1   3   30.50    4.60
   5   1  -3   42.20    5.00
   5   1  -3   51.89    6.40
   5   1  -3   33.30    5.30
  -5   1   3   54.29    5.60
   5   1  -3   31.20    4.80
  -5   1   3   28.80    5.00
  -5   1   3   35.40    4.30
  -5   1   3   31.80    6.20
  -5   1   3   30.40    5.10
  -5   1   3   46.60    5.30
   5   1  -3   34.50    5.60
   5   1  -3   39.20    5.10
   4  -1  -3  274.07   20.20
   4  -1  -3  275.07   21.00
  -4  -1   3  278.47   21.00
  -4  -1   3  263.77   20.30
  -4  -1   3  263.57   21.80
   4  -1  -3  281.47   20.40
  -4  -1   3  279.97   20.30
  -4  -1   3  292.37   20.90
  -4  -1   3  270.37   20.80
  -4  -1   3  327.97   21.00
   4  -1  -3  272.77   21.10
   4  -1  -3  281.87   20.30
   4  -1  -3  322.97   21.90
  -4  -1   3  281.27   20.90
   4  -1  -3  261.97   20.20
  -4   1   3  288.57   22.00
   4   1  -3  284.47   21.70
  -4   1   3  294.77   20.80
  -4   1   3  291.17   21.60
   4   1  -3  284.27   21.40
  -4   1   3  273.87   20.90
   4   1  -3  327.87   21.80
   4   1  -3  277.87   21.50
   4   1  -3  285.87   21.50
  -4   1   3  293.87   23.00
  -4   1   3  293.27   20.60
   4   1  -3  340.77   21.00
  -4   1   3  312.67   21.00
   4   1  -3  287.57   21.40
   4   1  -3  293.97   21.50
   3  -1  -3 1252.07   86.59
   3  -1  -3 1359.76   87.09
   3  -1  -3 1367.96   87.69
  -3  -1   3 1275.37   87.29
  -3  -1   3 1553.24   89.19
  -3  -1   3 1347.77   87.39
   3  -1  -3 1308.77   86.99
   3  -1  -3 1304.97   87.79
   3  -1  -3 1341.07   86.99
   3  -1  -3 1313.87   87.69
  -3  -1   3 1357.16   87.29
  -3  -1   3 1375.06   87.19
   3  -1  -3 1290.77   86.99
  -3  -1   3 1343.17   87.69
  -3   1   3 1274.57   85.39
  -3   1   3 1271.37   85.49
   3   1  -3 1329.77   85.99
  -3   1   3 1350.06   85.79
  -3   1   3 1326.77   86.59
   3   1  -3 1273.97   86.09
   3   1  -3 1360.46   86.29
  -3   1   3 1356.16   86.69
   3   1  -3 1313.07   86.09
   3   1  -3 1353.06   86.09
  -3   1   3 1354.66   86.09
   3   1  -3 1362.06   85.09
   3   1  -3 1310.17   86.89
  -3   1   3 1280.67   85.99
  -2  -1   3 4942.61  331.17
   2  -1  -3 5144.59  331.07
   2  -1  -3 5215.48  329.57
  -2  -1   3 5073.69  329.17
  -2  -1   3 4998.60  331.37
  -2  -1   3 5321.97  332.47
   2  -1  -3 4961.30  330.37
   2  -1  -3 4961.90  329.37
  -2  -1   3 5252.97  330.27
   2  -1  -3 5032.80  332.37
   2  -1  -3 5107.19  333.37
  -2  -1   3 5813.22  328.97
  -2  -1   3 5380.66  331.07
   2  -1  -3 4842.22  329.57
  -2  -1   3 5056.99  329.17
   2  -1  -3 4910.91  328.87
  -2  -1   3 5045.40  331.57
   2   1  -3 4932.91  329.07
   2   1  -3 4937.41  327.37
   2   1  -3 5491.85  328.67
  -2   1   3 4776.62  332.77
  -2   1   3 4924.91  328.57
   2   1  -3 5319.57  328.97
   2   1  -3 5221.18  331.47
   2   1  -3 5052.19  324.97
  -2   1   3 5066.09  328.27
   2   1  -3 5319.97  327.47
  -2   1   3 5026.70  328.07
  -1  -1   3   14.00    2.60
   1  -1  -3   16.30    2.40
  -1  -1   3   15.20    1.90
  -1  -1   3   17.60    1.80
   1  -1  -3   19.60    2.10
   1  -1  -3   17.60    2.10
   1  -1  -3   16.50    2.00
  -1  -1   3   18.20    2.10
   1  -1  -3   17.60    2.70
   1  -1  -3   14.30    1.90
  -1  -1   3   15.50    2.50
  -1  -1   3   18.50    2.00
  -1  -1   3   17.20    2.00
   1  -1  -3   16.70    2.00
   1  -1  -3   24.40    2.60
  -1   1   3   19.60    2.70
   1   1  -3   19.00    1.80
  -1   1   3   18.70    2.30
   1   1  -3   27.50    3.00
   1   1  -3   22.70    2.10
  -1   1   3   18.00    2.10
   1   1  -3   27.00    3.10
  -1   1   3   18.20    2.20
   1   1  -3   19.10    1.90
  -1   1   3   20.50    2.70
  -1   1   3   18.00    2.40
   1   1  -3   20.10    2.20
  -1   1   3   22.30    2.30
   1   1  -3   18.90    2.20
  -1   1   3   24.10    2.40
   0  -1  -3 2751.82  194.28
   0  -1  -3 3407.36  194.08
   0  -1  -3 2764.22  194.58
   0  -1  -3 2994.30  193.18
   0  -1   3 3352.86  194.68
   0  -1  -3 3137.39  194.08
   0  -1   3 2999.20  194.78
   0  -1  -3 3164.78  195.88
   0  -1   3 2679.73  193.08
   0   1  -3 3057.99  183.18
   0   1   3 2834.52  184.18
   0   1   3 2950.30  185.08
   0   1   3 2620.64  183.18
   0   1   3 2842.42  184.68
   0   1   3 2827.82  184.48
   0   1  -3 2873.31  182.88
  -1  -1  -3  602.24   40.80
   1  -1   3  673.23   40.10
  -1  -1  -3  608.94   41.00
   1  -1   3  685.83   40.10
   1  -1   3  588.14   41.20
   1  -1   3  615.74   41.90
  -1  -1  -3  608.74   41.80
   1   1   3  625.54   41.70
   1   1   3  609.94   42.90
   1   1   3  636.84   42.00
   1   1   3  614.04   41.60
   1   1   3  738.23   42.10
   2  -1   3 2365.96  159.68
   2  -1   3 2367.76  160.58
   2  -1   3 2592.84  160.68
  -2  -1  -3 2451.65  160.18
   2  -1   3 2642.24  159.98
   2  -1   3 2539.35  160.68
  -2  -1  -3 2564.84  159.68
  -2  -1  -3 2414.36  160.98
  -2  -1  -3 2465.55  159.68
   2  -1   3 2640.04  160.98
  -2  -1  -3 2446.56  159.78
   2   1   3 2751.82  175.68
  -2   1  -3 2603.24  175.88
  -2   1  -3 2543.15  176.48
  -2   1  -3 2969.10  174.78
   2   1   3 2548.65  176.08
   2   1   3 2652.63  175.28
   2   1   3 2690.43  175.48
   2   1   3 2778.32  177.08
   2   1   3 3124.59  175.58
   2   1   3 2807.32  175.68
  -3  -1  -3 1036.80   70.29
   3  -1   3 1094.69   69.09
  -3  -1  -3 1092.29   69.89
   3  -1   3 1128.89   69.49
   3  -1   3 1185.68   69.59
  -3  -1  -3 1015.90   69.39
   3  -1   3 1038.30   69.19
   3  -1   3 1031.20   69.19
   3  -1   3 1076.79   70.79
  -3  -1  -3  998.80   69.69
   3   1   3 1099.59   74.69
   3   1   3 1069.09   76.19
   3   1   3 1180.98   73.29
   3   1   3 1125.59   74.59
   3   1   3 1168.98   73.19
  -3   1  -3 1139.99   75.99
  -3   1  -3 1152.88   73.89
   3   1   3 1192.68   74.99
   3   1   3 1093.59   74.49
   3   1   3 1116.39   75.59
   3   1   3 1327.77   75.89
   3   1   3 1109.69   74.79
  -4  -1  -3  769.12   54.09
   4  -1   3  818.72   55.39
   4  -1   3  776.52   53.89
   4  -1   3  926.11   54.19
   4  -1   3  782.52   53.39
  -4  -1  -3  733.83   53.89
   4  -1   3  887.51   53.79
   4  -1   3  739.03   54.79
   4  -1   3  889.11   52.99
   4  -1   3  751.22   54.89
   4  -1   3  753.42   55.69
   4  -1   3  929.01   53.79
   4   1   3  756.72   50.19
   4   1   3  773.62   50.69
   4   1   3  715.63   49.80
   4   1   3  758.22   50.09
  -4   1  -3  729.03   49.50
   4   1   3  766.72   51.99
   4   1   3  727.33   50.09
  -4   1  -3  758.42   49.10
   4   1   3  755.32   50.09
  -5  -1  -3   67.39    7.10
   5  -1   3   67.69    8.40
   5  -1   3   85.59    7.30
   5  -1   3   64.59    6.60
   5  -1   3   69.29    8.30
   5  -1   3   76.59    5.50
   5  -1   3   80.29    7.50
   5  -1   3   70.99    8.60
   5  -1   3   65.29    7.00
  -5  -1  -3   90.99    8.10
   5   1   3   74.39    8.20
   5   1   3   70.49    7.40
   5   1   3   75.89    7.70
  -5   1  -3   66.49    6.90
   5   1   3   70.79    8.70
   5   1   3   69.39    7.20
   5   1   3   70.19    7.50
   5   1   3   67.29    7.90
   6  -1   3  882.71   61.09
   6  -1   3  879.51   59.49
  -6  -1  -3  899.21   59.79
   6  -1   3  881.91   61.79
   6  -1   3  886.61   61.39
   6   1   3  896.21   59.89
  -6   1  -3  867.11   60.29
   6   1   3  922.81   60.09
   6   1   3  850.51   59.69
   6   1   3  866.51   61.69
   6   1   3  899.61   59.99
   7  -1   3  100.39   10.00
   7  -1   3   99.99   10.20
   7  -1   3  100.89   11.80
   7  -1   3  108.69   12.20
   7   1   3   98.29   12.60
   7   1   3  151.18   12.90
   7   1   3  149.99   12.70
   7   1   3  122.09   12.20
   7   1   3  108.79   12.80
   8  -1   3  109.29   11.60
   8  -1   3  113.39   12.80
   8  -1   3  117.09   12.10
   8  -1   3  155.68   14.20
   8  -1   3  103.79   12.80
   8   1   3  117.79   12.20
   8   1   3  158.88   15.30
   8   1   3  114.29   12.30
   8   1   3  102.89   13.50
   9  -2  -3  207.48   18.10
   9  -2  -3  210.78   17.20
  -9  -2   3  158.48   15.50
   9  -2  -3  146.89   15.50
   9  -2  -3  141.39   15.00
   9  -2  -3  153.48   15.50
   9   2  -3  132.99   14.40
  -9   2   3  170.58   14.40
   9   2  -3  153.68   15.50
   9   2  -3  154.08   15.80
   9   2  -3  147.19   15.80
   8  -2  -3   83.79    9.70
   8  -2  -3   85.09    9.80
  -8  -2   3  108.59   11.20
  -8  -2   3   86.29    9.80
   8  -2  -3   88.89   10.30
   8  -2  -3   82.19   10.10
   8  -2  -3   76.69   10.40
  -8  -2   3   76.09    9.70
   8   2  -3   92.89   10.90
  -8   2   3  101.49   10.20
   8   2  -3   89.09   10.50
   8   2  -3   78.99    9.50
   8   2  -3   87.39   11.30
  -8   2   3   80.19    9.90
   7  -2  -3  399.26   29.50
  -7  -2   3  347.57   29.40
   7  -2  -3  379.46   30.60
  -7  -2   3  347.77   29.00
   7  -2  -3  481.45   30.20
  -7  -2   3  396.66   29.50
   7   2  -3  330.47   26.70
  -7   2   3  359.56   23.30
   7   2  -3  351.86   27.40
   7   2  -3  326.27   26.40
  -7   2   3  337.57   26.50
  -7   2   3  345.87   24.60
  -7   2   3  348.97   27.90
   6  -2  -3   98.89    9.90
  -6  -2   3   93.89   12.10
   6  -2  -3   92.29    9.30
  -6  -2   3   94.79   10.00
   6  -2  -3   95.59   10.30
   6  -2  -3   88.09    8.90
   6  -2  -3   93.79    9.60
  -6  -2   3   98.49    8.00
  -6  -2   3   83.59    9.50
   6   2  -3   83.99    9.80
   6   2  -3  123.49   11.50
  -6   2   3   99.39    8.80
   6   2  -3  113.59   10.00
  -6   2   3   95.49    9.60
   6   2  -3   91.09    9.50
  -6   2   3   91.89    8.00
  -6   2   3   87.89    9.60
  -6   2   3   81.09   10.50
  -5  -2   3 1673.73  110.59
  -5  -2   3 1891.91  108.79
   5  -2  -3 1562.94  109.59
  -5  -2   3 1625.94  111.09
   5  -2  -3 1713.93  109.69
   5  -2  -3 1643.54  110.69
   5  -2  -3 1899.31  110.49
   5  -2  -3 1620.34  111.19
  -5  -2   3 1582.24  110.29
  -5  -2   3 1610.04  111.89
   5   2  -3 1660.83  109.19
   5   2  -3 1767.42  109.59
  -5   2   3 1529.55  108.09
  -5   2   3 1662.63  109.09
  -5   2   3 1587.84  110.29
   5   2  -3 1679.93  108.49
   5   2  -3 1733.03  110.09
   5   2  -3 1646.34  108.99
  -5   2   3 1661.23  108.29
  -5   2   3 1646.64  107.99
   5   2  -3 1589.44  109.19
  -5   2   3 1809.72  107.49
  -4  -2   3   44.30    5.50
   4  -2  -3   46.70    5.30
   4  -2  -3   49.40    6.00
   4  -2  -3   49.30    6.20
  -4  -2   3   43.30    5.60
  -4  -2   3   56.39    5.10
  -4  -2   3   45.90    5.90
  -4  -2   3   42.90    5.80
   4  -2  -3   39.50    5.00
   4  -2  -3   48.90    5.90
  -4  -2   3   63.09    7.40
   4  -2  -3   45.00    5.30
   4  -2  -3   44.90    4.90
   4  -2  -3   46.30    5.20
  -4  -2   3   46.80    5.30
  -4  -2   3   47.30    4.70
  -4  -2   3   43.40    5.40
  -4  -2   3   41.40    5.40
   4   2  -3   45.90    5.60
  -4   2   3   47.80    4.80
   4   2  -3   57.89    5.40
  -4   2   3   57.19    5.50
   4   2  -3   42.80    6.00
  -4   2   3   45.80    6.10
   4   2  -3   47.40    5.60
  -4   2   3   48.20    5.20
  -4   2   3   42.30    4.80
   4   2  -3   44.90    5.70
   4   2  -3   49.10    5.60
   4   2  -3   55.39    6.30
  -4   2   3   38.20    5.30
  -4   2   3   39.90    5.20
   4   2  -3   42.20    5.20
   4   2  -3   38.00    4.90
  -4   2   3   47.30    6.10
  -4   2   3   54.59    4.60
   3  -2  -3  325.77   24.00
  -3  -2   3  316.37   23.30
  -3  -2   3  392.66   24.60
  -3  -2   3  333.47   23.90
   3  -2  -3  348.17   23.10
  -3  -2   3  339.97   24.20
   3  -2  -3  358.16   24.80
  -3  -2   3  393.26   23.30
  -3  -2   3  310.87   24.90
  -3  -2   3  353.86   24.20
   3  -2  -3  373.76   24.80
   3  -2  -3  290.07   23.30
  -3  -2   3  326.77   24.60
  -3  -2   3  325.27   24.10
  -3  -2   3  310.27   23.90
  -3   2   3  305.97   22.10
  -3   2   3  313.77   22.50
   3   2  -3  316.17   23.10
   3   2  -3  340.67   23.60
   3   2  -3  328.77   22.80
  -3   2   3  303.57   22.90
   3   2  -3  312.27   22.90
  -3   2   3  322.27   23.10
   3   2  -3  306.37   21.70
   3   2  -3  313.57   21.70
  -3   2   3  317.87   21.50
   3   2  -3  302.97   22.40
  -3   2   3  319.47   23.30
   3   2  -3  345.77   22.80
  -2  -2   3  936.21   56.99
  -2  -2   3  883.51   57.69
   2  -2  -3  885.31   57.69
  -2  -2   3  841.42   57.59
  -2  -2   3  862.51   58.29
  -2  -2   3  931.51   57.69
   2  -2  -3  879.21   58.09
   2  -2  -3  852.01   57.29
  -2  -2   3  877.11   57.59
  -2  -2   3  872.51   58.49
  -2  -2   3  857.81   57.49
   2  -2  -3  826.72   56.49
  -2  -2   3  914.11   58.09
   2  -2  -3  891.21   57.49
   2  -2  -3  861.51   57.99
   2   2  -3 1046.40   62.39
   2   2  -3  902.81   61.79
   2   2  -3 1110.79   61.89
   2   2  -3  880.21   60.59
   2   2  -3 1026.90   62.79
  -2   2   3  877.21   61.69
  -2   2   3 1056.59   61.69
   2   2  -3  910.91   61.69
   2   2  -3 1026.20   61.99
  -2   2   3  825.42   61.59
  -2   2   3  861.11   61.49
   2   2  -3  892.81   61.09
  -2   2   3  900.61   61.59
  -2   2   3  934.31   62.29
   1  -2  -3  529.75   37.50
  -1  -2   3  564.54   38.20
  -1  -2   3  565.34   37.70
  -1  -2   3  626.64   36.90
  -1  -2   3  557.54   37.70
   1  -2  -3  564.64   37.80
  -1  -2   3  536.05   38.60
   1  -2  -3  578.84   37.80
  -1  -2   3  564.54   37.60
  -1  -2   3  594.84   37.80
   1  -2  -3  575.94   38.50
  -1  -2   3  583.94   38.10
   1  -2  -3  554.74   37.80
  -1  -2   3  608.04   37.70
   1  -2  -3  580.44   38.10
   1  -2  -3  578.64   37.60
  -1   2   3  558.24   38.10
  -1   2   3  575.14   38.10
  -1   2   3  597.34   38.00
   1   2  -3  556.54   37.90
   1   2  -3  562.94   37.50
  -1   2   3  555.44   38.40
  -1   2   3  555.64   38.00
  -1   2   3  567.24   38.30
  -1   2   3  574.44   38.10
   1   2  -3  667.63   37.60
   1   2  -3  645.54   38.30
   1   2  -3  521.05   37.70
  -1   2   3  562.94   38.80
   0  -2   3 3212.48  211.88
   0  -2   3 3324.27  209.38
   0  -2  -3 3091.19  211.28
   0  -2   3 3041.40  210.98
   0  -2   3 3124.09  211.68
   0  -2  -3 3489.55  209.08
   0  -2  -3 3188.28  210.48
   0  -2   3 3193.98  209.28
   0  -2  -3 3227.78  211.28
   0  -2   3 3321.67  212.48
   0  -2   3 3724.43  211.28
   0  -2  -3 3425.36  209.48
   0  -2  -3 3184.48  208.68
   0   2   3 3563.84  222.88
   0   2   3 3370.36  218.88
   0   2   3 3214.08  218.58
   0   2   3 3975.90  221.68
   0   2   3 3383.86  218.78
   0   2   3 3385.46  219.48
   0   2  -3 3362.56  219.08
   0   2   3 3421.06  218.88
   0   2   3 3266.67  219.38
   0   2  -3 3396.96  220.38
  -1  -2  -3 3807.92  253.67
   1  -2   3 3935.21  255.97
   1  -2   3 3738.73  255.27
  -1  -2  -3 3711.13  252.57
   1  -2   3 4214.28  255.17
   1  -2   3 3718.13  253.07
  -1  -2  -3 4480.95  253.87
   1  -2   3 4423.86  254.27
   1  -2   3 4121.59  253.67
  -1  -2  -3 3841.82  256.47
   1  -2   3 3970.90  253.67
  -1  -2  -3 3646.54  252.67
   1   2   3 3784.52  244.98
  -1   2  -3 3743.33  245.08
   1   2   3 3965.30  247.78
  -1   2  -3 3650.63  246.98
  -1   2  -3 4245.78  245.88
   1   2   3 3692.63  244.58
   1   2   3 3821.32  245.88
   1   2   3 3827.82  244.88
   2  -2   3   37.20    3.20
   2  -2   3   33.70    3.50
   2  -2   3   32.70    3.90
   2  -2   3   41.90    3.40
  -2  -2  -3   40.40    3.40
  -2  -2  -3   37.20    3.30
  -2  -2  -3   33.20    4.00
  -2  -2  -3   39.10    4.10
  -2  -2  -3   32.90    4.50
   2  -2   3   33.90    4.90
   2  -2   3   45.00    4.70
  -2  -2  -3   33.90    3.90
   2  -2   3   33.50    3.20
   2  -2   3   35.50    3.30
   2   2   3   37.30    4.20
   2   2   3   31.70    4.80
   2   2   3   36.90    4.00
   2   2   3   40.10    5.10
  -2   2  -3   33.60    3.10
   2   2   3   37.90    3.30
  -2   2  -3   43.90    4.10
   2   2   3   29.20    3.70
   2   2   3   33.10    3.90
  -2   2  -3   29.50    4.40
   2   2   3   36.20    2.80
   2   2   3   29.90    4.50
   2   2   3   31.20    4.10
  -2   2  -3   32.70    3.00
   3  -2   3 2067.69  139.59
  -3  -2  -3 2478.75  141.29
  -3  -2  -3 2014.60  140.99
   3  -2   3 2072.09  141.39
  -3  -2  -3 2083.19  139.49
   3  -2   3 2219.08  139.99
   3  -2   3 2510.25  140.39
   3  -2   3 2011.30  141.89
  -3  -2  -3 2008.20  140.59
  -3  -2  -3 2148.58  139.99
  -3  -2  -3 2102.29  142.19
   3  -2   3 2019.20  139.99
   3  -2   3 2360.86  140.79
   3  -2   3 2517.75  140.19
   3   2   3 2168.08  138.19
   3   2   3 2149.88  137.39
  -3   2  -3 2253.57  135.99
   3   2   3 2058.99  137.29
   3   2   3 2171.38  135.49
   3   2   3 2019.30  137.69
   3   2   3 2068.99  138.59
   3   2   3 2286.37  137.39
  -3   2  -3 1987.00  136.39
   3   2   3 2135.09  136.09
   3   2   3 2157.88  137.29
  -3   2  -3 2049.29  138.29
   4  -2   3  236.28   16.00
   4  -2   3  283.27   17.40
   4  -2   3  271.97   17.40
  -4  -2  -3  229.68   17.90
   4  -2   3  224.58   17.30
   4  -2   3  241.88   16.20
   4  -2   3  222.28   16.80
   4  -2   3  215.38   18.30
   4  -2   3  229.58   18.90
  -4  -2  -3  234.88   16.40
   4  -2   3  218.28   18.60
  -4  -2  -3  214.18   16.90
   4  -2   3  279.67   17.40
  -4  -2  -3  224.88   16.10
   4   2   3  227.38   17.60
   4   2   3  234.48   17.70
   4   2   3  237.28   19.30
   4   2   3  232.08   16.80
   4   2   3  232.98   18.30
  -4   2  -3  231.68   16.70
   4   2   3  236.18   17.80
  -4   2  -3  223.18   18.70
   4   2   3  235.08   18.60
   4   2   3  235.88   17.70
  -4   2  -3  226.18   16.20
   5  -2   3  271.27   19.00
   5  -2   3  265.27   17.10
  -5  -2  -3  251.17   19.70
   5  -2   3  254.97   17.00
   5  -2   3  247.98   20.50
  -5  -2  -3  275.07   19.30
   5  -2   3  238.58   19.00
   5  -2   3  254.17   18.80
  -5  -2  -3  257.27   17.70
   5  -2   3  244.18   20.70
   5  -2   3  275.37   18.10
   5   2   3  232.58   20.90
   5   2   3  281.67   20.10
  -5   2  -3  285.47   19.00
   5   2   3  250.17   20.60
   5   2   3  251.27   19.70
   5   2   3  242.88   18.70
   5   2   3  245.28   19.40
   5   2   3  244.08   21.00
  -6  -2  -3  178.38   14.10
   6  -2   3  143.29   14.40
   6  -2   3  153.38   14.60
   6  -2   3  142.79   14.70
   6  -2   3  147.99   13.10
   6  -2   3  165.18   13.50
   6  -2   3  164.88   11.30
   6   2   3  126.29   13.50
   6   2   3  160.58   15.80
   6   2   3  187.98   13.90
   6   2   3  151.78   15.00
   6   2   3  186.78   14.80
   7  -2   3  121.09   13.00
   7  -2   3  100.89   11.80
   7  -2   3  122.59   12.90
   7  -2   3  114.99   10.90
   7  -2   3  110.39   10.70
   7   2   3  142.19   12.10
   7   2   3  119.09   13.20
   7   2   3  117.19   12.40
   7   2   3  121.79   13.60
   7   2   3  124.69   12.20
   8  -2   3   65.79    8.30
   8  -2   3   76.09   10.10
   8  -2   3   62.59   10.20
   8  -2   3   60.19   10.40
   8  -2   3   72.39    8.90
   8   2   3   66.19    9.90
   8   2   3   62.89    9.80
   8   2   3   92.79   10.10
   8   2   3   69.99    9.70
   9  -3  -3   61.49   10.60
   9  -3  -3   65.19    9.60
   9  -3  -3   65.19    8.80
  -9  -3   3   77.39    9.50
   9  -3  -3   52.59    9.00
   9  -3  -3   61.29    9.30
   9   3  -3   81.29   11.70
   9   3  -3   72.19    9.30
  -9   3   3   57.09    8.00
   9   3  -3   49.99   10.00
   9   3  -3   48.20    8.70
  -8  -3   3    5.20    3.50
   8  -3  -3    8.20    4.00
  -8  -3   3    7.00    3.80
  -8  -3   3    9.90    4.00
   8  -3  -3    8.50    4.20
   8  -3  -3    6.30    3.00
   8  -3  -3    8.20    3.10
  -8   3   3   12.60    3.90
   8   3  -3   11.10    3.80
  -8   3   3   11.20    4.20
   8   3  -3    8.70    4.00
   8   3  -3   10.30    3.80
   8   3  -3    6.20    3.70
  -7  -3   3  239.58   20.10
  -7  -3   3  234.98   20.30
   7  -3  -3  237.18   19.70
   7  -3  -3  216.18   19.40
   7  -3  -3  278.77   20.30
   7  -3  -3  245.28   21.50
  -7   3   3  290.87   20.30
   7   3  -3  218.28   19.50
   7   3  -3  221.28   20.20
  -7   3   3  228.48   19.20
   7   3  -3  223.68   19.00
   7   3  -3  224.98   19.90
  -7   3   3  241.78   20.60
  -6  -3   3 1095.29   82.29
   6  -3  -3 1300.87   82.29
   6  -3  -3 1119.29   83.09
  -6  -3   3 1377.36   83.09
  -6  -3   3 1119.79   79.69
   6  -3  -3 1085.29   81.39
   6  -3  -3 1388.86   82.49
  -6  -3   3 1383.06   84.49
   6   3  -3 1135.39   77.29
  -6   3   3 1172.38   76.79
  -6   3   3 1088.89   78.39
   6   3  -3 1131.19   78.69
   6   3  -3 1185.98   78.39
  -6   3   3 1145.29   77.69
  -6   3   3 1216.88   77.59
  -6   3   3 1193.68   74.59
   5  -3  -3  601.64   42.00
   5  -3  -3  675.23   42.50
  -5  -3   3  591.64   42.90
  -5  -3   3  609.54   41.90
  -5  -3   3  612.54   42.80
   5  -3  -3  619.24   42.10
   5  -3  -3  586.94   43.60
   5  -3  -3  699.23   43.10
  -5  -3   3  590.94   44.50
   5  -3  -3  591.64   42.20
  -5  -3   3  575.24   42.80
  -5  -3   3  607.34   41.20
  -5   3   3  642.84   40.60
   5   3  -3  705.13   43.70
  -5   3   3  581.84   42.40
   5   3  -3  584.74   43.40
   5   3  -3  583.74   42.90
   5   3  -3  591.64   42.30
  -4  -3   3 1212.98   82.19
   4  -3  -3 1266.87   82.99
  -4  -3   3 1210.98   83.19
   4  -3  -3 1185.58   80.89
   4  -3  -3 1168.28   81.49
   4  -3  -3 1274.97   81.59
  -4  -3   3 1195.48   80.99
  -4  -3   3 1314.17   81.99
  -4  -3   3 1231.78   82.29
  -4  -3   3 1191.38   83.19
   4  -3  -3 1164.28   81.39
  -4  -3   3 1400.26   82.59
   4  -3  -3 1181.48   82.59
  -4  -3   3 1284.77   82.49
   4  -3  -3 1227.68   81.49
  -4  -3   3 1357.66   81.29
   4   3  -3 1141.49   82.29
  -4   3   3 1203.58   80.89
  -4   3   3 1434.16   82.69
  -4   3   3 1248.98   83.89
   4   3  -3 1222.58   82.89
  -4   3   3 1229.88   81.89
   4   3  -3 1208.88   83.79
  -4   3   3 1254.77   82.49
  -4   3   3 1202.08   82.99
  -4   3   3 1191.78   82.29
   4   3  -3 1464.55   83.99
   4   3  -3 1264.77   82.79
  -4   3   3 1260.37   82.39
   4   3  -3 1231.08   82.89
   3  -3  -3  450.45   31.60
  -3  -3   3  463.95   30.50
  -3  -3   3  397.36   30.80
   3  -3  -3  416.76   30.50
   3  -3  -3  442.76   30.60
   3  -3  -3  440.66   31.00
   3  -3  -3  496.25   31.20
   3  -3  -3  446.46   31.60
  -3  -3   3  447.66   32.20
  -3  -3   3  457.35   31.40
   3  -3  -3  449.26   30.70
   3  -3  -3  454.35   30.80
  -3  -3   3  438.86   30.70
  -3  -3   3  447.46   31.50
  -3  -3   3  451.35   31.10
   3   3  -3  423.56   31.30
   3   3  -3  418.26   30.50
  -3   3   3  444.76   31.60
   3   3  -3  487.85   30.40
  -3   3   3  409.06   30.50
   3   3  -3  425.96   31.10
   3   3  -3  447.46   30.90
  -3   3   3  439.16   30.40
  -3   3   3  432.36   31.20
  -3   3   3  491.75   30.70
   3   3  -3  411.56   30.40
   3   3  -3  449.06   30.80
  -2  -3   3   21.60    3.20
  -2  -3   3   22.40    3.20
  -2  -3   3   28.10    4.30
  -2  -3   3   19.20    3.30
   2  -3  -3   23.20    3.50
   2  -3  -3   23.50    3.50
   2  -3  -3   23.30    3.20
  -2  -3   3   21.50    3.80
   2  -3  -3   28.90    2.60
  -2  -3   3   23.30    3.30
  -2  -3   3   21.40    3.60
   2  -3  -3   23.30    3.10
   2  -3  -3   23.00    3.10
   2  -3  -3   28.00    4.30
   2  -3  -3   20.70    3.60
   2  -3  -3   22.20    3.30
  -2  -3   3   19.20    3.30
  -2   3   3   19.60    3.70
  -2   3   3   18.40    3.20
  -2   3   3   22.00    3.50
   2   3  -3   19.60    3.00
   2   3  -3   20.40    2.90
   2   3  -3   22.80    3.50
   2   3  -3   23.60    3.60
   2   3  -3   21.60    1.70
  -2   3   3   26.30    3.50
   2   3  -3   21.40    3.10
  -2   3   3   21.10    3.40
  -2   3   3   25.20    3.50
   2   3  -3   21.70    1.80
   2   3  -3   19.90    3.30
  -2   3   3   20.60    3.70
   2   3  -3   20.90    3.80
  -2   3   3   21.20    3.00
   1  -3  -3  214.58   15.00
  -1  -3   3  209.28   15.10
  -1  -3   3  210.38   15.20
   1  -3  -3  209.38   15.00
  -1  -3   3  212.38   15.20
  -1  -3   3  204.68   15.10
  -1  -3   3  206.78   15.10
   1  -3  -3  203.68   15.60
   1  -3  -3  218.38   15.30
  -1  -3   3  199.38   15.90
   1  -3  -3  195.08   14.90
   1  -3  -3  211.88   15.30
   1   3  -3  202.28   15.00
  -1   3   3  211.98   15.10
  -1   3   3  217.88   16.00
  -1   3   3  217.28   15.30
   1   3  -3  203.48   15.80
   1   3  -3  211.58   15.10
  -1   3   3  199.98   15.20
  -1   3   3  213.38   15.30
   1   3  -3  207.68   14.80
  -1   3   3  193.68   15.10
   1   3  -3  225.88   14.70
  -1   3   3  208.68   15.50
   0  -3  -3  373.86   27.20
   0  -3   3  403.26   26.50
   0  -3   3  380.46   25.90
   0  -3  -3  389.06   26.50
   0  -3   3  400.86   26.20
   0  -3  -3  388.16   26.70
   0  -3   3  388.26   26.40
   0  -3  -3  391.06   25.90
   0  -3   3  429.56   26.50
   0  -3   3  396.26   26.00
   0  -3   3  362.46   27.10
   0  -3  -3  385.86   26.80
   0  -3   3  387.86   27.40
   0  -3  -3  404.46   27.60
   0  -3  -3  398.56   26.10
   0   3  -3  362.16   24.40
   0   3   3  344.47   25.40
   0   3   3  437.36   24.80
   0   3   3  366.46   25.60
   0   3  -3  353.96   25.70
   0   3   3  377.36   25.60
   0   3  -3  373.16   25.90
   0   3  -3  370.26   24.90
   0   3  -3  346.67   24.90
   0   3   3  369.46   26.20
   0   3  -3  379.26   23.90
  -1  -3  -3  645.94   37.50
   1  -3   3  522.45   36.50
   1  -3   3  632.74   36.80
  -1  -3  -3  482.85   36.80
  -1  -3  -3  645.14   37.20
  -1  -3  -3  481.75   37.30
  -1  -3  -3  500.25   37.20
   1  -3   3  498.55   36.40
   1  -3   3  526.45   37.30
   1  -3   3  565.04   36.40
   1  -3   3  562.24   36.20
  -1  -3  -3  619.34   37.10
   1   3   3  465.85   34.60
   1   3   3  515.65   34.40
  -1   3  -3  516.35   33.50
   1   3   3  497.95   34.40
   1   3   3  520.95   34.10
  -1   3  -3  502.05   33.90
  -1   3  -3  505.65   34.50
   1   3   3  532.85   35.50
   1   3   3  511.25   34.50
   1   3   3  498.35   34.00
  -2  -3  -3  510.95   37.20
  -2  -3  -3  524.45   37.30
  -2  -3  -3  659.83   37.60
   2  -3   3  531.35   36.30
   2  -3   3  557.14   36.20
  -2  -3  -3  560.94   36.70
   2  -3   3  547.85   36.60
   2  -3   3  535.45   36.20
   2  -3   3  512.65   38.40
   2  -3   3  570.24   36.50
   2   3   3  501.65   34.30
  -2   3  -3  481.35   34.10
   2   3   3  475.05   35.20
   2   3   3  465.45   34.10
   2   3   3  496.15   33.40
   2   3   3  483.85   35.00
   2   3   3  518.85   34.50
  -2   3  -3  566.54   33.20
   2   3   3  503.75   34.40
   3  -3   3  275.27   19.00
  -3  -3  -3  265.27   21.10
  -3  -3  -3  297.67   18.20
  -3  -3  -3  259.77   19.80
   3  -3   3  280.27   18.60
  -3  -3  -3  262.87   19.00
   3  -3   3  278.87   19.20
  -3  -3  -3  273.67   19.30
   3  -3   3  278.07   21.40
   3  -3   3  244.88   18.70
   3  -3   3  251.57   19.80
  -3  -3  -3  258.27   20.00
  -3  -3  -3  268.37   20.00
   3  -3   3  267.27   20.40
   3  -3   3  318.57   19.30
   3   3   3  283.27   21.70
   3   3   3  291.87   21.00
  -3   3  -3  282.57   19.30
   3   3   3  263.97   20.60
   3   3   3  282.47   21.80
   3   3   3  267.77   20.80
  -3   3  -3  266.37   20.10
   3   3   3  325.27   19.30
   3   3   3  270.87   20.60
   3   3   3  275.77   21.10
   3   3   3  266.37   21.70
  -3   3  -3  280.87   21.90
  -4  -3  -3  173.38   12.40
   4  -3   3  196.18   13.20
   4  -3   3  166.68   14.10
  -4  -3  -3  161.78   12.50
  -4  -3  -3  167.78   12.80
   4  -3   3  179.08   13.00
   4  -3   3  160.68   13.10
  -4  -3  -3  160.58   13.90
   4  -3   3  165.98   12.80
   4  -3   3  167.88   15.10
   4  -3   3  155.98   14.00
   4  -3   3  176.88   13.50
   4   3   3  149.09   14.60
   4   3   3  169.18   16.50
   4   3   3  178.58   13.80
   4   3   3  155.98   13.70
  -4   3  -3  163.38   12.50
  -4   3  -3  177.48   13.10
   4   3   3  157.58   13.90
   4   3   3  155.48   14.20
   4   3   3  175.38   11.20
  -5  -3  -3   37.30    4.50
   5  -3   3   36.00    6.80
   5  -3   3   46.10    5.00
   5  -3   3   46.30    5.10
   5  -3   3   43.20    5.00
   5  -3   3   37.00    4.60
  -5  -3  -3   35.00    4.50
  -5  -3  -3   39.90    5.60
   5  -3   3   33.60    5.90
  -5  -3  -3   33.50    4.00
   5  -3   3   37.20    6.40
  -5   3  -3   35.90    4.60
   5   3   3   35.10    5.90
   5   3   3   35.70    5.80
  -5   3  -3   34.50    4.20
   5   3   3   38.00    5.50
   5   3   3   40.60    6.60
   5   3   3   29.30    6.20
   6  -3   3  205.48   14.30
   6  -3   3  190.88   17.00
   6  -3   3  201.68   15.60
   6  -3   3  175.78   15.10
  -6  -3  -3  182.38   17.40
   6  -3   3  186.28   17.40
   6   3   3  182.88   17.30
   6   3   3  214.38   16.90
   6   3   3  171.68   17.20
   6   3   3  180.68   16.00
   7  -3   3  139.19   12.70
   7  -3   3  137.99   14.50
   7  -3   3  124.29   13.50
   7  -3   3  126.29   14.40
   7  -3   3  159.88   13.10
   7   3   3  127.39   13.10
   7   3   3  134.19   12.80
   7   3   3  124.39   13.70
   8  -3   3  331.87   25.70
   8  -3   3  330.67   26.80
   8   3   3  386.16   28.50
   8   3   3  308.27   28.50
  -9  -4   3  106.09   12.10
   9  -4  -3  125.79   12.70
  -9  -4   3   88.19   13.50
   9   4  -3  107.49   12.90
   9   4  -3  115.49   13.60
  -8  -4   3   44.60    8.10
  -8  -4   3   42.00    8.10
   8  -4  -3   66.89   10.50
  -8  -4   3   45.00    7.90
   8  -4  -3   45.30    7.30
   8  -4  -3   60.59    8.10
   8  -4  -3   47.20    7.70
   8   4  -3   63.29    9.10
   8   4  -3   36.40    7.10
   8   4  -3   47.60    8.60
  -8   4   3   52.99    7.90
   8   4  -3   50.09    9.40
   7  -4  -3  122.49   12.20
   7  -4  -3  123.49   12.30
   7  -4  -3  123.79   12.00
  -7  -4   3  137.29   13.70
  -7  -4   3  116.99   12.40
  -7  -4   3  122.49   13.20
   7  -4  -3  125.39   13.60
   7   4  -3  130.59   12.60
   7   4  -3  119.39   13.10
  -7   4   3  115.29   12.00
   7   4  -3  126.99   12.90
  -7   4   3  140.39   13.40
   7   4  -3  123.89   12.80
  -7   4   3  107.59   11.60
   6  -4  -3  163.48   15.00
   6  -4  -3  165.98   14.70
  -6  -4   3  209.08   16.70
  -6  -4   3  186.98   13.80
  -6  -4   3  168.88   16.50
   6  -4  -3  178.08   16.60
   6  -4  -3  183.68   15.30
  -6   4   3  180.38   15.20
   6   4  -3  171.18   16.10
   6   4  -3  185.78   16.00
  -6   4   3  151.28   15.10
   6   4  -3  170.18   14.90
  -6   4   3  172.08   14.90
   6   4  -3  182.78   16.00
   5  -4  -3  925.51   64.39
   5  -4  -3  964.50   64.69
  -5  -4   3  938.41   65.89
  -5  -4   3  949.71   63.99
   5  -4  -3  986.90   65.09
  -5  -4   3  974.70   64.79
   5  -4  -3 1099.09   65.39
   5  -4  -3  910.51   64.69
   5   4  -3  994.90   66.79
  -5   4   3  945.51   66.09
  -5   4   3 1009.30   67.29
  -5   4   3 1028.50   63.79
   5   4  -3  957.40   66.89
   5   4  -3  979.50   67.49
   5   4  -3  971.70   66.09
  -5   4   3  982.80   66.29
  -4  -4   3   50.09    6.70
   4  -4  -3   54.79    7.20
   4  -4  -3   69.29    7.30
  -4  -4   3   52.79    6.70
  -4  -4   3   56.49    6.40
   4  -4  -3   64.19    6.50
   4  -4  -3   58.89    6.10
  -4  -4   3   57.69    7.00
   4  -4  -3   59.79    6.60
  -4  -4   3   76.09    7.20
  -4  -4   3   50.09    5.80
   4  -4  -3   72.79    7.00
  -4  -4   3   61.49    9.00
   4  -4  -3   58.89    6.30
   4   4  -3   75.99    7.80
  -4   4   3   60.09    6.70
  -4   4   3   75.89    7.30
   4   4  -3   54.99    6.90
   4   4  -3   68.19    8.10
  -4   4   3   60.79    7.60
  -4   4   3   51.09    6.70
   4   4  -3   54.99    7.80
   4   4  -3   54.29    7.10
  -4   4   3   54.79    6.50
  -4   4   3   60.59    6.70
   4   4  -3   67.89    7.00
   3  -4  -3  522.65   36.60
  -3  -4   3  540.35   38.90
   3  -4  -3  575.34   37.80
  -3  -4   3  535.55   37.30
  -3  -4   3  558.14   36.90
   3  -4  -3  542.65   36.50
   3  -4  -3  524.85   36.90
  -3  -4   3  513.65   36.70
   3  -4  -3  512.55   35.80
  -3  -4   3  543.95   37.50
   3  -4  -3  598.94   38.10
  -3  -4   3  534.75   37.20
  -3  -4   3  573.74   38.00
  -3  -4   3  517.65   37.20
   3  -4  -3  523.15   36.70
   3  -4  -3  512.45   36.90
   3  -4  -3  518.45   36.60
  -3  -4   3  536.15   37.90
   3  -4  -3  536.45   37.80
  -3   4   3  525.75   37.40
  -3   4   3  570.04   38.60
   3   4  -3  596.44   36.00
   3   4  -3  560.64   37.90
   3   4  -3  525.65   37.40
  -3   4   3  531.05   37.60
  -3   4   3  619.14   37.80
   3   4  -3  519.95   37.70
   3   4  -3  555.14   39.10
  -3   4   3  571.54   37.60
  -3   4   3  508.25   37.50
   3   4  -3  525.15   37.70
   3   4  -3  553.74   38.20
  -3   4   3  523.45   38.60
  -3   4   3  527.25   37.90
  -2  -4   3   85.69    7.90
  -2  -4   3   73.89    7.70
  -2  -4   3   86.89    8.60
  -2  -4   3   84.99    8.00
  -2  -4   3  108.49    8.60
   2  -4  -3  103.49    8.90
  -2  -4   3   81.59    7.90
  -2  -4   3   82.29    9.00
   2  -4  -3   77.59    7.90
  -2  -4   3   78.29    8.00
   2  -4  -3   82.79    7.60
   2  -4  -3   88.99    8.20
   2  -4  -3   81.49    7.40
   2  -4  -3   81.39    7.80
  -2  -4   3   81.79    7.90
   2  -4  -3   96.09    8.10
   2   4  -3   85.69    8.90
  -2   4   3   84.79    8.30
  -2   4   3   78.79    7.80
   2   4  -3   79.39    8.20
   2   4  -3  108.29    8.70
  -2   4   3   87.59    8.60
  -2   4   3   87.79    7.90
   2   4  -3   82.99    8.00
   2   4  -3   84.99    7.80
   2   4  -3  107.49    8.50
   2   4  -3  102.59    8.30
   2   4  -3   83.99    5.90
   2   4  -3   80.69    8.10
  -2   4   3   91.29    7.80
  -2   4   3   98.79    8.50
  -2   4   3  114.39    9.60
  -1  -4   3   27.80    3.80
  -1  -4   3   26.90    4.70
   1  -4  -3   29.90    4.00
   1  -4  -3   26.30    3.70
   1  -4  -3   40.20    4.80
  -1  -4   3   24.60    3.90
  -1  -4   3   29.80    4.10
   1  -4  -3   28.60    4.20
  -1  -4   3   28.70    3.90
   1  -4  -3   24.70    3.40
  -1  -4   3   29.90    2.20
  -1  -4   3   26.60    3.90
   1  -4  -3   30.40    4.50
   1  -4  -3   31.60    4.30
  -1  -4   3   29.80    4.60
  -1  -4   3   33.60    3.70
   1  -4  -3   24.10    3.90
  -1   4   3   43.50    4.40
  -1   4   3   45.80    5.60
  -1   4   3   32.20    4.50
   1   4  -3   40.10    4.10
   1   4  -3   41.10    4.50
  -1   4   3   33.40    4.30
  -1   4   3   29.80    4.00
   1   4  -3   31.40    3.80
  -1   4   3   32.00    4.30
   1   4  -3   32.60    4.50
  -1   4   3   31.50    3.90
   1   4  -3   38.80    4.40
   1   4  -3   31.10    3.60
  -1   4   3   29.30    4.70
  -1   4   3   27.60    4.10
   1   4  -3   27.00    4.70
   0  -4   3 1697.03  112.79
   0  -4   3 1706.93  112.49
   0  -4  -3 1716.43  110.99
   0  -4   3 1707.33  110.79
   0  -4  -3 1837.82  111.99
   0  -4   3 1670.03  110.59
   0  -4  -3 1665.43  112.79
   0  -4   3 1693.03  111.69
   0  -4  -3 1684.33  112.19
   0  -4   3 1752.32  113.49
   0  -4  -3 1647.24  111.99
   0  -4  -3 1663.63  111.29
   0  -4   3 1623.74  111.49
   0  -4  -3 1705.23  111.99
   0  -4   3 1695.83  112.69
   0  -4   3 2009.30  112.09
   0  -4  -3 1932.21  112.79
   0   4   3 1724.13  113.79
   0   4  -3 1972.00  114.39
   0   4   3 2038.00  114.19
   0   4  -3 1684.93  112.89
   0   4   3 1657.53  114.29
   0   4  -3 1719.33  111.79
   0   4   3 1603.44  112.39
   0   4   3 1690.93  113.59
   0   4  -3 1772.12  112.19
   0   4  -3 1941.41  114.29
   0   4   3 1678.23  114.09
   0   4  -3 1697.63  112.29
   0   4   3 1678.73  113.69
   0   4  -3 1704.63  113.19
   0   4   3 1766.92  114.59
  -1  -4  -3  671.23   45.20
  -1  -4  -3  646.44   45.90
   1  -4   3  689.63   45.30
  -1  -4  -3  659.23   45.10
   1  -4   3  764.82   47.50
  -1  -4  -3  672.33   45.60
  -1  -4  -3  674.03   45.60
   1  -4   3  679.13   45.20
   1  -4   3  667.53   44.80
  -1  -4  -3  660.63   45.80
   1  -4   3  692.83   44.80
   1  -4   3  664.93   45.70
   1  -4   3  652.53   43.40
   1  -4   3  626.94   46.00
  -1  -4  -3  679.13   45.20
  -1  -4  -3  705.03   43.60
  -1  -4  -3  746.73   46.90
   1   4   3  720.93   48.60
   1   4   3  693.63   49.20
   1   4   3  707.83   48.40
   1   4   3  728.93   48.10
   1   4   3  837.92   49.80
  -1   4  -3  707.43   48.60
  -1   4  -3  697.63   47.40
   1   4   3  664.23   48.50
   1   4   3  713.73   47.90
   1   4   3  731.63   48.50
  -1   4  -3  711.63   47.80
  -2  -4  -3   84.69    7.70
   2  -4   3   85.59    9.20
   2  -4   3   85.89    7.40
   2  -4   3   98.49    7.50
  -2  -4  -3   86.99    8.20
   2  -4   3   82.89    7.50
   2  -4   3   86.49    7.50
  -2  -4  -3   79.89    8.80
   2  -4   3   85.39    7.10
   2  -4   3   88.29    8.30
   2  -4   3   93.29    8.50
   2  -4   3   86.49    6.70
  -2  -4  -3   85.69    7.30
   2   4   3   90.69    8.70
   2   4   3   83.69    9.20
   2   4   3   98.29    9.20
  -2   4  -3  111.29    7.60
   2   4   3   83.89    9.10
   2   4   3   84.09    8.50
   2   4   3   84.89    8.60
  -2   4  -3   88.59    7.60
   2   4   3   86.19    8.50
   2   4   3   96.79    8.70
  -2   4  -3   90.19    8.50
   2   4   3   98.19    8.10
  -2   4  -3   86.69    7.30
  -3  -4  -3  537.15   34.00
   3  -4   3  510.05   32.90
   3  -4   3  488.85   35.30
   3  -4   3  467.95   32.30
  -3  -4  -3  448.26   32.70
   3  -4   3  455.55   33.60
   3  -4   3  485.45   32.60
  -3  -4  -3  467.95   33.00
   3  -4   3  493.85   34.60
   3  -4   3  470.55   32.60
   3  -4   3  443.06   33.60
   3  -4   3  510.85   32.20
   3  -4   3  478.15   32.70
   3   4   3  496.05   35.70
   3   4   3  495.15   33.50
   3   4   3  484.65   35.00
  -3   4  -3  485.35   34.60
   3   4   3  492.55   35.20
   3   4   3  481.05   34.90
  -3   4  -3  548.85   33.60
   3   4   3  485.25   36.20
  -4  -4  -3  320.67   19.90
   4  -4   3  307.47   21.30
  -4  -4  -3  303.37   21.70
   4  -4   3  290.57   21.40
   4  -4   3  286.77   21.20
   4  -4   3  307.47   22.20
   4  -4   3  297.87   22.70
   4  -4   3  277.47   23.40
   4  -4   3  313.97   22.30
  -4  -4  -3  289.97   22.40
  -4  -4  -3  292.17   21.20
   4  -4   3  283.67   21.50
   4   4   3  363.36   24.80
  -4   4  -3  297.27   21.90
   4   4   3  312.77   24.80
  -4   4  -3  274.97   22.40
   4   4   3  339.07   21.10
   4   4   3  308.77   23.50
   4   4   3  288.07   23.90
   4   4   3  303.17   23.60
  -5  -4  -3   62.79    7.90
   5  -4   3   69.99    7.10
   5  -4   3   69.19    8.00
   5  -4   3   59.79    7.70
  -5  -4  -3   64.79    6.50
   5  -4   3   69.89    7.00
  -5  -4  -3   65.49    7.00
   5  -4   3   82.99    7.50
   5  -4   3   66.99    7.10
   5  -4   3   93.59   10.40
  -5   4  -3   75.19    7.40
  -5   4  -3   86.49    7.60
   5   4   3   72.99    8.90
   5   4   3   71.99    9.40
   5   4   3   70.39    8.40
   5   4   3   77.79    9.00
   5   4   3   74.09    8.60
   5   4   3   66.29    9.00
   6  -4   3   22.80    5.60
   6  -4   3   20.70    4.10
   6  -4   3   25.40    5.60
   6  -4   3   22.40    4.50
   6  -4   3   27.90    4.40
  -6  -4  -3   24.30    4.00
   6   4   3   26.90    5.70
   6   4   3   14.70    5.30
   6   4   3   17.50    4.70
   6   4   3   24.90    5.80
   7  -4   3  156.18   16.00
   7  -4   3  171.38   15.90
   7  -4   3  159.88   14.00
   7   4   3  186.48   16.70
   7   4   3  155.68   16.30
   7   4   3  168.08   17.40
   7   4   3  169.38   15.80
   8  -4   3   96.19   12.70
   8  -4   3  125.49   12.00
   8   4   3   97.29   11.60
  -8  -5   3  173.58   17.50
   8  -5  -3  237.78   18.30
   8  -5  -3  214.58   17.80
   8  -5  -3  181.08   16.70
   8  -5  -3  187.08   19.20
  -8  -5   3  186.68   17.70
  -8  -5   3  177.28   17.50
   8   5  -3  216.98   20.20
   8   5  -3  196.58   19.10
   8   5  -3  219.18   19.40
   8   5  -3  213.58   20.20
  -8   5   3  242.68   18.70
   7  -5  -3  206.68   18.40
   7  -5  -3  220.48   18.60
   7  -5  -3  241.88   19.20
  -7  -5   3  228.58   20.60
  -7  -5   3  193.38   19.30
  -7  -5   3  212.28   19.20
   7  -5  -3  278.67   21.90
  -7   5   3  199.08   18.60
   7   5  -3  209.98   19.60
   7   5  -3  212.78   18.80
  -7   5   3  243.08   18.60
   7   5  -3  227.98   20.70
  -7   5   3  199.78   18.30
   7   5  -3  257.47   20.20
   6  -5  -3   65.89    8.80
  -6  -5   3   69.69    8.70
   6  -5  -3   55.29    7.30
   6  -5  -3   56.39    7.00
  -6  -5   3   53.49    6.10
   6  -5  -3   54.99    7.30
  -6  -5   3   45.70    7.60
  -6  -5   3   54.39    9.10
   6   5  -3   66.09    8.60
   6   5  -3   63.19    9.20
   6   5  -3   54.39    8.70
  -6   5   3   56.29    7.30
  -6   5   3   53.39    7.60
  -6   5   3   77.09    8.40
   6   5  -3   56.19    7.80
   5  -5  -3  402.56   29.50
   5  -5  -3  384.06   31.00
  -5  -5   3  387.36   30.50
   5  -5  -3  395.96   29.10
   5  -5  -3  375.76   29.50
  -5  -5   3  401.16   32.40
   5  -5  -3  481.25   30.20
  -5  -5   3  460.85   29.50
  -5   5   3  385.86   28.60
  -5   5   3  455.35   29.80
  -5   5   3  377.96   28.40
   5   5  -3  372.36   29.30
  -5   5   3  384.06   26.10
   5   5  -3  384.66   28.70
  -5   5   3  376.76   26.30
   5   5  -3  385.76   29.30
  -4  -5   3  335.87   26.20
  -4  -5   3  347.77   25.50
   4  -5  -3  350.66   26.70
  -4  -5   3  379.66   25.50
   4  -5  -3  344.97   24.50
   4  -5  -3  340.87   24.50
   4  -5  -3  345.27   25.20
   4  -5  -3  343.97   25.30
  -4  -5   3  350.26   26.30
   4  -5  -3  337.87   25.40
  -4  -5   3  331.57   25.60
  -4   5   3  430.16   29.00
  -4   5   3  351.46   26.40
   4   5  -3  343.37   26.90
   4   5  -3  374.56   27.60
  -4   5   3  355.76   26.70
  -4   5   3  352.86   25.30
   4   5  -3  372.16   25.10
  -4   5   3  354.06   26.60
   3  -5  -3  328.97   23.80
  -3  -5   3  296.77   26.00
   3  -5  -3  314.57   23.50
   3  -5  -3  307.47   23.80
  -3  -5   3  329.37   23.90
   3  -5  -3  360.36   23.10
  -3  -5   3  314.47   24.30
   3  -5  -3  322.77   22.60
  -3  -5   3  315.17   23.80
   3  -5  -3  334.17   24.70
  -3  -5   3  332.27   24.30
  -3  -5   3  322.27   24.30
   3  -5  -3  320.97   24.90
   3   5  -3  344.27   21.00
  -3   5   3  307.07   23.00
  -3   5   3  307.47   23.80
   3   5  -3  314.07   23.30
  -3   5   3  284.77   22.20
  -3   5   3  304.87   23.90
   3   5  -3  312.27   23.70
  -3   5   3  307.07   22.50
  -3   5   3  309.17   24.20
  -3   5   3  296.87   22.70
   3   5  -3  304.07   23.10
   3   5  -3  359.26   23.80
  -2  -5   3 1615.14  101.79
  -2  -5   3 1656.53  101.89
   2  -5  -3 1514.15  102.09
   2  -5  -3 1575.94  101.99
   2  -5  -3 1601.64  101.59
  -2  -5   3 1711.33  101.99
   2  -5  -3 1554.04  100.99
   2  -5  -3 1518.35  101.49
  -2  -5   3 1462.15  101.59
  -2  -5   3 1514.45  102.19
  -2  -5   3 1613.74  103.89
   2  -5  -3 1421.06  100.89
  -2  -5   3 1490.35  101.39
   2  -5  -3 1565.54  101.79
  -2  -5   3 1527.75  101.59
   2  -5  -3 1469.15  101.39
   2   5  -3 1571.44  102.99
  -2   5   3 1553.34  103.49
   2   5  -3 1549.05  103.29
  -2   5   3 1541.95  103.19
   2   5  -3 1671.93  100.69
   2   5  -3 1462.65  102.69
  -2   5   3 1514.25  103.99
  -2   5   3 1564.44  103.89
  -2   5   3 1561.54  103.29
   2   5  -3 1775.32  103.89
   2   5  -3 1728.53  103.69
  -2   5   3 1618.34  103.79
   2   5  -3 1553.24  103.39
   2   5  -3 1556.74  104.69
  -2   5   3 1546.75  102.49
   2   5  -3 1516.75  102.89
   1  -5  -3  904.71   59.09
  -1  -5   3  907.01   59.49
  -1  -5   3  876.71   59.99
   1  -5  -3  863.81   59.09
   1  -5  -3  877.01   59.59
  -1  -5   3  899.61   59.79
  -1  -5   3  873.91   59.39
   1  -5  -3  892.81   58.99
  -1  -5   3  850.11   59.19
   1  -5  -3  877.21   59.39
  -1  -5   3  859.81   60.89
  -1  -5   3  973.60   57.19
   1   5  -3  871.81   58.69
   1   5  -3  918.51   59.49
   1   5  -3  881.01   58.09
  -1   5   3  917.71   60.59
  -1   5   3  912.21   60.09
  -1   5   3  876.41   59.39
   1   5  -3  875.71   60.39
  -1   5   3  925.51   59.29
  -1   5   3  879.31   58.79
  -1   5   3  900.71   60.19
   1   5  -3  845.42   58.39
   1   5  -3  921.61   59.39
   1   5  -3  894.31   59.79
  -1   5   3  894.31   59.59
  -1   5   3  846.32   59.59
   0  -5  -3  428.86   31.70
   0  -5  -3  442.16   31.90
   0  -5  -3  475.15   30.70
   0  -5  -3  446.76   31.60
   0  -5   3  468.95   33.10
   0  -5   3  450.15   32.30
   0  -5   3  449.46   31.50
   0  -5  -3  446.16   31.00
   0  -5  -3  448.66   32.50
   0  -5   3  449.46   31.60
   0  -5  -3  437.56   31.50
   0  -5   3  449.76   31.30
   0  -5  -3  467.05   32.20
   0  -5   3  463.15   30.30
   0  -5   3  466.55   31.50
   0  -5   3  462.75   32.50
   0   5   3  469.85   32.10
   0   5  -3  457.75   31.60
   0   5  -3  460.45   30.80
   0   5   3  423.66   32.10
   0   5   3  445.56   32.90
   0   5   3  471.65   32.40
   0   5  -3  439.86   30.40
   0   5   3  462.15   33.10
   0   5  -3  460.25   32.50
   0   5   3  453.35   32.40
   0   5  -3  479.25   31.40
  -1  -5  -3  144.89   12.10
  -1  -5  -3  141.79   12.20
   1  -5   3  127.19   12.30
  -1  -5  -3  146.59   12.50
   1  -5   3  144.09   11.90
  -1  -5  -3  137.59   12.30
   1  -5   3  143.49   11.60
   1  -5   3  148.59   13.50
   1  -5   3  141.99   12.90
  -1  -5  -3  166.08   10.50
  -1  -5  -3  137.69   11.70
  -1  -5  -3  148.59   12.00
  -1  -5  -3  170.78   12.50
   1  -5   3  146.29   11.50
  -1  -5  -3  150.18   13.30
   1   5   3  165.78   14.20
  -1   5  -3  143.89   12.20
  -1   5  -3  144.49   11.40
  -1   5  -3  152.28   11.90
  -1   5  -3  154.98   10.50
   1   5   3  157.28   13.00
   1   5   3  154.88   12.60
   1   5   3  138.19   12.50
   1   5   3  158.78   13.80
   1   5   3  145.39   12.80
   1   5   3  152.58   12.70
  -1   5  -3  139.79   10.50
  -1   5  -3  150.88   13.00
  -2  -5  -3  245.78   17.90
  -2  -5  -3  232.98   18.00
   2  -5   3  226.28   17.20
   2  -5   3  225.18   17.10
   2  -5   3  230.18   17.40
  -2  -5  -3  228.98   17.20
   2  -5   3  264.27   20.00
   2  -5   3  223.98   17.80
   2  -5   3  238.28   18.60
   2  -5   3  226.88   16.70
  -2  -5  -3  237.18   17.80
   2   5   3  261.37   20.00
  -2   5  -3  280.17   18.20
  -2   5  -3  237.98   17.80
   2   5   3  240.18   19.00
   2   5   3  228.88   19.10
   2   5   3  249.97   19.50
   2   5   3  300.87   19.20
   2   5   3  225.38   20.00
   2   5   3  226.58   19.30
   3  -5   3  834.52   56.79
   3  -5   3  829.52   52.29
   3  -5   3  830.52   53.99
   3  -5   3  835.72   56.69
  -3  -5  -3  772.52   54.79
   3  -5   3  752.52   53.49
   3  -5   3  823.52   53.79
   3  -5   3  777.12   52.79
  -3  -5  -3  760.42   53.89
   3  -5   3  795.62   53.29
  -3  -5  -3  863.41   53.29
   3   5   3  809.62   54.49
   3   5   3  767.82   53.99
   3   5   3  802.92   55.49
   3   5   3  781.02   54.19
   3   5   3  767.52   53.99
  -3   5  -3  812.12   52.39
   3   5   3  788.82   52.59
   4  -5   3  226.98   18.30
  -4  -5  -3  223.98   19.20
  -4  -5  -3  216.88   18.00
   4  -5   3  235.68   19.40
  -4  -5  -3  286.17   19.10
   4  -5   3  228.78   18.10
   4  -5   3  249.78   19.30
   4  -5   3  270.67   18.20
   4  -5   3  245.78   21.10
   4  -5   3  260.27   17.90
   4   5   3  248.98   19.70
   4   5   3  228.28   19.40
   4   5   3  237.78   17.20
   4   5   3  283.77   20.60
  -4   5  -3  228.78   17.60
   4   5   3  227.18   20.40
   4   5   3  245.48   19.60
   4   5   3  229.18   19.50
   5  -5   3  149.39   12.60
   5  -5   3  153.38   12.90
   5  -5   3  165.08   13.60
   5  -5   3  150.38   13.90
  -5  -5  -3  141.69   14.10
   5  -5   3  150.28   15.40
  -5  -5  -3  180.48   13.40
   5   5   3  171.18   16.60
   5   5   3  159.18   15.00
   5   5   3  160.88   15.40
   5   5   3  165.48   14.90
   6  -5   3  109.69   11.70
  -6  -5  -3  113.49    9.50
   6  -5   3  114.79   10.00
   6  -5   3   90.59   11.50
   6  -5   3   86.99    9.60
   6  -5   3   89.69    9.40
   6   5   3   85.59    9.90
   6   5   3   80.49   10.40
   6   5   3   83.19   10.40
   6   5   3   86.19   11.00
   6   5   3   80.29    9.70
   7  -5   3   70.29    9.90
   7  -5   3   60.69    7.20
   7  -5   3   59.69    9.30
   7  -5   3   64.29    7.40
   7   5   3   66.39    9.80
   7   5   3   66.59    9.40
   7   5   3   67.29    9.50
   7   5   3   63.49    9.40
   7   5   3   72.49   11.00
  -8  -6   3  261.57   20.60
   8  -6  -3  211.98   20.30
  -8  -6   3  200.08   19.30
   8  -6  -3  203.08   18.30
  -8  -6   3  194.88   19.80
  -8   6   3  231.28   18.30
   8   6  -3  199.08   18.90
   8   6  -3  207.38   19.90
  -7  -6   3  163.48   16.60
   7  -6  -3  151.28   14.20
   7  -6  -3  159.68   14.40
   7  -6  -3  154.48   16.50
  -7  -6   3  163.88   15.60
   7  -6  -3  135.49   13.30
  -7  -6   3  149.59   15.80
  -7   6   3  153.18   16.40
   7   6  -3  151.58   15.20
  -7   6   3  161.18   14.40
   7   6  -3  154.78   15.90
   7   6  -3  162.38   16.80
   7   6  -3  178.08   16.70
   6  -6  -3   28.60    6.50
   6  -6  -3   25.80    5.20
  -6  -6   3   32.80    6.60
   6  -6  -3   39.70    6.40
   6  -6  -3   49.00    6.90
  -6  -6   3   30.70    7.20
  -6  -6   3   27.80    4.90
  -6  -6   3   41.80    7.50
  -6   6   3   31.40    6.00
   6   6  -3   37.40    7.00
   6   6  -3   31.40    4.80
   6   6  -3   54.49    9.10
  -6   6   3   33.30    6.30
  -6   6   3   27.40    5.40
   6   6  -3   27.20    6.00
   6   6  -3   35.50    7.00
   5  -6  -3   11.80    3.50
  -5  -6   3   26.30    4.40
  -5  -6   3   13.00    4.00
   5  -6  -3   12.70    4.40
  -5  -6   3   12.80    4.10
   5  -6  -3   12.10    3.70
   5  -6  -3   13.10    3.50
   5  -6  -3   11.80    3.10
   5  -6  -3   11.50    3.00
  -5  -6   3   15.50    5.00
   5   6  -3   11.40    2.70
  -5   6   3    9.30    3.20
   5   6  -3    9.30    4.10
   5   6  -3    9.20    4.10
  -5   6   3   10.40    3.60
   5   6  -3   17.00    4.40
  -5   6   3   13.30    4.10
  -4  -6   3  523.55   39.30
   4  -6  -3  546.95   37.20
   4  -6  -3  534.45   38.60
   4  -6  -3  527.45   38.30
  -4  -6   3  528.45   39.30
   4  -6  -3  621.14   40.40
   4  -6  -3  553.84   37.50
  -4  -6   3  538.15   38.40
   4   6  -3  515.05   38.10
  -4   6   3  527.05   37.10
  -4   6   3  551.34   36.30
   4   6  -3  574.64   35.30
  -4   6   3  512.25   36.50
  -4   6   3  458.45   36.70
   4   6  -3  527.45   37.70
   4   6  -3  534.55   37.80
   3  -6  -3  225.08   17.70
  -3  -6   3  216.98   20.50
  -3  -6   3  212.18   17.90
   3  -6  -3  228.38   18.80
  -3  -6   3  242.78   18.70
   3  -6  -3  224.88   17.50
  -3  -6   3  211.38   18.40
   3  -6  -3  237.78   18.30
  -3   6   3  222.08   17.50
   3   6  -3  224.78   18.80
  -3   6   3  232.98   18.50
  -3   6   3  228.78   19.60
  -3   6   3  225.98   18.60
   3   6  -3  281.17   19.80
   3   6  -3  226.38   18.90
   3   6  -3  244.98   16.30
  -3   6   3  268.67   18.80
   3   6  -3  233.58   19.00
   2  -6  -3    8.30    2.80
  -2  -6   3    6.60    3.00
  -2  -6   3    7.30    2.90
   2  -6  -3    6.20    2.60
  -2  -6   3    5.40    2.80
   2  -6  -3    6.10    2.40
  -2  -6   3    6.80    4.10
  -2  -6   3    3.70    2.30
  -2  -6   3    3.40    2.50
   2  -6  -3    5.80    2.70
   2  -6  -3    7.70    2.80
  -2   6   3    8.30    3.00
   2   6  -3    6.90    2.70
   2   6  -3    7.60    2.50
   2   6  -3   11.30    2.80
   2   6  -3    8.20    2.70
  -2   6   3    7.70    2.80
  -2   6   3   12.20    3.30
   2   6  -3    7.60    1.30
  -2   6   3    9.90    3.30
  -2   6   3    4.90    2.50
  -2   6   3    9.20    2.40
  -1  -6   3  363.56   26.60
   1  -6  -3  380.46   26.90
  -1  -6   3  390.26   27.00
  -1  -6   3  358.96   24.30
  -1  -6   3  358.66   27.20
  -1  -6   3  358.76   26.90
   1  -6  -3  357.16   26.70
  -1  -6   3  364.16   27.20
  -1  -6   3  372.86   29.00
   1  -6  -3  357.96   26.50
   1  -6  -3  378.06   26.50
   1  -6  -3  361.96   25.90
   1  -6  -3  358.56   26.10
  -1   6   3  389.66   26.90
  -1   6   3  383.56   28.50
   1   6  -3  430.96   26.20
   1   6  -3  370.96   27.40
  -1   6   3  357.96   27.60
   1   6  -3  345.07   26.50
  -1   6   3  376.46   27.50
   1   6  -3  369.66   27.10
  -1   6   3  426.16   28.70
   0  -6  -3   11.50    3.50
   0  -6  -3   14.90    3.50
   0  -6   3   15.50    3.50
   0  -6  -3   20.30    3.70
   0  -6   3   21.80    4.60
   0  -6   3   20.00    4.10
   0  -6   3   15.60    4.40
   0  -6   3   15.10    3.50
   0  -6   3   20.30    4.70
   0  -6  -3   15.70    4.00
   0  -6   3   19.90    2.70
   0  -6  -3   22.00    3.90
   0  -6  -3   17.50    3.10
   0   6  -3   12.90    2.70
   0   6   3   22.10    4.50
   0   6  -3   12.90    3.10
   0   6   3   14.80    3.80
   0   6   3   11.00    3.20
   0   6   3   14.20    4.30
   0   6   3   23.20    4.30
   0   6  -3   15.50    2.80
   0   6  -3   19.40    4.40
   1  -6   3  114.49   10.70
  -1  -6  -3  152.08   11.60
  -1  -6  -3  141.39    9.60
   1  -6   3  110.09   11.50
  -1  -6  -3  125.29   10.90
  -1  -6  -3  114.19   10.90
   1  -6   3  117.59   12.00
   1  -6   3  122.49   10.20
  -1  -6  -3  111.59   11.00
   1  -6   3  125.29   11.00
   1  -6   3  112.49   11.40
   1  -6   3  123.39   10.50
  -1   6  -3  139.49    9.30
   1   6   3  113.69   11.70
   1   6   3  130.29   11.60
   1   6   3  117.99   11.20
   1   6   3  106.19   10.70
  -1   6  -3  123.09   10.00
  -1   6  -3  116.19   10.70
   1   6   3  112.09   11.00
   1   6   3  114.59   11.80
   2  -6   3   22.20    5.00
   2  -6   3   26.00    4.30
   2  -6   3   18.90    3.70
  -2  -6  -3   18.50    2.00
   2  -6   3   21.20    4.90
   2  -6   3   17.30    3.20
  -2  -6  -3   18.00    3.70
   2  -6   3   15.70    3.70
   2  -6   3   29.00    4.80
  -2  -6  -3   18.80    4.10
  -2  -6  -3   17.00    4.20
  -2   6  -3   21.40    3.60
   2   6   3   18.40    4.30
   2   6   3   21.10    4.30
   2   6   3   17.10    4.50
   2   6   3   22.30    4.10
  -2   6  -3   27.70    3.90
  -2   6  -3   18.50    1.90
  -2   6  -3   14.70    1.70
   2   6   3   19.90    4.50
   2   6   3   16.20    3.90
  -3  -6  -3  454.55   32.80
   3  -6   3  508.45   32.60
  -3  -6  -3  478.75   34.00
   3  -6   3  471.35   36.00
   3  -6   3  465.25   34.70
   3  -6   3  507.55   33.70
   3  -6   3  466.65   32.80
  -3  -6  -3  476.25   34.50
   3  -6   3  468.65   33.40
   3   6   3  557.64   35.60
   3   6   3  475.85   33.70
  -3   6  -3  468.55   32.40
   3   6   3  567.34   37.30
   3   6   3  442.36   34.90
  -3   6  -3  454.25   32.90
   3   6   3  464.05   34.90
   3   6   3  454.45   35.00
   4  -6   3  320.97   26.60
   4  -6   3  313.67   24.60
  -4  -6  -3  328.37   24.90
   4  -6   3  313.87   23.10
   4  -6   3  309.87   24.60
   4  -6   3  342.37   24.00
   4   6   3  293.67   23.40
   4   6   3  306.97   25.00
   4   6   3  305.07   23.90
   4   6   3  283.37   23.50
  -5  -6  -3   87.69    8.90
   5  -6   3   80.79    9.40
   5  -6   3   74.79    9.60
  -5  -6  -3  100.99   10.30
   5  -6   3   87.09   11.40
   5  -6   3   67.29    8.20
   5  -6   3   98.89    8.70
   5   6   3   70.69    9.70
   5   6   3   82.59    9.70
   5   6   3   80.69    9.50
   5   6   3   77.99    9.30
   5   6   3   72.69   10.10
   6  -6   3   89.79   12.50
   6  -6   3  101.69   11.40
   6  -6   3   96.79    9.60
   6  -6   3   99.69   10.20
   6  -6   3  104.49   10.20
   6   6   3   89.19   12.20
   6   6   3  134.09   13.40
   6   6   3  132.39   13.60
   6   6   3  106.09   12.20
   6   6   3  110.79   12.60
   7  -6   3   20.80    4.60
   7   6   3   23.70    6.00
   7   6   3   19.00    5.90
   7   6   3   19.80    5.50
  -7  -7   3  169.68   17.80
   7  -7  -3  176.48   18.20
   7  -7  -3  175.98   16.40
   7  -7  -3  175.48   16.00
  -7  -7   3  193.28   18.00
  -7  -7   3  221.88   18.90
   7  -7  -3  185.98   16.60
   7   7  -3  185.78   18.80
   7   7  -3  210.68   19.00
  -7   7   3  234.48   17.80
   7   7  -3  174.28   17.60
  -6  -7   3   94.69   12.20
  -6  -7   3  102.69   11.60
  -6  -7   3  104.99   11.70
   6  -7  -3   99.29   10.20
   6  -7  -3   93.59   10.40
   6  -7  -3  103.29   10.40
  -6  -7   3  101.29   10.00
   6  -7  -3  107.69   10.90
   6  -7  -3  114.89   13.00
   6   7  -3  139.19   12.60
   6   7  -3  104.69   11.50
  -6   7   3  103.99   11.10
  -6   7   3   90.79   10.40
   6   7  -3   89.09   11.40
  -5  -7   3  133.89   14.00
  -5  -7   3  149.19   13.20
   5  -7  -3  144.39   13.30
  -5  -7   3  144.19   15.60
   5  -7  -3  134.59   12.90
   5  -7  -3  163.88   15.40
  -5  -7   3  134.39   13.90
   5  -7  -3  150.78   12.60
   5  -7  -3  138.29   13.20
   5   7  -3  155.38   14.30
   5   7  -3  150.58   14.20
  -5   7   3  134.69   13.00
  -5   7   3  128.79   12.70
   5   7  -3  159.18   14.90
   4  -7  -3   85.79   10.60
  -4  -7   3  113.79   12.90
   4  -7  -3   99.89   10.80
  -4  -7   3   92.89   10.80
   4  -7  -3  102.19    9.60
   4  -7  -3  107.19   10.30
  -4  -7   3   96.89   11.10
   4  -7  -3  125.89   11.10
  -4  -7   3  102.99   10.40
   4   7  -3  122.39   11.70
  -4   7   3  109.59   10.30
  -4   7   3   86.99    9.40
   4   7  -3  114.19   11.10
   4   7  -3   95.39    7.80
  -4   7   3   67.99   10.80
  -4   7   3   98.19   11.50
  -4   7   3  101.89   10.30
   4   7  -3   98.89   11.00
   3  -7  -3  545.75   38.00
  -3  -7   3  515.65   38.30
   3  -7  -3  514.35   36.90
  -3  -7   3  567.04   38.50
  -3  -7   3  520.35   37.70
   3  -7  -3  521.05   38.40
   3  -7  -3  510.35   37.40
   3   7  -3  534.75   38.50
   3   7  -3  529.05   38.60
   3   7  -3  493.55   37.40
  -3   7   3  545.85   38.30
  -3   7   3  519.95   37.80
  -3   7   3  540.45   36.40
  -3   7   3  526.35   37.60
   3   7  -3  558.14   34.90
  -3   7   3  534.75   39.10
  -2  -7   3  281.57   22.80
  -2  -7   3  271.27   21.20
   2  -7  -3  257.77   20.20
  -2  -7   3  249.78   21.00
   2  -7  -3  270.77   20.70
   2  -7  -3  266.47   20.90
   2  -7  -3  267.77   21.20
  -2   7   3  257.77   22.40
  -2   7   3  276.97   20.70
   2   7  -3  340.17   21.50
  -2   7   3  291.07   22.10
   2   7  -3  300.37   19.30
   2   7  -3  269.07   22.10
   2   7  -3  268.67   21.40
   2   7  -3  278.07   22.00
   1  -7  -3  216.58   18.30
  -1  -7   3  276.47   18.90
   1  -7  -3  218.58   17.70
  -1  -7   3  212.28   18.80
  -1  -7   3  257.97   16.10
  -1  -7   3  227.28   19.20
  -1  -7   3  218.08   18.60
  -1  -7   3  218.28   18.30
   1  -7  -3  230.58   18.20
  -1  -7   3  232.58   20.00
   1  -7  -3  206.28   17.70
   1  -7  -3  218.58   17.60
   1   7  -3  224.28   16.70
  -1   7   3  210.78   18.30
   1   7  -3  211.68   16.20
   1   7  -3  211.58   15.00
  -1   7   3  226.98   18.00
  -1   7   3  204.98   16.90
  -1   7   3  204.58   15.90
  -1   7   3  198.68   16.70
   0  -7  -3  142.99   12.90
   0  -7   3  149.19   13.80
   0  -7  -3  146.99   12.90
   0  -7  -3  151.38   12.20
   0  -7   3  143.59   13.80
   0  -7   3  139.59   12.60
   0  -7  -3  151.18   12.70
   0  -7   3  160.18   13.50
   0  -7   3  150.78   13.20
   0  -7   3  149.99   11.50
   0  -7   3  142.69   13.80
   0  -7  -3  147.79   13.10
   0   7  -3  138.59   12.40
   0   7  -3  165.98   12.50
   0   7   3  144.39   13.40
   0   7  -3  164.78   12.10
   0   7   3  146.89   13.40
   1  -7   3   33.70    5.10
  -1  -7  -3   32.00    5.50
   1  -7   3   40.50    6.10
  -1  -7  -3   38.80    6.10
  -1  -7  -3   48.70    7.10
  -1  -7  -3   35.20    4.10
   1  -7   3   35.10    4.70
   1  -7   3   38.50    7.00
  -1  -7  -3   35.10    5.20
   1  -7   3   34.20    5.20
   1  -7   3   27.50    5.70
   1  -7   3   34.10    5.80
   1   7   3   40.80    6.40
  -1   7  -3   33.60    4.80
  -1   7  -3   29.00    5.30
   1   7   3   40.90    7.50
  -1   7  -3   29.10    3.80
   1   7   3   32.60    6.10
   1   7   3   41.40    5.70
   2  -7   3   49.99    6.00
  -2  -7  -3   47.60    6.40
   2  -7   3   57.99    6.70
   2  -7   3   60.89    6.80
   2  -7   3   44.00    7.60
  -2  -7  -3   62.69    7.60
   2  -7   3   45.10    7.30
  -2  -7  -3   53.69    4.60
  -2   7  -3   57.49    4.90
   2   7   3   55.29    7.30
   2   7   3   82.09    8.50
   2   7   3   53.69    7.40
  -2   7  -3   58.59    6.70
  -2   7  -3   60.09    5.10
  -2   7  -3   64.99    6.70
   2   7   3   58.89    8.30
   3  -7   3   36.10    7.40
   3  -7   3   43.10    4.90
  -3  -7  -3   37.20    4.90
  -3  -7  -3   41.20    6.40
   3  -7   3   41.30    7.20
   3  -7   3   35.20    5.00
   3  -7   3   38.50    5.30
   3   7   3   40.00    7.00
  -3   7  -3   40.70    5.00
   3   7   3   50.99    8.60
   3   7   3   39.10    6.50
   3   7   3   36.20    6.40
  -4  -7  -3  133.39   11.90
   4  -7   3  151.08   14.10
   4  -7   3  155.18   12.70
  -4  -7  -3  154.78   14.20
   4  -7   3  148.89   13.40
   4  -7   3  146.99   13.70
   4  -7   3  198.38   17.10
   4   7   3  183.88   16.60
   4   7   3  184.58   16.80
   4   7   3  143.49   15.50
   4   7   3  223.58   18.80
   5  -7   3   78.19    9.80
   5  -7   3   73.09    9.30
  -5  -7  -3  114.69   14.20
   5  -7   3   99.79   12.50
   5  -7   3   96.99    8.80
   5  -7   3   72.39    8.80
   5   7   3   76.19   10.20
   5   7   3   79.89   10.60
   5   7   3  100.49   10.60
   5   7   3   68.69    9.90
   5   7   3   75.59   10.00
   6  -7   3  253.87   23.30
   6  -7   3  307.77   22.40
   6  -7   3  303.17   23.20
   6  -7   3  247.48   22.10
   6  -7   3  368.16   27.30
   6   7   3  259.27   21.60
   6   7   3  233.78   21.60
   6   7   3  250.97   22.90
   6   7   3  248.28   22.30
   6   7   3  260.07   22.10
  -7  -8   3  131.19   14.20
   7  -8  -3  124.39   12.60
  -7   8   3  124.59   13.60
   7   8  -3  122.49   13.80
   7   8  -3  123.69   13.30
   6  -8  -3   48.80    7.10
  -6  -8   3   61.39    9.70
  -6  -8   3   60.39    9.50
   6  -8  -3   53.89    9.30
  -6  -8   3   50.09    9.60
   6  -8  -3   50.29    7.70
   6  -8  -3   52.99    7.20
   6  -8  -3   49.80    7.00
   6   8  -3   61.99    9.40
  -6   8   3   51.79    7.80
   6   8  -3   49.90    8.60
   6   8  -3   49.50    8.50
   5  -8  -3  204.18   19.70
  -5  -8   3  238.48   20.10
   5  -8  -3  205.48   17.40
  -5  -8   3  218.48   19.70
   5  -8  -3  202.88   18.40
   5  -8  -3  258.37   19.00
  -5  -8   3  213.58   20.90
  -5  -8   3  236.78   18.60
   5  -8  -3  203.28   18.00
  -5   8   3  222.28   19.30
   5   8  -3  215.28   20.10
   5   8  -3  237.68   20.90
  -5   8   3  278.87   20.20
   5   8  -3  235.28   20.80
   4  -8  -3  239.98   20.10
  -4  -8   3  238.08   20.40
   4  -8  -3  253.37   20.80
  -4  -8   3  267.57   23.20
  -4  -8   3  252.17   21.20
   4  -8  -3  253.47   19.40
   4  -8  -3  255.17   21.80
  -4  -8   3  253.17   21.30
   4  -8  -3  261.27   20.30
  -4   8   3  260.57   22.50
   4   8  -3  254.47   21.50
  -4   8   3  248.78   20.50
  -4   8   3  251.47   20.40
   4   8  -3  264.57   21.90
   4   8  -3  260.17   21.20
   3  -8  -3    1.40    2.20
  -3  -8   3    2.10    2.70
   3  -8  -3    0.10    2.80
   3  -8  -3   -0.60    2.70
  -3  -8   3   -0.50    3.30
  -3  -8   3    2.20    2.50
   3  -8  -3   -0.80    1.50
  -3  -8   3   -3.00    1.80
  -3   8   3   -1.00    2.70
   3   8  -3   -0.80    2.20
  -3   8   3   -1.10    2.20
   3   8  -3    0.30    2.10
  -3   8   3    0.70    1.30
   3   8  -3    0.70    2.70
  -3   8   3   -1.20    2.40
  -2  -8   3   42.60    7.90
   2  -8  -3   43.50    7.00
   2  -8  -3   50.19    6.60
  -2  -8   3   43.50    7.30
   2  -8  -3   42.60    6.70
  -2  -8   3   44.00    7.60
   2  -8  -3   48.90    6.30
  -2  -8   3   52.29    7.80
  -2  -8   3   49.50    6.80
   2   8  -3   41.40    6.20
   2   8  -3   48.80    4.40
   2   8  -3   50.39    7.20
  -2   8   3   51.49    7.10
  -2   8   3   56.59    8.10
  -2   8   3   46.40    5.20
  -2   8   3   60.39    7.50
   1  -8  -3   76.39    7.70
   1  -8  -3   48.20    7.00
  -1  -8   3   52.39    7.30
  -1  -8   3   53.89    7.90
   1  -8  -3   51.69    7.30
  -1  -8   3   65.59    8.30
  -1  -8   3   60.29    8.10
   1  -8  -3   51.99    7.50
  -1  -8   3   49.90    8.10
  -1  -8   3   70.89    8.80
  -1   8   3   48.70    7.10
   1   8  -3   70.99    7.80
   1   8  -3   46.60    5.80
  -1   8   3   44.90    6.60
   1   8  -3   63.89    7.10
  -1   8   3   60.69    7.50
  -1   8   3   51.59    6.00
   0  -8   3  206.78   18.60
   0  -8  -3  216.48   18.00
   0  -8  -3  225.48   18.10
   0  -8  -3  221.98   18.00
   0  -8   3  206.18   18.70
   0  -8   3  217.18   19.10
   0  -8   3  218.18   17.60
   0  -8   3  242.88   18.80
   0  -8   3  213.68   18.30
   0  -8   3  212.38   16.10
   0   8  -3  205.88   16.40
   0   8   3  199.68   17.40
   0   8  -3  226.38   17.20
   0   8   3  203.58   19.30
   0   8  -3  218.98   16.20
   0   8   3  221.28   16.80
   1  -8   3  503.35   38.80
   1  -8   3  534.35   36.70
   1  -8   3  527.65   36.10
  -1  -8  -3  498.05   37.20
  -1  -8  -3  529.75   37.40
   1  -8   3  508.45   37.50
   1  -8   3  504.15   38.30
   1  -8   3  520.05   37.80
  -1  -8  -3  542.85   35.60
  -1  -8  -3  529.55   37.70
   1  -8   3  535.45   40.20
  -1   8  -3  542.05   38.90
   1   8   3  530.55   40.10
   1   8   3  538.45   40.20
   1   8   3  662.63   41.40
   1   8   3  552.54   42.00
  -2  -8  -3   12.30    3.90
   2  -8   3    9.50    4.30
   2  -8   3   11.90    3.40
  -2  -8  -3    6.10    3.10
  -2  -8  -3   14.40    4.30
   2  -8   3   10.80    2.80
   2  -8   3    9.10    4.20
   2   8   3   11.30    3.60
  -2   8  -3    6.90    1.80
   2   8   3    9.80    4.00
   2   8   3   10.90    3.80
   2   8   3   11.10    4.20
  -3  -8  -3  203.08   17.90
   3  -8   3  201.28   18.40
  -3  -8  -3  201.78   16.60
   3  -8   3  221.98   19.50
   3  -8   3  203.38   16.20
   3   8   3  211.28   18.60
   3   8   3  196.58   18.00
   3   8   3  209.68   18.10
   3   8   3  226.68   20.20
  -4  -8  -3    5.40    2.40
   4  -8   3    5.40    2.50
   4  -8   3    6.40    3.30
  -4  -8  -3    4.70    2.70
   4  -8   3    5.40    3.00
   4  -8   3    3.60    3.10
   4  -8   3    4.60    3.10
   4   8   3    5.30    3.30
   4   8   3    6.80    4.60
   4   8   3    7.30    3.90
   4   8   3    6.50    3.30
   5  -8   3   29.40    6.50
   5  -8   3   20.10    5.10
   5  -8   3   26.90    5.50
   5  -8   3   26.00    6.80
   5  -8   3   25.50    4.70
   5   8   3   32.30    6.20
   5   8   3   35.70    7.40
   5   8   3   32.00    6.70
   5   8   3   25.90    6.70
   6  -8   3  167.68   16.10
   6  -8   3  184.08   15.80
   6   8   3  173.68   17.80
   6   8   3  204.08   18.40
   6  -9  -3   24.00    5.60
  -6  -9   3   18.80    5.40
   6  -9  -3   12.70    5.00
  -6   9   3   14.40    4.40
   6   9  -3   17.40    5.30
   6   9  -3   19.10    5.90
   5  -9  -3   34.30    6.10
   5  -9  -3   41.00    7.60
  -5  -9   3   26.20    5.70
   5  -9  -3   35.50    6.50
  -5  -9   3   25.10    6.40
  -5  -9   3   36.40    7.80
   5  -9  -3   29.20    5.50
  -5  -9   3   34.30    7.00
   5  -9  -3   33.10    7.40
  -5   9   3   39.50    6.80
   5   9  -3   33.10    7.40
   5   9  -3   35.70    6.80
   4  -9  -3   78.29   10.10
   4  -9  -3   86.69    9.80
   4  -9  -3   80.79   10.20
  -4  -9   3   68.39   10.50
  -4  -9   3   64.49   10.30
  -4  -9   3   89.89   11.00
   4  -9  -3   72.29    9.10
   4  -9  -3   79.99    8.50
  -4  -9   3   96.09   10.40
   4   9  -3   85.19   10.40
   4   9  -3   79.99    9.50
   4   9  -3   85.89   10.40
  -4   9   3   84.99    9.90
  -4   9   3   91.89    9.90
  -4   9   3   89.49   11.00
  -3  -9   3  144.19   14.30
   3  -9  -3  185.38   15.80
   3  -9  -3  162.78   14.90
  -3  -9   3  144.79   14.40
   3  -9  -3  147.39   14.20
   3  -9  -3  127.59   13.30
  -3  -9   3  158.98   15.00
   3   9  -3  217.08   17.10
  -3   9   3  193.68   17.10
   3   9  -3  200.28   16.70
  -3   9   3  165.78   15.40
   3   9  -3  136.69   14.70
  -3   9   3  150.08   15.10
  -2  -9   3  162.18   15.80
   2  -9  -3  172.58   15.60
  -2  -9   3  165.68   15.90
   2  -9  -3  163.18   15.20
   2  -9  -3  173.28   15.30
  -2  -9   3  165.68   16.10
  -2  -9   3  210.98   16.60
   2  -9  -3  172.08   15.60
  -2  -9   3  172.98   17.30
  -2   9   3  156.68   14.70
  -2   9   3  148.69   15.00
   2   9  -3  178.78   14.30
  -2   9   3  168.58   14.60
  -1  -9   3   92.29   10.00
   1  -9  -3   83.39    8.90
  -1  -9   3   82.59   10.10
   1  -9  -3   87.79    9.90
  -1  -9   3   88.39   10.40
  -1  -9   3   76.99    9.60
   1  -9  -3  101.99   10.70
   1  -9  -3   81.29    9.00
  -1   9   3  113.89   10.80
   1   9  -3   87.49    8.80
  -1   9   3   81.99    9.80
  -1   9   3   82.99    9.40
   1   9  -3   86.09    9.70
  -1   9   3   83.99    8.80
   0  -9   3   97.49   12.20
   0  -9   3  137.29   12.70
   0  -9   3  132.19   11.90
   0  -9   3   97.89   12.00
   0  -9  -3  133.69   12.40
   0  -9  -3  106.39   11.60
   0  -9  -3  145.59   12.70
   0  -9  -3  104.29   10.40
   0  -9   3  106.39   12.30
   0   9   3  103.39    9.70
   0   9  -3  109.69   10.60
   0   9   3   93.29   10.60
   0   9   3   99.19   11.10
   0   9   3   91.49   10.90
   0   9  -3  119.89    9.70
   0   9   3  104.89   12.10
   1  -9   3   27.40    6.40
   1  -9   3   29.20    5.30
   1  -9   3   54.39    8.70
  -1  -9  -3   31.90    6.30
   1  -9   3   30.30    6.10
  -1  -9  -3   32.30    6.10
   1  -9   3   35.20    6.60
  -1  -9  -3   32.10    6.10
   1   9   3   35.20    6.50
  -1   9  -3   29.10    4.00
   1   9   3   24.40    5.60
   1   9   3   33.50    7.20
   1   9   3   22.70    5.50
  -2  -9  -3  138.19   12.00
  -2  -9  -3  135.69   12.50
   2  -9   3  109.99   11.60
  -2  -9  -3  108.99   11.50
   2  -9   3  109.89   11.20
   2  -9   3   98.49   10.40
   2  -9   3  100.29   12.40
   2  -9   3  114.89   13.30
   2   9   3  106.49   11.50
   2   9   3  109.39   11.80
   2   9   3  108.89   13.50
   2   9   3  100.09   10.90
   3  -9   3   36.60    5.20
  -3  -9  -3   38.60    7.30
   3  -9   3   43.50    7.60
  -3  -9  -3   35.10    5.80
   3  -9   3   36.80    6.60
   3  -9   3   36.60    7.60
  -3  -9  -3   50.49    7.30
   3   9   3   29.50    6.10
   3   9   3   29.80    6.60
   3   9   3   34.20    7.50
   3   9   3   31.80    6.10
   4  -9   3   49.50    8.20
   4  -9   3   61.49    8.00
  -4  -9  -3   40.80    8.60
  -4  -9  -3   39.40    6.90
   4  -9   3   48.70    9.20
   4  -9   3   47.50    7.00
   4  -9   3   46.20    6.40
   4   9   3   48.90    8.30
   4   9   3   66.49   10.00
   4   9   3   50.29    9.40
   4   9   3   49.50    8.00
   5  -9   3   59.29    9.10
  -5  -9  -3   57.49    7.90
   5  -9   3   59.69    8.20
  -5 -10   3   51.39    8.00
   5 -10  -3   49.80    9.40
   5  10  -3   84.79   13.90
  -5  10   3   53.29    8.10
   5  10  -3   54.79    9.20
   4 -10  -3  133.39   13.30
  -4 -10   3  128.79   13.80
   4 -10  -3  174.38   17.10
  -4 -10   3  146.49   17.20
  -4 -10   3  129.99   13.90
   4 -10  -3  118.89   14.20
   4  10  -3  136.09   13.90
   4  10  -3  145.79   14.80
   4  10  -3  141.29   15.30
  -4  10   3  134.79   13.40
   3 -10  -3   86.09    9.90
  -3 -10   3   82.39   10.00
  -3 -10   3   81.49   10.50
  -3 -10   3   93.49   12.10
   3 -10  -3  117.49   12.10
  -3 -10   3   87.39   10.70
  -3 -10   3   86.89   10.40
   3 -10  -3   86.89   10.50
   3 -10  -3   70.19    8.90
  -3  10   3   76.29   10.90
   3  10  -3   83.19   11.60
   3  10  -3  113.39   10.70
  -3  10   3   84.39    9.80
  -3  10   3   79.49    9.30
  -2 -10   3   28.00    7.00
  -2 -10   3   31.40    6.90
  -2 -10   3   50.09    7.80
   2 -10  -3   28.60    6.10
   2 -10  -3   34.20    6.70
  -2 -10   3   38.30    7.00
   2 -10  -3   45.00    7.20
  -2 -10   3   33.80    6.80
   2 -10  -3   41.80    7.50
  -2  10   3   39.60    7.30
  -2  10   3   52.09    7.70
   2  10  -3   36.90    6.20
  -2  10   3   29.30    6.20
   1 -10  -3   70.09    8.60
  -1 -10   3   63.69    9.60
  -1 -10   3   72.59    9.60
   1 -10  -3   69.99    8.70
   1 -10  -3   79.99    9.60
  -1 -10   3   99.29   10.10
   1 -10  -3   67.69    8.90
  -1 -10   3   74.99    9.90
  -1 -10   3   69.99    9.80
  -1  10   3   77.29    9.20
   1  10  -3   71.19    8.10
  -1  10   3   77.19    8.90
  -1  10   3   68.69    9.50
   0 -10   3   14.10    4.90
   0 -10   3   14.90    5.00
   0 -10  -3    7.60    4.10
   0 -10  -3    6.60    3.10
   0 -10  -3   10.80    4.40
   0 -10   3   13.40    4.80
   0 -10   3   10.40    4.70
   0 -10   3    8.70    3.30
   0  10   3    9.40    3.60
   0  10   3    9.70    4.10
   0  10   3    5.70    3.70
   0  10  -3   11.50    3.30
   1 -10   3   28.90    7.00
  -1 -10  -3   25.50    5.60
  -1 -10  -3   29.70    6.20
   1 -10   3   27.80    6.50
   1 -10   3   30.80    5.60
  -1 -10  -3   29.30    6.10
   1 -10   3   28.30    6.10
   1  10   3   33.10    7.40
   1  10   3   32.20    6.30
   1  10   3   27.50    5.80
   1  10   3   24.20    5.40
  -2 -10  -3   67.09    8.60
   2 -10   3  102.79   12.20
  -2 -10  -3   76.49    9.40
  -2 -10  -3   79.99    9.50
   2 -10   3   77.39    9.70
   2 -10   3   71.79   10.00
   2 -10   3   72.09    8.20
   2  10   3   78.69   10.40
   2  10   3   94.89   11.10
   2  10   3   66.99    9.30
   2  10   3  103.29   12.80
  -3 -10  -3   47.20    7.80
   3 -10   3   43.00    8.80
   3 -10   3   35.80    7.10
   3 -10   3   64.89   10.10
  -3 -10  -3   54.89    7.30
  -3 -10  -3   41.80    7.30
   3  10   3   41.90    7.50
   3  11  -3    0.70    2.80
  -3  11   3    4.20    3.00
  -2 -11   3  246.08   25.90
   2 -11  -3  288.77   23.70
  -2 -11   3  273.47   25.80
  -2 -11   3  357.96   25.70
  -2  11   3  310.27   22.90
  -2  11   3  257.97   23.10
  -2  11   3  254.37   22.00
   2  11  -3  265.97   21.30
  -1 -11   3   32.70    7.60
   1 -11  -3   42.20    7.20
  -1 -11   3   32.90    7.20
  -1  11   3   26.60    5.40
  -1  11   3   25.60    5.70
  -1  11   3   30.30    6.50
   0 -11   3   75.29   10.10
   0 -11  -3   56.29    8.00
   0 -11   3   58.49    9.80
   0 -11   3   57.09    8.60
   0 -11  -3   52.49    8.90
   0  11   3   64.19   11.10
   0  11   3   53.89    7.80
   1 -11   3   25.40    7.10
  -1 -11  -3   50.39    8.00
   1 -11   3   35.60    6.90
  -1 -11  -3   37.40    6.90
   1  11   3   34.50    7.10
  -9   0   4   82.19   10.20
   9   0  -4   65.69   10.20
   9   0  -4   55.79    7.80
   9   0  -4   63.79    9.40
  -9   0   4   73.49    9.20
   9   0  -4   61.79    8.70
   8   0  -4   49.30    8.50
  -8   0   4   52.09    8.20
  -8   0   4   71.49    8.90
  -8   0   4   54.89    7.00
   8   0  -4   54.59    7.00
   8   0  -4   54.79    8.30
   8   0  -4   53.19    7.50
   8   0  -4   46.70    7.90
   7   0  -4    4.10    3.20
  -7   0   4    1.60    3.00
   7   0  -4    3.70    3.60
  -7   0   4    4.30    3.00
  -7   0   4    3.00    2.20
   7   0  -4    3.70    2.10
   7   0  -4    4.60    2.50
   7   0  -4    4.50    3.20
  -7   0   4    5.00    1.90
   7   0  -4   -0.10    1.70
  -6   0   4 1611.14  112.19
  -6   0   4 1656.23  110.49
   6   0  -4 1816.52  110.59
   6   0  -4 1703.93  111.49
   6   0  -4 1772.22  109.19
   6   0  -4 1589.84  110.29
  -6   0   4 1758.02  109.99
   6   0  -4 1564.64  110.19
  -6   0   4 1646.94  108.29
  -6   0   4 1619.54  110.39
   5   0  -4  259.07   19.80
   5   0  -4  256.67   20.00
  -5   0   4  276.07   19.70
  -5   0   4  254.27   22.10
  -5   0   4  231.98   19.90
   5   0  -4  251.47   20.10
   5   0  -4  315.17   19.90
  -5   0   4  273.57   19.90
   5   0  -4  248.68   19.00
  -5   0   4  263.27   20.30
   5   0  -4  263.97   20.30
   5   0  -4  264.47   21.10
  -5   0   4  273.27   20.10
   5   0  -4  280.07   20.50
  -4   0   4 2385.36  158.38
   4   0  -4 2442.06  157.58
   4   0  -4 2436.06  158.68
   4   0  -4 2434.66  157.68
  -4   0   4 2369.76  159.18
   4   0  -4 2537.95  157.98
   4   0  -4 2465.45  157.48
  -4   0   4 2418.26  157.38
  -4   0   4 2472.95  157.18
  -4   0   4 2616.04  157.58
   4   0  -4 2529.95  157.38
  -4   0   4 2328.87  157.78
   4   0  -4 2484.65  156.48
   4   0  -4 2420.16  157.58
   4   0  -4 2430.96  158.68
  -4   0   4 2328.47  157.68
  -4   0   4 2437.36  157.68
   3   0  -4  234.38   18.10
  -3   0   4  250.17   17.20
  -3   0   4  241.38   18.10
   3   0  -4  229.48   17.30
  -3   0   4  236.08   17.60
   3   0  -4  241.08   16.00
  -3   0   4  235.98   16.80
  -3   0   4  244.28   17.50
  -3   0   4  235.38   18.40
  -3   0   4  263.07   17.90
   3   0  -4  237.18   17.30
  -3   0   4  232.48   17.10
   3   0  -4  236.18   17.10
  -2   0   4  143.49   11.40
  -2   0   4  148.99   10.80
  -2   0   4  150.78   10.70
   2   0  -4  139.99   10.70
   2   0  -4  151.58   11.60
   2   0  -4  140.89   10.80
  -2   0   4  157.08   11.90
   2   0  -4  146.79   11.10
   2   0  -4  158.08   10.80
  -2   0   4  149.79   11.90
   2   0  -4  148.39   10.80
  -2   0   4  146.29   10.80
  -2   0   4  149.39   11.00
  -2   0   4  141.39   11.00
  -2   0   4  152.88   11.30
   2   0  -4  145.59   10.60
   1   0  -4 1192.38   66.39
   1   0  -4  970.50   67.19
   1   0  -4  988.60   66.89
  -1   0   4 1039.60   66.09
  -1   0   4 1017.60   66.29
  -1   0   4  989.10   66.19
  -1   0   4 1035.10   66.99
  -1   0   4 1015.60   66.19
   0   0  -4 3223.48  202.08
   0   0   4 3176.98  201.78
   0   0   4 3193.88  203.28
   0   0   4 3051.99  202.38
   0   0   4 3111.89  201.58
   1   0   4   84.99    7.50
   1   0   4   84.09    6.00
   1   0   4   78.29    5.90
  -1   0  -4   87.69    5.50
   1   0   4   83.79    6.90
   1   0   4   86.59    7.20
  -1   0  -4   85.59    5.50
   2   0   4 2241.08  135.79
   2   0   4 2262.57  137.99
   2   0   4 1855.71  136.69
   2   0   4 1951.90  135.99
  -2   0  -4 1975.10  135.29
   2   0   4 2177.38  135.79
  -2   0  -4 2183.38  135.49
   2   0   4 2458.55  137.19
   2   0   4 2036.30  135.59
  -3   0  -4  176.28   14.00
   3   0   4  170.48   14.20
   3   0   4  185.98   13.10
   3   0   4  167.48   12.70
   3   0   4  186.78   15.20
  -3   0  -4  222.68   13.30
   3   0   4  180.28   13.10
   3   0   4  179.48   13.20
  -3   0  -4  171.38   12.60
   3   0   4  176.98   12.80
   4   0   4  275.57   20.80
   4   0   4  272.87   20.20
  -4   0  -4  284.47   21.50
   4   0   4  297.17   20.70
   4   0   4  329.37   22.50
   4   0   4  288.27   20.40
   4   0   4  273.47   21.20
   4   0   4  284.27   19.10
   4   0   4  283.77   22.60
   4   0   4  298.07   20.70
   5   0   4   29.30    5.10
   5   0   4   42.00    5.10
   5   0   4   29.00    4.20
   5   0   4   30.80    4.20
   5   0   4   35.00    4.80
   5   0   4   33.60    6.20
  -5   0  -4   30.40    4.10
   5   0   4   26.20    5.70
  -5   0  -4   33.30    4.80
   6   0   4    5.60    2.70
   6   0   4    6.30    3.00
   6   0   4    6.10    3.20
   6   0   4    9.70    3.10
   6   0   4    9.30    3.60
   7   0   4  177.48   18.30
   7   0   4  254.37   20.90
   7   0   4  205.18   18.20
   7   0   4  203.88   17.60
   7   0   4  242.98   18.00
   8   0   4  545.55   38.50
   8   0   4  511.45   38.40
   9  -1  -4  158.48   15.00
  -9  -1   4  140.89   14.00
   9  -1  -4  139.69   13.70
   9  -1  -4  136.89   15.50
   9  -1  -4  141.09   14.60
  -9  -1   4  140.99   14.50
   9   1  -4  172.28   15.40
  -9   1   4  130.29   13.90
   9   1  -4  115.89   13.80
   9   1  -4  126.29   13.80
   9   1  -4  126.99   13.00
  -9   1   4  164.18   14.40
  -8  -1   4  141.69   14.90
   8  -1  -4  150.98   15.00
   8  -1  -4  148.39   14.00
  -8  -1   4  186.28   14.80
   8  -1  -4  170.68   15.20
  -8  -1   4  125.59   13.80
   8  -1  -4  135.99   14.50
   8  -1  -4  186.88   16.70
   8   1  -4  155.78   14.60
   8   1  -4  130.79   12.90
   8   1  -4  156.98   14.30
   8   1  -4  137.69   14.60
  -8   1   4  142.19   14.20
  -8   1   4  141.69   14.90
  -8   1   4  134.89   13.50
  -7  -1   4  207.18   14.50
  -7  -1   4  228.38   19.20
   7  -1  -4  194.98   16.10
   7  -1  -4  179.28   16.60
  -7  -1   4  181.98   16.60
   7  -1  -4  217.68   18.50
  -7  -1   4  175.08   16.70
  -7  -1   4  183.48   18.70
   7  -1  -4  208.48   17.30
   7  -1  -4  187.78   16.50
  -7   1   4  170.88   16.30
   7   1  -4  187.98   16.80
   7   1  -4  208.68   16.90
   7   1  -4  180.58   15.50
  -7   1   4  203.18   16.90
  -7   1   4  195.78   18.20
   7   1  -4  168.78   16.10
  -7   1   4  197.08   15.70
  -7   1   4  185.88   14.40
   6  -1  -4  530.45   39.90
   6  -1  -4  554.64   39.20
  -6  -1   4  567.74   39.70
   6  -1  -4  541.65   39.00
  -6  -1   4  573.14   39.50
  -6   1   4  575.54   38.70
  -6   1   4  543.65   41.30
   6   1  -4  550.04   38.60
  -6   1   4  629.24   40.40
   6   1  -4  548.75   40.10
   6   1  -4  549.25   39.60
  -6   1   4  570.84   38.10
   6   1  -4  524.85   39.50
   5  -1  -4 1495.25  103.49
  -5  -1   4 1584.74  103.69
  -5  -1   4 1531.25  105.09
  -5  -1   4 1588.04  103.09
  -5  -1   4 1563.04  103.49
   5  -1  -4 1778.02  106.49
   5  -1  -4 1552.54  102.89
   5  -1  -4 1608.24  102.89
   5  -1  -4 1563.14  103.19
  -5  -1   4 1524.95  103.39
  -5  -1   4 1524.65  105.09
  -5   1   4 1586.74  101.79
   5   1  -4 1534.05  101.99
  -5   1   4 1607.34  101.29
  -5   1   4 1626.64  101.69
   5   1  -4 1551.94  102.29
   5   1  -4 1515.85  102.29
  -5   1   4 1532.45  102.39
   5   1  -4 1529.25  102.49
   5   1  -4 1539.05  102.19
  -5   1   4 1491.25  102.49
   5   1  -4 1597.64  102.89
  -5   1   4 1582.74  101.89
  -5   1   4 1593.84  104.69
  -4  -1   4   21.60    4.20
   4  -1  -4   15.60    3.60
  -4  -1   4   15.70    4.20
  -4  -1   4   15.50    3.60
   4  -1  -4   17.80    3.70
  -4  -1   4   16.20    3.30
   4  -1  -4   23.20    3.70
   4  -1  -4   16.70    3.20
  -4  -1   4   20.40    3.80
   4  -1  -4   14.50    3.00
  -4  -1   4   13.80    3.30
   4  -1  -4   25.20    3.90
  -4  -1   4   18.60    3.40
   4  -1  -4   16.60    3.60
   4  -1  -4   24.00    3.80
  -4  -1   4   15.30    3.20
  -4   1   4   15.90    3.50
  -4   1   4   17.40    4.30
  -4   1   4   19.20    4.10
   4   1  -4   18.60    2.60
  -4   1   4   25.30    4.20
  -4   1   4   19.40    2.80
  -4   1   4   18.30    3.20
   4   1  -4   18.20    3.60
  -4   1   4   18.70    3.30
   4   1  -4   29.40    4.40
  -4   1   4   26.00    3.30
  -4   1   4   22.30    3.60
   4   1  -4   24.00    4.00
   4   1  -4   24.10    3.90
   4   1  -4   17.90    3.80
  -4   1   4   18.50    3.80
   4   1  -4   28.20    4.40
   4   1  -4   22.00    3.70
   4   1  -4   19.40    3.70
  -3  -1   4 1502.35   98.39
   3  -1  -4 1510.15   98.29
  -3  -1   4 1519.05   98.79
  -3  -1   4 1537.35  100.09
   3  -1  -4 1566.84   99.29
   3  -1  -4 1545.55   98.49
   3  -1  -4 1505.35   98.99
   3  -1  -4 1525.85   99.39
   3  -1  -4 1476.35   98.49
  -3  -1   4 1466.55   98.59
   3  -1  -4 1507.55   98.29
  -3  -1   4 1580.54   98.69
  -3  -1   4 1565.44   99.49
  -3  -1   4 1466.15   99.29
  -3  -1   4 1525.45   98.49
   3   1  -4 1527.55  104.69
   3   1  -4 1606.64  103.89
  -3   1   4 1607.74  103.09
   3   1  -4 1543.15  103.99
  -3   1   4 1706.93  103.79
  -3   1   4 1501.55  103.69
   3   1  -4 1643.54  102.49
   3   1  -4 1553.84  103.49
  -3   1   4 1597.84  103.79
   3   1  -4 1580.74  103.99
  -3   1   4 1499.75  104.69
   3   1  -4 1580.14  103.79
  -3   1   4 1696.63  104.39
  -3   1   4 1641.74  104.79
   3   1  -4 1785.42  103.99
  -2  -1   4  393.86   29.20
   2  -1  -4  423.16   29.10
  -2  -1   4  411.66   29.40
   2  -1  -4  411.36   29.10
   2  -1  -4  411.86   27.90
  -2  -1   4  491.95   28.70
  -2  -1   4  434.36   28.70
   2  -1  -4  419.76   28.30
   2  -1  -4  433.96   29.30
   2  -1  -4  389.26   27.60
   2  -1  -4  409.86   28.40
  -2  -1   4  446.86   28.70
  -2  -1   4  423.86   28.70
   2  -1  -4  422.36   28.30
  -2  -1   4  431.66   28.30
  -2   1   4  442.26   30.60
   2   1  -4  412.66   29.70
  -2   1   4  492.25   30.10
   2   1  -4  472.05   29.80
   2   1  -4  433.26   30.30
  -2   1   4  446.56   28.90
   2   1  -4  444.16   29.60
  -2   1   4  429.76   29.80
  -2   1   4  419.76   30.30
  -2   1   4  440.26   30.40
   2   1  -4  418.26   30.40
   2   1  -4  470.65   29.50
   1  -1  -4 2071.49  133.29
   1  -1  -4 2090.79  134.59
  -1  -1   4 2144.69  133.59
   1  -1  -4 2082.49  133.59
   1  -1  -4 2111.79  134.49
  -1  -1   4 2204.68  133.49
   1  -1  -4 1989.50  133.69
  -1  -1   4 2055.69  134.49
  -1  -1   4 2000.40  134.49
  -1  -1   4 2062.49  134.69
  -1  -1   4 2188.18  134.89
   1  -1  -4 2084.49  133.39
  -1   1   4 2155.18  135.79
  -1   1   4 2075.59  135.69
  -1   1   4 2327.27  136.59
  -1   1   4 2152.68  135.79
   1   1  -4 1953.80  135.69
   1   1  -4 2198.58  136.69
  -1   1   4 2098.39  136.89
   1   1  -4 2137.99  135.59
  -1   1   4 2071.59  136.39
  -1   1   4 2088.39  135.89
   0  -1  -4 2749.52  175.78
   0  -1   4 2785.52  176.88
   0  -1  -4 2666.63  176.48
   0  -1   4 2874.71  177.18
   0  -1   4 2653.33  176.48
   0  -1   4 2753.32  177.28
   0  -1  -4 2834.02  177.08
   0   1   4 2964.00  177.98
   0   1   4 2612.34  177.18
   0   1   4 3089.39  177.28
   0   1   4 2644.64  176.38
   0   1   4 2579.04  175.98
   0   1   4 2598.94  177.58
   0   1   4 2734.23  175.78
   1  -1   4 1991.70  124.89
   1  -1   4 1888.71  125.99
   1  -1   4 1943.41  124.79
  -1  -1  -4 2008.10  124.59
  -1  -1  -4 1956.00  124.49
  -1  -1  -4 1911.61  124.89
   1   1   4 1883.71  123.59
   1   1   4 1758.72  124.89
   1   1   4 2203.18  123.29
   1   1   4 1730.23  123.69
   1   1   4 1893.51  124.89
   1   1   4 2108.89  123.29
   2  -1   4  327.07   23.80
  -2  -1  -4  336.47   23.00
  -2  -1  -4  310.57   22.20
   2  -1   4  365.76   23.60
   2  -1   4  339.97   21.80
   2  -1   4  309.97   22.70
   2  -1   4  332.67   21.90
   2   1   4  412.96   24.30
   2   1   4  359.06   23.90
   2   1   4  315.47   25.40
   2   1   4  336.77   24.10
  -2   1  -4  350.56   22.90
   2   1   4  381.16   24.10
  -2   1  -4  367.96   23.10
   2   1   4  335.77   23.70
   2   1   4  336.67   24.70
  -3  -1  -4  602.74   41.50
   3  -1   4  605.04   40.30
  -3  -1  -4  620.64   41.10
   3  -1   4  600.64   40.60
  -3  -1  -4  605.64   40.60
   3  -1   4  621.34   42.00
   3  -1   4  627.74   42.20
   3  -1   4  652.03   40.10
   3  -1   4  589.84   40.40
   3   1   4  553.24   38.60
   3   1   4  592.24   39.90
  -3   1  -4  581.84   37.60
   3   1   4  553.04   38.60
  -3   1  -4  615.24   40.30
  -3   1  -4  600.54   38.00
   3   1   4  557.84   38.40
   3   1   4  570.44   38.70
   3   1   4  589.24   40.80
   4  -1   4  183.48   13.80
   4  -1   4  205.58   13.60
   4  -1   4  168.98   13.40
   4  -1   4  162.48   13.60
   4  -1   4  203.98   13.30
  -4  -1  -4  168.78   13.90
   4  -1   4  204.38   13.90
  -4  -1  -4  177.98   14.20
   4  -1   4  183.78   16.00
   4  -1   4  170.98   15.00
   4   1   4  187.78   15.50
   4   1   4  178.08   14.60
   4   1   4  175.98   14.50
  -4   1  -4  181.58   13.60
  -4   1  -4  238.68   16.90
   4   1   4  221.78   15.10
   4   1   4  172.18   16.30
   4   1   4  228.78   15.30
   4   1   4  190.28   16.10
  -4   1  -4  190.68   14.10
   4   1   4  178.78   14.80
   5  -1   4  232.98   16.20
   5  -1   4  236.48   19.30
   5  -1   4  213.78   17.60
   5  -1   4  231.18   17.50
   5  -1   4  280.17   20.10
   5  -1   4  230.18   20.20
   5  -1   4  267.37   18.00
  -5  -1  -4  219.08   17.80
  -5  -1  -4  271.17   18.70
   5  -1   4  229.58   17.50
   5   1   4  235.68   18.60
   5   1   4  226.78   20.80
   5   1   4  241.18   19.50
   5   1   4  250.97   19.10
   5   1   4  281.17   19.40
   5   1   4  249.68   19.00
   5   1   4  265.27   20.70
   6  -1   4  298.47   20.70
   6  -1   4  253.27   22.50
   6  -1   4  279.57   22.30
   6  -1   4  258.67   21.50
   6  -1   4  252.37   20.00
   6   1   4  282.87   21.60
   6   1   4  268.37   22.70
   6   1   4  267.47   21.40
   6   1   4  295.27   21.70
   7  -1   4   46.20    6.10
   7  -1   4   50.59    8.50
   7  -1   4   50.49    6.80
   7  -1   4   52.29    7.80
   7  -1   4   34.60    7.50
   7   1   4   48.50    8.50
   7   1   4   46.90    6.90
   7   1   4   52.69    7.10
   7   1   4   73.69    9.90
   7   1   4   45.40    7.30
   8  -1   4  161.48   14.00
   8  -1   4  126.09   13.00
   8  -1   4  132.79   14.30
   8   1   4  122.69   12.80
   9  -2  -4   49.50    9.40
   9  -2  -4   45.70    7.80
   9  -2  -4   58.69    8.70
  -9  -2   4   60.49    9.10
   9  -2  -4   60.49    9.40
   9  -2  -4   56.59    8.80
  -9  -2   4   46.00    8.60
  -9   2   4   68.79    8.80
   9   2  -4   52.29    8.10
   9   2  -4   62.29   10.30
   9   2  -4   58.59    9.40
   9   2  -4   51.69    9.10
   8  -2  -4  526.45   40.40
  -8  -2   4  563.24   41.30
   8  -2  -4  528.35   40.00
  -8  -2   4  521.15   39.90
   8  -2  -4  584.74   42.30
  -8  -2   4  532.95   40.50
   8  -2  -4  671.23   41.80
  -8   2   4  545.05   42.30
  -8   2   4  556.64   40.80
   8   2  -4  564.14   40.10
  -8   2   4  570.94   40.50
   8   2  -4  555.74   41.70
   8   2  -4  564.34   41.30
   7  -2  -4   34.90    6.20
  -7  -2   4   34.30    7.00
   7  -2  -4   37.50    6.40
   7  -2  -4   38.60    7.00
  -7  -2   4   46.20    4.70
   7  -2  -4   45.40    6.50
  -7  -2   4   36.30    8.70
  -7  -2   4   39.90    6.60
  -7  -2   4   34.90    6.50
  -7   2   4   34.40    6.40
  -7   2   4   31.50    4.80
  -7   2   4   34.50    7.10
   7   2  -4   27.10    5.00
   7   2  -4   37.40    6.80
   7   2  -4   31.00    6.30
   7   2  -4   34.50    6.30
  -7   2   4   35.00    5.10
  -7   2   4   29.90    6.00
   6  -2  -4  183.68   15.70
  -6  -2   4  178.28   17.30
   6  -2  -4  186.18   16.70
  -6  -2   4  179.48   16.00
  -6  -2   4  191.28   17.30
   6  -2  -4  171.68   15.40
   6  -2  -4  180.18   15.30
  -6  -2   4  213.78   14.40
  -6   2   4  164.98   13.80
   6   2  -4  180.58   14.40
   6   2  -4  163.68   15.20
   6   2  -4  172.28   15.50
  -6   2   4  181.18   13.70
  -6   2   4  226.48   16.10
   6   2  -4  180.28   15.10
  -6   2   4  168.58   16.40
  -6   2   4  171.18   15.10
  -5  -2   4   52.29    6.80
   5  -2  -4   78.19    8.50
  -5  -2   4   58.69    8.00
   5  -2  -4   55.99    6.30
  -5  -2   4   58.39    7.50
  -5  -2   4   53.39    6.70
   5  -2  -4   59.09    7.30
   5  -2  -4   55.69    6.80
  -5  -2   4   54.99    7.10
   5  -2  -4   58.99    6.60
   5  -2  -4   57.79    6.60
  -5   2   4   63.29    5.90
   5   2  -4   51.99    6.90
  -5   2   4   57.69    6.00
   5   2  -4   50.29    6.70
  -5   2   4   52.19    6.80
   5   2  -4   55.59    5.90
  -5   2   4   50.49    6.40
   5   2  -4   57.89    7.00
  -5   2   4   54.29    5.70
   5   2  -4   62.19    6.50
  -5   2   4   63.89    8.70
   5   2  -4   52.79    6.70
  -4  -2   4  253.07   19.60
   4  -2  -4  262.77   18.80
  -4  -2   4  260.97   19.40
   4  -2  -4  250.67   19.80
  -4  -2   4  255.87   19.60
   4  -2  -4  262.07   19.30
  -4  -2   4  264.77   20.00
   4  -2  -4  268.77   20.40
  -4  -2   4  276.07   19.50
   4  -2  -4  252.67   18.90
  -4  -2   4  260.77   20.20
  -4  -2   4  274.87   21.30
   4  -2  -4  260.67   19.30
   4  -2  -4  237.48   19.50
  -4  -2   4  268.77   19.70
  -4   2   4  242.98   18.80
   4   2  -4  235.78   19.00
   4   2  -4  257.67   19.50
   4   2  -4  271.47   18.40
  -4   2   4  248.18   19.10
   4   2  -4  275.27   19.90
  -4   2   4  260.07   18.90
   4   2  -4  243.08   20.00
  -4   2   4  246.38   20.00
   4   2  -4  248.48   19.10
  -4   2   4  284.07   18.70
  -4   2   4  246.88   19.20
  -4   2   4  256.27   18.20
  -4   2   4  290.87   20.60
  -4   2   4  251.57   18.80
   4   2  -4  261.57   19.80
  -4   2   4  269.17   20.40
   4   2  -4  252.77   19.30
   3  -2  -4  271.37   19.40
  -3  -2   4  271.97   19.60
  -3  -2   4  268.07   20.50
   3  -2  -4  275.87   19.30
   3  -2  -4  272.87   20.30
   3  -2  -4  254.77   20.00
   3  -2  -4  271.37   18.60
   3  -2  -4  271.37   19.50
  -3  -2   4  266.97   19.50
   3  -2  -4  269.47   19.20
  -3  -2   4  255.07   19.60
   3  -2  -4  263.47   19.30
   3  -2  -4  262.87   19.70
  -3  -2   4  273.07   18.40
  -3  -2   4  305.07   20.10
  -3   2   4  291.47   21.30
  -3   2   4  273.97   20.30
  -3   2   4  280.47   20.20
   3   2  -4  281.17   20.30
   3   2  -4  283.17   21.10
  -3   2   4  285.37   20.30
   3   2  -4  296.77   19.30
  -3   2   4  272.67   21.00
  -3   2   4  289.27   19.20
   3   2  -4  285.47   20.40
   3   2  -4  282.67   20.90
  -3   2   4  269.27   20.40
   3   2  -4  280.97   20.70
  -3   2   4  295.67   20.10
   3   2  -4  277.47   20.20
  -2  -2   4 4578.24  306.47
  -2  -2   4 5209.18  307.67
   2  -2  -4 4706.03  303.47
   2  -2  -4 4935.01  302.97
   2  -2  -4 4390.06  302.77
  -2  -2   4 4738.63  302.97
   2  -2  -4 4503.95  302.77
   2  -2  -4 4606.04  303.47
  -2  -2   4 4520.75  303.07
   2  -2  -4 4638.84  302.87
  -2  -2   4 5273.07  303.27
   2  -2  -4 5192.98  305.27
  -2  -2   4 4527.85  303.37
   2   2  -4 4554.04  289.97
   2   2  -4 4608.34  290.37
   2   2  -4 4402.66  292.57
  -2   2   4 4966.70  290.17
  -2   2   4 4474.45  289.17
   2   2  -4 4610.94  289.47
   2   2  -4 4687.63  289.47
   2   2  -4 4483.25  290.57
  -2   2   4 4509.65  290.27
   2   2  -4 4373.66  291.57
  -2   2   4 4396.06  289.47
  -2   2   4 4382.86  290.07
  -2   2   4 4567.84  293.07
  -2   2   4 4514.65  289.37
  -1  -2   4  354.26   24.70
  -1  -2   4  382.16   24.60
   1  -2  -4  392.56   25.00
   1  -2  -4  355.56   25.00
  -1  -2   4  358.46   25.90
  -1  -2   4  339.17   24.40
  -1  -2   4  431.06   24.20
  -1  -2   4  368.66   25.60
   1  -2  -4  370.16   24.80
  -1  -2   4  362.66   25.40
   1  -2  -4  391.06   25.90
  -1  -2   4  331.17   24.50
   1  -2  -4  343.77   24.50
   1   2  -4  334.97   24.90
  -1   2   4  376.56   24.50
  -1   2   4  371.56   24.70
  -1   2   4  382.26   24.40
  -1   2   4  366.56   24.20
  -1   2   4  334.77   24.20
  -1   2   4  355.06   24.60
   1   2  -4  347.37   24.00
   1   2  -4  361.26   23.90
  -1   2   4  337.87   25.00
  -1   2   4  361.56   25.00
   0  -2  -4  980.30   60.09
   0  -2  -4 1052.19   58.49
   0  -2   4  843.32   58.49
   0  -2   4  868.01   59.29
   0  -2   4  889.61   58.29
   0  -2   4  842.72   59.79
   0  -2   4  877.81   59.89
   0  -2   4  903.61   58.39
   0  -2   4 1023.60   58.69
   0  -2  -4 1017.00   59.09
   0  -2  -4  867.81   58.69
   0  -2  -4  846.82   58.49
   0  -2  -4  809.42   59.99
   0   2   4  865.01   56.99
   0   2   4  886.81   56.79
   0   2   4  830.12   56.69
   0   2   4  813.42   57.79
   0   2  -4  973.80   56.09
   0   2   4  851.91   57.09
   0   2   4  893.41   56.39
   0   2   4  851.21   57.69
   0   2  -4  865.91   55.89
   0   2  -4  883.81   57.49
   0   2   4  877.51   56.19
  -1  -2  -4  365.26   26.40
   1  -2   4  386.56   28.10
   1  -2   4  424.86   25.70
  -1  -2  -4  376.76   27.60
  -1  -2  -4  405.76   25.50
   1  -2   4  412.76   25.50
  -1  -2  -4  370.46   26.60
  -1  -2  -4  390.86   26.40
   1  -2   4  355.16   26.80
  -1  -2  -4  407.06   25.50
   1  -2   4  426.16   27.50
   1   2   4  394.36   27.50
  -1   2  -4  404.96   26.10
   1   2   4  430.66   27.80
   1   2   4  435.56   27.60
   1   2   4  429.96   26.40
   1   2   4  404.66   27.50
   1   2   4  381.46   28.60
  -1   2  -4  418.26   26.10
   1   2   4  379.46   27.40
   1   2   4  411.86   29.00
   1   2   4  379.96   27.50
   1   2   4  419.16   26.40
   2  -2   4 1038.10   61.09
   2  -2   4  830.62   61.29
  -2  -2  -4  892.01   61.09
   2  -2   4 1057.39   59.99
   2  -2   4  991.90   59.99
  -2  -2  -4  950.10   60.99
  -2  -2  -4  871.41   62.29
   2  -2   4  897.31   59.59
   2  -2   4  906.71   59.59
  -2  -2  -4  872.81   60.79
   2   2   4  820.52   56.79
   2   2   4  850.51   56.59
   2   2   4  852.11   56.49
  -2   2  -4  932.51   55.19
   2   2   4  850.51   57.99
   2   2   4  861.61   55.09
   2   2   4  818.62   56.39
   2   2   4  839.12   56.39
  -2   2  -4  940.51   55.09
   2   2   4  805.92   57.69
  -3  -2  -4 1560.24   88.89
  -3  -2  -4 1542.25   89.29
   3  -2   4 1181.48   88.99
   3  -2   4 1145.29   87.39
   3  -2   4 1290.67   87.39
   3  -2   4 1169.38   87.59
   3  -2   4 1333.87   87.59
   3  -2   4 1392.36   90.19
   3  -2   4 1251.57   87.39
   3  -2   4 1578.54   88.89
  -3  -2  -4 1568.74   88.69
  -3   2  -4 1406.66   81.19
  -3   2  -4 1251.37   83.99
   3   2   4 1240.68   82.39
   3   2   4 1219.98   82.39
   3   2   4 1209.18   83.39
   3   2   4 1180.88   82.19
  -3   2  -4 1396.16   80.89
   3   2   4 1157.68   82.89
   3   2   4 1168.18   83.89
   3   2   4 1197.58   82.29
   3   2   4 1355.36   81.29
   3   2   4 1306.37   80.99
   4  -2   4  177.18   14.50
   4  -2   4  180.28   14.20
   4  -2   4  234.08   15.30
   4  -2   4  214.18   15.00
   4  -2   4  199.98   15.00
   4  -2   4  177.08   16.20
  -4  -2  -4  237.98   15.30
  -4  -2  -4  246.38   16.10
   4  -2   4  192.58   14.60
   4  -2   4  186.88   16.80
   4   2   4  202.48   16.00
   4   2   4  198.98   17.00
   4   2   4  194.58   16.00
   4   2   4  225.18   16.40
   4   2   4  223.18   15.30
  -4   2  -4  189.18   14.80
   4   2   4  228.48   18.30
   4   2   4  214.28   17.30
  -5  -2  -4  179.78   14.80
   5  -2   4  198.58   13.70
   5  -2   4  184.58   16.20
  -5  -2  -4  175.08   14.20
   5  -2   4  171.78   14.10
   5  -2   4  216.48   14.50
   5  -2   4  189.98   14.70
   5  -2   4  190.28   13.20
   5   2   4  195.58   15.50
   5   2   4  181.08   14.30
  -5   2  -4  193.38   14.20
   5   2   4  183.08   15.10
   5   2   4  180.38   16.40
   5   2   4  188.58   15.40
   6  -2   4  412.46   27.70
   6  -2   4  328.37   24.90
   6  -2   4  317.97   26.70
   6  -2   4  351.56   25.10
   6  -2   4  322.37   27.40
   6   2   4  333.27   25.80
   6   2   4  376.66   25.20
   6   2   4  318.87   27.10
   6   2   4  368.76   26.40
   6   2   4  310.77   27.40
   7  -2   4   89.89   11.30
   7  -2   4  108.19   10.00
   7  -2   4  100.29    9.60
   7  -2   4   87.09   11.10
   7  -2   4   86.79   10.70
   7   2   4  115.09   11.90
   7   2   4  126.09   13.40
   7   2   4  119.89   13.70
   7   2   4   91.29   10.60
   8  -2   4  125.59   12.90
   8  -2   4  139.89   14.60
   8   2   4  160.58   15.70
  -9  -3   4  360.76   28.60
   9  -3  -4  338.07   29.50
  -9  -3   4  409.36   30.10
   9  -3  -4  345.37   28.40
   9  -3  -4  350.16   28.50
   9   3  -4  349.17   31.70
   9   3  -4  484.05   33.50
  -9   3   4  352.06   30.40
   9   3  -4  493.15   34.30
   8  -3  -4   79.39    9.50
  -8  -3   4   81.99   10.50
  -8  -3   4   77.39    9.50
   8  -3  -4   79.69    9.60
   8  -3  -4   69.79    9.20
  -8  -3   4   84.39   10.20
  -8   3   4  103.29   11.00
   8   3  -4  104.89   11.40
  -8   3   4   70.79    9.60
   8   3  -4   72.89   10.20
   8   3  -4  108.59   12.20
  -8   3   4   78.09   11.10
   7  -3  -4  220.78   19.10
  -7  -3   4  235.18   19.80
   7  -3  -4  211.18   18.70
   7  -3  -4  231.18   19.30
   7  -3  -4  243.68   20.80
  -7  -3   4  271.87   22.40
  -7  -3   4  233.08   17.20
  -7   3   4  255.07   22.50
   7   3  -4  234.28   21.90
   7   3  -4  268.87   22.00
  -7   3   4  296.57   21.80
   7   3  -4  247.18   20.60
   7   3  -4  228.48   21.10
  -7   3   4  330.77   22.50
   6  -3  -4   44.20    6.90
   6  -3  -4   40.80    6.60
   6  -3  -4   46.80    6.00
  -6  -3   4   45.40    6.70
  -6  -3   4   47.80    5.40
  -6  -3   4   44.20    8.90
   6  -3  -4   41.40    6.50
  -6  -3   4   52.69    8.10
  -6  -3   4   53.09    6.90
   6   3  -4   58.49    6.80
   6   3  -4   69.69    7.20
  -6   3   4   64.49    9.30
  -6   3   4   49.30    6.70
   6   3  -4   48.00    7.80
  -6   3   4   50.49    5.30
   6   3  -4   51.59    7.50
  -6   3   4   43.90    6.40
   6   3  -4   46.00    6.70
  -5  -3   4  132.69   12.10
   5  -3  -4  136.49   11.80
   5  -3  -4  127.99   11.30
  -5  -3   4  118.69   11.40
   5  -3  -4  121.69   11.10
   5  -3  -4  139.19   12.70
  -5  -3   4  120.79   10.40
  -5  -3   4  115.69   12.30
   5  -3  -4  129.99   11.30
   5  -3  -4  125.39   10.80
  -5  -3   4  116.89   11.50
   5   3  -4  134.69   11.10
   5   3  -4  126.99   12.10
  -5   3   4  141.19   11.60
   5   3  -4  137.79   11.10
  -5   3   4  125.09   10.20
  -5   3   4  128.29   13.00
  -5   3   4  125.59   11.80
   5   3  -4  124.89   12.40
  -5   3   4  135.49   12.00
   5   3  -4  133.19   12.20
   4  -3  -4  401.16   26.20
  -4  -3   4  352.96   26.40
  -4  -3   4  363.26   26.70
   4  -3  -4  386.86   27.50
  -4  -3   4  338.67   26.60
   4  -3  -4  338.47   26.90
   4  -3  -4  332.77   25.90
  -4  -3   4  389.66   27.30
  -4  -3   4  359.56   27.40
   4  -3  -4  358.86   26.10
  -4  -3   4  357.66   27.60
  -4  -3   4  359.56   27.90
  -4  -3   4  366.06   25.90
  -4  -3   4  349.47   26.70
   4  -3  -4  385.76   26.20
   4  -3  -4  357.46   26.20
   4  -3  -4  364.66   25.40
  -4  -3   4  423.96   25.60
   4  -3  -4  354.06   26.10
  -4   3   4  328.87   25.60
  -4   3   4  362.76   26.80
  -4   3   4  345.07   26.90
   4   3  -4  407.76   25.00
   4   3  -4  344.07   25.70
   4   3  -4  348.27   25.90
   4   3  -4  324.07   26.50
  -4   3   4  337.97   25.90
   4   3  -4  361.66   25.10
  -4   3   4  345.57   26.60
   4   3  -4  356.86   26.70
   4   3  -4  419.66   26.60
  -4   3   4  350.66   25.30
   4   3  -4  337.57   26.30
  -4   3   4  352.16   25.70
   4   3  -4  431.16   26.90
   3  -3  -4  497.45   33.90
   3  -3  -4  526.65   35.00
  -3  -3   4  577.54   34.60
   3  -3  -4  504.35   35.90
   3  -3  -4  528.15   35.30
  -3  -3   4  507.65   36.60
   3  -3  -4  524.65   35.40
  -3  -3   4  527.35   35.90
  -3  -3   4  515.05   35.30
   3  -3  -4  471.35   34.90
   3  -3  -4  501.45   35.90
  -3  -3   4  505.95   35.30
  -3  -3   4  481.65   36.40
  -3  -3   4  506.25   35.30
   3   3  -4  524.15   37.20
   3   3  -4  525.75   38.00
   3   3  -4  596.14   35.50
  -3   3   4  497.55   36.90
  -3   3   4  515.95   37.50
  -3   3   4  517.85   38.00
   3   3  -4  531.25   36.20
  -3   3   4  529.45   36.90
  -3   3   4  550.94   37.30
  -3   3   4  604.04   37.30
   3   3  -4  570.14   37.20
   3   3  -4  529.95   36.70
  -2  -3   4 1304.27   86.39
   2  -3  -4 1256.07   85.09
   2  -3  -4 1334.37   85.19
   2  -3  -4 1308.97   84.99
  -2  -3   4 1480.15   85.39
   2  -3  -4 1242.28   84.59
   2  -3  -4 1305.97   84.79
  -2  -3   4 1288.27   85.59
  -2  -3   4 1272.07   85.29
  -2  -3   4 1232.78   84.89
   2  -3  -4 1330.27   85.79
  -2  -3   4 1367.86   85.09
   2  -3  -4 1322.97   83.39
   2  -3  -4 1298.47   85.29
  -2  -3   4 1268.17   85.49
   2  -3  -4 1248.48   84.59
  -2   3   4 1311.17   87.69
   2   3  -4 1297.77   88.69
  -2   3   4 1336.47   87.59
  -2   3   4 1282.17   88.49
  -2   3   4 1303.97   87.79
   2   3  -4 1228.88   87.79
   2   3  -4 1594.14   87.59
   2   3  -4 1364.06   87.89
  -2   3   4 1307.27   87.69
  -2   3   4 1401.36   88.19
   2   3  -4 1333.97   87.19
   2   3  -4 1331.67   87.69
  -2   3   4 1433.36   88.19
  -1  -3   4 1195.18   73.29
  -1  -3   4 1114.79   74.79
  -1  -3   4 1120.49   74.49
  -1  -3   4 1152.28   74.59
  -1  -3   4 1210.98   73.49
   1  -3  -4 1209.28   73.39
  -1  -3   4 1160.78   74.69
   1  -3  -4 1169.98   74.89
   1  -3  -4 1101.99   75.49
  -1  -3   4 1133.39   74.59
   1  -3  -4 1124.89   74.59
  -1  -3   4 1195.68   74.99
  -1  -3   4 1123.29   75.49
   1  -3  -4 1095.79   74.39
   1  -3  -4 1105.79   74.59
  -1  -3   4 1140.79   76.09
   1   3  -4 1194.88   72.79
   1   3  -4 1227.48   72.79
  -1   3   4 1096.09   74.09
  -1   3   4 1086.49   74.49
  -1   3   4 1088.09   75.09
  -1   3   4 1139.39   73.99
   1   3  -4 1111.69   73.79
  -1   3   4 1024.30   73.99
  -1   3   4 1137.59   73.89
  -1   3   4 1117.79   74.09
   1   3  -4 1146.99   73.79
   1   3  -4 1317.57   75.29
  -1   3   4 1083.99   74.39
   0  -3  -4  549.54   37.00
   0  -3  -4  558.64   37.00
   0  -3  -4  560.34   38.00
   0  -3  -4  530.95   36.10
   0  -3  -4  546.65   36.70
   0  -3   4  571.54   36.80
   0  -3  -4  574.64   38.40
   0  -3   4  555.74   36.70
   0  -3   4  540.95   37.90
   0  -3   4  590.94   36.40
   0  -3   4  542.45   36.60
   0  -3   4  544.35   37.90
   0  -3   4  547.85   36.40
   0   3  -4  681.53   39.10
   0   3   4  579.04   38.80
   0   3   4  599.64   40.80
   0   3   4  575.24   40.50
   0   3   4  590.94   39.90
   0   3   4  594.34   38.60
   0   3   4  575.84   39.60
   0   3   4  577.14   39.70
   0   3   4  564.34   39.80
  -1  -3  -4  226.28   14.40
  -1  -3  -4  168.98   13.10
   1  -3   4  163.98   13.80
   1  -3   4  191.28   12.70
  -1  -3  -4  176.58   13.60
   1  -3   4  179.28   12.90
   1  -3   4  201.38   13.10
   1  -3   4  205.88   14.60
   1  -3   4  174.08   12.60
   1  -3   4  191.28   12.50
   1  -3   4  163.98   14.80
  -1  -3  -4  177.08   13.00
  -1  -3  -4  171.98   13.10
   1   3   4  173.28   12.80
   1   3   4  159.98   13.90
   1   3   4  162.78   12.90
  -1   3  -4  184.58   11.80
   1   3   4  156.78   13.50
   1   3   4  160.68   12.50
   1   3   4  164.18   12.80
  -1   3  -4  175.18   13.30
  -1   3  -4  174.78   11.60
   1   3   4  164.48   12.90
   1   3   4  165.08   12.90
  -2  -3  -4   15.80    2.20
   2  -3   4   14.70    2.60
   2  -3   4   18.60    3.50
   2  -3   4   13.00    2.10
  -2  -3  -4   13.70    2.20
   2  -3   4   15.30    2.10
  -2  -3  -4   12.20    2.60
  -2  -3  -4   13.90    3.00
  -2  -3  -4   12.70    2.80
   2  -3   4   18.30    2.10
  -2  -3  -4   14.00    3.70
   2  -3   4   14.20    1.90
   2  -3   4   11.40    3.50
   2   3   4   12.30    2.90
  -2   3  -4   13.80    1.80
  -2   3  -4   14.70    1.90
   2   3   4   12.70    3.50
   2   3   4   14.70    3.90
   2   3   4   14.30    3.00
   2   3   4   13.40    3.00
   2   3   4   12.50    2.40
   2   3   4   17.30    3.30
  -2   3  -4   16.30    3.20
   2   3   4   12.50    2.90
   2   3   4    8.60    2.80
   3  -3   4  237.68   16.20
  -3  -3  -4  210.08   17.10
   3  -3   4  216.68   18.70
   3  -3   4  241.68   16.40
   3  -3   4  210.78   17.30
   3  -3   4  249.08   16.40
   3  -3   4  202.28   17.60
   3  -3   4  246.88   16.40
  -3  -3  -4  240.38   16.00
   3  -3   4  240.18   16.50
  -3   3  -4  210.98   15.50
   3   3   4  230.38   17.40
   3   3   4  253.47   15.90
   3   3   4  262.87   17.60
  -3   3  -4  210.28   15.40
   3   3   4  241.88   17.90
   3   3   4  214.38   18.20
   3   3   4  206.28   16.90
   3   3   4  221.98   18.30
   3   3   4  227.08   17.20
  -3   3  -4  215.18   16.60
   3   3   4  194.38   17.90
   4  -3   4  331.37   24.30
   4  -3   4  333.17   24.50
  -4  -3  -4  406.66   26.00
  -4  -3  -4  343.07   23.40
   4  -3   4  320.67   25.90
   4  -3   4  346.17   26.10
   4  -3   4  361.06   23.60
   4  -3   4  335.17   27.00
   4  -3   4  361.96   24.30
   4  -3   4  360.26   24.40
   4  -3   4  388.16   25.40
  -4   3  -4  363.26   25.00
   4   3   4  355.06   26.60
   4   3   4  332.27   26.50
   4   3   4  368.46   28.30
   4   3   4  389.56   24.10
   4   3   4  334.47   27.00
   4   3   4  409.76   26.80
   5  -3   4  462.45   31.70
   5  -3   4  468.95   31.70
   5  -3   4  465.55   31.50
  -5  -3  -4  464.55   29.60
  -5  -3  -4  450.05   32.60
   5  -3   4  445.16   31.60
   5  -3   4  461.95   33.70
  -5  -3  -4  437.26   32.20
   5   3   4  464.55   36.20
   5   3   4  460.25   34.10
   5   3   4  472.35   35.40
   5   3   4  541.25   35.10
   5   3   4  464.05   34.40
   6  -3   4   22.10    4.10
   6  -3   4   25.40    5.60
   6  -3   4   17.20    3.70
   6  -3   4   15.40    4.30
   6   3   4   17.20    5.20
   6   3   4   20.20    5.50
   6   3   4   20.40    4.80
   6   3   4   17.70    4.30
   7  -3   4   35.40    7.20
   7  -3   4   38.80    6.00
   7  -3   4   45.30    5.90
   7  -3   4   46.70    8.20
   7  -3   4   41.50    8.30
   7   3   4   44.30    9.00
   7   3   4   55.39    8.10
   7   3   4   43.60    7.20
   7   3   4   66.59   10.10
   8  -3   4   35.70    7.70
   8   3   4   39.30    7.50
   9  -4  -4   20.30    5.30
  -9  -4   4   11.80    4.80
  -9  -4   4   16.50    5.40
  -9  -4   4   14.10    5.00
  -9   4   4   18.50    4.80
   9   4  -4   11.00    4.90
   8  -4  -4  147.19   14.50
   8  -4  -4  140.29   14.10
  -8  -4   4  139.19   15.30
   8  -4  -4  144.79   14.50
  -8  -4   4  183.48   16.00
   8  -4  -4  152.68   15.90
  -8  -4   4  180.98   16.30
  -8   4   4  146.99   15.50
   8   4  -4  154.18   15.60
  -8   4   4  183.58   15.80
   8   4  -4  160.38   16.30
  -8   4   4  149.88   14.80
   8   4  -4  172.38   16.40
  -7  -4   4  422.66   32.60
   7  -4  -4  405.66   31.70
   7  -4  -4  407.86   31.80
  -7  -4   4  410.96   32.70
  -7  -4   4  435.46   29.90
  -7  -4   4  457.45   34.30
   7  -4  -4  464.55   31.90
  -7   4   4  414.66   36.60
   7   4  -4  598.74   39.60
   7   4  -4  603.14   39.20
   7   4  -4  588.14   38.90
  -7   4   4  465.25   37.80
   7   4  -4  514.75   36.90
  -7   4   4  449.56   36.50
  -6  -4   4   78.89    7.60
   6  -4  -4   91.09    9.20
  -6  -4   4   78.99    9.50
  -6  -4   4  112.89   10.70
  -6  -4   4   68.39    7.90
   6  -4  -4   76.39    9.70
   6  -4  -4   74.69    8.40
   6  -4  -4   68.89    7.80
  -6  -4   4   66.99   11.30
   6   4  -4   85.49   10.30
   6   4  -4   91.89   10.20
  -6   4   4   80.99   11.00
   6   4  -4   81.79    9.10
   6   4  -4   96.79    9.20
  -6   4   4  116.89   10.50
  -6   4   4   93.49    7.50
  -6   4   4   83.89    9.50
   6   4  -4   98.19   11.10
  -5  -4   4   87.59   10.10
  -5  -4   4   73.09    8.70
  -5  -4   4   76.69    9.30
   5  -4  -4   85.39    8.50
   5  -4  -4   69.69    7.90
  -5  -4   4  105.99    8.60
   5  -4  -4   78.69    7.80
  -5  -4   4  106.69   12.10
   5  -4  -4   82.89    9.60
  -5   4   4   82.09   10.50
   5   4  -4   93.39    8.60
  -5   4   4  101.39    9.90
   5   4  -4  128.19   11.50
  -5   4   4   89.39    7.90
   5   4  -4  122.69   11.10
   5   4  -4   91.19    9.20
  -5   4   4   80.99    9.50
   5   4  -4  111.19   10.40
   4  -4  -4  332.97   24.60
   4  -4  -4  322.67   23.80
   4  -4  -4  322.87   25.10
  -4  -4   4  326.67   24.00
   4  -4  -4  371.86   24.40
  -4  -4   4  314.47   25.80
   4  -4  -4  313.87   23.80
  -4  -4   4  308.97   24.60
  -4  -4   4  319.97   25.50
  -4  -4   4  324.77   24.90
   4  -4  -4  292.37   23.60
   4  -4  -4  355.96   23.20
  -4  -4   4  369.66   23.90
   4   4  -4  279.37   22.30
   4   4  -4  287.67   22.00
   4   4  -4  315.67   23.20
  -4   4   4  316.07   24.20
  -4   4   4  319.97   23.10
   4   4  -4  302.77   21.00
  -4   4   4  300.67   23.00
   4   4  -4  295.07   23.30
   4   4  -4  311.97   23.00
  -4   4   4  307.17   22.70
   4   4  -4  335.57   24.10
   3  -4  -4  838.52   58.19
  -3  -4   4  835.02   58.29
  -3  -4   4  949.01   58.29
  -3  -4   4  806.12   58.39
  -3  -4   4  815.42   58.19
  -3  -4   4 1041.20   58.79
   3  -4  -4  826.32   57.49
   3  -4  -4  806.92   57.39
   3  -4  -4  962.80   56.59
   3  -4  -4  831.42   58.49
   3  -4  -4  888.81   59.09
  -3  -4   4  930.21   57.69
   3  -4  -4  803.32   57.59
  -3  -4   4  836.42   59.59
  -3  -4   4  832.12   58.79
   3   4  -4  834.62   58.09
   3   4  -4  835.32   57.69
   3   4  -4  872.51   57.49
  -3   4   4  823.72   57.59
  -3   4   4  859.41   57.69
  -3   4   4  854.91   58.09
   3   4  -4  885.31   59.29
  -3   4   4  857.11   59.09
   3   4  -4  870.91   58.29
  -3   4   4  828.52   58.19
  -3   4   4  895.01   58.49
   3   4  -4  872.21   58.09
  -3   4   4  847.02   57.79
   3   4  -4  883.01   55.39
   3   4  -4  948.21   55.49
  -2  -4   4 1076.19   72.19
  -2  -4   4 1067.39   72.59
   2  -4  -4 1051.19   72.09
  -2  -4   4 1117.09   72.29
   2  -4  -4 1087.69   72.99
   2  -4  -4 1046.00   71.59
   2  -4  -4 1052.79   71.79
  -2  -4   4 1057.79   72.19
  -2  -4   4 1062.49   72.49
   2  -4  -4 1057.99   72.19
  -2  -4   4 1051.49   73.49
  -2  -4   4 1102.29   71.99
   2  -4  -4 1090.19   72.09
  -2  -4   4 1270.07   73.49
   2  -4  -4 1124.49   72.39
   2  -4  -4 1077.39   72.69
  -2  -4   4 1232.98   72.69
  -2   4   4 1140.79   75.99
  -2   4   4 1132.49   75.69
   2   4  -4 1373.16   77.49
  -2   4   4 1053.19   75.59
  -2   4   4 1209.38   76.89
   2   4  -4 1091.69   75.39
   2   4  -4 1211.08   75.89
   2   4  -4 1125.19   75.09
  -2   4   4 1093.49   76.09
  -2   4   4 1128.99   75.59
   2   4  -4 1133.19   74.99
   2   4  -4 1145.39   75.59
  -1  -4   4   19.30    3.50
  -1  -4   4   13.30    2.60
   1  -4  -4   10.80    2.60
   1  -4  -4   14.30    3.40
   1  -4  -4   14.00    3.10
  -1  -4   4   12.50    3.10
   1  -4  -4   10.40    2.80
   1  -4  -4   12.30    2.80
  -1  -4   4   12.00    2.50
  -1  -4   4   16.90    3.10
  -1  -4   4   14.10    3.40
   1  -4  -4   22.30    3.70
   1  -4  -4   16.70    3.00
   1  -4  -4   11.70    2.00
  -1  -4   4   13.20    2.80
   1  -4  -4   12.10    2.50
  -1  -4   4    9.10    2.40
   1   4  -4   10.10    1.80
  -1   4   4   11.10    3.00
   1   4  -4   15.70    2.20
  -1   4   4   17.40    3.30
   1   4  -4   18.90    3.80
  -1   4   4   12.20    2.90
  -1   4   4   10.30    3.20
  -1   4   4   12.60    2.90
  -1   4   4   12.60    2.60
  -1   4   4   12.60    3.30
   1   4  -4   11.80    2.80
   1   4  -4   14.00    2.60
  -1   4   4   12.00    2.50
   1   4  -4   12.10    2.20
   0  -4   4  518.15   37.30
   0  -4   4  512.85   35.50
   0  -4   4  607.24   35.70
   0  -4  -4  544.25   37.70
   0  -4  -4  510.35   36.20
   0  -4   4  513.95   36.20
   0  -4  -4  524.95   36.90
   0  -4  -4  509.45   36.40
   0  -4   4  607.54   36.20
   0  -4   4  521.45   37.40
   0  -4   4  512.45   36.00
   0  -4  -4  533.75   37.60
   0  -4  -4  522.95   36.60
   0  -4  -4  543.45   36.60
   0  -4  -4  578.04   35.40
   0   4   4  525.85   37.90
   0   4   4  572.94   37.40
   0   4   4  552.44   37.10
   0   4   4  562.64   37.60
   0   4   4  573.44   38.50
   0   4  -4  501.35   37.10
   0   4   4  529.45   37.30
   0   4  -4  548.95   36.50
   0   4  -4  537.55   36.20
   0   4   4  554.64   37.50
   0   4   4  541.35   35.90
  -1  -4  -4 1387.26   78.29
   1  -4   4 1182.58   77.79
   1  -4   4 1268.87   79.29
   1  -4   4 1319.17   77.29
   1  -4   4 1132.29   77.69
  -1  -4  -4 1154.18   78.19
  -1  -4  -4 1133.69   78.39
   1  -4   4 1080.49   79.89
   1  -4   4 1156.08   77.99
  -1  -4  -4 1256.27   78.89
  -1  -4  -4 1157.88   79.79
   1  -4   4 1139.59   79.49
  -1  -4  -4 1243.58   80.09
   1   4   4 1159.08   76.99
   1   4   4 1055.49   75.59
   1   4   4 1136.09   76.49
  -1   4  -4 1169.08   74.59
   1   4   4 1172.08   75.59
   1   4   4 1175.08   75.99
  -1   4  -4 1200.48   76.09
   1   4   4 1182.28   77.19
   1   4   4 1192.88   75.99
   1   4   4 1117.69   75.59
  -1   4  -4 1096.39   75.09
   2  -4   4  227.28   14.30
   2  -4   4  215.38   14.50
   2  -4   4  180.18   16.60
   2  -4   4  184.28   14.40
  -2  -4  -4  183.78   15.30
   2  -4   4  181.28   14.80
  -2  -4  -4  242.78   15.10
   2  -4   4  214.38   14.10
  -2  -4  -4  179.88   14.80
   2  -4   4  191.18   14.40
  -2  -4  -4  183.18   14.50
   2   4   4  196.98   15.40
   2   4   4  177.28   14.70
   2   4   4  185.28   15.70
  -2   4  -4  195.98   13.80
   2   4   4  191.48   16.40
   2   4   4  185.58   15.30
  -2   4  -4  195.68   13.50
  -2   4  -4  184.48   15.00
   2   4   4  210.48   15.60
   3  -4   4  333.57   25.40
  -3  -4  -4  318.67   24.70
  -3  -4  -4  342.57   23.90
  -3  -4  -4  345.97   25.20
   3  -4   4  345.27   26.80
   3  -4   4  361.76   24.10
   3  -4   4  348.37   25.30
   3  -4   4  359.06   24.00
   3  -4   4  346.37   23.80
   3  -4   4  349.67   23.90
   3  -4   4  346.77   23.70
  -3  -4  -4  338.17   23.90
   3  -4   4  353.06   24.40
   3   4   4  339.57   27.30
   3   4   4  346.77   25.10
   3   4   4  346.57   26.60
   3   4   4  359.06   28.20
  -3   4  -4  422.06   24.90
   3   4   4  339.07   26.30
   3   4   4  380.86   27.00
   4  -4   4  499.95   32.10
   4  -4   4  467.05   33.00
   4  -4   4  468.05   33.40
   4  -4   4  492.95   34.50
   4  -4   4  467.35   33.10
  -4  -4  -4  572.24   33.20
  -4  -4  -4  454.35   34.30
  -4  -4  -4  539.75   33.00
   4  -4   4  465.35   33.30
   4  -4   4  460.05   34.90
   4  -4   4  487.95   34.30
   4  -4   4  480.05   36.50
   4   4   4  450.25   34.80
   4   4   4  474.45   36.00
  -4   4  -4  574.44   34.60
   4   4   4  484.65   35.00
   4   4   4  500.15   32.70
   4   4   4  488.95   35.10
   4   4   4  454.55   36.40
   4   4   4  494.45   35.70
  -5  -4  -4   67.99    6.30
   5  -4   4   64.29    8.20
   5  -4   4   88.29    7.60
   5  -4   4  100.09   10.90
  -5  -4  -4   70.09    8.40
   5  -4   4   69.89    8.40
   5  -4   4   74.69    7.80
   5  -4   4   77.79    7.40
   5   4   4   85.09    9.50
  -5   4  -4   90.49    8.00
   5   4   4   73.49    9.20
   5   4   4   75.99    8.70
   5   4   4   66.39    9.50
   5   4   4   80.59   10.10
   6  -4   4  288.57   19.30
   6  -4   4  251.57   21.80
   6  -4   4  230.98   19.00
   6  -4   4  242.78   19.10
   6  -4   4  247.08   21.00
   6   4   4  230.48   21.90
   6   4   4  344.07   25.40
   6   4   4  317.07   23.90
   6   4   4  250.37   23.30
   6   4   4  310.87   25.30
   7  -4   4   26.60    6.30
   7  -4   4   31.60    5.30
   7  -4   4   28.80    6.90
   7  -4   4   27.90    5.20
   7   4   4   35.50    6.70
   7   4   4   36.10    7.70
   7   4   4   32.60    6.90
   7   4   4   35.40    7.60
   7   4   4   38.30    8.30
   8  -5  -4   51.39    8.00
   8  -5  -4   38.60    7.10
   8  -5  -4   43.10    7.50
  -8  -5   4   59.69    9.70
  -8  -5   4   41.00    7.40
  -8  -5   4   42.20    7.90
   8  -5  -4   39.40    8.20
   8   5  -4   37.70    7.80
  -8   5   4   43.20    7.30
  -8   5   4   48.80    7.90
   8   5  -4   44.80    9.10
   8   5  -4   50.29    8.10
   8   5  -4   47.40    8.20
   7  -5  -4   83.39   11.50
   7  -5  -4   81.09    9.20
  -7  -5   4   81.79   10.60
  -7  -5   4  107.29   11.40
   7  -5  -4   94.79   10.20
   7  -5  -4   79.09    9.60
  -7  -5   4   65.69    9.90
   7   5  -4   69.19    9.90
  -7   5   4   93.59   10.10
  -7   5   4   82.39    9.50
   7   5  -4   88.29   10.90
  -7   5   4   77.29    9.90
   7   5  -4   83.59   10.40
   7   5  -4  114.19   10.70
   6  -5  -4  220.48   20.80
  -6  -5   4  224.58   18.60
   6  -5  -4  284.77   19.50
  -6  -5   4  243.68   20.90
   6  -5  -4  225.98   19.60
   6  -5  -4  301.37   20.40
  -6  -5   4  231.78   23.00
  -6  -5   4  229.48   20.40
  -6   5   4  228.68   18.30
   6   5  -4  258.77   21.70
  -6   5   4  234.58   20.60
  -6   5   4  277.47   21.10
   6   5  -4  270.17   22.40
  -6   5   4  295.37   22.30
   6   5  -4  261.27   20.60
   6   5  -4  260.57   21.40
  -5  -5   4  665.53   44.90
   5  -5  -4  658.93   43.50
   5  -5  -4  699.63   45.70
  -5  -5   4  631.24   47.40
   5  -5  -4  675.73   43.70
  -5  -5   4  502.85   42.50
   5  -5  -4  506.05   42.50
  -5  -5   4  717.73   45.10
   5   5  -4  482.85   35.50
   5   5  -4  476.15   36.80
   5   5  -4  602.34   37.60
  -5   5   4  491.85   37.70
  -5   5   4  478.05   35.70
  -5   5   4  548.75   36.30
   5   5  -4  469.15   36.10
  -5   5   4  492.65   36.50
   4  -5  -4  134.89   11.20
  -4  -5   4  118.89   11.60
  -4  -5   4  141.29   11.60
   4  -5  -4  133.29   11.70
   4  -5  -4  127.29   12.70
   4  -5  -4  125.29   10.40
   4  -5  -4  112.79   11.10
  -4  -5   4  135.39   12.30
  -4  -5   4  135.19   12.60
  -4  -5   4  143.49   14.70
  -4  -5   4  128.99   11.50
  -4   5   4  131.49   11.90
  -4   5   4  128.59   11.90
  -4   5   4  110.39   12.50
   4   5  -4  135.29   12.30
   4   5  -4  124.89   12.40
  -4   5   4  141.49   11.90
   4   5  -4  128.19   11.60
   4   5  -4  129.59    9.70
   4   5  -4  150.88    9.90
   3  -5  -4  572.34   37.00
   3  -5  -4  516.05   37.90
  -3  -5   4  547.15   38.60
   3  -5  -4  539.45   37.90
   3  -5  -4  557.04   39.00
   3  -5  -4  565.14   39.10
   3  -5  -4  524.65   38.30
  -3  -5   4  564.84   39.00
   3  -5  -4  575.34   38.50
  -3  -5   4  560.24   40.70
  -3  -5   4  553.34   38.60
  -3   5   4  572.94   38.50
  -3   5   4  524.95   38.20
   3   5  -4  571.14   38.80
  -3   5   4  561.14   38.20
  -3   5   4  519.85   39.30
   3   5  -4  546.65   38.20
   3   5  -4  544.75   38.50
  -3   5   4  563.74   38.20
   3   5  -4  553.34   38.00
  -2  -5   4  178.58   14.60
  -2  -5   4  186.38   14.90
   2  -5  -4  165.78   14.10
   2  -5  -4  159.78   13.70
  -2  -5   4  217.18   16.60
   2  -5  -4  168.08   15.80
   2  -5  -4  171.48   13.70
  -2  -5   4  163.58   14.10
  -2  -5   4  167.78   14.20
   2  -5  -4  172.28   14.20
  -2  -5   4  169.28   14.20
  -2  -5   4  160.38   13.80
   2  -5  -4  217.38   14.90
   2   5  -4  173.98   13.80
  -2   5   4  154.08   13.50
  -2   5   4  157.98   13.20
   2   5  -4  190.28   14.10
  -2   5   4  159.68   13.50
   2   5  -4  172.38   13.10
  -2   5   4  164.88   13.70
  -2   5   4  153.48   13.40
   2   5  -4  169.78   13.00
  -2   5   4  159.88   13.20
   2   5  -4  185.48   13.40
  -1  -5   4  193.88   14.70
  -1  -5   4  163.58   14.20
  -1  -5   4  170.08   14.80
   1  -5  -4  227.58   14.70
  -1  -5   4  199.88   16.10
   1  -5  -4  168.58   14.90
   1  -5  -4  180.48   14.70
  -1  -5   4  194.68   13.80
  -1  -5   4  195.18   14.70
   1  -5  -4  181.38   15.20
   1  -5  -4  175.68   13.90
   1  -5  -4  182.68   13.50
  -1  -5   4  171.18   14.20
   1  -5  -4  174.48   14.70
  -1   5   4  162.78   14.00
   1   5  -4  164.38   14.80
  -1   5   4  174.98   13.80
   1   5  -4  175.28   14.70
   1   5  -4  216.78   13.30
   1   5  -4  177.98   14.10
   1   5  -4  179.68   13.00
  -1   5   4  167.68   15.10
  -1   5   4  172.88   14.50
  -1   5   4  170.48   14.00
   1   5  -4  184.28   13.90
   1   5  -4  172.58   13.00
  -1   5   4  192.18   15.10
  -1   5   4  181.28   15.10
   0  -5   4 1141.39   77.89
   0  -5   4 1134.39   80.29
   0  -5  -4 1161.88   80.89
   0  -5  -4 1390.26   79.59
   0  -5   4 1107.79   80.79
   0  -5  -4 1163.68   79.39
   0  -5   4 1191.78   80.29
   0  -5   4 1230.78   77.69
   0  -5   4 1365.86   79.59
   0  -5  -4 1166.08   78.49
   0  -5   4 1422.66   79.49
   0  -5  -4 1161.68   78.09
   0  -5  -4 1130.49   80.49
   0  -5   4 1143.79   80.39
   0  -5   4 1200.58   79.39
   0   5  -4 1169.38   77.49
   0   5   4 1144.09   75.69
   0   5   4 1150.88   76.99
   0   5  -4 1161.68   74.69
   0   5   4 1162.68   78.29
   0   5   4 1209.88   77.59
   0   5   4 1119.99   77.29
   0   5  -4 1235.68   76.29
   0   5  -4 1149.29   76.39
   0   5   4 1166.68   78.29
   0   5   4 1176.88   77.49
   1  -5   4  793.52   56.09
   1  -5   4  799.22   53.49
   1  -5   4  807.82   55.39
   1  -5   4  819.22   53.89
  -1  -5  -4  797.42   53.79
  -1  -5  -4  818.62   54.09
  -1  -5  -4  856.01   51.79
  -1  -5  -4  835.22   54.59
  -1  -5  -4  836.12   54.49
   1  -5   4  811.62   54.09
   1  -5   4  837.42   53.89
  -1  -5  -4  775.62   53.89
  -1  -5  -4  758.72   55.09
   1  -5   4  809.72   54.89
   1  -5   4  799.52   53.79
  -1   5  -4  790.72   54.99
   1   5   4  828.92   56.59
   1   5   4  893.91   58.39
  -1   5  -4  833.52   55.79
   1   5   4  809.32   57.29
   1   5   4  835.02   56.99
   1   5   4  846.82   56.69
   1   5   4  912.11   57.29
   2  -5   4  262.67   21.90
   2  -5   4  303.37   20.30
   2  -5   4  311.57   20.00
  -2  -5  -4  260.17   19.90
   2  -5   4  248.58   19.00
   2  -5   4  252.57   19.30
  -2  -5  -4  252.37   20.30
   2  -5   4  267.27   17.80
   2  -5   4  253.97   19.50
   2  -5   4  275.97   18.00
  -2  -5  -4  260.47   19.90
   2  -5   4  255.67   20.80
   2  -5   4  328.37   21.10
  -2  -5  -4  269.67   19.70
   2   5   4  232.08   20.20
   2   5   4  249.68   20.10
   2   5   4  261.77   19.40
   2   5   4  242.38   19.40
  -2   5  -4  248.88   18.00
   2   5   4  259.17   19.70
   2   5   4  255.27   18.70
  -2   5  -4  232.68   17.30
   3  -5   4  564.94   40.00
   3  -5   4  575.14   41.60
   3  -5   4  556.44   40.00
   3  -5   4  599.74   39.50
   3  -5   4  581.24   40.10
   3  -5   4  558.24   39.50
   3  -5   4  694.43   40.60
   3  -5   4  698.53   44.00
  -3  -5  -4  554.44   40.10
  -3  -5  -4  579.74   41.30
  -3  -5  -4  590.54   40.20
   3   5   4  592.44   39.20
   3   5   4  602.64   40.70
   3   5   4  545.15   41.70
   3   5   4  580.04   40.70
   3   5   4  579.04   40.80
   3   5   4  558.04   41.10
   4  -5   4  132.89   14.10
   4  -5   4  134.49   11.00
   4  -5   4  136.29   12.70
   4  -5   4  119.09   10.50
   4  -5   4  141.39   12.30
   4  -5   4  134.09   11.30
  -4  -5  -4  129.29   10.90
  -4  -5  -4  129.99   10.90
  -4  -5  -4  123.49   11.90
   4  -5   4  148.99   11.20
   4  -5   4  137.59    9.30
   4   5   4  134.09   12.80
   4   5   4  138.29   10.90
   4   5   4  140.19   14.70
   4   5   4  141.19   13.70
   4   5   4  142.29   13.30
   4   5   4  179.48   13.90
   4   5   4  115.29   12.40
   5  -5   4   64.29    7.90
   5  -5   4   63.39    7.70
   5  -5   4   71.49    7.30
   5  -5   4   63.89    9.10
   5  -5   4   54.59    6.20
  -5  -5  -4   77.29    9.70
   5   5   4   86.79   10.30
   5   5   4   65.09   10.00
   5   5   4   63.49    8.60
   5   5   4   82.39    9.50
   5   5   4   63.39    8.70
   6  -5   4   33.50    7.40
   6  -5   4   32.90    5.10
   6  -5   4   32.80    5.40
   6  -5   4   33.60    6.70
   6  -5   4   30.90    5.20
   6   5   4   31.40    7.00
   6   5   4   29.00    7.50
   6   5   4   31.30    6.40
   6   5   4   34.80    6.90
   6   5   4   34.20    7.30
   7  -5   4   98.39   13.70
   7  -5   4  103.69   10.10
   7   5   4  113.89   12.30
   7   5   4  111.39   12.90
   7   5   4  112.79   13.50
   8  -6  -4   39.80    7.00
  -8  -6   4   46.70    8.50
   8  -6  -4   37.80    7.00
  -8  -6   4   32.70    7.00
  -8  -6   4   37.30    8.30
  -8   6   4   30.60    5.90
   8   6  -4   32.20    7.40
  -7  -6   4  234.68   21.40
  -7  -6   4  208.78   20.40
   7  -6  -4  229.48   19.90
   7  -6  -4  226.08   21.80
  -7  -6   4  279.57   23.00
   7  -6  -4  226.08   19.80
   7  -6  -4  283.97   20.10
  -7   6   4  224.48   19.40
   7   6  -4  253.67   22.00
   7   6  -4  227.58   20.30
   7   6  -4  222.08   19.50
   7   6  -4  239.78   20.80
  -6  -6   4  148.19   14.80
  -6  -6   4  145.19   14.60
   6  -6  -4  142.09   13.70
   6  -6  -4  177.88   14.40
   6  -6  -4  160.98   13.30
   6  -6  -4  125.39   14.50
  -6  -6   4  151.68   16.30
  -6  -6   4  153.48   13.20
  -6   6   4  145.09   14.10
  -6   6   4  147.29   13.80
  -6   6   4  143.39   14.00
   6   6  -4  192.78   15.60
   6   6  -4  153.38   15.20
   6   6  -4  132.79   13.60
   5  -6  -4  376.86   27.40
   5  -6  -4  374.46   28.30
   5  -6  -4  403.16   28.60
  -5  -6   4  359.96   29.00
  -5  -6   4  388.66   29.60
  -5  -6   4  362.96   28.00
   5  -6  -4  426.66   30.60
   5  -6  -4  373.46   27.30
   5   6  -4  415.76   26.30
  -5   6   4  372.36   30.20
  -5   6   4  386.06   28.90
   5   6  -4  387.16   29.50
  -5   6   4  365.56   28.50
  -5   6   4  375.56   28.80
   5   6  -4  368.06   28.80
  -4  -6   4  277.27   22.30
  -4  -6   4  319.37   23.50
   4  -6  -4  289.47   23.20
   4  -6  -4  282.77   21.80
  -4  -6   4  265.57   22.60
   4  -6  -4  277.77   20.80
  -4  -6   4  272.67   25.30
   4  -6  -4  333.17   21.70
   4  -6  -4  277.37   22.20
  -4   6   4  326.77   22.80
   4   6  -4  319.27   23.60
  -4   6   4  290.77   22.90
   4   6  -4  285.67   23.20
  -4   6   4  287.07   24.50
   4   6  -4  316.97   20.40
  -4   6   4  296.77   23.30
   4   6  -4  296.27   23.80
   4   6  -4  320.47   20.50
  -3  -6   4  939.71   63.39
  -3  -6   4  935.11   66.49
   3  -6  -4  890.31   62.69
   3  -6  -4  910.81   63.29
   3  -6  -4  917.51   61.39
   3  -6  -4  920.31   62.79
  -3  -6   4 1122.39   64.49
   3  -6  -4  910.71   63.59
  -3  -6   4  897.71   63.49
   3   6  -4  865.21   62.69
   3   6  -4  863.21   62.99
  -3   6   4  985.30   64.59
   3   6  -4  929.11   62.59
   3   6  -4 1109.39   63.39
  -3   6   4  929.41   62.79
  -3   6   4  897.11   62.79
  -3   6   4  918.71   62.39
   3   6  -4  906.61   62.69
   2  -6  -4  102.69   10.30
  -2  -6   4  113.29   10.80
  -2  -6   4  111.39   10.60
  -2  -6   4  115.09   11.00
  -2  -6   4  109.79   11.00
   2  -6  -4  124.59   11.00
  -2  -6   4  119.29   11.00
   2  -6  -4  104.39   10.30
  -2  -6   4  131.49   13.30
   2  -6  -4  119.59   10.60
  -2   6   4  100.79    9.90
   2   6  -4   96.99    9.30
   2   6  -4  105.19    9.20
  -2   6   4  125.89    9.90
  -2   6   4   99.49    9.60
  -2   6   4   98.09   10.90
  -2   6   4  103.99    9.90
   2   6  -4  110.09    9.30
   1  -6  -4   19.10    4.10
  -1  -6   4   18.40    4.40
  -1  -6   4   22.60    5.20
   1  -6  -4   20.70    3.80
  -1  -6   4   26.00    4.70
   1  -6  -4   22.00    4.50
   1  -6  -4   23.10    3.70
  -1  -6   4   20.90    4.80
  -1  -6   4   22.30    4.30
  -1  -6   4   22.10    4.40
   1  -6  -4   20.50    3.60
  -1  -6   4   20.10    1.80
  -1   6   4   18.80    4.70
  -1   6   4   20.50    4.30
  -1   6   4   19.40    5.10
   1   6  -4   20.70    3.90
  -1   6   4   19.60    4.10
   1   6  -4   23.30    2.90
  -1   6   4   18.90    3.70
   1   6  -4   20.80    3.20
   1   6  -4   21.80    3.50
  -1   6   4   26.20    3.90
  -1   6   4   26.30    4.20
   0  -6   4   64.09    5.60
   0  -6   4   64.59    7.10
   0  -6   4   60.09    7.90
   0  -6  -4   67.29    7.30
   0  -6  -4   67.19    6.50
   0  -6  -4   66.29    7.00
   0  -6   4   58.79    7.40
   0  -6   4   63.39    7.90
   0  -6   4   58.59    6.70
   0  -6  -4   56.89    5.70
   0   6  -4   88.39    7.40
   0   6   4   63.89    7.60
   0   6   4   62.39    8.60
   0   6   4   66.59    8.00
   0   6  -4   72.19    8.20
   0   6   4   81.39    8.00
   0   6  -4   73.59    5.80
   0   6   4   65.99    8.10
  -1  -6  -4  333.97   22.30
   1  -6   4  330.57   22.00
   1  -6   4  280.77   22.10
  -1  -6  -4  280.47   22.50
   1  -6   4  279.77   23.30
   1  -6   4  276.07   23.20
  -1  -6  -4  301.77   20.10
   1  -6   4  372.76   22.90
  -1  -6  -4  274.77   22.10
   1  -6   4  285.17   24.20
   1  -6   4  311.77   21.80
  -1   6  -4  305.47   20.80
   1   6   4  267.87   22.40
  -1   6  -4  294.27   21.80
   1   6   4  326.17   22.80
   1   6   4  277.37   22.00
   1   6   4  280.27   22.60
  -2  -6  -4  207.78   16.90
   2  -6   4  207.58   17.30
   2  -6   4  192.68   18.40
  -2  -6  -4  278.97   18.10
  -2  -6  -4  219.38   18.10
   2  -6   4  206.68   17.50
   2  -6   4  209.48   16.60
   2  -6   4  229.78   19.80
   2  -6   4  277.47   19.10
  -2  -6  -4  256.17   17.90
   2   6   4  211.78   19.20
  -2   6  -4  220.88   16.80
   2   6   4  221.88   18.10
   2   6   4  242.58   18.80
   2   6   4  216.28   18.40
   2   6   4  242.48   18.90
   2   6   4  219.58   17.60
   3  -6   4   17.90    3.30
  -3  -6  -4   18.40    4.20
   3  -6   4   17.90    4.40
   3  -6   4   19.50    3.80
   3  -6   4   14.20    2.90
  -3  -6  -4   16.00    3.70
   3  -6   4   28.80    4.50
   3  -6   4   16.60    4.90
  -3  -6  -4   16.20    3.60
  -3   6  -4   18.70    3.30
   3   6   4   20.00    4.70
   3   6   4   19.00    4.00
   3   6   4   13.90    4.20
   3   6   4   20.90    5.70
   3   6   4   31.80    5.90
   3   6   4   18.90    4.80
   3   6   4   21.30    4.80
   4  -6   4  231.88   18.00
   4  -6   4  271.87   17.90
  -4  -6  -4  240.28   19.20
   4  -6   4  211.68   18.80
   4  -6   4  241.38   19.40
  -4  -6  -4  212.28   17.60
   4  -6   4  237.48   21.30
   4   6   4  227.08   19.40
   4   6   4  233.98   21.10
   4   6   4  245.08   20.20
   5  -6   4    1.60    1.50
   5  -6   4    0.80    1.70
   5  -6   4   -1.90    3.20
   5  -6   4    2.60    2.60
   5  -6   4   -0.60    2.00
  -5  -6  -4   -0.30    1.50
   5   6   4   -1.00    3.50
   5   6   4   -2.20    2.50
   5   6   4   -2.20    2.50
   5   6   4    1.60    3.20
   5   6   4   -0.80    2.60
   6  -6   4  181.68   16.10
   6  -6   4  226.68   16.70
   6  -6   4  202.48   17.90
   6  -6   4  181.78   18.50
   6  -6   4  179.98   15.50
   6   6   4  206.78   18.80
   6   6   4  198.98   18.90
   6   6   4  178.18   17.50
   6   6   4  185.58   17.60
   6   6   4  181.88   17.30
  -7  -7   4  179.88   16.40
   7  -7  -4  134.19   13.70
   7  -7  -4  178.68   15.00
  -7  -7   4  138.69   15.70
   7  -7  -4  141.29   15.90
   7  -7  -4  128.79   12.90
  -7  -7   4  138.89   14.80
   7   7  -4  127.89   14.00
  -7   7   4  134.69   12.90
   7   7  -4  135.59   13.70
   7   7  -4  132.49   14.10
   6  -7  -4    5.20    2.70
  -6  -7   4    8.50    4.20
   6  -7  -4    9.70    4.30
  -6  -7   4    5.70    3.80
  -6  -7   4    7.00    3.60
  -6  -7   4    9.60    3.20
   6  -7  -4    7.80    3.00
   6  -7  -4    6.30    3.50
   6   7  -4    4.00    3.20
   6   7  -4    5.60    3.10
  -6   7   4    4.90    2.90
  -6   7   4    7.00    3.70
   6   7  -4    8.90    3.40
  -5  -7   4  335.57   27.70
   5  -7  -4  340.17   25.40
   5  -7  -4  335.97   26.60
  -5  -7   4  355.06   27.90
  -5  -7   4  439.46   31.00
  -5  -7   4  348.27   26.70
   5  -7  -4  346.07   28.30
   5  -7  -4  354.26   26.90
  -5   7   4  341.47   27.10
  -5   7   4  350.96   29.20
  -5   7   4  360.36   27.20
   5   7  -4  372.06   28.30
   5   7  -4  373.06   28.00
   4  -7  -4  138.19   13.20
   4  -7  -4  148.29   12.30
   4  -7  -4  152.48   13.70
  -4  -7   4  153.88   14.70
  -4  -7   4  151.78   13.90
   4  -7  -4  182.48   14.60
  -4  -7   4  154.28   16.50
  -4  -7   4  142.69   14.20
   4   7  -4  153.38   13.90
   4   7  -4  139.39   14.10
   4   7  -4  161.08   14.70
  -4   7   4  185.38   14.70
  -4   7   4  155.08   14.10
  -4   7   4  149.09   13.20
  -3  -7   4   53.29    7.10
   3  -7  -4   48.50    6.80
  -3  -7   4   74.79    8.40
   3  -7  -4   53.29    7.50
   3  -7  -4   54.29    6.70
  -3  -7   4   51.59    7.90
   3  -7  -4   49.99    7.30
  -3  -7   4   57.89    7.50
  -3  -7   4   48.00    9.10
  -3   7   4   55.09    7.10
   3   7  -4   47.10    7.00
   3   7  -4   57.99    7.30
   3   7  -4   55.99    6.90
  -3   7   4   54.59    6.70
  -3   7   4   54.39    6.30
   3   7  -4   50.89    6.40
  -3   7   4   55.69    8.20
   2  -7  -4  201.68   16.40
  -2  -7   4  195.08   19.40
  -2  -7   4  195.18   17.10
  -2  -7   4  188.88   16.40
  -2  -7   4  184.38   16.70
   2  -7  -4  248.18   17.20
   2  -7  -4  177.78   15.80
  -2   7   4  190.48   16.00
  -2   7   4  231.38   15.80
  -2   7   4  180.48   16.80
  -2   7   4  220.18   16.90
   2   7  -4  196.58   16.10
   2   7  -4  178.78   15.10
   2   7  -4  186.48   14.80
   2   7  -4  180.18   15.30
  -1  -7   4  453.25   34.30
  -1  -7   4  587.24   35.70
   1  -7  -4  476.25   34.80
   1  -7  -4  484.15   33.90
   1  -7  -4  475.75   34.50
  -1  -7   4  475.15   37.30
  -1  -7   4  468.25   34.90
   1  -7  -4  498.55   33.70
  -1  -7   4  467.75   35.90
   1  -7  -4  472.55   34.10
   1   7  -4  516.05   36.80
   1   7  -4  533.55   36.10
  -1   7   4  505.95   38.00
  -1   7   4  489.35   38.50
  -1   7   4  529.05   37.60
  -1   7   4  568.24   37.50
   1   7  -4  511.15   34.80
   1   7  -4  567.74   35.90
  -1   7   4  528.25   36.70
   0  -7  -4   51.59    6.60
   0  -7  -4   52.19    6.10
   0  -7   4   51.99    8.00
   0  -7   4   48.10    8.50
   0  -7  -4   63.49    5.80
   0  -7   4   52.19    6.60
   0  -7   4   54.49    5.10
   0  -7  -4   45.40    6.50
   0  -7   4   55.89    7.80
   0  -7   4   49.99    6.90
   0  -7  -4   56.89    7.10
   0  -7   4   46.20    6.30
   0   7   4   62.09    7.00
   0   7   4   46.70    8.00
   0   7   4   52.69    7.20
   0   7   4   54.29    7.50
   0   7  -4   51.09    6.10
   0   7   4   53.99    7.10
   1  -7   4  378.96   28.70
   1  -7   4  380.16   28.10
   1  -7   4  441.56   30.70
  -1  -7  -4  377.86   28.40
   1  -7   4  390.36   27.80
   1  -7   4  377.26   30.00
   1  -7   4  421.16   29.30
   1  -7   4  482.45   32.00
  -1  -7  -4  381.26   28.80
  -1  -7  -4  383.86   29.00
  -1  -7  -4  386.66   28.80
  -1  -7  -4  395.76   26.60
   1   7   4  378.16   29.80
  -1   7  -4  463.25   28.60
   1   7   4  388.26   30.00
   1   7   4  378.36   30.90
   2  -7   4   39.30    5.10
   2  -7   4   40.30    7.20
  -2  -7  -4   35.10    5.80
  -2  -7  -4   36.70    6.10
   2  -7   4   46.30    6.00
  -2  -7  -4   38.00    5.20
   2  -7   4   37.80    5.90
   2  -7   4   34.40    7.10
   2  -7   4   40.10    7.10
   2  -7   4   48.10    6.30
   2   7   4   34.50    6.60
   2   7   4   38.90    6.70
   2   7   4   31.10    6.60
  -2   7  -4   35.50    5.00
  -2   7  -4   36.20    4.60
   2   7   4   37.20    6.10
   3  -7   4  179.88   15.10
  -3  -7  -4  192.38   16.20
   3  -7   4  190.98   17.00
   3  -7   4  194.18   14.70
   3  -7   4  204.18   14.70
   3  -7   4  171.68   17.60
  -3  -7  -4  167.08   15.10
  -3  -7  -4  183.98   14.60
   3   7   4  184.78   18.60
   3   7   4  227.08   18.10
   3   7   4  187.48   17.50
   3   7   4  203.08   17.50
   4  -7   4  120.09   14.30
   4  -7   4  105.19   11.60
   4  -7   4  127.49   12.80
  -4  -7  -4  103.09   12.00
  -4  -7  -4  124.79   11.20
   4  -7   4  138.39   11.70
   4  -7   4  141.99   11.10
   4   7   4  119.49   12.30
   4   7   4  118.09   12.50
   4   7   4  114.49   13.20
   4   7   4  107.99   12.20
   4   7   4  111.69   11.80
   5  -7   4   69.59    8.60
   5  -7   4   49.60    6.20
   5  -7   4   49.10    7.30
   5  -7   4   46.30    9.30
   5  -7   4   51.49    6.50
   5   7   4   71.19   11.00
   5   7   4   44.80    8.10
   5   7   4   50.49    8.70
   5   7   4   54.09    8.70
   6  -7   4   80.49   13.60
   6  -7   4   66.99    8.40
   6  -7   4   70.39    8.00
   6   7   4   68.19   10.60
   6   7   4   79.79   11.00
   6   7   4   96.79   11.30
  -7  -8   4   17.30    5.90
   7   8  -4   13.00    5.00
  -7   8   4   13.40    4.40
  -6  -8   4   77.59    9.50
   6  -8  -4   83.29   11.00
  -6  -8   4   83.79   12.20
  -6  -8   4   86.59   10.70
   6  -8  -4   94.49   10.40
  -6  -8   4   85.89   10.80
   6  -8  -4   80.89    9.30
  -6   8   4  115.89   12.00
  -6   8   4  104.19   11.50
   6   8  -4  112.99   12.30
   6   8  -4  106.79   11.90
   6   8  -4   96.79   12.30
   5  -8  -4  128.19   12.10
   5  -8  -4  124.89   13.60
  -5  -8   4  158.58   15.50
  -5  -8   4  138.49   16.00
  -5  -8   4  119.49   13.70
   5  -8  -4  158.08   13.90
  -5  -8   4  140.89   13.70
   5  -8  -4  157.48   14.10
   5  -8  -4  174.88   15.80
  -5   8   4  135.59   13.20
   5   8  -4  132.69   13.20
   5   8  -4  136.09   13.70
  -5   8   4  139.99   13.40
   5   8  -4  129.49   13.60
  -4  -8   4   14.20    4.50
  -4  -8   4   25.10    5.70
   4  -8  -4   18.70    4.90
   4  -8  -4   23.80    5.00
   4  -8  -4   17.10    4.60
  -4  -8   4   10.60    4.30
   4  -8  -4   14.20    3.90
  -4  -8   4   14.10    4.90
   4  -8  -4   15.50    3.50
  -4   8   4   25.00    5.20
  -4   8   4   13.30    4.00
  -4   8   4   14.90    4.80
   4   8  -4   14.60    4.40
   4   8  -4   17.90    4.50
   4   8  -4   16.60    4.80
  -3  -8   4   38.90    7.00
  -3  -8   4   34.60    7.60
   3  -8  -4   35.20    6.20
   3  -8  -4   37.30    6.40
   3  -8  -4   33.10    6.20
  -3  -8   4   37.70    6.90
   3  -8  -4   37.50    6.20
  -3  -8   4   45.30    7.30
   3   8  -4   36.00    6.60
  -3   8   4   49.80    7.00
  -3   8   4   40.50    6.40
  -3   8   4   40.50    7.60
   3   8  -4   41.90    6.20
  -3   8   4   42.40    5.40
   2  -8  -4  421.56   32.60
  -2  -8   4  453.35   33.50
  -2  -8   4  443.56   35.10
   2  -8  -4  426.96   32.60
   2  -8  -4  429.16   33.40
   2  -8  -4  457.55   33.50
  -2  -8   4  530.05   34.50
   2  -8  -4  413.16   32.70
  -2  -8   4  521.85   35.30
  -2   8   4  438.36   30.90
   2   8  -4  422.36   30.90
  -2   8   4  452.65   33.60
  -2   8   4  443.86   32.00
  -2   8   4  445.16   32.50
  -1  -8   4    6.20    3.50
   1  -8  -4    7.50    2.90
   1  -8  -4    4.20    2.70
  -1  -8   4   11.60    4.20
   1  -8  -4   12.00    3.70
  -1  -8   4   12.20    4.50
   1  -8  -4   12.90    3.40
  -1  -8   4   12.30    3.60
   1  -8  -4   10.70    3.80
  -1  -8   4   11.90    3.90
  -1  -8   4    8.50    3.20
  -1   8   4    8.50    3.40
  -1   8   4   10.40    3.80
   1   8  -4    9.40    2.70
  -1   8   4    8.50    3.20
  -1   8   4   10.60    3.10
  -1   8   4   10.60    4.10
   1   8  -4    9.80    3.00
   0  -8   4  360.26   29.00
   0  -8   4  353.66   28.20
   0  -8  -4  356.16   27.70
   0  -8   4  416.86   29.80
   0  -8  -4  376.56   26.50
   0  -8   4  357.56   27.40
   0  -8  -4  353.46   27.90
   0  -8   4  366.16   29.70
   0  -8  -4  436.16   28.60
   0   8   4  397.46   31.60
   0   8   4  383.46   29.00
   0   8   4  477.45   30.90
   0   8   4  374.46   29.60
   0   8  -4  388.36   27.40
   0   8  -4  406.66   28.90
   0   8   4  387.86   30.30
  -1  -8  -4   62.29    7.30
  -1  -8  -4   39.80    6.50
   1  -8   4   44.10    7.90
   1  -8   4   49.80    7.10
  -1  -8  -4   42.70    5.00
  -1  -8  -4   40.30    6.50
   1  -8   4   48.20    6.80
   1  -8   4   36.30    5.20
   1  -8   4   42.20    7.70
   1   8   4   39.20    7.90
   1   8   4   33.70    6.40
   1   8   4   38.90    7.00
  -1   8  -4   40.90    6.30
   1   8   4   39.80    7.00
  -2  -8  -4   18.10    4.70
   2  -8   4   24.30    4.20
   2  -8   4   22.60    5.30
   2  -8   4   18.10    4.40
  -2  -8  -4   18.50    4.40
   2  -8   4   14.70    4.80
  -2  -8  -4   14.20    3.90
   2   8   4   15.40    4.30
   2   8   4   20.70    4.70
   2   8   4   24.60    5.60
   2   8   4   14.30    4.80
   3  -8   4  172.78   18.00
   3  -8   4  197.78   16.20
   3  -8   4  165.58   16.80
   3  -8   4  182.08   15.00
  -3  -8  -4  213.68   16.40
  -3  -8  -4  178.08   16.70
  -3  -8  -4  211.58   15.70
   3   8   4  162.28   16.70
   3   8   4  172.68   16.60
   3   8   4  185.58   16.70
   3   8   4  234.68   19.60
  -4  -8  -4   26.90    5.20
   4  -8   4   30.30    6.00
   4  -8   4   18.70    5.90
   4  -8   4   28.90    4.70
   4  -8   4   32.30    5.70
   4  -8   4   27.00    6.20
   4   8   4   30.40    7.50
   4   8   4   26.40    5.70
   4   8   4   25.70    6.00
   4   8   4   29.30    6.70
   5  -8   4   75.69    8.40
   5  -8   4   67.99   11.30
  -5  -8  -4   86.59    9.00
   5  -8   4   99.69   11.20
   5  -8   4  103.29   10.10
   5   8   4   80.99   10.50
   5   8   4   62.39   10.60
   5   8   4   72.69   13.40
   5   8   4   73.19    9.40
   6  -9  -4  100.79   14.80
   6   9  -4  121.49   13.40
   6   9  -4  115.29   14.10
  -6   9   4  148.79   13.70
   5  -9  -4   71.69    9.30
  -5  -9   4   56.99    9.40
  -5  -9   4   61.89    8.70
  -5  -9   4   62.89   10.70
   5  -9  -4   67.19   10.10
   5  -9  -4   55.39    7.70
   5  -9  -4   56.29    7.90
  -5  -9   4   72.49   10.00
  -5   9   4   47.30    7.90
   5   9  -4   46.10    7.80
  -5   9   4   59.09    8.00
   5   9  -4   47.40    8.00
   4  -9  -4   29.80    6.70
   4  -9  -4   29.50    4.90
   4  -9  -4   21.90    5.30
   4  -9  -4   24.20    5.50
  -4  -9   4   24.40    5.80
   4  -9  -4   21.60    4.90
  -4  -9   4   20.30    5.60
  -4  -9   4   25.20    6.70
  -4  -9   4   22.40    5.80
   4   9  -4   23.70    5.70
   4   9  -4   21.20    5.20
  -4   9   4   25.00    5.40
  -4   9   4   27.80    5.70
  -4   9   4   18.20    5.50
   4   9  -4   20.50    5.30
  -3  -9   4   24.00    5.50
  -3  -9   4   27.50    6.90
  -3  -9   4   19.80    5.70
  -3  -9   4   20.70    5.50
   3  -9  -4   19.10    4.80
  -3  -9   4   12.80    4.80
   3  -9  -4   26.80    5.50
   3  -9  -4   23.70    5.20
   3  -9  -4   19.00    5.00
  -3   9   4   28.80    6.60
   3   9  -4   17.50    4.30
  -3   9   4   12.80    4.00
  -3   9   4   19.70    4.80
   3   9  -4   27.30    5.80
  -2  -9   4   10.90    3.60
   2  -9  -4    5.40    2.70
  -2  -9   4    4.90    3.10
   2  -9  -4    6.90    3.80
   2  -9  -4    8.60    3.20
  -2  -9   4   11.60    4.60
  -2  -9   4    5.70    4.20
  -2  -9   4    7.30    3.70
   2  -9  -4   10.10    3.60
  -2   9   4    8.10    3.10
  -2   9   4    7.90    3.50
   2   9  -4    7.50    3.40
  -2   9   4    4.00    3.70
   2   9  -4    8.10    3.10
  -1  -9   4  316.97   24.70
   1  -9  -4  285.37   22.70
   1  -9  -4  273.67   22.00
  -1  -9   4  271.97   23.60
   1  -9  -4  271.97   21.50
   1  -9  -4  302.67   23.10
  -1  -9   4  265.17   23.40
  -1   9   4  286.67   24.20
  -1   9   4  283.57   22.10
  -1   9   4  305.17   23.80
  -1   9   4  343.77   24.10
   1   9  -4  287.37   21.80
   0  -9   4   76.49    9.30
   0  -9   4   90.69    9.00
   0  -9   4   73.59    9.40
   0  -9   4   67.49    9.00
   0  -9  -4   61.19    8.20
   0  -9   4   70.29    9.80
   0  -9  -4   60.49    7.90
   0  -9  -4   72.39    8.80
   0   9   4   62.09    8.00
   0   9   4   68.99    7.80
   0   9  -4   62.79    6.10
   0   9   4   69.19    9.60
   0   9   4   63.79    8.50
   0   9   4   60.19    8.30
   1  -9   4  248.08   18.60
   1  -9   4  160.88   17.90
  -1  -9  -4  181.18   17.00
  -1  -9  -4  182.68   17.00
   1  -9   4  228.68   19.90
   1  -9   4  251.07   18.90
  -1  -9  -4  208.28   17.50
   1  -9   4  181.18   16.20
   1   9   4  181.08   17.90
   1   9   4  190.28   17.00
   1   9   4  183.18   16.70
   1   9   4  177.58   16.10
  -2  -9  -4    4.80    3.10
   2  -9   4    1.30    2.30
  -2  -9  -4    1.40    3.00
   2  -9   4    5.50    3.30
   2  -9   4    2.00    2.70
   2  -9   4    6.10    3.90
  -2  -9  -4    6.50    2.80
   2   9   4    6.20    3.20
   2   9   4    6.70    4.00
   2   9   4    6.00    3.40
   2   9   4    6.00    4.60
  -3  -9  -4   77.49    8.20
  -3  -9  -4   73.39    8.60
   3  -9   4   67.69    7.70
   3  -9   4   61.89    9.80
   3  -9   4   66.79   10.20
  -3  -9  -4   51.89    8.60
   3  -9   4   83.59    9.10
   3   9   4   57.69    8.30
   3   9   4   68.59    8.90
   3   9   4   74.39   10.40
   3   9   4   72.29    8.90
   4  -9   4   15.20    3.80
   4  -9   4   11.90    4.40
  -4  -9  -4   12.10    3.70
   4  -9   4   13.70    4.80
   4  -9   4   14.50    4.00
   4   9   4   14.30    4.90
   4   9   4   12.50    4.60
  -4 -10   4  425.16   36.80
  -4 -10   4  511.85   37.70
   4 -10  -4  479.35   36.20
   4 -10  -4  553.94   38.30
   4  10  -4  487.65   34.40
  -4  10   4  423.76   33.90
  -4  10   4  417.46   35.60
  -4  10   4  511.55   34.90
   3 -10  -4   76.59   10.30
  -3 -10   4   66.69    9.50
  -3 -10   4   61.49   11.10
   3 -10  -4   85.29   10.10
   3 -10  -4   80.49    9.50
   3 -10  -4   71.99    9.20
  -3 -10   4   61.99    9.20
  -3 -10   4   94.09   11.00
  -3 -10   4   84.59   10.80
  -3  10   4   76.39    9.20
  -3  10   4   70.69    9.80
   3  10  -4   73.39    8.40
  -3  10   4   71.79    9.50
   2 -10  -4   21.30    5.10
   2 -10  -4   29.20    6.10
  -2 -10   4   24.30    5.80
   2 -10  -4   31.00    6.10
  -2 -10   4   20.50    5.50
   2 -10  -4   23.00    6.00
  -2 -10   4   29.70    6.60
  -2 -10   4   29.50    6.00
  -2 -10   4   41.70    8.40
  -2  10   4   21.20    5.50
  -2  10   4   29.10    6.00
  -2  10   4   33.40    6.90
   2  10  -4   24.60    4.70
  -1 -10   4   18.20    5.30
   1 -10  -4   20.50    5.20
   1 -10  -4   26.50    5.50
  -1 -10   4   28.30    6.70
  -1 -10   4   20.50    5.10
  -1 -10   4   15.60    4.80
   1 -10  -4   20.40    5.50
  -1 -10   4   17.60    6.00
  -1  10   4   14.90    4.60
  -1  10   4   20.00    5.00
  -1  10   4   23.30    5.60
   0 -10  -4   16.80    4.90
   0 -10   4   18.60    5.50
   0 -10   4   10.70    4.40
   0 -10  -4   16.40    4.80
   0 -10   4   16.00    4.20
   0 -10   4   19.50    6.30
   0 -10   4    9.50    4.50
   0 -10  -4   18.80    4.90
   0  10   4   12.90    4.10
   0  10   4   17.30    6.10
   0  10   4   10.30    4.20
   0  10   4   15.70    4.90
   1 -10   4   20.10    5.60
   1 -10   4   14.60    4.50
  -1 -10  -4   21.20    5.30
  -1 -10  -4   14.30    4.20
   1 -10   4   14.70    4.70
   1 -10   4   17.00    5.20
  -1 -10  -4   19.50    5.00
   1 -10   4   16.60    4.00
   1  10   4   18.80    5.10
   1  10   4   24.00    5.90
   1  10   4   19.00    6.00
   1  10   4   24.10    6.00
   2 -10   4  122.19   14.40
   2 -10   4  126.69   11.40
  -2 -10  -4  105.89   11.40
   2 -10   4  111.89   12.00
  -2 -10  -4  108.39   11.90
  -2 -10  -4  103.99   11.20
   2 -10   4  151.98   14.80
   2  10   4  104.19   11.90
   2  10   4  143.89   15.70
   2  10   4  109.69   12.40
   2  10   4  111.39   12.90
   3 -10   4    4.30    3.30
  -3 -10  -4   12.50    4.30
   3  10   4    6.60    3.40
   2 -11  -4   18.50    4.50
  -2 -11   4   12.20    5.00
  -2 -11   4   17.40    6.80
  -2  11   4   14.70    4.90
  -2  11   4   16.50    5.30
   1 -11  -4   89.39   10.60
  -1 -11   4   85.39   11.50
  -1 -11   4   79.19   10.60
  -1  11   4   65.99    9.60
  -1  11   4   96.89   10.50
   0 -11   4  159.98   16.40
   0 -11   4  196.38   17.60
   0 -11  -4  161.88   17.40
   0 -11  -4  151.08   15.60
   0 -11   4  201.88   18.40
   0  11   4  218.78   18.50
   0  11   4  188.58   18.40
  -1 -11  -4  127.99   13.20
  -1 -11  -4  118.89   13.00
   1  11   4   96.39   11.00
   9   0  -5  156.88   15.60
  -9   0   5  146.29   15.50
  -9   0   5  204.08   17.30
   9   0  -5  177.28   16.90
   9   0  -5  161.48   16.10
  -8   0   5   64.59    8.80
  -8   0   5   50.39    9.30
   8   0  -5   60.19    8.50
   8   0  -5   50.69    8.00
   8   0  -5   43.40    7.60
  -8   0   5   49.20    8.40
  -8   0   5   51.99    8.20
   8   0  -5   46.70    6.50
  -7   0   5  787.62   60.19
   7   0  -5  792.92   58.09
  -7   0   5  915.31   57.89
  -7   0   5 1010.60   59.49
   7   0  -5  779.92   58.09
   7   0  -5  778.72   57.89
  -7   0   5  778.02   58.19
   7   0  -5  899.91   56.89
  -6   0   5   83.79    9.20
   6   0  -5   98.99   10.10
  -6   0   5  123.79   10.80
   6   0  -5   92.99    8.30
  -6   0   5   81.19    9.70
   6   0  -5   86.19    9.30
  -6   0   5   92.89   12.00
   5   0  -5  359.66   28.30
   5   0  -5  353.66   28.70
  -5   0   5  363.56   28.50
  -5   0   5  376.16   30.50
   5   0  -5  454.05   27.10
  -5   0   5  356.96   27.60
  -5   0   5  366.06   27.90
   5   0  -5  395.56   28.40
   5   0  -5  443.36   28.90
   5   0  -5  457.55   29.10
  -5   0   5  373.96   28.50
  -5   0   5  432.66   29.00
   4   0  -5  292.57   21.40
   4   0  -5  284.97   21.00
   4   0  -5  335.57   19.90
  -4   0   5  314.27   23.40
  -4   0   5  293.27   21.50
  -4   0   5  289.57   21.80
   4   0  -5  274.37   21.20
  -4   0   5  287.47   21.70
  -4   0   5  289.97   21.20
   4   0  -5  282.87   21.00
   4   0  -5  292.07   21.20
   4   0  -5  278.77   22.10
  -4   0   5  279.67   20.70
  -4   0   5  304.87   22.00
  -3   0   5  159.18   12.50
  -3   0   5  158.88   11.90
  -3   0   5  157.48   12.50
  -3   0   5  143.99   12.30
   3   0  -5  165.48   12.50
   3   0  -5  156.98   12.40
  -3   0   5  160.78   13.50
   3   0  -5  157.18   12.10
   3   0  -5  155.98   11.90
   3   0  -5  159.98   13.10
  -3   0   5  147.19   12.90
  -3   0   5  159.68   13.00
   3   0  -5  169.68   10.40
   3   0  -5  182.28   12.40
   3   0  -5  166.38   10.40
  -3   0   5  161.68   12.20
   3   0  -5  145.59   11.80
  -3   0   5  159.68   12.30
  -2   0   5  589.34   40.70
  -2   0   5  637.64   40.70
  -2   0   5  586.44   40.80
  -2   0   5  551.24   41.70
   2   0  -5  588.74   40.60
   2   0  -5  612.24   41.90
  -2   0   5  623.34   41.40
   2   0  -5  701.33   40.40
   2   0  -5  579.44   40.70
  -2   0   5  700.13   42.20
   2   0  -5  600.94   41.20
  -2   0   5  647.64   40.60
  -2   0   5  616.64   40.70
  -1   0   5 3547.94  216.58
  -1   0   5 3286.37  216.48
  -1   0   5 3721.93  215.28
   1   0  -5 3199.08  215.18
  -1   0   5 3235.58  214.68
   1   0  -5 3290.27  214.58
  -1   0   5 3454.85  215.88
  -1   0   5 3178.48  214.98
   1   0  -5 3347.06  214.28
  -1   0   5 3240.08  214.18
   0   0  -5  211.68   13.60
   0   0   5  218.68   15.70
   0   0   5  202.78   15.00
   0   0   5  202.98   15.60
   0   0   5  203.88   13.80
   0   0   5  207.08   13.80
   0   0  -5  209.48   13.60
   1   0   5  922.61   60.39
   1   0   5  917.91   61.69
   1   0   5  884.81   59.19
   1   0   5  888.31   60.89
   1   0   5 1008.30   59.19
   2   0   5   56.39    6.00
   2   0   5   57.29    4.90
  -2   0  -5   62.69    4.40
   2   0   5   61.89    5.00
  -2   0  -5   65.99    4.30
   2   0   5   58.59    6.10
   2   0   5   59.49    6.70
   2   0   5   63.09    4.30
   3   0   5   10.10    1.90
   3   0   5    9.90    1.90
   3   0   5    8.30    2.00
   3   0   5   13.20    3.30
  -3   0  -5    9.60    1.70
   3   0   5    7.60    1.90
   3   0   5   10.40    1.90
   3   0   5   19.70    3.60
   3   0   5    9.50    3.10
  -3   0  -5   10.40    1.50
   4   0   5   20.80    3.50
   4   0   5   22.20    3.60
   4   0   5   20.30    3.30
   4   0   5   23.80    3.20
   4   0   5   20.30    4.40
  -4   0  -5   18.50    2.90
   4   0   5   28.30    4.60
   4   0   5   24.40    2.60
   4   0   5   19.00    4.60
   4   0   5   30.20    4.50
   5   0   5  275.77   21.60
  -5   0  -5  270.57   21.90
   5   0   5  310.77   20.60
   5   0   5  270.57   21.10
   5   0   5  264.57   22.90
   5   0   5  288.67   20.80
   5   0   5  261.47   20.50
  -5   0  -5  270.67   21.00
   5   0   5  345.57   23.50
   6   0   5    0.60    1.80
   6   0   5    1.80    2.40
   6   0   5   -0.30    1.90
   6   0   5    1.60    3.10
   6   0   5    4.60    2.60
   7   0   5  285.17   24.10
   7   0   5  302.27   25.40
   7   0   5  258.37   22.20
   7   0   5  279.57   22.40
   7   0   5  306.97   22.30
   9  -1  -5   89.69   10.80
   9  -1  -5   93.89   11.00
  -9  -1   5   96.19   11.10
   9  -1  -5   89.99   11.70
  -9  -1   5   97.49   11.30
   9  -1  -5   90.59   10.80
  -9   1   5   90.59   11.20
   9   1  -5   94.59   11.50
   9   1  -5  107.89   12.50
  -9   1   5   97.09   11.00
   9   1  -5  111.09   12.00
   8  -1  -5  355.66   25.50
   8  -1  -5  291.57   23.50
   8  -1  -5  287.97   24.80
  -8  -1   5  305.27   27.20
  -8  -1   5  313.97   26.30
   8  -1  -5  296.67   26.00
  -8  -1   5  365.96   26.00
   8  -1  -5  284.57   24.50
   8   1  -5  288.47   22.10
  -8   1   5  275.97   23.60
  -8   1   5  268.07   24.80
   8   1  -5  280.87   23.30
   8   1  -5  291.17   23.60
   8   1  -5  276.07   23.70
  -8   1   5  330.67   24.00
   7  -1  -5  110.49   12.10
  -7  -1   5   98.29   10.70
   7  -1  -5   84.99   10.10
   7  -1  -5  106.19    9.60
   7  -1  -5  119.69   11.10
   7  -1  -5   84.29    9.80
  -7  -1   5   91.69   11.10
  -7  -1   5   99.59   11.00
  -7  -1   5   93.49   11.80
   7   1  -5  118.69    9.80
  -7   1   5   99.49    9.60
   7   1  -5   87.29   10.40
  -7   1   5  116.09    9.50
   7   1  -5   86.69   10.40
   7   1  -5  111.29   11.10
  -7   1   5   86.99   10.50
  -7   1   5   88.59   12.20
  -7   1   5   88.19   10.30
   6  -1  -5  168.48   15.80
  -6  -1   5  195.08   16.70
   6  -1  -5  196.38   16.10
   6  -1  -5  188.48   17.00
   6  -1  -5  211.78   16.40
  -6  -1   5  195.38   16.50
  -6  -1   5  187.28   17.90
  -6  -1   5  194.98   16.70
  -6   1   5  209.38   18.80
   6   1  -5  185.58   16.60
   6   1  -5  209.58   16.80
   6   1  -5  220.48   15.20
  -6   1   5  200.08   15.30
   6   1  -5  186.98   16.40
   6   1  -5  198.58   15.90
  -6   1   5  182.98   16.30
  -6   1   5  189.58   15.70
  -6   1   5  173.98   16.00
  -5  -1   5  453.15   33.80
  -5  -1   5  449.06   34.10
  -5  -1   5  477.45   33.40
   5  -1  -5  566.74   33.80
   5  -1  -5  451.85   34.00
  -5  -1   5  542.05   33.80
   5  -1  -5  445.16   33.90
  -5  -1   5  436.66   35.60
   5  -1  -5  452.65   34.50
   5   1  -5  428.56   29.00
  -5   1   5  391.76   30.80
  -5   1   5  427.36   30.90
   5   1  -5  453.55   31.80
   5   1  -5  426.36   30.50
  -5   1   5  449.06   29.90
   5   1  -5  457.75   30.60
   5   1  -5  432.66   31.00
  -5   1   5  424.66   30.40
  -5   1   5  405.26   32.40
   5   1  -5  409.96   30.60
   5   1  -5  427.66   30.90
  -5   1   5  448.56   30.00
  -4  -1   5 1640.14  110.49
  -4  -1   5 1676.13  109.59
   4  -1  -5 1692.63  109.59
   4  -1  -5 1690.13  108.79
  -4  -1   5 1633.64  108.49
   4  -1  -5 1648.24  108.39
   4  -1  -5 1664.73  109.19
   4  -1  -5 1705.03  108.19
  -4  -1   5 1701.13  108.69
   4  -1  -5 1671.33  109.99
   4  -1  -5 1533.05  108.39
  -4  -1   5 1517.85  108.69
  -4  -1   5 1706.03  108.69
   4  -1  -5 1900.81  108.79
   4   1  -5 1652.63  109.09
   4   1  -5 1640.54  108.69
  -4   1   5 1677.03  109.99
   4   1  -5 1630.44  109.09
   4   1  -5 1579.74  108.39
   4   1  -5 1637.94  108.79
   4   1  -5 1649.23  107.09
  -4   1   5 1983.40  109.89
   4   1  -5 1627.34  109.99
  -4   1   5 1629.64  109.09
  -4   1   5 1620.54  108.89
  -4   1   5 1632.04  109.59
  -4   1   5 1663.63  108.69
  -4   1   5 1836.52  110.99
  -4   1   5 1666.53  108.59
   3  -1  -5 1141.89   73.79
   3  -1  -5 1146.79   74.49
   3  -1  -5 1155.48   74.39
   3  -1  -5 1119.69   74.29
   3  -1  -5 1192.18   75.29
  -3  -1   5 1099.49   74.29
  -3  -1   5 1126.19   75.69
  -3  -1   5 1202.38   74.79
  -3  -1   5 1153.68   75.79
   3  -1  -5 1082.49   75.19
  -3  -1   5 1099.69   74.39
  -3  -1   5 1126.89   74.69
   3  -1  -5 1093.29   74.49
   3  -1  -5 1243.58   73.49
  -3  -1   5 1107.89   75.99
  -3  -1   5 1144.39   74.49
   3   1  -5 1094.99   76.09
  -3   1   5 1188.38   76.29
   3   1  -5 1159.28   75.19
  -3   1   5 1119.99   75.39
  -3   1   5 1135.29   75.69
   3   1  -5 1126.39   75.19
  -3   1   5 1121.29   75.19
   3   1  -5 1159.78   75.99
  -3   1   5 1198.28   76.49
   3   1  -5 1206.98   75.59
   3   1  -5 1163.28   74.99
  -3   1   5 1149.08   76.79
   3   1  -5 1138.19   75.39
  -3   1   5 1182.08   75.69
   2  -1  -5 1249.38   80.79
  -2  -1   5 1195.88   80.69
   2  -1  -5 1205.58   81.59
  -2  -1   5 1369.66   81.09
  -2  -1   5 1196.38   82.09
   2  -1  -5 1450.65   80.39
  -2  -1   5 1154.88   80.69
   2  -1  -5 1190.28   80.59
  -2  -1   5 1225.68   81.09
   2  -1  -5 1386.96   82.19
  -2  -1   5 1173.98   81.89
   2  -1  -5 1180.98   80.79
   2  -1  -5 1191.98   80.49
  -2  -1   5 1309.77   80.79
  -2   1   5 1194.28   79.69
   2   1  -5 1199.78   78.09
   2   1  -5 1237.18   78.29
  -2   1   5 1209.28   78.99
   2   1  -5 1245.58   79.89
  -2   1   5 1158.28   78.89
  -2   1   5 1263.17   78.29
  -2   1   5 1294.67   77.89
   2   1  -5 1149.58   78.69
  -2   1   5 1212.38   79.79
  -2   1   5 1243.28   78.79
  -2   1   5 1193.28   80.09
   1  -1  -5 1088.39   64.99
  -1  -1   5 1017.70   67.09
  -1  -1   5 1001.70   65.29
  -1  -1   5 1168.08   65.59
   1  -1  -5  948.61   65.49
   1  -1  -5  922.31   66.59
   1  -1  -5 1156.48   66.09
   1  -1  -5 1052.59   64.99
  -1  -1   5  927.71   66.69
   1  -1  -5  978.80   65.59
  -1  -1   5  951.50   65.49
  -1  -1   5  979.70   65.99
  -1   1   5 1016.60   67.09
  -1   1   5 1168.78   67.39
   1   1  -5 1024.10   66.79
   1   1  -5 1002.80   66.99
  -1   1   5  948.61   67.09
  -1   1   5  984.30   68.39
  -1   1   5  986.80   67.49
  -1   1   5 1078.09   67.29
   1   1  -5 1156.38   68.49
  -1   1   5 1049.79   68.09
   0  -1   5 3125.39  186.58
   0  -1   5 2709.73  186.18
   0  -1  -5 2639.04  186.58
   0  -1  -5 3217.58  186.48
   0  -1   5 2847.71  185.58
   0  -1   5 2948.00  186.38
   0  -1  -5 2860.61  185.98
   0   1   5 2926.61  177.68
   0   1   5 2574.54  176.78
   0   1   5 2647.34  175.98
   0   1   5 3045.30  177.98
   0   1   5 2725.63  177.78
   0   1   5 2701.13  177.28
   0   1   5 2720.63  177.18
  -1  -1  -5  831.92   52.69
  -1  -1  -5  812.82   52.49
   1  -1   5  828.92   54.79
   1  -1   5  788.72   53.59
   1   1   5  766.72   56.09
   1   1   5  954.40   56.49
   1   1   5  906.21   54.09
   1   1   5  923.61   53.89
   1   1   5  768.82   54.59
   1   1   5  776.42   54.29
   1   1   5  805.22   54.69
   1   1   5  800.82   54.19
  -2  -1  -5  343.97   22.60
  -2  -1  -5  327.57   23.50
   2  -1   5  323.27   24.80
   2  -1   5  330.17   24.50
   2  -1   5  340.77   23.60
   2  -1   5  364.76   22.20
   2  -1   5  329.57   24.00
   2  -1   5  350.86   22.30
  -2  -1  -5  327.07   22.60
   2   1   5  326.67   23.40
   2   1   5  350.56   23.00
   2   1   5  314.17   23.20
   2   1   5  331.17   23.20
   2   1   5  339.57   25.30
   2   1   5  391.26   23.10
  -3  -1  -5  259.27   19.30
   3  -1   5  303.27   19.30
   3  -1   5  285.77   21.30
   3  -1   5  286.57   21.50
   3  -1   5  284.37   19.00
   3  -1   5  285.97   22.20
   3  -1   5  279.87   19.20
  -3  -1  -5  274.87   19.60
  -3  -1  -5  282.37   20.80
   3  -1   5  317.87   20.20
   3  -1   5  273.57   19.30
   3   1   5  330.27   20.90
   3   1   5  293.67   20.80
  -3   1  -5  308.47   19.50
   3   1   5  273.17   20.50
   3   1   5  281.87   22.70
  -3   1  -5  292.97   19.20
   3   1   5  296.27   20.90
   3   1   5  276.37   20.40
   4  -1   5  456.65   30.60
   4  -1   5  419.26   30.20
  -4  -1  -5  379.86   30.30
   4  -1   5  537.75   33.20
   4  -1   5  442.16   30.30
   4  -1   5  441.76   33.40
   4  -1   5  493.45   30.70
   4  -1   5  449.86   30.40
   4   1   5  504.55   33.20
   4   1   5  494.75   33.20
   4   1   5  478.15   32.90
   4   1   5  465.55   31.20
   4   1   5  408.66   34.70
   4   1   5  570.04   33.30
   4   1   5  429.46   34.10
   4   1   5  562.84   34.70
   4   1   5  432.46   32.80
  -4   1  -5  499.15   31.90
   4   1   5  445.06   31.20
   5  -1   5   27.10    6.10
   5  -1   5   15.80    3.20
   5  -1   5   17.10    3.30
   5  -1   5   16.90    3.10
   5  -1   5   20.50    4.70
   5  -1   5   17.50    3.30
   5  -1   5   16.40    4.10
   5  -1   5   17.50    2.30
   5   1   5   13.10    3.20
   5   1   5   14.10    4.60
   5   1   5   15.90    4.20
   5   1   5   15.20    3.90
   5   1   5   15.80    3.30
   5   1   5   14.40    3.30
   5   1   5   19.30    3.70
   6  -1   5  231.38   20.60
   6  -1   5  233.28   17.90
   6  -1   5  223.98   19.30
   6  -1   5  234.98   18.00
   6  -1   5  230.88   19.80
   6   1   5  216.68   20.30
   6   1   5  219.58   19.80
   6   1   5  251.47   18.60
   6   1   5  224.28   18.10
   6   1   5  233.98   18.30
   7  -1   5   -0.60    2.00
   7  -1   5    0.70    3.40
   7  -1   5    3.00    2.40
   7  -1   5    1.10    2.00
   7  -1   5    2.50    3.70
   7   1   5    0.70    2.10
   7   1   5    2.80    3.80
   7   1   5    2.70    2.60
   7   1   5    1.80    2.80
   9  -2  -5   23.20    5.60
   9  -2  -5   23.20    5.50
  -9  -2   5   28.70    6.30
   9  -2  -5   37.50    7.20
   9  -2  -5   20.90    6.00
  -9  -2   5   24.80    6.00
   9  -2  -5   24.90    6.20
  -9   2   5   14.30    5.40
  -9   2   5   26.00    6.00
   9   2  -5   25.80    6.10
   9   2  -5   25.20    6.20
   9   2  -5   29.60    6.80
  -9   2   5   24.30    6.30
   8  -2  -5   98.09   10.70
  -8  -2   5  117.39   12.20
   8  -2  -5   92.99    9.60
   8  -2  -5   91.39   10.80
   8  -2  -5   88.39   11.20
   8  -2  -5   76.89   10.00
  -8  -2   5   79.19    9.80
  -8  -2   5   92.09   12.90
   8   2  -5   91.49   11.50
  -8   2   5  115.79   11.80
   8   2  -5  100.29   11.90
  -8   2   5   90.09   10.80
   8   2  -5   99.39   10.10
   8   2  -5   89.09   10.90
  -8   2   5  126.69   13.70
   7  -2  -5   32.40    6.00
  -7  -2   5   44.60    7.20
  -7  -2   5   34.50    6.50
   7  -2  -5   30.30    6.50
   7  -2  -5   31.90    6.10
  -7  -2   5   30.10    7.50
   7  -2  -5   50.19    6.90
  -7  -2   5   27.80    7.10
  -7  -2   5   43.90    5.00
  -7   2   5   36.40    7.60
  -7   2   5   45.30    7.40
  -7   2   5   46.00    5.60
   7   2  -5   39.00    5.60
   7   2  -5   41.90    7.00
  -7   2   5   51.49    7.30
   7   2  -5   56.79    7.70
   7   2  -5   34.90    6.80
   6  -2  -5  517.45   35.80
   6  -2  -5  534.25   37.30
   6  -2  -5  499.85   35.30
  -6  -2   5  492.75   36.50
  -6  -2   5  459.55   35.80
   6  -2  -5  474.35   35.50
  -6  -2   5  509.95   36.40
   6   2  -5  516.55   35.00
   6   2  -5  528.85   36.90
  -6   2   5  498.65   35.20
   6   2  -5  513.65   35.90
  -6   2   5  508.65   38.70
  -6   2   5  507.15   36.60
   6   2  -5  506.95   36.90
   6   2  -5  485.35   36.50
  -5  -2   5  616.04   45.70
  -5  -2   5  648.84   44.60
   5  -2  -5  621.34   44.50
  -5  -2   5  653.53   43.90
  -5  -2   5  647.04   43.40
  -5  -2   5  580.24   43.70
   5  -2  -5  645.74   42.80
   5  -2  -5  621.64   43.30
  -5   2   5  691.13   46.20
  -5   2   5  639.64   43.60
  -5   2   5  617.94   43.40
  -5   2   5  645.54   42.90
   5   2  -5  670.53   42.80
   5   2  -5  590.94   44.40
  -5   2   5  622.14   44.20
   5   2  -5  631.54   43.50
   5   2  -5  698.13   45.00
  -5   2   5  622.44   45.20
   5   2  -5  613.14   44.20
  -4  -2   5  128.39   11.80
   4  -2  -5  136.49   10.50
   4  -2  -5  129.29   10.40
  -4  -2   5  127.99   11.40
  -4  -2   5  133.19   12.40
   4  -2  -5  135.09   12.00
  -4  -2   5  130.39   11.30
   4  -2  -5  134.59   10.90
  -4  -2   5  137.99   11.20
   4  -2  -5  126.59   10.90
   4  -2  -5  131.79   11.70
  -4  -2   5  126.19   11.30
  -4  -2   5  132.89   11.10
   4  -2  -5  133.09   11.20
   4  -2  -5  134.89   11.20
  -4   2   5  128.99   12.40
   4   2  -5  133.39   10.80
  -4   2   5  131.29   11.20
  -4   2   5  140.09   12.30
   4   2  -5  130.59   10.00
  -4   2   5  136.09   11.80
  -4   2   5  171.08   11.90
   4   2  -5  126.09   11.90
  -4   2   5  158.08   10.60
   4   2  -5  128.89   11.60
  -4   2   5  129.29   11.20
   4   2  -5  137.19   11.70
  -4   2   5  129.39   12.40
   4   2  -5  133.99   11.80
  -4   2   5  171.08   12.00
   4   2  -5  129.79   12.50
   4   2  -5  141.09   11.60
   4   2  -5  143.09   11.40
  -4   2   5  136.89   11.70
   3  -2  -5 2441.56  150.38
   3  -2  -5 2584.34  150.58
   3  -2  -5 2364.96  151.18
  -3  -2   5 2334.97  150.78
  -3  -2   5 2218.08  150.18
  -3  -2   5 2128.99  150.28
   3  -2  -5 2610.24  149.99
  -3  -2   5 2477.95  148.79
  -3  -2   5 2193.78  151.58
   3  -2  -5 2241.58  151.08
   3  -2  -5 2566.24  149.29
   3  -2  -5 2154.38  149.99
   3  -2  -5 2320.77  151.28
  -3  -2   5 2274.67  151.88
  -3  -2   5 2196.08  150.48
   3  -2  -5 2220.98  150.08
   3   2  -5 2151.18  142.79
   3   2  -5 2293.17  142.49
  -3   2   5 2163.48  143.99
   3   2  -5 2098.59  143.59
  -3   2   5 2554.24  143.09
  -3   2   5 2233.58  143.99
  -3   2   5 2226.78  143.79
  -3   2   5 2147.89  142.99
  -3   2   5 2293.17  141.39
   3   2  -5 2126.69  143.59
   3   2  -5 2235.88  141.89
  -3   2   5 2116.89  142.99
   3   2  -5 2103.49  142.49
  -3   2   5 2282.17  143.09
   2  -2  -5  665.83   44.20
   2  -2  -5  663.73   44.20
   2  -2  -5  671.73   44.30
  -2  -2   5  664.23   44.30
   2  -2  -5  667.13   44.20
   2  -2  -5  652.53   44.30
  -2  -2   5  690.73   43.40
  -2  -2   5  625.24   44.20
  -2  -2   5  655.43   44.40
  -2  -2   5  699.03   44.50
   2  -2  -5  712.63   45.30
   2  -2  -5  655.93   45.30
   2  -2  -5  680.03   45.20
  -2  -2   5  664.23   43.50
  -2  -2   5  659.43   44.90
  -2   2   5  707.63   45.50
  -2   2   5  679.73   46.60
   2   2  -5  661.33   44.50
   2   2  -5  651.83   46.30
  -2   2   5  672.23   45.50
  -2   2   5  687.73   46.10
  -2   2   5  687.83   45.50
   2   2  -5  658.23   45.40
  -2   2   5  647.44   45.50
   2   2  -5  790.32   45.50
  -2   2   5  647.44   46.30
   2   2  -5  742.43   44.60
  -1  -2   5  195.18   14.20
   1  -2  -5  197.88   14.50
  -1  -2   5  211.28   16.10
   1  -2  -5  214.48   14.30
   1  -2  -5  200.88   14.70
  -1  -2   5  230.38   14.40
  -1  -2   5  207.28   14.20
  -1  -2   5  197.38   14.40
   1  -2  -5  199.98   15.80
   1  -2  -5  201.98   14.40
   1   2  -5  219.98   16.60
   1   2  -5  259.97   16.50
  -1   2   5  242.08   15.80
  -1   2   5  206.48   16.00
  -1   2   5  209.18   15.80
   1   2  -5  205.28   15.10
  -1   2   5  212.08   15.70
  -1   2   5  211.18   16.70
  -1   2   5  241.88   17.20
  -1   2   5  209.48   15.60
   0  -2  -5 1288.77   75.39
   0  -2  -5 1122.19   75.79
   0  -2  -5 1190.98   75.09
   0  -2   5 1224.48   75.39
   0  -2  -5 1109.99   77.49
   0  -2   5 1224.58   75.39
   0  -2   5 1140.99   76.69
   0  -2   5 1137.29   76.49
   0  -2   5 1149.19   77.29
   0  -2   5 1126.79   76.99
   0  -2  -5 1211.28   75.09
   0   2   5 1194.08   76.19
   0   2   5 1101.69   75.89
   0   2  -5 1254.97   75.09
   0   2   5 1109.99   77.29
   0   2   5 1125.79   75.59
   0   2   5 1294.27   76.59
   0   2  -5 1181.48   74.99
   0   2   5 1219.48   76.29
   0   2   5 1128.49   76.39
  -1  -2  -5  779.12   53.49
   1  -2   5  854.31   51.19
   1  -2   5  829.52   50.99
   1  -2   5  790.72   52.89
   1  -2   5  766.92   53.09
  -1  -2  -5  777.92   51.99
  -1  -2  -5  767.32   52.19
   1  -2   5  778.32   53.99
   1  -2   5  827.32   53.19
   1   2   5  807.42   52.19
   1   2   5  758.52   53.29
   1   2   5  782.02   51.99
   1   2   5  805.52   51.19
   1   2   5  785.32   51.99
   1   2   5  812.42   52.09
   1   2   5  795.22   53.89
  -2  -2  -5   78.29    7.80
   2  -2   5   57.39    6.20
   2  -2   5   63.49    7.20
   2  -2   5   58.29    4.80
   2  -2   5   58.59    4.80
  -2  -2  -5   58.39    5.70
   2  -2   5   75.89    6.50
   2  -2   5   86.79    7.30
  -2  -2  -5   76.49    6.00
   2   2   5   64.19    5.70
   2   2   5   57.29    6.70
   2   2   5   53.09    6.60
   2   2   5   51.19    5.60
   2   2   5   55.29    5.40
   2   2   5   56.69    5.10
   2   2   5   58.29    4.50
   2   2   5   52.39    5.40
   2   2   5   49.99    5.30
   3  -2   5 1113.39   67.59
   3  -2   5 1044.00   66.39
   3  -2   5  991.60   68.59
   3  -2   5 1051.99   66.49
   3  -2   5  978.30   69.19
  -3  -2  -5 1017.40   67.99
  -3  -2  -5 1011.80   67.39
   3  -2   5 1026.50   66.49
   3  -2   5  980.40   66.49
   3  -2   5 1081.39   67.99
  -3   2  -5 1105.79   73.39
   3   2   5 1054.49   75.09
   3   2   5 1014.20   75.69
   3   2   5 1253.97   74.19
   3   2   5 1042.30   74.99
  -3   2  -5 1104.29   73.29
   3   2   5 1350.86   75.69
   3   2   5 1049.49   77.09
   3   2   5 1078.59   76.49
   3   2   5 1336.27   75.79
   3   2   5 1229.08   74.19
   4  -2   5  193.68   13.10
   4  -2   5  188.38   13.00
  -4  -2  -5  164.58   13.40
   4  -2   5  159.38   12.80
   4  -2   5  165.88   12.50
   4  -2   5  159.18   12.50
   4  -2   5  178.98   13.30
   4  -2   5  167.58   14.70
   4   2   5  168.88   13.70
  -4   2  -5  173.28   12.00
   4   2   5  172.58   12.60
   4   2   5  161.38   15.30
   4   2   5  148.79   14.30
   4   2   5  155.68   13.30
   4   2   5  198.28   14.10
   4   2   5  160.28   11.40
   4   2   5  172.48   11.50
   5  -2   5   67.49    6.20
   5  -2   5   82.19    7.30
   5  -2   5   71.59    9.50
   5  -2   5  101.49    9.80
   5  -2   5   72.99    8.70
   5  -2   5   67.89    6.80
   5   2   5   74.19    8.70
   5   2   5   69.79    6.90
   5   2   5   74.09    7.90
   5   2   5   72.39    9.30
   5   2   5   70.89    7.90
   6  -2   5    5.70    3.10
   6  -2   5    8.50    2.80
   6  -2   5    7.30    2.60
   6  -2   5   16.30    4.80
   6  -2   5    9.40    4.60
   6   2   5    4.70    4.00
   6   2   5   15.90    4.10
   6   2   5    8.30    3.60
   6   2   5    9.30    3.40
   7  -2   5   27.60    7.30
   7  -2   5   26.40    4.70
   7  -2   5   24.00    6.20
   7  -2   5   25.20    6.10
   7  -2   5   31.80    6.60
   7   2   5   30.40    6.00
   7   2   5   27.30    6.70
   7   2   5   26.20    6.70
   7   2   5   22.40    5.10
   9  -3  -5   16.60    5.20
   9  -3  -5   23.10    5.80
   9  -3  -5   20.70    5.10
  -9  -3   5   33.40    7.20
  -9  -3   5   16.80    4.90
   9  -3  -5   23.00    6.80
  -9  -3   5   20.30    5.40
   9  -3  -5   17.20    5.00
   9   3  -5   23.30    6.30
   9   3  -5   20.40    5.80
  -9   3   5   27.20    6.80
  -9   3   5   27.50    6.10
  -9   3   5   21.50    7.30
   9   3  -5   16.70    5.20
  -8  -3   5   -0.20    3.00
   8  -3  -5    1.20    2.70
   8  -3  -5    3.70    3.00
   8  -3  -5    1.30    2.60
  -8  -3   5    5.80    3.90
   8  -3  -5    1.40    2.50
  -8  -3   5    5.90    5.90
  -8   3   5    0.30    2.60
   8   3  -5    3.10    3.00
   8   3  -5    3.20    2.90
  -8   3   5    2.30    3.30
   8   3  -5    5.20    3.40
   8   3  -5    4.00    2.70
  -8   3   5    4.70    3.20
  -7  -3   5  402.76   27.90
  -7  -3   5  358.06   27.20
   7  -3  -5  308.97   25.90
  -7  -3   5  380.06   29.80
  -7  -3   5  361.86   24.70
   7  -3  -5  312.17   27.30
   7  -3  -5  378.26   26.70
  -7  -3   5  306.67   28.10
   7  -3  -5  292.17   25.20
  -7   3   5  388.66   28.10
   7   3  -5  320.17   25.80
  -7   3   5  305.97   25.00
  -7   3   5  309.37   25.30
   7   3  -5  326.57   24.20
   7   3  -5  321.87   26.30
  -7   3   5  313.57   23.00
  -6  -3   5  378.26   27.50
  -6  -3   5  296.97   23.00
   6  -3  -5  302.67   24.10
   6  -3  -5  301.47   25.30
  -6  -3   5  299.17   25.70
   6  -3  -5  381.06   24.10
   6  -3  -5  302.27   24.10
  -6  -3   5  324.47   25.00
  -6  -3   5  283.57   24.40
  -6   3   5  293.17   24.60
  -6   3   5  346.17   23.10
   6   3  -5  296.67   23.40
   6   3  -5  285.77   24.70
   6   3  -5  296.67   23.10
  -6   3   5  373.26   27.60
   6   3  -5  387.06   25.70
   6   3  -5  306.27   24.80
   5  -3  -5  592.04   40.50
   5  -3  -5  639.14   41.10
  -5  -3   5  608.34   41.70
   5  -3  -5  623.44   42.90
  -5  -3   5  586.24   42.90
  -5  -3   5  609.54   40.80
  -5  -3   5  548.25   41.80
  -5  -3   5  581.94   43.50
   5  -3  -5  584.44   41.30
   5  -3  -5  583.34   41.20
  -5  -3   5  585.04   41.90
   5   3  -5  587.84   41.00
  -5   3   5  579.94   39.50
   5   3  -5  592.94   41.00
   5   3  -5  592.84   39.50
   5   3  -5  587.04   39.30
   5   3  -5  567.84   41.20
  -5   3   5  557.14   40.50
  -5   3   5  566.14   40.70
  -5   3   5  606.34   42.40
  -4  -3   5  915.31   60.19
  -4  -3   5  821.42   58.99
  -4  -3   5  887.51   59.49
   4  -3  -5  870.71   59.29
   4  -3  -5  853.11   59.09
   4  -3  -5  890.61   59.29
  -4  -3   5 1001.40   62.19
   4  -3  -5  895.91   58.19
   4  -3  -5  882.91   59.09
   4  -3  -5  873.01   58.99
  -4  -3   5  919.51   57.99
   4  -3  -5  911.01   59.89
  -4  -3   5  884.81   60.09
  -4  -3   5  867.91   59.79
  -4  -3   5  832.82   60.69
   4   3  -5  791.32   57.49
  -4   3   5  880.81   56.89
  -4   3   5  883.01   59.09
  -4   3   5  853.71   56.29
   4   3  -5  847.02   55.19
  -4   3   5  839.02   56.69
  -4   3   5  809.72   57.89
   4   3  -5  864.01   57.09
  -4   3   5  853.91   57.79
  -4   3   5  859.81   57.09
   4   3  -5  793.92   57.19
   4   3  -5  845.42   55.29
   4   3  -5  850.71   56.49
  -3  -3   5  380.86   27.60
   3  -3  -5  358.86   27.00
  -3  -3   5  371.46   27.80
   3  -3  -5  387.66   25.90
   3  -3  -5  375.66   27.10
  -3  -3   5  387.16   29.10
  -3  -3   5  393.46   27.60
   3  -3  -5  391.86   27.80
   3  -3  -5  394.16   28.20
  -3  -3   5  459.05   26.60
   3  -3  -5  377.96   27.20
  -3  -3   5  393.46   27.60
   3  -3  -5  394.56   27.40
   3   3  -5  397.76   28.60
  -3   3   5  403.96   28.30
  -3   3   5  386.86   28.60
  -3   3   5  416.36   29.30
   3   3  -5  447.46   27.40
   3   3  -5  458.15   28.40
  -3   3   5  395.56   29.10
  -3   3   5  381.56   28.40
  -3   3   5  385.86   28.30
   3   3  -5  407.86   29.10
   3   3  -5  385.46   26.50
   3   3  -5  394.46   28.30
  -3   3   5  402.36   28.10
  -3   3   5  400.06   29.60
  -2  -3   5   94.29    8.20
   2  -3  -5  100.89    6.60
   2  -3  -5   98.99    8.50
  -2  -3   5  101.19    8.50
  -2  -3   5   90.09    9.00
  -2  -3   5   93.79    8.40
   2  -3  -5   91.49    8.40
   2  -3  -5   88.09    8.40
  -2  -3   5   94.59    7.80
   2  -3  -5   97.39    8.90
   2  -3  -5   96.39    8.40
  -2  -3   5   93.29    8.80
  -2  -3   5   95.09    8.40
   2  -3  -5  124.19    8.70
   2  -3  -5   92.89    8.10
   2  -3  -5   98.09    9.20
   2   3  -5  101.99    8.70
  -2   3   5  124.59    9.40
  -2   3   5   93.69    9.10
   2   3  -5   90.59    7.50
  -2   3   5   96.09    8.80
  -2   3   5   93.49    8.30
   2   3  -5   89.89    8.30
   2   3  -5   94.49    8.20
   2   3  -5  114.79    7.80
   2   3  -5   94.99    9.20
  -2   3   5   94.99    8.60
  -2   3   5  103.99    8.50
  -2   3   5   91.89    8.60
   1  -3  -5  247.88   16.60
  -1  -3   5  225.98   16.30
  -1  -3   5  216.08   17.10
  -1  -3   5  244.58   16.10
   1  -3  -5  233.08   16.20
   1  -3  -5  208.18   15.90
   1  -3  -5  230.78   16.20
   1  -3  -5  207.78   15.70
  -1  -3   5  221.18   15.80
  -1  -3   5  202.18   17.20
  -1  -3   5  219.48   14.90
  -1  -3   5  227.48   16.60
  -1  -3   5  227.88   16.10
  -1  -3   5  216.48   15.90
   1  -3  -5  225.18   17.50
   1  -3  -5  220.58   16.90
   1   3  -5  215.48   15.70
  -1   3   5  218.68   16.40
   1   3  -5  216.78   17.00
  -1   3   5  201.58   17.10
  -1   3   5  229.78   16.40
  -1   3   5  232.68   16.50
  -1   3   5  235.28   16.20
   1   3  -5  229.08   16.20
  -1   3   5  224.38   17.20
  -1   3   5  224.48   16.90
  -1   3   5  220.88   16.80
   1   3  -5  228.78   15.80
   0  -3   5    4.50    1.90
   0  -3   5    2.40    1.50
   0  -3   5    3.10    1.00
   0  -3   5    3.60    1.40
   0  -3  -5    3.90    1.80
   0  -3  -5    3.20    2.10
   0  -3   5    2.20    1.00
   0  -3  -5    4.80    1.50
   0  -3  -5    3.00    1.30
   0  -3  -5    2.80    1.60
   0  -3   5    3.50    1.10
   0  -3  -5    0.90    1.20
   0  -3  -5    4.10    1.00
   0  -3   5    2.60    1.10
   0   3   5    5.00    1.20
   0   3   5    2.10    1.30
   0   3  -5    3.90    1.70
   0   3   5    2.10    1.30
   0   3   5    5.50    2.50
   0   3   5    6.10    2.40
   0   3   5    3.80    1.10
   0   3  -5    3.40    1.00
   0   3   5    5.20    2.10
   0   3   5    3.80    1.60
   0   3   5    2.70    1.60
   0   3  -5    4.40    1.10
  -1  -3  -5  582.84   35.40
   1  -3   5  504.25   37.30
   1  -3   5  531.15   37.30
   1  -3   5  620.64   35.70
  -1  -3  -5  494.25   37.60
  -1  -3  -5  485.75   35.40
  -1  -3  -5  605.94   36.20
  -1  -3  -5  582.34   36.50
   1  -3   5  518.35   38.40
   1  -3   5  499.65   36.20
   1  -3   5  522.55   35.10
   1  -3   5  577.64   35.40
   1  -3   5  549.54   35.00
  -1  -3  -5  506.55   36.60
   1   3   5  501.45   35.30
  -1   3  -5  548.35   33.80
   1   3   5  521.55   35.40
   1   3   5  479.55   36.70
   1   3   5  496.35   35.50
  -1   3  -5  550.64   33.70
   1   3   5  578.24   35.70
   1   3   5  492.55   35.50
  -2  -3  -5  863.41   60.99
   2  -3   5  906.61   59.59
  -2  -3  -5  959.50   59.19
   2  -3   5  872.81   61.59
   2  -3   5 1004.50   59.79
   2  -3   5  900.11   61.19
   2  -3   5  914.01   62.99
  -2  -3  -5  832.42   60.59
  -2  -3  -5  907.91   59.09
   2  -3   5  919.71   59.79
  -2  -3  -5 1039.20   61.19
   2  -3   5  968.80   59.59
  -2   3  -5  951.40   58.99
   2   3   5  890.51   62.59
   2   3   5  860.81   60.79
   2   3   5  948.31   61.19
  -2   3  -5  970.00   58.89
   2   3   5  913.61   60.39
   2   3   5  919.11   61.09
   2   3   5  896.21   62.59
   3  -3   5   33.00    5.30
   3  -3   5   30.60    3.40
  -3  -3  -5   28.50    4.20
   3  -3   5   29.30    4.80
  -3  -3  -5   29.50    4.30
   3  -3   5   33.20    4.10
   3  -3   5   32.50    3.60
   3  -3   5   37.70    3.40
   3  -3   5   34.10    3.40
   3  -3   5   39.80    6.50
   3   3   5   28.70    5.50
   3   3   5   24.20    4.40
   3   3   5   26.60    4.60
   3   3   5   41.10    5.00
   3   3   5   38.30    5.00
   3   3   5   26.20    4.90
   3   3   5   29.80    5.60
  -3   3  -5   31.10    2.90
  -3   3  -5   30.20    2.90
   3   3   5   30.20    3.50
   4  -3   5  444.56   30.60
   4  -3   5  470.45   30.70
   4  -3   5  465.85   31.20
   4  -3   5  437.66   33.90
   4  -3   5  544.65   33.70
  -4  -3  -5  437.76   31.80
   4  -3   5  468.25   30.80
   4  -3   5  432.36   30.70
   4  -3   5  406.66   31.60
   4   3   5  458.45   31.70
   4   3   5  445.56   29.00
   4   3   5  444.46   33.40
   4   3   5  405.76   32.60
   4   3   5  429.26   31.20
   4   3   5  466.45   32.50
  -4   3  -5  426.66   29.20
   5  -3   5    2.00    2.20
   5  -3   5    3.70    3.20
   5  -3   5    3.70    1.80
   5  -3   5    4.00    1.80
   5  -3   5    6.00    2.20
   5   3   5    2.70    2.60
   5   3   5    5.60    2.90
   5   3   5    1.80    3.10
   5   3   5    2.90    2.40
   5   3   5    3.60    3.60
   6  -3   5  116.49   10.50
   6  -3   5  108.09   12.50
   6  -3   5  125.69   10.80
   6  -3   5  126.49   13.60
   6   3   5  121.39   12.80
   6   3   5  125.59   13.90
   6   3   5  177.58   16.20
   6   3   5  127.59   12.60
   7  -3   5   55.79    9.50
   7  -3   5   49.90    6.40
   7  -3   5   52.79    8.10
   7  -3   5   52.29    8.70
   7   3   5   60.69    8.50
   7   3   5   43.90    8.70
   7   3   5   56.79    7.40
   7   3   5   51.69    9.40
  -9  -4   5  114.49   13.70
   9  -4  -5  148.49   14.20
  -9  -4   5  155.18   15.20
  -9   4   5  122.99   12.80
   9   4  -5  126.69   13.90
   8  -4  -5   61.19    9.00
  -8  -4   5   74.89   10.40
  -8  -4   5   73.49   10.50
   8  -4  -5   95.99   10.00
   8  -4  -5  107.69   10.80
  -8  -4   5   87.59   10.70
   8  -4  -5   78.99   11.10
   8   4  -5   93.49   11.50
  -8   4   5   72.89    9.40
  -8   4   5   71.79   10.30
   8   4  -5   73.89    9.60
   8   4  -5   67.19   10.50
  -8   4   5   78.19    9.90
   7  -4  -5  496.65   32.80
  -7  -4   5  457.45   31.50
   7  -4  -5  462.45   35.10
  -7  -4   5  421.96   33.70
   7  -4  -5  477.85   33.60
  -7  -4   5  480.15   34.30
  -7  -4   5  387.86   35.40
   7  -4  -5  387.06   32.60
   7   4  -5  509.95   35.80
   7   4  -5  418.86   35.50
   7   4  -5  392.76   34.70
   7   4  -5  446.16   33.60
  -7   4   5  477.35   35.00
  -7   4   5  524.25   37.00
  -7   4   5  552.44   35.90
   6  -4  -5  535.55   40.20
  -6  -4   5  525.55   39.40
  -6  -4   5  618.24   41.90
  -6  -4   5  505.75   41.30
   6  -4  -5  527.85   38.60
  -6  -4   5  562.24   38.00
  -6  -4   5  529.05   39.50
  -6   4   5  532.05   41.20
   6   4  -5  636.54   41.50
   6   4  -5  660.03   41.40
  -6   4   5  516.25   39.50
   6   4  -5  492.85   39.50
   6   4  -5  617.84   38.60
   6   4  -5  539.25   38.50
  -6   4   5  526.05   39.80
  -6   4   5  521.25   37.70
  -5  -4   5  214.28   20.00
   5  -4  -5  227.68   18.20
  -5  -4   5  235.88   18.20
   5  -4  -5  227.58   17.40
   5  -4  -5  238.78   18.40
   5  -4  -5  231.78   18.60
  -5  -4   5  241.08   19.20
  -5  -4   5  217.78   19.60
  -5  -4   5  213.18   19.90
   5  -4  -5  287.67   20.70
  -5  -4   5  228.88   17.30
  -5  -4   5  233.38   19.30
   5   4  -5  286.57   19.00
   5   4  -5  238.48   20.60
  -5   4   5  235.18   20.40
   5   4  -5  238.48   20.10
  -5   4   5  253.07   18.40
  -5   4   5  221.58   19.50
  -5   4   5  217.08   19.20
   5   4  -5  233.58   19.60
  -5   4   5  297.67   22.10
   5   4  -5  281.97   18.20
   4  -4  -5   95.59   10.30
  -4  -4   5  103.49    9.90
  -4  -4   5  105.19   11.60
  -4  -4   5  108.49    9.00
   4  -4  -5   99.19    9.60
  -4  -4   5  111.59   10.30
  -4  -4   5   87.09    9.80
  -4  -4   5   99.69   10.00
   4  -4  -5  104.99    9.50
   4  -4  -5  104.29    9.90
   4  -4  -5   99.69    9.60
  -4  -4   5  109.19   11.40
   4  -4  -5  123.09    8.70
  -4   4   5   92.09    9.30
   4   4  -5  103.99    7.40
   4   4  -5  104.29    9.40
  -4   4   5  105.99   10.70
   4   4  -5   82.89    9.20
  -4   4   5   94.69    9.60
   4   4  -5   97.29    9.50
   4   4  -5  101.09    8.70
  -4   4   5   96.29    9.40
   3  -4  -5  102.39    8.40
   3  -4  -5   81.39    8.10
  -3  -4   5   74.39    9.10
  -3  -4   5   72.99    8.20
   3  -4  -5   83.29    8.70
  -3  -4   5   76.29    8.10
  -3  -4   5   72.49    8.10
   3  -4  -5   77.29    8.20
  -3  -4   5   75.99    8.10
   3  -4  -5   78.09    8.00
   3  -4  -5   79.79    7.80
  -3  -4   5  113.19   10.10
  -3  -4   5   87.89   10.00
   3  -4  -5   77.79    7.90
  -3  -4   5  101.79    8.00
   3  -4  -5   92.69    6.70
  -3  -4   5   87.09    8.70
  -3   4   5   99.69    9.30
   3   4  -5   88.79    8.10
  -3   4   5  104.59    9.00
   3   4  -5   85.59    8.00
  -3   4   5   82.19    8.30
   3   4  -5  111.19    9.30
  -3   4   5   83.19    8.20
   3   4  -5   82.69    8.30
  -3   4   5   82.19    9.40
   3   4  -5   85.49    7.70
  -3   4   5   69.69    8.30
  -2  -4   5  939.81   61.49
  -2  -4   5  931.61   62.09
  -2  -4   5  940.11   61.59
  -2  -4   5  905.91   61.29
   2  -4  -5  854.71   61.19
  -2  -4   5  892.41   62.99
  -2  -4   5  922.61   62.19
   2  -4  -5  913.51   61.89
   2  -4  -5  930.61   61.19
  -2  -4   5  933.01   62.39
   2  -4  -5  933.21   62.59
  -2  -4   5  962.60   61.59
  -2  -4   5  948.91   61.29
   2  -4  -5  919.21   61.49
   2  -4  -5  902.61   61.39
   2  -4  -5  972.30   59.39
  -2   4   5  961.10   65.59
  -2   4   5 1098.19   64.79
   2   4  -5  986.20   64.09
  -2   4   5  924.41   64.69
  -2   4   5  973.20   64.49
   2   4  -5  942.31   64.19
  -2   4   5  971.90   64.89
  -2   4   5  969.00   64.29
  -2   4   5  945.71   64.49
   2   4  -5  971.40   63.19
   2   4  -5  919.11   62.99
  -2   4   5 1116.49   64.79
  -2   4   5  938.61   64.69
   2   4  -5  881.21   63.89
  -1  -4   5  703.03   48.80
   1  -4  -5  857.41   49.00
  -1  -4   5  735.63   49.50
  -1  -4   5  719.33   49.00
  -1  -4   5  753.42   46.90
   1  -4  -5  694.13   49.20
   1  -4  -5  699.63   48.70
  -1  -4   5  711.93   48.90
   1  -4  -5  743.83   50.59
  -1  -4   5  715.53   49.10
  -1  -4   5  774.82   46.90
   1  -4  -5  711.73   47.50
   1  -4  -5  733.63   50.09
  -1  -4   5  751.22   49.00
  -1  -4   5  696.43   50.59
   1  -4  -5  754.32   49.00
  -1   4   5  760.02   49.70
  -1   4   5  737.13   50.29
  -1   4   5  762.52   50.09
  -1   4   5  774.02   50.89
  -1   4   5  754.52   49.70
  -1   4   5  694.83   49.10
  -1   4   5  716.43   49.80
   1   4  -5  721.53   50.19
  -1   4   5  687.33   48.60
   1   4  -5  756.52   48.90
   1   4  -5  754.32   48.80
   0  -4  -5   32.70    4.50
   0  -4  -5   30.80    3.90
   0  -4   5   23.10    3.40
   0  -4   5   31.60    3.50
   0  -4   5   25.60    3.40
   0  -4  -5   28.20    3.00
   0  -4  -5   29.50    3.60
   0  -4   5   24.00    3.20
   0  -4   5   38.40    5.10
   0  -4  -5   25.20    3.60
   0  -4   5   24.60    4.60
   0  -4  -5   24.40    4.40
   0  -4  -5   37.30    5.40
   0  -4   5   32.60    3.60
   0   4  -5   29.50    3.40
   0   4   5   39.00    4.80
   0   4   5   24.80    3.70
   0   4   5   30.30    4.30
   0   4   5   45.80    5.20
   0   4  -5   27.60    4.60
   0   4   5   41.60    5.00
   0   4   5   23.80    4.70
   0   4   5   32.00    5.40
   0   4   5   28.10    3.00
  -1  -4  -5  987.40   69.39
   1  -4   5 1075.29   68.69
  -1  -4  -5 1227.58   69.19
   1  -4   5 1019.30   70.59
   1  -4   5 1047.10   68.49
   1  -4   5 1045.50   70.39
   1  -4   5 1028.40   68.69
  -1  -4  -5  998.40   70.89
   1  -4   5 1185.48   68.69
   1  -4   5 1012.90   68.79
  -1  -4  -5 1033.50   69.09
  -1  -4  -5 1025.10   68.79
   1   4   5 1216.78   72.39
   1   4   5 1001.30   69.79
  -1   4  -5 1028.20   68.69
   1   4   5 1057.09   70.79
   1   4   5  996.00   70.59
   1   4   5 1162.78   71.09
  -1   4  -5 1072.79   69.09
   1   4   5 1073.99   72.09
   1   4   5 1105.79   70.69
  -1   4  -5 1043.30   70.29
   1   4   5 1014.30   70.39
   2  -4   5   15.20    4.50
   2  -4   5   21.60    4.30
   2  -4   5   19.40    2.70
  -2  -4  -5   20.10    3.80
   2  -4   5   22.80    2.90
   2  -4   5   20.00    2.80
  -2  -4  -5   18.60    2.70
  -2  -4  -5   17.00    2.80
   2  -4   5   22.90    3.00
   2  -4   5   16.40    3.40
   2  -4   5   21.00    2.60
  -2  -4  -5   20.50    3.30
   2   4   5   14.20    3.60
  -2   4  -5   14.80    2.30
   2   4   5   14.90    3.50
  -2   4  -5   19.20    2.20
   2   4   5   18.30    4.40
   2   4   5   21.10    3.90
   2   4   5   14.00    3.30
   2   4   5   14.90    4.20
   2   4   5   17.20    3.30
  -3  -4  -5  421.46   31.30
   3  -4   5  485.55   30.20
   3  -4   5  433.46   31.20
  -3  -4  -5  440.56   28.80
   3  -4   5  420.86   29.40
  -3  -4  -5  410.96   30.40
   3  -4   5  415.86   29.30
   3  -4   5  395.06   30.90
   3  -4   5  420.36   29.30
   3  -4   5  477.65   29.20
   3  -4   5  443.06   32.80
   3   4   5  406.66   30.40
   3   4   5  432.86   30.50
   3   4   5  428.36   29.10
   3   4   5  411.66   32.20
   3   4   5  437.76   32.00
   4  -4   5  464.85   32.20
   4  -4   5  413.36   33.70
  -4  -4  -5  455.15   29.20
   4  -4   5  439.96   30.00
   4  -4   5  422.86   31.80
   4  -4   5  448.76   30.90
  -4  -4  -5  451.55   32.10
   4  -4   5  451.05   30.60
   4  -4   5  449.95   30.70
   4  -4   5  496.65   33.30
   4  -4   5  446.06   30.50
   4   4   5  497.05   34.90
   4   4   5  483.95   30.10
   4   4   5  440.66   32.80
   4   4   5  422.86   32.20
   4   4   5  447.26   32.20
   4   4   5  443.06   33.80
  -4   4  -5  419.16   30.30
   4   4   5  421.26   32.00
   5  -4   5   21.80    4.20
   5  -4   5   23.20    5.20
   5  -4   5   19.50    5.60
   5  -4   5   23.20    3.90
   5  -4   5   24.60    3.80
   5   4   5   27.70    6.10
   5   4   5   24.90    5.40
   5   4   5   23.60    4.80
   5   4   5   20.90    5.80
   5   4   5   38.00    7.20
   6  -4   5  173.98   14.70
   6  -4   5  194.18   17.30
   6  -4   5  167.48   17.40
   6  -4   5  207.78   15.40
   6   4   5  170.28   17.00
   6   4   5  173.28   15.60
   6   4   5  170.78   17.20
   6   4   5  184.38   18.40
   6   4   5  190.88   16.60
   7  -4   5  175.78   14.30
   7  -4   5  162.28   17.20
   7   4   5  144.39   15.40
   7   4   5  156.68   16.60
   7   4   5  184.88   17.60
   8  -5  -5  201.28   16.30
  -8  -5   5  157.28   15.90
  -8  -5   5  146.39   16.50
   8  -5  -5  153.48   15.00
  -8  -5   5  152.58   16.20
   8  -5  -5  176.68   17.60
   8   5  -5  155.28   16.30
   8   5  -5  170.08   16.20
  -8   5   5  149.88   15.20
   8   5  -5  150.18   16.20
  -8   5   5  183.58   15.80
   7  -5  -5   26.10    5.70
   7  -5  -5   19.80    5.50
  -7  -5   5   18.30    7.60
   7  -5  -5   27.80    5.80
  -7  -5   5   20.70    5.30
   7  -5  -5   20.00    4.50
  -7  -5   5   21.00    4.20
  -7  -5   5   27.40    6.50
  -7   5   5   21.50    5.40
   7   5  -5   17.00    5.60
  -7   5   5   18.40    5.70
   7   5  -5   27.00    6.30
  -7   5   5   18.10    4.60
   7   5  -5   17.40    5.20
   7   5  -5   16.70    4.20
   6  -5  -5  166.48   16.10
   6  -5  -5  154.78   14.70
   6  -5  -5  144.69   14.10
  -6  -5   5  155.68   18.80
  -6  -5   5  177.88   16.10
   6  -5  -5  163.58   13.80
  -6  -5   5  200.38   14.60
  -6  -5   5  168.58   15.60
  -6   5   5  164.38   16.40
   6   5  -5  174.78   14.00
   6   5  -5  163.08   15.20
  -6   5   5  155.98   14.40
  -6   5   5  150.98   14.70
   6   5  -5  155.68   15.40
   6   5  -5  156.98   14.90
   5  -5  -5   51.59    7.00
  -5  -5   5   61.69    7.10
   5  -5  -5   54.19    5.90
  -5  -5   5   58.89    8.00
   5  -5  -5   59.29    8.10
  -5  -5   5   61.09    6.80
  -5  -5   5   55.59    9.60
   5  -5  -5   57.19    6.90
  -5  -5   5   75.89    8.70
  -5  -5   5   55.99    8.10
   5   5  -5   61.79    6.60
  -5   5   5   53.69    8.00
  -5   5   5   64.69    8.10
   5   5  -5   55.39    5.20
   5   5  -5   59.59    8.20
  -5   5   5   54.49    7.10
   5   5  -5   48.20    7.20
  -5   5   5   57.59    7.10
  -4  -5   5   46.80    6.70
  -4  -5   5   40.00    6.70
   4  -5  -5   45.00    4.80
   4  -5  -5   48.80    7.20
  -4  -5   5   47.00    8.00
   4  -5  -5   47.10    5.80
  -4  -5   5   49.80    5.80
   4  -5  -5   52.69    6.40
   4  -5  -5   49.80    6.00
  -4  -5   5   48.80    6.30
  -4  -5   5   44.10    6.10
  -4  -5   5   48.40    6.60
   4   5  -5   46.60    6.30
   4   5  -5   51.79    3.60
   4   5  -5   41.90    5.70
  -4   5   5   48.80    6.20
  -4   5   5   37.80    7.20
   4   5  -5   50.49    7.10
   4   5  -5   53.29    6.10
   4   5  -5   49.30    3.50
  -4   5   5   63.79    7.20
  -4   5   5   55.39    6.70
   3  -5  -5  226.28   17.80
  -3  -5   5  220.98   17.70
  -3  -5   5  231.18   17.20
   3  -5  -5  234.78   17.30
   3  -5  -5  212.68   17.80
  -3  -5   5  231.68   18.20
   3  -5  -5  224.08   17.10
  -3  -5   5  225.48   17.90
  -3  -5   5  214.78   19.10
  -3  -5   5  201.88   17.10
  -3  -5   5  205.18   17.60
  -3   5   5  276.07   18.40
  -3   5   5  207.18   17.30
   3   5  -5  210.08   16.90
  -3   5   5  215.48   18.70
   3   5  -5  208.58   16.70
   3   5  -5  236.68   18.00
  -3   5   5  216.48   17.50
  -3   5   5  262.07   18.70
   3   5  -5  206.48   17.50
   2  -5  -5  865.01   57.59
  -2  -5   5  847.72   57.39
  -2  -5   5  866.01   59.49
   2  -5  -5  872.71   58.19
  -2  -5   5  873.71   57.39
   2  -5  -5  839.22   56.99
  -2  -5   5  888.21   57.59
  -2  -5   5  827.32   58.29
  -2  -5   5  833.72   57.49
  -2  -5   5  828.22   57.99
  -2   5   5 1011.00   61.29
  -2   5   5  877.51   59.59
   2   5  -5  843.82   59.19
  -2   5   5  855.81   59.19
   2   5  -5  846.02   58.09
  -2   5   5  898.51   60.19
  -2   5   5  893.81   59.49
   2   5  -5  892.51   58.19
  -2   5   5  878.91   59.49
  -2   5   5  882.41   59.59
  -1  -5   5  717.53   45.90
  -1  -5   5  627.84   44.50
  -1  -5   5  608.84   44.20
  -1  -5   5  653.23   45.20
   1  -5  -5  614.64   44.00
  -1  -5   5  741.33   44.90
   1  -5  -5  626.84   45.50
   1  -5  -5  649.04   44.80
   1  -5  -5  626.64   44.20
   1  -5  -5  752.82   44.20
   1  -5  -5  620.04   43.00
  -1  -5   5  649.64   44.20
  -1  -5   5  649.34   44.40
   1   5  -5  592.64   45.10
   1   5  -5  664.33   43.40
  -1   5   5  726.43   44.20
  -1   5   5  652.23   44.50
   1   5  -5  631.84   44.00
  -1   5   5  591.74   44.50
  -1   5   5  657.23   46.00
  -1   5   5  750.42   45.40
  -1   5   5  627.24   45.70
   0  -5   5  103.59    8.60
   0  -5   5  100.29   10.00
   0  -5   5  108.09    7.90
   0  -5  -5  103.19    7.60
   0  -5  -5  108.89    8.90
   0  -5  -5   94.69    9.00
   0  -5  -5   91.89    7.80
   0  -5   5  102.69    8.80
   0  -5   5   98.59    7.80
   0  -5   5  106.99   10.80
   0  -5   5  102.19    8.70
   0  -5   5   79.79    8.30
   0  -5   5   85.89    9.20
   0  -5   5   89.39    9.60
   0   5   5   87.19    8.50
   0   5   5   75.19    8.10
   0   5   5   75.39    8.90
   0   5  -5   85.99    7.00
   0   5   5   82.39    8.50
   0   5   5   77.19    9.10
   0   5   5   76.89    7.70
   0   5   5   82.19    6.60
   0   5  -5   82.09    8.30
   1  -5   5  174.58   16.50
   1  -5   5  199.28   13.20
   1  -5   5  187.48   14.50
   1  -5   5  181.38   16.00
   1  -5   5  191.48   14.00
  -1  -5  -5  188.28   15.00
   1  -5   5  182.58   14.30
  -1  -5  -5  177.78   14.10
  -1  -5  -5  181.48   14.60
   1  -5   5  190.18   14.10
   1  -5   5  226.98   14.80
   1  -5   5  182.58   15.50
   1   5   5  190.98   14.90
   1   5   5  172.58   14.90
   1   5   5  182.28   16.20
  -1   5  -5  173.38   14.10
   1   5   5  180.08   14.70
   1   5   5  183.88   15.10
   2  -5   5   50.99    6.00
   2  -5   5   54.79    4.90
  -2  -5  -5   44.30    5.30
   2  -5   5   45.30    6.30
  -2  -5  -5   46.00    5.30
   2  -5   5   49.90    5.40
  -2  -5  -5   43.90    5.20
   2  -5   5   57.49    5.40
   2  -5   5   49.50    7.60
   2  -5   5   50.09    6.10
   2  -5   5   55.49    4.50
  -2  -5  -5   47.50    6.20
   2   5   5   60.89    7.80
   2   5   5   47.60    7.10
   2   5   5   57.19    7.10
  -2   5  -5   58.69    4.90
   2   5   5   42.90    6.50
   2   5   5   43.50    5.80
   2   5   5   57.29    6.50
   2   5   5   46.90    6.00
   3  -5   5  181.38   13.10
   3  -5   5  174.68   14.60
  -3  -5  -5  154.28   12.40
   3  -5   5  161.08   12.30
   3  -5   5  167.78   14.20
   3  -5   5  164.68   12.80
  -3  -5  -5  153.48   12.40
  -3  -5  -5  165.98   14.00
   3  -5   5  173.38   12.80
   3  -5   5  155.08   12.90
   3  -5   5  162.18   12.10
   3   5   5  165.38   13.30
   3   5   5  159.78   15.90
   3   5   5  163.38   14.70
   3   5   5  173.28   15.50
   3   5   5  173.68   14.40
   3   5   5  162.28   14.40
  -3   5  -5  166.18   12.20
   3   5   5  168.98   14.40
   4  -5   5   76.79    9.50
   4  -5   5   91.19    8.30
   4  -5   5   93.39    7.90
  -4  -5  -5  110.89    9.80
   4  -5   5   78.29    7.80
   4  -5   5   71.09    8.70
   4  -5   5  101.79   11.70
   4   5   5   75.39    8.90
   4   5   5   74.79    9.50
   4   5   5   81.49    9.30
   4   5   5   69.89    8.70
   4   5   5   84.89   10.50
   5  -5   5  425.16   28.20
   5  -5   5  365.96   25.20
   5  -5   5  329.07   25.20
   5  -5   5  354.06   26.40
   5  -5   5  298.07   27.80
   5   5   5  305.57   26.80
   5   5   5  329.77   25.10
   5   5   5  285.07   25.00
   5   5   5  365.56   27.10
   6  -5   5  195.48   15.10
   6  -5   5  192.48   17.40
   6  -5   5  171.08   18.00
   6   5   5  184.68   18.50
   6   5   5  237.98   18.70
   6   5   5  221.78   19.90
   6   5   5  198.58   20.20
   6   5   5  190.98   18.40
   7   5   5   42.10    7.90
   8  -6  -5   47.00    6.90
  -8  -6   5   61.09   10.60
   8  -6  -5   48.60    8.00
  -8  -6   5   51.39    8.80
   8   6  -5   47.20    9.70
  -8   6   5   48.80    7.90
   8   6  -5   53.29    9.40
   7  -6  -5  324.47   25.50
  -7  -6   5  366.96   27.20
   7  -6  -5  318.37   27.10
  -7  -6   5  302.37   27.60
  -7  -6   5  328.17   26.60
   7  -6  -5  289.67   24.90
  -7   6   5  327.27   26.30
   7   6  -5  304.67   26.50
  -7   6   5  342.67   27.00
  -7   6   5  319.27   26.40
   7   6  -5  384.26   28.30
  -6  -6   5   47.40    8.10
   6  -6  -5   45.80    5.80
   6  -6  -5   51.49    7.10
  -6  -6   5   34.60    8.60
   6  -6  -5   39.70    7.50
  -6  -6   5   38.80    7.50
  -6  -6   5   41.20    6.50
   6  -6  -5   33.90    5.90
   6   6  -5   54.99    7.70
  -6   6   5   42.10    7.20
   6   6  -5   42.20    7.80
  -6   6   5   41.70    7.00
   6   6  -5   45.30    6.40
  -6   6   5   33.70    7.30
   5  -6  -5   56.19    7.10
  -5  -6   5   49.50   10.50
   5  -6  -5   51.59    5.70
   5  -6  -5   44.00    6.30
  -5  -6   5   55.09    8.50
  -5  -6   5   51.39    7.50
   5  -6  -5   47.00    7.30
  -5  -6   5   47.60    6.50
  -5   6   5   48.10    7.30
  -5   6   5   71.89    8.10
   5   6  -5   49.50    6.70
  -5   6   5   49.10    6.90
   5   6  -5   50.29    7.10
  -5   6   5   47.30    8.30
   5   6  -5   51.19    8.00
   4  -6  -5  136.49   12.30
  -4  -6   5  142.29   12.20
   4  -6  -5  113.79   12.50
   4  -6  -5  168.88   12.90
  -4  -6   5  126.59   12.80
  -4  -6   5  120.49   14.70
   4  -6  -5  123.09   10.60
  -4  -6   5  140.89   13.00
  -4  -6   5  119.29   12.70
  -4  -6   5  166.78   13.40
  -4   6   5  126.59   11.90
   4   6  -5  124.39   11.90
   4   6  -5  129.29   12.40
  -4   6   5  111.09   11.80
  -4   6   5  144.79   12.10
  -4   6   5  110.69   12.80
  -4   6   5  151.98   12.60
   4   6  -5  138.59   11.90
  -3  -6   5   97.09   10.60
   3  -6  -5  106.89    8.30
  -3  -6   5  105.69   10.10
  -3  -6   5  102.69   10.00
   3  -6  -5   92.89    9.60
  -3  -6   5  107.59   10.80
  -3  -6   5  103.89   10.10
   3  -6  -5   87.39    9.60
   3  -6  -5  115.89   10.80
  -3  -6   5  103.39   11.90
  -3  -6   5   93.59    9.90
   3   6  -5  102.29    9.70
   3   6  -5   92.29    9.00
  -3   6   5   91.19    9.50
   3   6  -5   89.99    9.60
  -3   6   5   96.59    9.60
  -3   6   5  136.89   12.40
   3   6  -5   96.09    9.00
  -3   6   5  103.49    9.80
   2  -6  -5  832.92   58.39
  -2  -6   5  829.92   58.19
  -2  -6   5  860.21   58.19
  -2  -6   5  876.51   58.39
   2  -6  -5  863.91   57.99
  -2  -6   5  840.22   58.49
  -2  -6   5  877.11   59.29
  -2  -6   5  854.01   60.39
   2  -6  -5  876.31   56.69
   2  -6  -5  814.42   57.69
  -2  -6   5  936.61   57.99
  -2   6   5  922.31   59.49
   2   6  -5  853.21   56.89
  -2   6   5  854.11   58.29
  -2   6   5  836.32   59.39
  -2   6   5  815.02   58.39
   2   6  -5  839.52   57.09
   2   6  -5  909.01   56.89
  -2   6   5  863.51   58.19
  -1  -6   5  614.64   44.00
   1  -6  -5  710.83   44.00
   1  -6  -5  586.74   42.80
   1  -6  -5  622.94   43.50
  -1  -6   5  608.94   42.50
  -1  -6   5  631.04   45.60
   1  -6  -5  615.74   44.00
   1  -6  -5  708.23   42.70
  -1  -6   5  657.83   44.00
  -1  -6   5  615.84   44.90
  -1   6   5  604.44   45.50
  -1   6   5  621.34   44.20
  -1   6   5  617.54   45.40
   1   6  -5  637.54   42.60
  -1   6   5  613.44   44.30
  -1   6   5  663.93   45.10
  -1   6   5  589.14   44.30
   1   6  -5  704.13   44.10
  -1   6   5  753.62   44.20
   0  -6  -5   33.50    5.30
   0  -6   5   39.70    3.80
   0  -6  -5   36.10    3.80
   0  -6   5   31.30    5.70
   0  -6  -5   33.80    4.20
   0  -6  -5   31.30    5.30
   0  -6   5   33.10    4.70
   0  -6  -5   44.30    5.80
   0  -6  -5   31.00    4.60
   0  -6   5   36.10    6.10
   0  -6   5   34.60    6.50
   0  -6   5   35.20    5.30
   0  -6   5   33.60    5.40
   0   6   5   51.59    6.10
   0   6   5   41.30    6.30
   0   6   5   34.70    6.00
   0   6   5   30.60    5.70
   0   6   5   34.70    6.50
   0   6  -5   32.10    4.30
   1  -6   5  375.76   30.90
  -1  -6  -5  410.16   29.30
   1  -6   5  398.16   28.90
   1  -6   5  398.96   28.70
   1  -6   5  405.26   28.20
   1  -6   5  385.26   30.20
   1  -6   5  447.66   30.40
  -1  -6  -5  394.36   29.10
  -1  -6  -5  441.76   28.50
   1  -6   5  425.16   28.60
  -1  -6  -5  390.86   28.70
  -1   6  -5  481.75   30.10
  -1   6  -5  402.66   31.00
   1   6   5  484.35   33.90
   1   6   5  440.66   31.90
   1   6   5  428.36   31.70
   1   6   5  403.76   32.40
  -2  -6  -5  411.96   29.20
  -2  -6  -5  416.86   29.60
   2  -6   5  414.16   29.40
   2  -6   5  422.36   32.30
  -2  -6  -5  408.96   30.10
   2  -6   5  382.96   30.00
   2  -6   5  497.05   30.00
   2  -6   5  390.16   28.60
  -2   6  -5  419.86   32.10
   2   6   5  440.46   33.70
   2   6   5  519.35   33.20
   2   6   5  404.76   33.00
   2   6   5  544.45   35.10
   2   6   5  418.06   34.90
   2   6   5  522.75   34.50
  -3  -6  -5   13.20    3.60
   3  -6   5   19.10    3.80
  -3  -6  -5   18.30    3.50
   3  -6   5   19.20    5.20
   3  -6   5   14.40    3.50
   3  -6   5   23.30    3.50
   3  -6   5   18.70    4.90
   3   6   5   17.00    3.80
   3   6   5   11.80    4.40
   3   6   5   17.40    4.30
   3   6   5   24.80    5.20
   3   6   5   17.70    4.20
   3   6   5   15.10    4.50
   3   6   5   17.60    5.20
   4  -6   5  534.35   37.80
   4  -6   5  528.65   33.90
  -4  -6  -5  415.76   32.60
   4  -6   5  503.65   35.40
   4  -6   5  448.46   32.70
   4   6   5  433.76   33.60
   4   6   5  429.46   35.10
   4   6   5  493.85   33.80
   4   6   5  402.36   33.40
   4   6   5  484.35   33.40
   5  -6   5   88.79   11.70
   5  -6   5  100.09    9.00
   5  -6   5   99.69   10.50
   5  -6   5   98.49   10.80
   5  -6   5   94.49    9.30
   5   6   5  100.59   11.40
   5   6   5  105.89   12.70
   5   6   5   97.29   12.10
   5   6   5  119.09   12.30
   6  -6   5  152.18   17.40
   6  -6   5  187.38   14.40
   6   6   5  160.18   16.10
   6   6   5  162.08   19.30
   6   6   5  153.58   16.50
   6   6   5  162.48   16.10
  -7  -7   5   81.09   10.90
  -7  -7   5   82.19   12.70
   7  -7  -5  119.89   11.70
  -7  -7   5   86.09   11.10
   7  -7  -5   83.19   10.40
   7  -7  -5  119.19   13.50
   7   7  -5   77.19   10.50
  -7   7   5   84.09   10.60
   7   7  -5   99.79   12.00
  -7   7   5   92.49   10.60
   6  -7  -5    5.00    3.10
  -6  -7   5    7.40    4.40
  -6  -7   5    7.70    4.30
   6  -7  -5    6.90    3.50
  -6  -7   5    8.20    4.30
  -6  -7   5    4.00    2.90
   6  -7  -5    2.10    2.80
   6  -7  -5    2.50    2.20
  -6   7   5    5.40    3.40
   6   7  -5    2.40    3.10
   6   7  -5    2.80    3.30
   6   7  -5    4.10    3.10
  -6   7   5    6.00    4.40
  -6   7   5    6.50    3.20
  -5  -7   5  135.39   16.90
  -5  -7   5  167.28   14.90
   5  -7  -5  133.99   13.90
   5  -7  -5  133.99   12.80
   5  -7  -5  136.89   12.90
  -5  -7   5  150.58   13.60
   5  -7  -5  135.49   11.70
  -5  -7   5  135.29   13.70
   5   7  -5  134.09   13.80
  -5   7   5  144.69   13.40
  -5   7   5  156.08   14.30
   5   7  -5  134.99   13.50
  -5   7   5  155.08   14.10
   5   7  -5  140.39   13.40
  -5   7   5  175.88   16.40
  -4  -7   5  326.87   29.40
  -4  -7   5  333.67   26.60
   4  -7  -5  331.67   25.30
  -4  -7   5  351.56   26.60
  -4  -7   5  339.47   26.30
   4  -7  -5  349.77   26.90
   4  -7  -5  327.27   25.40
  -4   7   5  428.76   31.50
   4   7  -5  348.87   29.30
  -4   7   5  428.06   29.10
  -4   7   5  349.47   29.00
  -4   7   5  416.26   29.50
   4   7  -5  452.55   29.60
   4   7  -5  331.87   28.40
  -3  -7   5   52.29    8.00
  -3  -7   5   52.59    9.80
   3  -7  -5   74.19    7.80
  -3  -7   5   58.89    8.20
  -3  -7   5   46.90    7.20
   3  -7  -5   58.09    7.80
   3  -7  -5   56.19    7.40
   3  -7  -5   55.39    5.70
   3  -7  -5   71.59    7.90
  -3  -7   5   73.29    8.40
   3   7  -5   59.49    6.50
   3   7  -5   53.79    6.20
  -3   7   5   65.49    8.90
   3   7  -5   50.49    7.40
  -3   7   5   60.39    7.50
  -3   7   5   55.39    6.70
  -3   7   5   54.79    7.00
   3   7  -5   50.99    6.20
   2  -7  -5  128.99   12.20
  -2  -7   5  142.39   13.50
   2  -7  -5  163.48   11.80
   2  -7  -5  131.19   12.10
  -2  -7   5  139.39   13.50
  -2  -7   5  144.69   13.00
   2  -7  -5  135.69   12.80
   2  -7  -5  162.08   13.00
  -2  -7   5  130.79   14.80
  -2  -7   5  131.89   12.70
   2   7  -5  130.09   10.70
  -2   7   5  125.39   13.00
   2   7  -5  128.39   10.60
   2   7  -5  151.68   12.40
   2   7  -5  123.99   10.70
  -2   7   5  134.69   11.90
  -2   7   5  128.89   11.70
  -2   7   5  131.99   12.60
  -1  -7   5   34.30    5.90
  -1  -7   5   38.20    6.90
  -1  -7   5   42.90    6.40
   1  -7  -5   34.90    5.80
   1  -7  -5   38.20    4.90
   1  -7  -5   37.70    5.10
  -1  -7   5   36.30    5.20
  -1  -7   5   28.20    6.90
   1  -7  -5   36.30    5.70
  -1  -7   5   57.79    8.20
   1  -7  -5   46.60    6.10
   1   7  -5   35.20    4.00
   1   7  -5   46.70    5.70
   1   7  -5   39.80    3.80
  -1   7   5   53.79    8.00
   1   7  -5   32.10    4.10
  -1   7   5   33.10    5.20
  -1   7   5   48.80    5.70
  -1   7   5   33.70    6.70
  -1   7   5   53.99    7.00
  -1   7   5   39.80    5.60
   0  -7  -5  244.18   18.20
   0  -7   5  212.78   19.20
   0  -7  -5  267.67   17.50
   0  -7   5  227.78   18.20
   0  -7  -5  215.88   18.10
   0  -7   5  203.28   19.20
   0  -7  -5  216.68   18.10
   0  -7   5  244.68   17.80
   0  -7   5  201.08   19.40
   0   7   5  258.27   19.70
   0   7  -5  243.78   17.90
   0   7   5  243.88   19.00
   0   7   5  229.28   18.90
   0   7   5  224.48   20.30
   0   7   5  214.58   19.50
  -1  -7  -5  838.42   51.09
   1  -7   5  730.43   51.49
   1  -7   5  705.53   53.09
   1  -7   5  890.81   50.89
   1  -7   5  716.83   51.39
   1  -7   5  710.73   52.89
  -1  -7  -5  673.03   50.99
   1  -7   5  805.02   50.79
  -1  -7  -5  724.93   51.09
   1  -7   5  719.03   53.99
   1   7   5  702.13   51.19
  -1   7  -5  737.83   47.80
   1   7   5  705.13   50.39
   1   7   5  706.13   49.90
  -2  -7  -5  127.79   12.00
   2  -7   5  113.09   11.20
   2  -7   5  135.89   12.50
   2  -7   5  117.09   11.10
   2  -7   5  118.29   13.30
   2  -7   5  105.39   12.40
  -2  -7  -5  150.58   11.60
   2  -7   5  111.59   10.10
   2   7   5  141.89   13.50
   2   7   5  129.99   12.50
   2   7   5  118.99   14.00
   2   7   5  128.79   12.70
   3  -7   5  106.79   10.00
   3  -7   5  107.79    9.40
   3  -7   5  114.39   13.30
   3  -7   5  110.59   10.40
   3  -7   5  120.89   12.00
  -3  -7  -5  117.99   10.40
   3   7   5  110.49   13.20
   3   7   5  135.79   13.20
   3   7   5  133.19   13.20
   3   7   5  119.39   12.20
   4  -7   5  128.29   11.70
  -4  -7  -5  125.29   11.10
   4  -7   5  122.69   14.30
   4  -7   5  133.39   13.10
   4  -7   5  136.69   11.20
   4  -7   5  138.89   13.20
   4   7   5  151.58   16.20
   4   7   5  125.99   13.80
   4   7   5  147.79   14.20
   4   7   5  132.29   14.30
   4   7   5  187.18   15.20
   5  -7   5   96.29    8.80
   5  -7   5  101.09   12.30
   5  -7   5   81.99    9.90
   5  -7   5   78.89   10.50
   5  -7   5   89.59   10.50
   5   7   5   85.79   11.70
   5   7   5   91.89   11.60
   5   7   5   79.89   10.70
   5   7   5   99.19   10.80
   5   7   5   85.69   10.30
  -7  -8   5   21.60    6.90
   7   8  -5   19.40    5.90
  -7   8   5   11.80    4.50
  -6  -8   5   86.39   11.40
   6  -8  -5   95.59   11.50
   6  -8  -5   84.19   10.20
  -6  -8   5   97.19   12.20
   6  -8  -5  101.49   10.90
  -6  -8   5   86.79   12.90
   6   8  -5  105.39   12.20
  -6   8   5   95.49   10.90
  -6   8   5   78.89    9.70
   6   8  -5   94.79   11.10
   6   8  -5   87.09   10.50
   5  -8  -5  166.28   15.30
   5  -8  -5  177.88   17.10
  -5  -8   5  176.18   17.40
  -5  -8   5  190.48   17.20
  -5  -8   5  185.28   16.30
  -5  -8   5  177.28   18.80
   5  -8  -5  164.88   15.40
  -5   8   5  176.28   16.60
  -5   8   5  224.48   17.60
  -5   8   5  166.28   17.80
   5   8  -5  209.38   17.20
   5   8  -5  171.28   17.00
   5   8  -5  197.88   16.90
  -4  -8   5   10.00    3.60
   4  -8  -5    0.90    3.10
   4  -8  -5    2.70    3.20
  -4  -8   5    7.20    5.20
   4  -8  -5    7.70    3.50
  -4  -8   5    9.80    4.10
   4  -8  -5    9.40    3.60
   4  -8  -5   10.20    2.70
  -4  -8   5    9.90    4.10
  -4   8   5    2.30    2.80
  -4   8   5    7.60    3.10
  -4   8   5    5.70    2.70
  -4   8   5    5.90    4.30
   4   8  -5    4.10    2.80
   4   8  -5    5.90    3.80
  -3  -8   5  484.35   32.50
  -3  -8   5  457.35   32.10
   3  -8  -5  377.16   30.00
  -3  -8   5  435.06   31.20
  -3  -8   5  388.36   33.70
   3  -8  -5  371.46   29.90
   3  -8  -5  395.66   30.80
   3  -8  -5  417.26   28.30
   3  -8  -5  379.76   30.50
  -3   8   5  500.75   30.60
  -3   8   5  370.26   30.30
  -3   8   5  398.46   30.70
   3   8  -5  396.56   29.70
   3   8  -5  397.46   30.90
  -2  -8   5   28.10    6.50
   2  -8  -5   33.50    6.30
   2  -8  -5   38.40    5.50
  -2  -8   5   34.80    7.70
   2  -8  -5   37.50    6.30
  -2  -8   5   30.60    7.10
   2  -8  -5   31.60    5.80
  -2  -8   5   53.59    7.50
  -2  -8   5   43.80    7.10
  -2   8   5   34.10    5.50
   2   8  -5   40.30    5.00
   2   8  -5   35.60    6.00
  -2   8   5   61.29    9.20
  -2   8   5   34.10    6.20
  -2   8   5   54.99    7.50
  -1  -8   5   41.90    7.70
   1  -8  -5   47.80    5.70
  -1  -8   5   38.50    7.40
   1  -8  -5   44.80    7.00
  -1  -8   5   39.40    6.20
   1  -8  -5   42.60    6.40
  -1  -8   5   33.20    6.50
   1  -8  -5   36.50    5.60
  -1  -8   5   35.50    8.10
   1   8  -5   49.40    6.30
  -1   8   5   39.80    7.70
  -1   8   5   52.29    7.20
  -1   8   5   37.70    5.90
  -1   8   5   35.90    6.80
  -1   8   5   55.29    8.00
   0  -8   5  637.74   43.90
   0  -8   5  577.24   41.30
   0  -8  -5  588.54   41.80
   0  -8   5  575.64   43.80
   0  -8   5  579.64   44.10
   0  -8   5  659.93   42.90
   0  -8  -5  567.24   41.90
   0  -8  -5  584.14   42.00
   0   8   5  715.53   45.30
   0   8   5  716.63   46.70
   0   8   5  594.24   45.20
   0   8   5  591.54   46.50
   0   8   5  587.94   44.70
  -1  -8  -5  121.29   11.40
   1  -8   5  105.39   12.10
  -1  -8  -5  136.39   12.20
  -1  -8  -5  117.79   11.10
   1  -8   5  101.39   12.00
   1  -8   5   93.29   12.00
   1  -8   5  135.09   10.80
   1  -8   5  103.29   11.10
   1   8   5   96.39   10.70
   1   8   5   98.39   10.80
   1   8   5  105.09   12.70
   1   8   5  105.49   11.60
  -2  -8  -5  226.68   19.80
   2  -8   5  262.27   20.00
   2  -8   5  255.77   21.60
   2  -8   5  248.58   20.00
   2  -8   5  233.68   22.00
   2  -8   5  229.08   18.50
  -2  -8  -5  279.27   19.90
   2   8   5  231.08   20.10
   2   8   5  230.28   21.10
   2   8   5  230.38   19.30
   3  -8   5  106.19   10.70
  -3  -8  -5  118.39   10.90
   3  -8   5  106.29   10.00
   3  -8   5  134.49   14.60
   3  -8   5  124.29   12.70
   3   8   5  163.98   14.50
   3   8   5  134.29   14.20
   3   8   5  173.98   15.30
   3   8   5  106.69   14.20
   4  -8   5   64.29   10.80
  -4  -8  -5   48.90    6.40
   4  -8   5   42.70    5.80
   4  -8   5   56.09    8.60
   4  -8   5   48.20    7.20
   4  -8   5   54.19    7.00
   4   8   5   53.59    9.50
   4   8   5   47.20    8.30
   4   8   5   59.69    8.30
   4   8   5   49.10    8.10
   5  -8   5   18.20    5.40
   5   8   5   13.70    5.30
   5   8   5   13.90    4.80
   6  -9  -5    0.30    4.20
   6   9  -5    2.40    3.50
  -6   9   5    1.00    3.10
   5  -9  -5   94.69   10.40
  -5  -9   5   90.19   10.30
  -5  -9   5   81.89   12.20
  -5  -9   5   73.19   10.00
  -5  -9   5   82.49   10.80
   5  -9  -5   97.79   11.80
   5  -9  -5   77.49   10.10
  -5   9   5  101.19   13.00
  -5   9   5   87.19   10.90
  -5   9   5   94.59   10.70
   5   9  -5   99.39   10.90
   4  -9  -5  230.88   19.90
   4  -9  -5  222.68   19.40
   4  -9  -5  231.78   20.60
   4  -9  -5  228.48   19.30
  -4  -9   5  248.68   22.70
  -4  -9   5  239.18   20.60
  -4  -9   5  242.08   20.50
  -4   9   5  220.18   22.00
  -4   9   5  273.37   21.10
  -4   9   5  276.97   21.40
   4   9  -5  232.48   19.80
   3  -9  -5  124.29   12.90
   3  -9  -5  127.39   12.90
  -3  -9   5  129.69   13.60
  -3  -9   5  129.89   15.10
   3  -9  -5  140.39   13.10
   3  -9  -5  123.69   12.50
  -3  -9   5  132.49   14.10
  -3  -9   5  167.28   14.80
  -3  -9   5  127.69   13.20
   3   9  -5  119.29   11.40
  -3   9   5  129.09   12.60
  -3   9   5  133.59   12.70
  -3   9   5  137.49   14.20
   2  -9  -5   17.50    4.20
  -2  -9   5   16.30    4.40
   2  -9  -5   21.30    4.80
   2  -9  -5   18.90    4.30
   2  -9  -5   16.30    4.90
  -2  -9   5   16.30    4.80
  -2  -9   5   22.10    6.20
  -2  -9   5   18.40    5.60
  -2  -9   5   16.60    5.00
  -2   9   5   18.30    5.10
  -2   9   5   17.70    4.50
  -2   9   5   17.80    5.00
  -2   9   5   35.30    6.00
   2   9  -5   14.00    3.40
   1  -9  -5    4.40    2.60
   1  -9  -5    8.60    3.80
  -1  -9   5    7.70    4.40
  -1  -9   5    2.40    3.00
  -1  -9   5    0.90    3.40
   1  -9  -5    6.20    3.40
   1  -9  -5    3.70    3.20
  -1  -9   5    4.70    3.20
  -1  -9   5    5.70    3.30
  -1   9   5    2.40    2.40
  -1   9   5    4.60    3.80
  -1   9   5    1.70    2.90
  -1   9   5    4.00    2.60
  -1   9   5    2.70    2.30
   0  -9  -5   94.79   10.50
   0  -9   5   94.39   11.50
   0  -9   5   91.29   10.80
   0  -9  -5  115.59   10.90
   0  -9  -5   96.59   10.10
   0  -9   5   85.49   10.10
   0  -9   5   93.19   11.70
   0  -9   5   92.79    9.80
   0   9   5  113.79   10.60
   0   9   5   88.39   11.30
   0   9   5   77.09    9.70
   0   9   5  103.49   12.30
   0   9   5  101.79   10.50
  -1  -9  -5  192.48   16.80
  -1  -9  -5  172.68   15.70
   1  -9   5  156.08   17.80
   1  -9   5  184.78   16.90
   1  -9   5  169.38   17.30
   1  -9   5  206.18   15.80
   1  -9   5  214.58   17.10
  -1  -9  -5  208.48   16.70
   1   9   5  164.58   15.80
   1   9   5  180.88   17.50
   1   9   5  153.88   14.70
   1   9   5  160.98   15.90
   2  -9   5  195.38   17.30
   2  -9   5  174.48   14.00
  -2  -9  -5  139.79   14.00
   2  -9   5  215.08   18.50
  -2  -9  -5  135.39   14.50
   2   9   5  219.68   19.60
   2   9   5  205.68   17.10
   2   9   5  146.49   15.90
   2   9   5  161.88   16.30
  -3  -9  -5   75.69    8.80
   3  -9   5   81.79    8.30
   3  -9   5   69.29    8.90
   3  -9   5   78.09   11.90
   3  -9   5  105.99   11.80
   3   9   5   80.79   10.20
   3   9   5   76.79    9.90
   3   9   5   92.99   11.10
   3   9   5   86.49   12.50
   4  -9   5  118.19   13.90
   4  -9   5  141.99   13.00
   4   9   5  120.39   13.10
   4 -10  -5  102.79   11.80
  -4 -10   5  106.59   12.70
  -4 -10   5  102.09   12.40
   4 -10  -5  105.29   11.10
  -4  10   5  116.19   13.80
   4  10  -5  103.19   11.00
  -4  10   5  101.99   12.70
  -4  10   5  126.79   12.60
   3 -10  -5   34.30    6.70
   3 -10  -5   26.90    6.30
  -3 -10   5   43.00    8.40
   3 -10  -5   31.50    6.80
  -3 -10   5   38.50    7.80
   3 -10  -5   29.00    5.90
  -3 -10   5   31.20    7.10
  -3 -10   5   28.10    7.00
  -3 -10   5   35.20    7.00
  -3  10   5   35.40    6.80
  -3  10   5   28.20    6.70
  -3  10   5   34.20    6.80
   2 -10  -5   96.19   10.80
  -2 -10   5  100.79   11.80
  -2 -10   5   98.69   12.80
  -2 -10   5   88.19   11.40
  -2 -10   5   93.09   10.70
   2 -10  -5   78.99    9.70
   2 -10  -5   99.29   10.90
  -2 -10   5  139.89   13.60
  -2  10   5   98.29   11.10
  -2  10   5  133.49   12.70
  -2  10   5  100.89   12.60
   1 -10  -5  161.68   16.50
  -1 -10   5  176.78   17.70
  -1 -10   5  184.08   18.10
   1 -10  -5  223.78   17.30
  -1 -10   5  173.68   17.70
   1 -10  -5  170.98   16.40
  -1 -10   5  222.28   17.10
  -1 -10   5  179.98   17.30
  -1  10   5  198.18   18.90
  -1  10   5  171.28   16.90
  -1  10   5  248.18   19.10
   0 -10   5   -2.90    2.50
   0 -10  -5    0.70    2.20
   0 -10   5    0.60    2.80
   0 -10   5    2.50    3.40
   0 -10   5    1.10    2.50
   0 -10   5    0.60    3.20
   0 -10  -5    2.10    2.30
   0 -10  -5    0.60    2.80
   0  10   5   -0.90    2.80
   0  10   5   -1.30    2.00
   0  10   5   -0.80    1.90
   0  10   5   -1.30    2.00
   1 -10   5  109.69   10.90
   1 -10   5  106.19   13.10
  -1 -10  -5  115.69   12.20
  -1 -10  -5  129.39   12.30
  -1 -10  -5  101.09   11.40
   1 -10   5  102.49   12.10
   1 -10   5  104.89   12.70
   1 -10   5  135.09   13.00
   1  10   5  102.19   12.00
   1  10   5  112.69   13.50
   1  10   5   94.09   11.30
   1  10   5   98.89   11.60
  -2 -10  -5   56.59    7.80
   2 -10   5   52.59    7.60
   2  10   5   53.89    8.10
   2  10   5   51.99    8.20
   1 -11  -5   68.29    8.80
  -1 -11   5   87.39   11.40
  -1 -11   5   70.09   10.70
  -1  11   5   66.69    9.30
   9   0  -6    3.20    3.10
  -9   0   6    3.70    4.50
   9   0  -6    5.00    3.20
   9   0  -6    6.90    4.10
  -9   0   6    5.10    3.20
  -9   0   6    5.70    3.80
   8   0  -6   21.20    5.30
   8   0  -6   31.10    6.30
   8   0  -6   29.20    4.80
  -8   0   6   22.00    5.30
  -8   0   6   29.90    6.00
   8   0  -6   24.20    5.70
  -8   0   6   30.20    6.20
  -8   0   6   23.50    6.80
  -7   0   6  473.75   35.20
  -7   0   6  567.44   39.20
   7   0  -6  479.65   35.50
   7   0  -6  473.85   35.30
  -7   0   6  470.25   35.70
   7   0  -6  491.45   33.50
   7   0  -6  480.95   35.60
  -7   0   6  449.95   35.40
  -6   0   6  254.57   21.10
   6   0  -6  307.97   21.50
  -6   0   6  250.37   21.20
   6   0  -6  318.47   21.70
   6   0  -6  270.57   19.20
  -6   0   6  243.28   23.10
  -6   0   6  241.58   20.90
   5   0  -6  170.88   12.20
  -5   0   6  167.98   14.60
  -5   0   6  174.18   14.60
  -5   0   6  177.98   16.30
  -5   0   6  178.18   14.00
   5   0  -6  163.28   13.70
  -5   0   6  188.68   15.10
   5   0  -6  156.18   14.00
   5   0  -6  170.98   14.40
   4   0  -6  435.76   30.30
  -4   0   6  452.55   30.50
   4   0  -6  445.36   28.20
  -4   0   6  432.16   30.00
   4   0  -6  407.36   30.60
  -4   0   6  443.06   31.50
   4   0  -6  428.36   30.30
  -4   0   6  433.86   31.00
   4   0  -6  420.36   31.60
   4   0  -6  460.35   28.20
   4   0  -6  415.26   30.50
  -4   0   6  436.56   30.50
   4   0  -6  504.25   30.90
  -4   0   6  445.16   31.10
  -4   0   6  419.36   31.70
  -4   0   6  409.86   32.10
   3   0  -6  125.29   10.40
  -3   0   6  131.19   12.20
  -3   0   6  135.59   11.00
  -3   0   6  125.09   11.10
   3   0  -6  126.79   11.60
   3   0  -6  143.39   11.20
   3   0  -6  159.68   11.30
  -3   0   6  144.39   12.00
  -3   0   6  133.79   10.70
  -3   0   6  117.79   11.30
  -3   0   6  134.09   10.40
   3   0  -6  163.88   10.90
   3   0  -6  134.59   10.40
  -3   0   6  128.89   11.00
   2   0  -6  426.86   30.30
  -2   0   6  413.96   29.70
   2   0  -6  433.96   31.00
   2   0  -6  479.75   28.90
  -2   0   6  461.45   28.60
  -2   0   6  426.96   29.50
  -2   0   6  435.76   29.60
   2   0  -6  504.95   29.70
   2   0  -6  438.76   28.90
  -2   0   6  428.86   31.20
  -2   0   6  433.46   29.50
   2   0  -6  420.96   29.70
  -2   0   6  425.66   31.00
   1   0  -6  156.78   12.90
   1   0  -6  154.98   11.50
  -1   0   6  163.18   11.90
   1   0  -6  160.28   11.70
  -1   0   6  170.58   13.10
  -1   0   6  166.68   12.10
  -1   0   6  179.48   11.70
  -1   0   6  174.48   11.70
  -1   0   6  183.68   11.80
   0   0   6  610.84   42.10
   0   0   6  716.73   43.00
   0   0  -6  648.44   40.10
   0   0  -6  640.34   40.10
   0   0   6  589.14   40.50
   0   0   6  592.84   41.20
   0   0   6  619.34   40.50
   0   0   6  614.04   42.80
   1   0   6  650.63   41.80
   1   0   6  692.33   42.00
   1   0   6  626.14   43.20
   1   0   6  639.24   44.60
   1   0   6  640.64   44.20
   2   0   6 1123.89   74.79
   2   0   6 1103.69   77.39
   2   0   6 1148.69   76.49
   2   0   6 1193.98   74.09
   2   0   6 1193.18   74.39
   2   0   6 1107.99   76.49
   2   0   6 1268.17   74.89
   3   0   6 1978.10  131.59
   3   0   6 1968.10  131.69
   3   0   6 2226.08  133.79
  -3   0  -6 2010.50  130.59
   3   0   6 2116.99  132.29
   3   0   6 2211.98  131.49
  -3   0  -6 2179.78  130.79
   3   0   6 1895.11  134.39
   3   0   6 1890.51  132.99
  -4   0  -6  246.18   16.70
   4   0   6  244.28   17.20
   4   0   6  236.08   18.70
   4   0   6  265.87   17.60
   4   0   6  276.87   17.70
   4   0   6  222.38   19.90
   4   0   6  238.68   17.60
   4   0   6  227.88   19.10
   4   0   6  215.58   16.80
   5   0   6   13.60    4.40
   5   0   6   12.90    3.60
   5   0   6   12.40    2.90
   5   0   6    9.50    3.80
   5   0   6   13.40    3.00
   6   0   6   -0.20    2.10
   6   0   6    0.30    1.80
   6   0   6   -0.50    1.90
   6   0   6    0.70    3.00
   6   0   6   -1.10    1.90
   7   0   6    1.90    2.20
   7   0   6   -1.10    2.10
   7   0   6   -0.80    2.60
   9  -1  -6   47.10    8.60
   9  -1  -6   59.29    8.10
  -9  -1   6   73.79   11.50
  -9  -1   6   63.89    9.80
   9  -1  -6   43.70    7.90
  -9  -1   6   52.29    8.70
  -9   1   6   63.49    9.60
   9   1  -6   56.89    7.90
   9   1  -6   46.20    8.50
   9   1  -6   52.89    8.00
  -9   1   6   51.09    8.40
  -9   1   6   53.39    9.90
   8  -1  -6    0.80    2.90
  -8  -1   6    2.50    4.40
   8  -1  -6    3.30    3.40
   8  -1  -6    1.10    2.90
  -8  -1   6    3.40    3.40
  -8  -1   6   -0.30    3.40
   8  -1  -6    3.20    2.00
  -8  -1   6    4.50    3.30
   8  -1  -6    7.10    3.40
  -8   1   6    2.00    2.30
   8   1  -6    2.30    2.30
   8   1  -6    3.00    2.70
  -8   1   6    2.50    3.00
  -8   1   6    5.60    3.50
  -8   1   6    4.60    3.00
   8   1  -6   -0.70    2.50
   8   1  -6    1.40    2.90
   7  -1  -6  210.78   19.30
   7  -1  -6  262.17   17.20
   7  -1  -6  204.18   17.80
   7  -1  -6  207.28   18.20
  -7  -1   6  214.48   18.50
  -7  -1   6  241.18   19.10
  -7  -1   6  206.48   20.60
  -7  -1   6  201.28   18.40
   7  -1  -6  195.68   17.90
  -7   1   6  235.28   17.70
   7   1  -6  207.08   18.20
   7   1  -6  228.68   16.50
  -7   1   6  216.98   21.10
  -7   1   6  204.68   18.40
  -7   1   6  186.88   17.70
  -6  -1   6  188.38   18.60
  -6  -1   6  188.98   16.40
   6  -1  -6  173.28   16.60
   6  -1  -6  195.58   14.30
   6  -1  -6  184.28   15.50
   6  -1  -6  161.48   15.50
   6  -1  -6  175.38   15.50
  -6  -1   6  218.88   17.00
  -6  -1   6  208.98   16.80
   6   1  -6  178.58   15.00
  -6   1   6  153.08   14.50
  -6   1   6  157.48   14.10
   6   1  -6  187.28   12.70
  -6   1   6  166.28   14.40
   6   1  -6  156.28   14.30
  -6   1   6  159.48   14.70
  -5  -1   6   89.39    8.40
   5  -1  -6   63.89    8.60
   5  -1  -6  106.29    9.10
  -5  -1   6   73.99    8.90
   5  -1  -6   79.29    8.40
  -5  -1   6  114.09   11.50
  -5  -1   6   76.69    8.60
   5  -1  -6   79.79    7.90
  -5  -1   6   78.99    8.50
   5   1  -6   86.49    8.90
   5   1  -6   82.69    8.40
  -5   1   6   80.39    9.10
  -5   1   6  110.49    8.20
  -5   1   6   78.99    8.50
  -5   1   6   92.29    8.70
   5   1  -6   82.09    8.70
   5   1  -6   78.19    8.90
  -5   1   6   87.99   10.20
  -5   1   6  120.29   10.00
   5   1  -6   92.49    6.90
  -5   1   6   92.19    9.50
   5   1  -6   85.39    8.80
   5   1  -6   75.99    8.00
  -4  -1   6  406.46   30.50
  -4  -1   6  390.76   29.20
   4  -1  -6  440.36   29.50
   4  -1  -6  391.16   27.70
  -4  -1   6  398.16   29.30
  -4  -1   6  397.86   31.10
  -4  -1   6  488.75   30.40
  -4  -1   6  411.96   29.30
   4  -1  -6  377.76   30.00
   4  -1  -6  379.26   28.50
  -4  -1   6  408.66   29.70
  -4  -1   6  374.76   30.20
   4  -1  -6  468.95   29.80
   4  -1  -6  392.66   29.00
   4  -1  -6  502.75   30.60
  -4  -1   6  501.85   29.80
   4   1  -6  419.36   28.50
  -4   1   6  376.06   26.90
  -4   1   6  397.16   28.00
  -4   1   6  395.16   29.00
   4   1  -6  379.46   29.00
   4   1  -6  391.06   27.70
   4   1  -6  400.16   28.20
   4   1  -6  441.16   28.00
   4   1  -6  396.96   28.10
   4   1  -6  380.56   27.90
  -4   1   6  420.46   28.10
   4   1  -6  407.26   28.90
  -4   1   6  402.96   29.30
  -4   1   6  380.76   29.60
  -3  -1   6  428.96   30.80
  -3  -1   6  471.05   30.70
   3  -1  -6  458.15   31.40
   3  -1  -6  465.35   29.80
   3  -1  -6  437.96   30.20
  -3  -1   6  442.96   30.70
  -3  -1   6  462.45   30.80
  -3  -1   6  427.36   30.80
   3  -1  -6  419.76   30.30
   3  -1  -6  427.06   30.60
   3  -1  -6  469.15   30.60
  -3  -1   6  438.36   32.00
   3  -1  -6  458.05   29.40
  -3  -1   6  449.16   30.60
   3   1  -6  408.46   28.40
  -3   1   6  424.16   29.00
  -3   1   6  408.06   29.30
   3   1  -6  425.96   29.30
  -3   1   6  424.26   29.30
  -3   1   6  428.56   30.00
   3   1  -6  422.66   30.10
   3   1  -6  422.06   28.90
  -3   1   6  428.96   30.10
  -3   1   6  417.56   30.70
  -3   1   6  414.56   28.00
  -3   1   6  434.06   30.30
   3   1  -6  444.36   28.90
   2  -1  -6  502.65   32.40
  -2  -1   6  521.95   31.50
   2  -1  -6  499.75   32.80
   2  -1  -6  487.85   34.20
   2  -1  -6  482.85   32.90
  -2  -1   6  491.35   32.80
  -2  -1   6  479.75   32.70
   2  -1  -6  479.15   32.40
  -2  -1   6  483.85   34.40
   2  -1  -6  470.25   33.70
  -2  -1   6  507.95   31.50
  -2  -1   6  471.35   34.30
  -2  -1   6  486.05   32.90
  -2  -1   6  489.15   33.00
   2  -1  -6  491.55   32.40
  -2   1   6  444.36   33.70
  -2   1   6  455.95   32.20
  -2   1   6  463.25   32.50
   2   1  -6  497.15   30.90
  -2   1   6  459.15   33.20
   2   1  -6  478.35   33.60
  -2   1   6  482.65   32.60
   2   1  -6  456.75   32.30
  -2   1   6  487.85   33.60
   2   1  -6  476.75   32.10
  -2   1   6  557.14   32.10
  -2   1   6  518.35   31.40
  -1  -1   6  873.21   52.59
  -1  -1   6  792.92   53.59
  -1  -1   6  738.83   52.89
   1  -1  -6  941.51   53.09
   1  -1  -6  757.02   54.39
   1  -1  -6  781.22   53.29
  -1  -1   6  753.22   52.39
   1  -1  -6  745.13   52.79
  -1  -1   6  861.61   52.89
  -1  -1   6  895.61   52.79
  -1   1   6  770.32   51.39
  -1   1   6  774.32   50.89
  -1   1   6  741.63   52.29
  -1   1   6  739.93   50.79
  -1   1   6  821.22   50.09
   1   1  -6  701.03   50.09
   1   1  -6  795.32   50.49
  -1   1   6  747.83   52.49
  -1   1   6  921.41   50.89
   0  -1   6  585.74   36.90
   0  -1   6  575.14   39.40
   0  -1   6  560.04   36.70
   0  -1  -6  640.34   37.60
   0  -1   6  545.35   39.00
   0  -1  -6  576.54   38.80
   0  -1  -6  555.54   37.30
   0  -1   6  570.94   38.60
   0  -1   6  550.74   38.90
   0   1   6  566.44   38.30
   0   1   6  645.24   38.30
   0   1   6  570.74   39.70
   0   1   6  588.74   38.00
   0   1   6  575.94   38.30
   0   1   6  585.74   38.20
   0   1   6  562.34   40.20
  -1  -1  -6  209.48   14.20
   1  -1   6  224.18   16.40
   1  -1   6  189.98   16.20
   1  -1   6  195.38   15.30
  -1  -1  -6  217.68   13.90
   1  -1   6  212.48   16.10
   1   1   6  211.08   14.60
   1   1   6  228.28   15.20
   1   1   6  222.88   14.10
   1   1   6  188.88   16.40
   1   1   6  205.08   14.20
   1   1   6  206.98   14.40
   1   1   6  186.78   16.10
  -2  -1  -6   36.10    3.10
   2  -1   6   33.80    4.30
   2  -1   6   34.00    5.10
  -2  -1  -6   39.70    3.20
   2  -1   6   32.10    4.90
   2  -1   6   33.00    2.60
   2  -1   6   27.20    4.10
   2  -1   6   33.80    2.70
   2   1   6   43.10    3.90
   2   1   6   35.20    5.90
   2   1   6   45.00    4.60
   2   1   6   38.60    5.90
   2   1   6   44.40    4.00
   2   1   6   39.90    4.00
   2   1   6   40.40    4.80
   3  -1   6 2051.99  128.99
   3  -1   6 2026.00  128.79
   3  -1   6 1898.61  128.69
   3  -1   6 1856.61  132.09
   3  -1   6 2181.58  130.39
   3  -1   6 2224.38  131.89
  -3  -1  -6 2160.08  131.59
   3  -1   6 1979.30  128.59
   3  -1   6 1855.41  131.09
  -3  -1  -6 1940.11  128.99
   3   1   6 1851.71  123.29
   3   1   6 1904.51  120.59
   3   1   6 1800.52  121.89
   3   1   6 2026.40  120.69
   3   1   6 1814.92  120.29
   3   1   6 1811.32  120.79
   3   1   6 1880.41  120.49
   4  -1   6  586.44   41.30
   4  -1   6  558.34   42.50
  -4  -1  -6  567.14   39.10
   4  -1   6  620.84   39.70
   4  -1   6  656.73   42.00
   4  -1   6  561.24   39.10
   4  -1   6  578.14   39.00
   4  -1   6  604.34   39.30
   4  -1   6  587.24   39.50
   4   1   6  545.25   38.40
   4   1   6  528.85   39.80
   4   1   6  576.34   38.30
   4   1   6  596.04   38.80
  -4   1  -6  581.64   36.70
   4   1   6  562.74   38.70
   4   1   6  598.14   37.20
   4   1   6  549.85   38.40
   4   1   6  551.64   41.30
   4   1   6  555.44   37.20
  -4   1  -6  575.54   36.50
   5  -1   6  156.78   13.70
   5  -1   6  130.29   14.10
   5  -1   6  126.09   11.00
   5  -1   6  153.08   11.40
   5  -1   6  127.09   12.70
   5   1   6  135.69   11.50
   5   1   6  149.19   11.70
   5   1   6  133.59   13.00
   5   1   6  119.69   13.40
   5   1   6  126.69   11.40
   6  -1   6   82.39   11.20
   6  -1   6  105.79    9.40
   6  -1   6  113.39   11.30
   6  -1   6  116.59   10.00
   6  -1   6   89.79   11.00
   6   1   6   85.69    9.20
   6   1   6   92.59   10.90
   6   1   6   91.19   11.30
   6   1   6   87.29    8.90
   7  -1   6  174.28   16.10
   7  -1   6  239.68   20.10
   7  -1   6  182.58   21.20
   7  -1   6  241.58   19.00
   7   1   6  238.18   19.90
   7   1   6  196.98   16.80
   7   1   6  184.98   19.50
  -9  -2   6   20.40    5.60
   9  -2  -6   19.70    5.80
  -9  -2   6   23.00    7.90
  -9  -2   6   20.80    5.90
   9  -2  -6   19.10    5.50
   9  -2  -6   34.30    8.20
   9  -2  -6   20.90    5.30
  -9   2   6   12.40    4.50
  -9   2   6   15.50    5.20
   9   2  -6   20.50    5.60
   9   2  -6   11.00    4.90
   9   2  -6    9.50    4.10
  -9   2   6   23.00    6.90
  -8  -2   6  260.87   24.10
  -8  -2   6  273.77   22.80
   8  -2  -6  294.17   21.00
  -8  -2   6  310.47   21.70
   8  -2  -6  235.48   21.10
   8  -2  -6  226.08   21.30
   8  -2  -6  246.98   23.20
  -8  -2   6  236.18   21.70
   8  -2  -6  310.07   22.60
  -8  -2   6  240.98   23.30
   8   2  -6  252.07   23.20
  -8   2   6  314.07   24.20
  -8   2   6  337.27   24.80
   8   2  -6  262.37   23.50
   8   2  -6  317.87   24.80
  -8   2   6  259.67   25.20
   7  -2  -6   25.30    5.10
  -7  -2   6   40.20    6.80
  -7  -2   6   18.60    5.70
   7  -2  -6   20.20    5.50
  -7  -2   6   29.70    6.00
  -7  -2   6   20.60    5.10
   7  -2  -6   22.40    5.20
   7  -2  -6   18.70    5.00
   7   2  -6   22.60    5.40
  -7   2   6   25.90    4.60
   7   2  -6   20.70    5.00
  -7   2   6   26.70    7.80
  -7   2   6   27.30    5.40
  -7   2   6   25.70    5.60
   7   2  -6   21.90    5.00
   7   2  -6   21.20    3.80
   6  -2  -6  372.16   28.20
   6  -2  -6  345.87   26.50
   6  -2  -6  351.76   25.70
  -6  -2   6  345.47   27.50
  -6  -2   6  356.26   28.90
   6  -2  -6  367.86   26.70
  -6  -2   6  327.07   26.60
   6   2  -6  357.46   27.00
   6   2  -6  381.36   25.80
  -6   2   6  350.96   28.10
  -6   2   6  347.47   26.30
  -6   2   6  407.06   27.50
  -6   2   6  364.36   28.10
   6   2  -6  413.46   28.40
   5  -2  -6  261.77   20.80
   5  -2  -6  310.67   20.20
  -5  -2   6  262.27   21.30
   5  -2  -6  256.57   21.00
   5  -2  -6  275.87   20.20
  -5  -2   6  271.97   23.60
  -5  -2   6  301.17   22.70
   5  -2  -6  271.07   22.10
  -5   2   6  244.98   20.40
   5   2  -6  300.37   21.10
  -5   2   6  273.27   22.30
  -5   2   6  271.17   20.20
   5   2  -6  276.17   19.60
  -5   2   6  272.07   19.10
  -5   2   6  260.57   21.40
   5   2  -6  260.67   20.70
   5   2  -6  244.68   20.20
  -5   2   6  275.77   20.20
   5   2  -6  260.17   18.30
  -5   2   6  274.87   21.00
   4  -2  -6  160.18   13.60
  -4  -2   6  144.19   14.00
  -4  -2   6  155.48   14.60
   4  -2  -6  183.88   12.20
   4  -2  -6  154.68   12.70
   4  -2  -6  148.49   13.90
  -4  -2   6  184.08   13.70
   4  -2  -6  154.98   12.70
   4  -2  -6  154.98   11.90
  -4  -2   6  152.28   13.20
   4  -2  -6  142.79   12.50
  -4  -2   6  155.48   13.30
  -4  -2   6  155.38   12.90
   4   2  -6  162.48   13.10
  -4   2   6  170.38   13.00
   4   2  -6  176.98   12.40
  -4   2   6  165.08   13.30
   4   2  -6  159.08   10.90
  -4   2   6  158.88   13.40
   4   2  -6  146.79   13.50
  -4   2   6  160.78   14.10
  -4   2   6  149.09   14.00
  -4   2   6  153.88   13.10
  -4   2   6  163.18   13.20
   4   2  -6  178.28   13.60
  -4   2   6  169.18   11.80
  -4   2   6  142.99   13.90
   4   2  -6  153.48   13.90
   4   2  -6  152.98   13.20
   4   2  -6  181.78   13.00
  -3  -2   6 1266.07   86.59
  -3  -2   6 1282.47   84.19
  -3  -2   6 1333.47   86.99
   3  -2  -6 1290.17   83.49
   3  -2  -6 1271.37   84.79
   3  -2  -6 1299.17   85.99
   3  -2  -6 1282.67   86.09
  -3  -2   6 1526.85   85.59
   3  -2  -6 1219.58   85.59
  -3  -2   6 1244.18   84.89
   3  -2  -6 1255.97   84.79
  -3  -2   6 1382.56   83.29
   3  -2  -6 1281.77   84.29
   3   2  -6 1233.58   81.79
  -3   2   6 1221.58   81.89
  -3   2   6 1310.47   82.09
   3   2  -6 1186.88   82.49
   3   2  -6 1199.88   82.59
  -3   2   6 1248.28   82.69
  -3   2   6 1286.37   79.99
   3   2  -6 1240.08   81.09
   3   2  -6 1242.38   80.89
  -3   2   6 1457.55   82.09
  -3   2   6 1227.08   82.89
  -3   2   6 1174.18   82.89
   3   2  -6 1212.08   81.49
   2  -2  -6   25.30    3.30
  -2  -2   6   22.90    3.10
   2  -2  -6   27.90    3.50
   2  -2  -6   24.10    3.10
   2  -2  -6   27.20    4.50
  -2  -2   6   27.60    3.50
  -2  -2   6   25.40    4.50
  -2  -2   6   21.80    4.50
   2  -2  -6   26.90    3.20
   2  -2  -6   24.20    4.20
  -2  -2   6   24.90    3.60
  -2  -2   6   24.50    3.30
   2  -2  -6   29.20    3.30
  -2  -2   6   26.10    2.60
  -2  -2   6   25.50    3.30
  -2  -2   6   23.00    2.80
  -2   2   6   25.10    3.50
   2   2  -6   27.20    4.60
   2   2  -6   29.80    3.50
   2   2  -6   23.70    3.80
  -2   2   6   27.20    3.60
  -2   2   6   32.90    3.80
  -2   2   6   28.10    4.30
  -2   2   6   23.80    3.40
  -2   2   6   28.70    4.70
  -2   2   6   25.50    3.80
  -2   2   6   25.70    3.50
   2   2  -6   24.80    3.20
   2   2  -6   30.40    3.10
  -1  -2   6  585.84   46.30
   1  -2  -6  627.04   45.10
  -1  -2   6  749.13   45.20
  -1  -2   6  780.42   45.00
   1  -2  -6  718.93   45.80
   1  -2  -6  687.23   44.40
   1  -2  -6  636.54   44.90
   1  -2  -6  635.84   44.40
  -1  -2   6  713.83   44.50
  -1  -2   6  642.74   44.50
  -1  -2   6  753.62   44.90
  -1   2   6  617.14   42.40
   1   2  -6  620.34   43.10
  -1   2   6  647.94   44.10
  -1   2   6  676.13   42.70
  -1   2   6  645.64   44.10
   1   2  -6  621.64   41.60
  -1   2   6  645.94   42.80
  -1   2   6  721.73   42.60
  -1   2   6  602.54   43.00
   1   2  -6  615.44   41.80
   0  -2   6  346.37   22.30
   0  -2  -6  318.67   24.10
   0  -2   6  311.57   24.40
   0  -2  -6  375.06   23.00
   0  -2  -6  359.36   23.40
   0  -2   6  360.66   22.30
   0  -2   6  310.97   24.20
   0  -2   6  343.97   24.30
   0  -2   6  315.37   23.70
   0   2   6  345.17   25.40
   0   2   6  332.27   23.70
   0   2   6  334.97   23.40
   0   2   6  394.56   23.70
   0   2   6  368.16   23.00
   0   2   6  335.97   23.60
   0   2   6  331.97   25.20
   0   2   6  335.37   24.80
   0   2   6  314.87   23.20
   1  -2   6  132.99   11.30
   1  -2   6  130.79   11.50
  -1  -2  -6  162.58   10.60
  -1  -2  -6  137.19   10.50
   1  -2   6  154.28   11.90
   1  -2   6  132.49   12.20
  -1  -2  -6  124.99   11.70
   1   2   6  134.19   12.10
   1   2   6  157.68   10.50
   1   2   6  129.49   10.70
   1   2   6  151.38   10.80
   1   2   6  153.88   10.80
   1   2   6  125.09   10.60
   1   2   6  137.19   12.50
  -2  -2  -6   55.69    5.60
   2  -2   6   48.50    5.50
   2  -2   6   56.49    4.00
   2  -2   6   52.19    4.00
  -2  -2  -6   61.39    5.00
   2  -2   6   58.09    7.20
  -2  -2  -6   48.10    4.90
   2  -2   6   55.69    6.10
   2  -2   6   48.80    6.10
   2   2   6   43.20    6.70
   2   2   6   51.79    5.30
   2   2   6   49.90    5.30
   2   2   6   45.90    6.40
   2   2   6   65.69    5.50
   2   2   6   56.59    4.60
   2   2   6   52.49    5.30
   2   2   6   49.30    5.20
   2   2   6   52.99    5.70
  -3  -2  -6  368.36   26.50
   3  -2   6  358.86   24.60
   3  -2   6  358.16   26.90
  -3  -2  -6  353.96   25.40
   3  -2   6  373.06   24.50
   3  -2   6  400.56   26.30
   3  -2   6  407.06   26.60
   3  -2   6  362.16   24.60
   3  -2   6  370.06   27.80
   3  -2   6  370.46   24.50
   3   2   6  370.66   24.90
   3   2   6  389.96   25.20
   3   2   6  344.97   25.80
   3   2   6  372.46   25.90
   3   2   6  356.46   25.80
   3   2   6  384.86   26.20
   3   2   6  361.06   28.20
   4  -2   6    4.70    1.90
   4  -2   6    2.80    1.20
   4  -2   6    3.00    1.40
   4  -2   6    1.70    1.50
  -4  -2  -6    0.90    1.10
   4  -2   6    3.60    1.40
   4  -2   6    3.50    1.30
   4  -2   6    3.90    3.00
   4  -2   6    3.80    2.90
   4  -2   6    1.10    2.10
   4   2   6   13.70    4.10
   4   2   6    4.70    1.60
   4   2   6    3.60    1.80
   4   2   6    5.80    3.40
   4   2   6    4.90    2.20
   4   2   6    5.80    1.40
   4   2   6    5.00    2.20
   4   2   6    4.00    1.20
   4   2   6    6.80    3.10
   5  -2   6  127.49   12.50
   5  -2   6  129.59   10.10
   5  -2   6  138.79   10.30
   5  -2   6  120.19   10.00
   5  -2   6  117.39   12.50
   5  -2   6  123.89   13.50
   5  -2   6  115.29   10.00
   5   2   6  159.88   15.60
   5   2   6  139.19   14.00
   5   2   6  129.99   12.30
   5   2   6  171.38   13.50
   6  -2   6  367.56   28.40
   6  -2   6  368.76   25.70
   6  -2   6  334.37   27.90
   6   2   6  326.47   25.20
   6   2   6  331.57   27.60
   6   2   6  322.67   24.50
   6   2   6  327.57   26.40
   7  -2   6   63.09    9.20
   7  -2   6   70.99    7.50
   7   2   6   58.29    7.80
   7   2   6   65.99    8.60
   7   2   6   57.09    9.80
  -9  -3   6   47.20    8.60
  -9  -3   6   56.09   10.10
   9  -3  -6   48.70   10.50
   9  -3  -6   43.20    7.70
   9  -3  -6   40.10    7.30
  -9  -3   6   42.00    7.80
  -9   3   6   43.70    9.10
  -9   3   6   66.49    9.10
   9   3  -6   45.70    8.80
   9   3  -6   44.50    9.90
   9   3  -6   69.09   10.60
  -9   3   6   46.60    8.40
   8  -3  -6  115.19   13.00
  -8  -3   6  109.89   12.10
   8  -3  -6  100.59   11.30
  -8  -3   6  115.59   12.80
  -8  -3   6  112.39   14.50
   8  -3  -6  118.39   12.20
  -8  -3   6  109.29   13.60
   8  -3  -6  110.09   12.10
   8   3  -6  125.99   13.20
   8   3  -6  113.49   12.60
   8   3  -6  110.19   12.70
  -8   3   6  119.69   12.60
  -8   3   6  137.59   13.20
  -8   3   6  124.99   14.10
  -7  -3   6  381.26   31.60
  -7  -3   6  411.06   30.70
   7  -3  -6  393.36   29.90
  -7  -3   6  405.86   30.80
   7  -3  -6  365.16   29.60
  -7  -3   6  406.36   28.80
  -7  -3   6  389.26   32.20
   7  -3  -6  390.76   31.10
   7  -3  -6  427.76   29.60
   7   3  -6  495.25   30.80
  -7   3   6  417.76   30.70
   7   3  -6  427.46   32.60
  -7   3   6  508.35   33.40
  -7   3   6  388.56   32.20
  -7   3   6  376.56   33.90
   7   3  -6  406.66   32.90
  -6  -3   6   42.60    5.50
   6  -3  -6   42.30    5.90
  -6  -3   6   44.60    7.90
  -6  -3   6   37.00    6.80
   6  -3  -6   67.29    8.40
   6  -3  -6   39.90    5.60
  -6  -3   6   42.30    7.10
   6  -3  -6   36.20    6.30
  -6  -3   6   38.60    7.70
   6  -3  -6   51.29    6.00
  -6   3   6   42.40    8.00
   6   3  -6   36.20    6.40
   6   3  -6   41.60    5.30
   6   3  -6   42.30    4.80
   6   3  -6   41.50    6.80
  -6   3   6   40.30    6.80
   6   3  -6   59.99    7.40
  -6   3   6   44.00    5.50
  -6   3   6   42.30    6.60
   5  -3  -6   59.39    5.70
   5  -3  -6   47.80    5.70
  -5  -3   6   50.69    6.60
   5  -3  -6   47.70    6.10
   5  -3  -6   48.20    7.20
  -5  -3   6   44.10    6.00
  -5  -3   6   47.60    5.90
  -5  -3   6   41.50    7.70
  -5  -3   6   67.39    8.40
   5  -3  -6   48.40    6.40
  -5  -3   6   48.30    6.90
   5   3  -6   48.10    6.20
  -5   3   6   51.49    7.40
  -5   3   6   51.09    7.30
  -5   3   6   52.29    6.50
   5   3  -6   51.29    4.90
   5   3  -6   51.39    5.30
  -5   3   6   50.89    5.90
   5   3  -6   46.00    6.30
   5   3  -6   59.29    7.40
  -5   3   6   55.79    7.00
   4  -3  -6   52.49    6.20
  -4  -3   6   69.19    7.20
   4  -3  -6   53.39    6.50
   4  -3  -6   53.49    5.30
  -4  -3   6   57.69    6.70
  -4  -3   6   56.19    7.90
   4  -3  -6   47.60    6.30
   4  -3  -6   66.29    6.40
  -4  -3   6   58.89    7.80
   4  -3  -6   53.29    6.90
  -4  -3   6   75.19    7.50
  -4  -3   6   50.99    6.70
   4  -3  -6   60.59    7.70
  -4  -3   6   64.19    5.10
  -4  -3   6   85.49    9.40
  -4   3   6   52.89    7.10
  -4   3   6   53.69    6.10
   4   3  -6   51.09    4.80
   4   3  -6   63.39    5.10
   4   3  -6   48.40    5.80
   4   3  -6   50.69    5.90
  -4   3   6   53.09    7.00
  -4   3   6   55.69    6.60
   4   3  -6   57.59    6.70
  -4   3   6   69.59    7.20
   3  -3  -6    1.90    2.00
   3  -3  -6    3.30    1.80
   3  -3  -6    3.30    0.90
  -3  -3   6    1.10    1.80
   3  -3  -6    3.70    1.80
  -3  -3   6    1.90    2.30
  -3  -3   6    1.70    1.30
   3  -3  -6    3.90    1.90
   3  -3  -6    1.70    1.80
  -3  -3   6    3.20    1.70
   3  -3  -6   -0.20    1.60
  -3  -3   6    1.20    1.40
   3  -3  -6    5.10    2.10
  -3  -3   6    1.00    1.70
  -3  -3   6    2.30    2.30
  -3  -3   6    3.70    1.20
  -3  -3   6    3.20    2.00
   3   3  -6    1.80    2.00
  -3   3   6    3.70    2.40
  -3   3   6    4.80    2.00
   3   3  -6    3.50    1.40
  -3   3   6    1.30    1.90
   3   3  -6    2.20    1.40
  -3   3   6    4.20    1.80
  -3   3   6    4.00    1.80
   3   3  -6    2.40    0.80
  -3   3   6    4.70    1.90
  -3   3   6    1.80    1.60
  -3   3   6    4.60    2.10
   3   3  -6    2.90    1.90
   3   3  -6    2.50    1.70
   3   3  -6    3.90    1.70
  -2  -3   6 1090.59   71.89
  -2  -3   6 1076.29   71.39
   2  -3  -6 1103.59   72.59
  -2  -3   6 1093.49   72.09
   2  -3  -6 1080.29   71.89
  -2  -3   6 1063.49   72.99
   2  -3  -6 1144.79   72.49
   2  -3  -6 1078.59   73.29
  -2  -3   6 1122.39   72.09
  -2  -3   6 1164.28   70.49
  -2  -3   6 1109.39   72.19
  -2  -3   6 1082.89   73.89
  -2  -3   6 1071.79   73.09
   2  -3  -6 1062.89   72.09
   2  -3  -6 1072.19   71.99
   2  -3  -6 1149.78   71.89
  -2  -3   6 1121.49   73.19
   2   3  -6 1134.79   72.19
   2   3  -6 1085.19   71.39
   2   3  -6 1018.20   72.39
  -2   3   6 1082.49   71.79
  -2   3   6 1093.99   71.59
   2   3  -6 1077.19   71.09
   2   3  -6 1126.09   69.49
  -2   3   6 1057.99   71.79
  -2   3   6 1110.09   72.19
  -2   3   6 1096.99   71.89
  -2   3   6 1113.49   71.79
  -2   3   6 1109.59   71.59
  -2   3   6 1091.29   72.79
  -2   3   6 1062.59   72.89
  -1  -3   6 1651.03  110.39
   1  -3  -6 1742.63  112.29
   1  -3  -6 1666.23  110.59
   1  -3  -6 1645.14  110.89
  -1  -3   6 1615.24  110.19
  -1  -3   6 1708.03  109.79
   1  -3  -6 1650.73  111.39
   1  -3  -6 1652.13  110.39
  -1  -3   6 1576.54  111.79
  -1  -3   6 1829.22  111.69
  -1  -3   6 1963.20  110.49
  -1  -3   6 1875.51  110.49
   1  -3  -6 1841.12  110.29
  -1  -3   6 1566.74  112.29
  -1   3   6 1601.34  107.99
  -1   3   6 1699.63  106.99
  -1   3   6 1643.64  107.69
  -1   3   6 1567.04  106.59
  -1   3   6 1689.93  107.49
  -1   3   6 1639.94  106.79
  -1   3   6 1679.43  106.69
   1   3  -6 1614.44  107.79
   1   3  -6 1658.63  105.89
   1   3  -6 1718.63  107.09
  -1   3   6 1629.44  108.39
   0  -3  -6  528.85   38.40
   0  -3  -6  631.34   37.20
   0  -3   6  582.44   37.50
   0  -3   6  564.74   38.40
   0  -3   6  582.14   37.20
   0  -3   6  605.44   37.10
   0  -3   6  544.35   39.70
   0  -3  -6  552.54   37.40
   0  -3   6  521.95   39.30
   0  -3   6  679.33   39.10
   0  -3  -6  516.75   39.70
   0  -3   6  545.25   37.40
   0  -3  -6  555.84   39.40
   0   3   6  540.85   38.30
   0   3   6  573.44   38.40
   0   3  -6  546.25   36.80
   0   3  -6  593.04   36.80
   0   3   6  537.15   38.60
   0   3   6  585.14   37.40
   0   3   6  557.74   39.70
   0   3   6  651.73   37.70
   0   3   6  529.25   39.70
   0   3   6  581.74   39.00
   1  -3   6  535.25   37.00
  -1  -3  -6  520.55   35.90
  -1  -3  -6  523.25   35.10
   1  -3   6  548.75   34.30
   1  -3   6  531.55   37.00
  -1  -3  -6  492.55   35.30
  -1  -3  -6  503.95   37.10
   1  -3   6  566.04   33.90
   1  -3   6  533.25   34.60
   1  -3   6  545.05   33.90
   1  -3   6  509.05   37.90
   1   3   6  484.05   35.10
   1   3   6  488.55   35.10
   1   3   6  526.55   35.30
   1   3   6  518.45   34.80
   1   3   6  498.55   36.80
   1   3   6  509.65   35.00
   1   3   6  509.25   36.90
   1   3   6  535.15   33.10
   1   3   6  519.55   35.20
   1   3   6  554.44   33.10
   2  -3   6  241.68   15.80
  -2  -3  -6  218.48   17.10
   2  -3   6  296.77   20.60
   2  -3   6  224.38   17.90
   2  -3   6  237.68   15.90
   2  -3   6  238.18   15.90
   2  -3   6  239.98   16.10
  -2  -3  -6  206.78   17.00
   2  -3   6  226.98   18.20
   2  -3   6  271.77   18.30
   2   3   6  208.98   17.70
   2   3   6  217.48   19.30
   2   3   6  274.37   18.30
   2   3   6  215.18   17.50
   2   3   6  261.47   18.20
   2   3   6  247.28   17.90
   2   3   6  283.27   17.90
   2   3   6  206.78   19.20
   3  -3   6   49.50    4.30
   3  -3   6   48.60    6.90
   3  -3   6   50.49    4.50
   3  -3   6   53.79    5.70
   3  -3   6   45.10    6.00
  -3  -3  -6   44.40    6.20
  -3  -3  -6   52.19    5.50
   3  -3   6   50.49    6.30
   3  -3   6   49.90    4.40
   3  -3   6   54.39    4.70
   3   3   6   52.19    7.80
   3   3   6   48.40    6.00
   3   3   6   46.70    6.90
   3   3   6   45.90    5.10
   3   3   6   51.99    6.20
   3   3   6   45.00    5.70
   4  -3   6  273.37   19.90
   4  -3   6  256.87   20.60
   4  -3   6  268.57   19.30
   4  -3   6  295.07   20.20
   4  -3   6  287.47   19.60
   4  -3   6  281.57   19.60
  -4  -3  -6  279.07   20.50
   4  -3   6  258.07   21.70
   4  -3   6  333.67   23.80
   4   3   6  234.28   17.60
   4   3   6  234.58   21.10
   4   3   6  243.48   19.50
   4   3   6  258.97   20.20
   4   3   6  288.17   22.10
   4   3   6  260.27   19.30
   4   3   6  240.28   19.90
   5  -3   6  191.18   14.50
   5  -3   6  232.38   17.90
   5  -3   6  184.48   17.30
   5  -3   6  182.68   14.50
   5  -3   6  187.38   15.00
   5   3   6  161.18   17.40
   5   3   6  215.58   17.80
   5   3   6  226.08   17.10
   5   3   6  186.68   15.90
   5   3   6  180.98   18.30
   6  -3   6  366.26   31.60
   6  -3   6  479.55   32.00
   6  -3   6  367.06   30.80
   6   3   6  369.26   30.60
   6   3   6  370.06   30.70
   6   3   6  365.26   29.70
   6   3   6  393.46   28.80
   6   3   6  369.46   27.90
   7  -3   6  204.88   17.70
   7  -3   6  283.07   22.10
   7   3   6  183.88   20.20
   7   3   6  279.67   20.90
  -9  -4   6  140.19   15.30
   9  -4  -6  124.89   13.30
   9  -4  -6  129.39   13.70
   9   4  -6  190.78   17.10
  -9   4   6  152.58   16.20
  -9   4   6  132.59   15.70
  -9   4   6  125.09   14.00
  -8  -4   6   39.70    7.40
   8  -4  -6   35.50    7.70
   8  -4  -6   32.80    6.60
  -8  -4   6   44.40   10.90
  -8  -4   6   27.90    6.70
   8  -4  -6   35.30    6.70
  -8   4   6   26.20    5.80
  -8   4   6   33.80    7.50
   8   4  -6   32.10    7.00
   8   4  -6   31.50    6.70
  -8   4   6   36.80    7.00
   8   4  -6   30.30    6.90
  -7  -4   6  263.37   23.80
  -7  -4   6  259.57   24.30
   7  -4  -6  256.27   21.00
  -7  -4   6  266.17   22.10
  -7  -4   6  278.27   22.40
   7  -4  -6  263.27   21.40
   7  -4  -6  253.17   22.70
   7  -4  -6  240.18   20.00
   7   4  -6  301.57   22.00
   7   4  -6  245.08   21.50
   7   4  -6  248.58   19.40
  -7   4   6  233.78   20.80
   7   4  -6  245.88   21.70
  -7   4   6  263.07   21.60
  -7   4   6  255.57   23.00
  -6  -4   6  154.68   13.20
  -6  -4   6  144.99   15.60
  -6  -4   6  141.89   13.80
   6  -4  -6  149.79   13.70
   6  -4  -6  178.18   15.80
  -6  -4   6  143.29   15.20
   6  -4  -6  143.99   13.30
  -6  -4   6  148.29   14.20
   6  -4  -6  162.88   12.80
  -6   4   6  179.98   16.70
   6   4  -6  157.48   15.50
   6   4  -6  155.08   14.30
  -6   4   6  153.18   14.70
  -6   4   6  169.68   13.40
   6   4  -6  163.28   15.40
   6   4  -6  173.18   13.20
  -6   4   6  160.48   14.90
  -5  -4   6  432.56   32.70
  -5  -4   6  433.96   32.40
  -5  -4   6  452.75   33.50
   5  -4  -6  471.65   31.40
  -5  -4   6  450.25   33.50
   5  -4  -6  441.56   32.50
  -5  -4   6  532.55   31.50
  -5  -4   6  440.96   34.80
   5  -4  -6  424.86   33.80
  -5  -4   6  435.66   34.70
   5  -4  -6  465.65   32.70
   5   4  -6  425.66   29.50
  -5   4   6  427.46   31.70
  -5   4   6  434.66   33.00
   5   4  -6  434.16   32.30
  -5   4   6  441.06   32.10
   5   4  -6  461.55   30.40
   5   4  -6  444.16   31.80
   4  -4  -6 1076.69   78.09
   4  -4  -6 1414.46   78.99
  -4  -4   6 1176.88   77.29
  -4  -4   6 1098.69   78.89
  -4  -4   6 1126.79   80.49
  -4  -4   6 1186.38   78.99
  -4  -4   6 1285.97   79.69
  -4  -4   6 1096.39   80.49
   4  -4  -6 1209.68   79.79
   4  -4  -6 1186.48   76.89
  -4   4   6 1095.09   75.19
   4   4  -6 1108.19   75.39
  -4   4   6 1263.77   75.89
  -4   4   6 1118.29   76.79
   4   4  -6 1207.18   72.39
   4   4  -6 1091.59   74.39
   4   4  -6 1088.09   73.59
  -4   4   6 1087.79   74.59
   4   4  -6 1105.39   74.79
  -3  -4   6   45.70    6.00
  -3  -4   6   52.99    7.50
  -3  -4   6   55.89    5.30
  -3  -4   6   44.30    5.70
   3  -4  -6   48.90    6.00
  -3  -4   6   43.00    6.50
  -3  -4   6   47.80    6.30
   3  -4  -6   43.00    5.70
   3  -4  -6   50.09    5.70
   3  -4  -6   40.30    5.50
   3  -4  -6   45.00    5.40
  -3  -4   6   44.50    5.90
   3  -4  -6   50.49    3.90
   3  -4  -6   42.50    6.00
   3   4  -6   49.10    5.90
  -3   4   6   65.29    6.40
   3   4  -6   41.20    4.70
  -3   4   6   41.40    5.70
  -3   4   6   37.80    6.70
  -3   4   6   40.00    5.60
  -3   4   6   41.70    5.70
   3   4  -6   46.20    5.00
  -3   4   6   56.49    6.60
   3   4  -6   40.50    5.40
   2  -4  -6  185.38   15.10
   2  -4  -6  184.08   14.80
  -2  -4   6  187.78   15.10
   2  -4  -6  213.28   15.90
  -2  -4   6  188.08   16.10
  -2  -4   6  197.98   15.90
  -2  -4   6  184.78   15.20
  -2  -4   6  166.78   14.70
  -2  -4   6  196.48   14.80
   2  -4  -6  241.28   15.80
   2  -4  -6  221.68   15.10
  -2  -4   6  198.58   15.30
  -2   4   6  238.38   15.70
   2   4  -6  184.68   14.80
  -2   4   6  177.58   16.10
   2   4  -6  226.88   15.20
  -2   4   6  193.18   15.20
   2   4  -6  188.88   13.00
  -2   4   6  190.68   15.70
   2   4  -6  168.58   12.90
  -2   4   6  188.18   15.70
  -1  -4   6  342.37   24.00
  -1  -4   6  337.67   24.30
  -1  -4   6  347.27   24.00
  -1  -4   6  315.87   25.20
   1  -4  -6  339.47   22.00
  -1  -4   6  336.27   23.90
  -1  -4   6  370.56   22.50
  -1  -4   6  339.27   26.00
  -1  -4   6  343.47   23.90
   1  -4  -6  314.37   23.80
   1  -4  -6  326.67   24.10
  -1  -4   6  334.37   24.40
   1  -4  -6  326.57   25.00
   1  -4  -6  396.86   24.00
  -1   4   6  330.57   22.40
   1   4  -6  334.27   22.10
  -1   4   6  333.87   24.50
  -1   4   6  306.57   23.00
  -1   4   6  325.17   23.10
  -1   4   6  307.57   23.60
  -1   4   6  317.57   23.10
   1   4  -6  339.27   23.90
  -1   4   6  320.07   23.50
   1   4  -6  286.97   21.90
  -1   4   6  297.57   22.50
   0  -4   6  457.75   33.80
   0  -4  -6  571.64   34.20
   0  -4   6  484.75   33.50
   0  -4  -6  496.75   33.80
   0  -4  -6  431.56   34.90
   0  -4  -6  447.16   32.60
   0  -4  -6  473.95   33.30
   0  -4   6  563.84   33.80
   0  -4   6  543.05   33.40
   0  -4   6  470.15   35.40
   0  -4   6  559.44   33.60
   0   4   6  535.65   35.70
   0   4  -6  481.45   32.40
   0   4   6  472.85   33.90
   0   4   6  454.65   34.90
   0   4  -6  496.95   32.20
   0   4   6  469.35   34.00
   0   4  -6  469.65   34.20
   0   4   6  527.15   32.30
   0   4   6  488.85   34.10
  -1  -4  -6  865.01   57.99
   1  -4   6  796.62   60.09
  -1  -4  -6  893.31   57.19
   1  -4   6  826.72   56.69
   1  -4   6  918.21   57.09
   1  -4   6  874.61   57.69
   1  -4   6  849.61   56.69
  -1  -4  -6  965.20   56.89
   1  -4   6  884.41   59.19
   1  -4   6  868.01   57.09
   1   4   6  815.02   55.09
  -1   4  -6  868.81   52.69
   1   4   6  778.12   54.59
   1   4   6  814.02   54.79
   1   4   6  784.12   56.19
   1   4   6  785.02   54.89
   1   4   6  823.22   54.09
  -1   4  -6  876.51   52.59
   1   4   6  806.22   56.49
   1   4   6  803.02   54.99
  -2  -4  -6  153.18   12.00
   2  -4   6  151.98   11.00
   2  -4   6  189.18   13.30
  -2  -4  -6  150.28   12.30
   2  -4   6  142.99   11.60
  -2  -4  -6  138.29   10.30
   2  -4   6  156.98   14.50
  -2  -4  -6  150.48   10.30
   2  -4   6  136.89   13.10
   2  -4   6  145.39   10.70
   2  -4   6  160.38   11.30
   2   4   6  151.68   14.80
   2   4   6  149.49   13.30
   2   4   6  149.19   14.30
   2   4   6  196.98   13.70
   2   4   6  168.38   13.70
  -2   4  -6  150.38   10.70
   2   4   6  153.58   12.80
   2   4   6  187.48   13.60
  -2   4  -6  159.48   10.70
   3  -4   6   38.00    7.20
   3  -4   6   49.40    4.50
   3  -4   6   44.20    4.30
   3  -4   6   45.00    4.70
   3  -4   6   56.59    6.80
   3  -4   6   40.00    4.50
   3  -4   6   38.90    5.90
  -3  -4  -6   50.79    5.80
   3  -4   6   54.29    5.70
   3   4   6   45.40    6.00
   3   4   6   43.80    6.20
   3   4   6   37.10    6.90
   3   4   6   40.90    5.80
  -3   4  -6   39.60    3.10
  -3   4  -6   41.40    3.20
   3   4   6   49.80    5.20
   3   4   6   38.60    7.20
   3   4   6   46.70    6.20
   4  -4   6  678.63   41.10
   4  -4   6  596.44   42.50
   4  -4   6  604.54   43.30
   4  -4   6  599.84   41.00
   4  -4   6  592.34   44.30
   4  -4   6  597.34   41.10
   4  -4   6  602.44   40.60
   4   4   6  619.84   44.50
   4   4   6  609.94   41.90
   4   4   6  583.94   43.60
   4   4   6  580.44   42.10
   5  -4   6   51.29    8.00
   5  -4   6   64.99    8.60
   5  -4   6   48.50    5.60
   5  -4   6   56.39    6.80
   5  -4   6   53.89    6.30
   5   4   6   49.10    8.90
   5   4   6   53.19    8.90
   5   4   6   50.29    6.90
   5   4   6   49.80    8.00
   5   4   6   48.20    7.00
   6  -4   6  155.48   14.50
   6  -4   6  140.49   11.50
   6  -4   6  113.19   13.90
   6   4   6  144.19   14.70
   6   4   6  120.69   12.70
   6   4   6  137.29   15.30
   6   4   6  132.89   14.70
   6   4   6  149.88   13.90
   8  -5  -6   13.00    4.50
   8  -5  -6    9.00    3.40
  -8  -5   6   19.30    6.80
   8  -5  -6    7.60    4.10
   8  -5  -6   15.90    4.90
  -8  -5   6    6.20    4.10
  -8  -5   6   10.00    4.50
   8   5  -6    8.10    3.80
   8   5  -6   11.70    4.60
   8   5  -6   14.20    5.50
  -8   5   6   15.50    4.80
  -8   5   6   10.00    4.30
  -8   5   6   11.70    4.50
  -7  -5   6   13.00    4.90
  -7  -5   6   17.50    8.60
   7  -5  -6   16.30    4.60
   7  -5  -6   11.80    3.50
  -7  -5   6   15.40    5.00
   7  -5  -6   13.70    4.10
   7  -5  -6   12.40    4.60
  -7  -5   6   11.60    3.60
   7   5  -6   21.10    5.70
   7   5  -6   16.90    4.80
  -7   5   6   14.70    5.50
  -7   5   6   14.70    4.30
  -7   5   6   12.00    4.70
   7   5  -6   16.20    5.20
  -6  -5   6  437.76   36.00
  -6  -5   6  448.26   32.60
   6  -5  -6  475.85   35.00
   6  -5  -6  451.55   31.90
  -6  -5   6  449.26   35.40
   6   5  -6  443.46   34.60
  -6   5   6  448.06   32.30
  -6   5   6  482.35   34.50
  -6   5   6  473.95   34.50
   6   5  -6  445.86   32.70
  -6   5   6  501.55   35.90
   6   5  -6  467.95   34.40
  -6   5   6  475.35   36.30
  -5  -5   6  391.76   27.50
  -5  -5   6  351.26   24.90
   5  -5  -6  308.07   25.40
  -5  -5   6  324.77   26.50
   5  -5  -6  318.87   25.70
   5  -5  -6  400.86   24.80
  -5  -5   6  412.16   28.80
  -5  -5   6  313.57   25.80
   5  -5  -6  347.87   27.40
  -5  -5   6  314.77   27.90
   5   5  -6  334.77   25.10
  -5   5   6  316.37   26.70
   5   5  -6  339.37   22.00
  -5   5   6  328.07   25.50
   5   5  -6  308.77   25.30
  -5   5   6  339.97   25.40
   5   5  -6  347.27   24.10
  -5   5   6  327.17   25.80
   5   5  -6  326.87   22.60
  -4  -5   6  240.58   19.40
  -4  -5   6  252.57   21.20
   4  -5  -6  239.88   16.80
   4  -5  -6  223.28   18.40
   4  -5  -6  235.88   18.70
  -4  -5   6  236.18   19.00
  -4  -5   6  244.88   19.40
  -4  -5   6  236.28   20.10
  -4   5   6  243.18   20.40
  -4   5   6  230.48   19.70
   4   5  -6  252.07   20.40
  -4   5   6  259.47   20.40
   4   5  -6  273.17   19.60
   4   5  -6  305.67   19.90
  -4   5   6  227.48   21.00
  -3  -5   6  419.16   32.60
   3  -5  -6  408.26   30.80
  -3  -5   6  436.96   31.50
   3  -5  -6  431.16   30.30
   3  -5  -6  446.16   32.50
   3  -5  -6  414.96   30.10
   3  -5  -6  448.46   28.20
  -3  -5   6  416.56   30.90
  -3  -5   6  433.06   30.90
  -3  -5   6  415.46   29.90
  -3   5   6  462.35   32.00
   3   5  -6  441.16   31.70
  -3   5   6  422.56   33.00
   3   5  -6  427.56   31.40
  -3   5   6  415.36   31.40
   3   5  -6  429.36   30.40
   3   5  -6  510.35   30.70
  -3   5   6  437.56   32.10
  -2  -5   6   40.60    5.40
   2  -5  -6   38.90    5.00
  -2  -5   6   49.10    6.20
  -2  -5   6   55.19    6.00
   2  -5  -6   39.20    5.10
   2  -5  -6   43.50    3.50
  -2  -5   6   39.10    5.30
   2  -5  -6   43.30    5.50
  -2  -5   6   46.10    7.50
  -2  -5   6   57.29    6.90
   2  -5  -6   41.00    5.70
  -2  -5   6   41.30    5.60
   2  -5  -6   44.90    3.70
   2  -5  -6   39.90    6.00
  -2   5   6   42.90    6.40
   2   5  -6   37.00    5.10
  -2   5   6   38.60    5.50
  -2   5   6   42.70    6.30
  -2   5   6   36.40    5.50
  -2   5   6   34.30    5.60
  -2   5   6   36.20    5.00
  -2   5   6   38.60    5.30
   2   5  -6   38.20    4.90
  -1  -5   6  195.78   14.80
   1  -5  -6  185.38   14.30
  -1  -5   6  197.18   14.70
   1  -5  -6  188.98   12.90
  -1  -5   6  170.88   14.40
   1  -5  -6  190.58   15.00
  -1  -5   6  183.28   14.70
  -1  -5   6  165.78   15.50
  -1  -5   6  185.48   16.50
   1  -5  -6  188.18   14.80
   1  -5  -6  207.28   14.30
  -1  -5   6  193.38   15.40
  -1   5   6  192.18   14.30
  -1   5   6  182.88   14.70
  -1   5   6  184.78   15.10
   1   5  -6  176.78   14.00
   1   5  -6  189.18   14.00
  -1   5   6  183.08   15.70
  -1   5   6  195.98   16.80
  -1   5   6  183.28   15.30
  -1   5   6  212.58   16.60
   0  -5   6 1042.40   65.39
   0  -5   6 1001.70   66.59
   0  -5   6 1032.30   64.99
   0  -5  -6  908.31   64.19
   0  -5   6  959.00   64.49
   0  -5   6 1146.69   68.09
   0  -5  -6 1060.39   65.79
   0  -5   6  909.61   64.89
   0  -5   6 1184.38   67.99
   0  -5   6  923.51   67.99
   0  -5   6  909.01   65.19
   0  -5  -6  912.71   64.99
   0  -5   6  956.20   65.19
   0   5   6  904.51   62.79
   0   5   6  916.61   62.89
   0   5   6 1002.90   60.59
   0   5   6  917.01   63.99
   0   5   6  983.20   62.69
   0   5  -6  881.11   60.89
   1  -5   6  145.99   13.20
   1  -5   6  141.69   11.60
  -1  -5  -6  148.59   11.40
   1  -5   6  152.98   13.60
   1  -5   6  166.18   11.70
   1  -5   6  157.28   11.20
   1  -5   6  149.69   12.20
   1  -5   6  139.69   11.00
  -1  -5  -6  153.28   12.50
   1  -5   6  137.99   14.10
   1  -5   6  141.79   11.30
  -1  -5  -6  139.09   11.20
   1   5   6  153.88   13.40
   1   5   6  151.18   14.40
   1   5   6  159.88   12.40
   1   5   6  152.18   14.40
  -1   5  -6  170.78   11.30
   1   5   6  150.18   13.00
   1   5   6  149.59   13.30
   2  -5   6  561.14   39.60
   2  -5   6  555.94   43.20
   2  -5   6  532.15   39.70
   2  -5   6  622.24   39.60
   2  -5   6  541.95   41.00
   2  -5   6  549.95   40.00
   2  -5   6  699.53   43.00
  -2  -5  -6  597.54   41.10
   2  -5   6  636.94   39.40
  -2  -5  -6  679.83   40.60
   2   5   6  635.74   40.30
   2   5   6  526.55   41.60
   2   5   6  654.53   40.30
   2   5   6  569.04   40.60
   2   5   6  550.74   40.10
   2   5   6  530.45   40.40
   3  -5   6   29.50    3.90
   3  -5   6   32.80    4.10
   3  -5   6   35.20    4.00
  -3  -5  -6   35.30    5.40
   3  -5   6   23.20    5.10
  -3  -5  -6   32.20    3.30
   3  -5   6   30.10    3.70
   3  -5   6   34.00    5.90
   3  -5   6   30.20    4.40
   3  -5   6   27.20    6.00
   3   5   6   36.40    6.10
   3   5   6   38.10    7.10
   3   5   6   51.79    6.70
   3   5   6   54.99    5.80
   3   5   6   44.70    8.40
   3   5   6   37.90    7.60
   3   5   6   59.29    7.40
   4  -5   6  204.38   15.30
   4  -5   6  204.28   14.70
   4  -5   6  213.98   17.10
   4  -5   6  184.78   17.00
   4  -5   6  185.68   18.10
   4   5   6  202.58   16.90
   4   5   6  184.88   18.10
   4   5   6  181.68   16.30
   4   5   6  186.08   17.50
   5  -5   6   85.99   10.40
   5  -5   6  101.49    8.60
   5  -5   6   94.29   10.00
   5  -5   6  105.39   12.20
   5   5   6  113.89   12.70
   5   5   6   70.99   10.90
   5   5   6   93.89   10.80
   5   5   6   87.79   10.00
   6  -5   6   98.99    8.60
   6  -5   6   74.49   11.20
   6  -5   6   77.59   10.90
   6   5   6   85.39   10.90
   6   5   6   95.59   10.90
   6   5   6   94.59   10.90
   6   5   6  126.99   13.70
   6   5   6   93.19   14.00
  -8  -6   6    4.00    3.80
  -8  -6   6    7.10    5.20
   8  -6  -6    0.40    2.10
   8   6  -6   -2.40    2.90
  -8   6   6    0.10    2.20
   8   6  -6    0.70    2.40
  -8   6   6    0.30    2.70
   7  -6  -6  143.79   14.60
  -7  -6   6  157.58   19.30
   7  -6  -6  156.18   15.00
  -7  -6   6  170.28   16.50
   7  -6  -6  167.38   15.00
  -7  -6   6  172.38   16.30
   7  -6  -6  157.88   16.30
  -7   6   6  220.28   19.10
   7   6  -6  151.48   15.70
  -7   6   6  188.68   17.00
  -7   6   6  155.08   16.20
   7   6  -6  197.48   17.70
   6  -6  -6   23.50    5.70
  -6  -6   6   19.80    6.90
  -6  -6   6   19.20    5.20
  -6  -6   6   25.30    5.10
   6  -6  -6   17.40    4.50
   6  -6  -6   24.70    5.20
  -6  -6   6   16.00    5.20
   6  -6  -6   22.90    4.10
   6   6  -6   24.10    4.50
  -6   6   6   20.40    4.90
  -6   6   6   25.90    5.60
  -6   6   6   22.50    6.00
   6   6  -6   19.30    4.80
  -6   6   6   16.70    5.40
   6   6  -6   15.10    5.10
  -5  -6   6  221.98   20.90
   5  -6  -6  239.18   19.90
  -5  -6   6  258.97   21.40
   5  -6  -6  292.47   18.80
  -5  -6   6  219.88   22.50
  -5  -6   6  223.78   20.00
   5  -6  -6  309.27   22.60
  -5  -6   6  256.97   21.10
  -5   6   6  250.17   22.00
   5   6  -6  228.28   18.80
  -5   6   6  269.77   20.90
  -5   6   6  252.57   20.50
   5   6  -6  238.18   19.70
   5   6  -6  253.67   20.70
   4  -6  -6  591.94   41.00
  -4  -6   6  559.14   41.30
  -4  -6   6  553.14   41.80
   4  -6  -6  577.94   42.10
  -4  -6   6  685.23   41.10
  -4  -6   6  553.74   42.00
  -4  -6   6  542.05   41.80
   4  -6  -6  614.04   41.20
   4   6  -6  578.54   44.30
  -4   6   6  652.73   44.70
  -4   6   6  742.33   45.00
  -4   6   6  617.54   44.60
   4   6  -6  598.84   43.60
  -4   6   6  551.74   45.30
   4   6  -6  691.23   43.90
   3  -6  -6   35.50    5.60
  -3  -6   6   35.50    6.00
  -3  -6   6   46.50    7.00
  -3  -6   6   32.00    6.60
   3  -6  -6   35.60    3.70
  -3  -6   6   40.10    6.10
  -3  -6   6   37.00    5.10
   3  -6  -6   38.60    6.00
   3  -6  -6   41.60    5.80
  -3  -6   6   48.70    6.70
  -3  -6   6   34.30    6.00
   3   6  -6   46.10    6.30
   3   6  -6   41.00    5.20
   3   6  -6   48.20    5.40
  -3   6   6   52.39    6.50
   3   6  -6   38.30    5.20
  -3   6   6   40.60    6.30
  -3   6   6   48.30    6.30
  -3   6   6   44.20    7.60
  -2  -6   6  255.37   23.00
   2  -6  -6  267.47   20.70
  -2  -6   6  300.97   21.30
  -2  -6   6  281.07   21.30
  -2  -6   6  260.07   22.00
  -2  -6   6  281.57   21.70
   2  -6  -6  262.17   20.80
  -2  -6   6  326.27   21.90
  -2   6   6  284.97   23.50
  -2   6   6  317.17   22.30
  -2   6   6  286.27   22.00
   2   6  -6  291.27   21.20
  -2   6   6  283.07   22.50
  -2   6   6  320.17   22.90
  -2   6   6  278.47   22.90
  -2   6   6  279.17   23.40
  -1  -6   6   33.00    5.10
   1  -6  -6   34.20    4.80
  -1  -6   6   33.90    6.10
   1  -6  -6   34.30    3.70
  -1  -6   6   28.00    5.90
   1  -6  -6   35.20    4.30
  -1  -6   6   35.40    4.40
  -1  -6   6   41.70    5.30
  -1  -6   6   32.80    5.40
   1  -6  -6   32.50    5.10
  -1   6   6   31.40    5.20
  -1   6   6   50.99    7.40
   1   6  -6   36.60    4.20
  -1   6   6   37.00    5.50
   1   6  -6   51.69    5.30
  -1   6   6   35.60    5.30
  -1   6   6   37.80    6.70
  -1   6   6   39.80    6.30
  -1   6   6   36.60    4.70
   0  -6  -6  254.17   20.10
   0  -6   6  283.27   19.40
   0  -6  -6  267.37   20.90
   0  -6   6  268.67   20.30
   0  -6   6  283.17   23.50
   0  -6   6  270.07   22.50
   0  -6  -6  289.67   21.00
   0  -6   6  278.07   22.70
   0  -6  -6  294.47   19.50
   0  -6   6  294.67   19.40
   0  -6   6  273.47   20.80
   0   6  -6  306.27   19.90
   0   6   6  269.47   21.10
   0   6   6  251.77   22.00
   0   6   6  270.07   21.70
   0   6   6  275.87   22.80
   0   6   6  282.67   22.00
   1  -6   6  341.87   28.20
   1  -6   6  368.66   26.30
   1  -6   6  383.66   24.40
  -1  -6  -6  370.06   27.00
  -1  -6  -6  344.47   26.30
   1  -6   6  359.76   26.10
   1  -6   6  339.07   25.50
   1  -6   6  373.86   28.10
   1  -6   6  434.66   27.00
  -1  -6  -6  413.76   26.40
  -1  -6  -6  372.36   25.90
   1  -6   6  339.57   29.00
   1   6   6  345.97   26.30
   1   6   6  343.87   26.50
   1   6   6  340.07   27.40
   1   6   6  386.46   27.20
   1   6   6  361.26   28.40
   2  -6   6  550.14   37.60
   2  -6   6  655.43   39.10
   2  -6   6  623.54   40.90
   2  -6   6  568.84   39.90
  -2  -6  -6  578.84   40.50
   2  -6   6  626.64   43.60
  -2  -6  -6  562.94   39.30
   2  -6   6  581.04   40.90
  -2  -6  -6  541.75   39.60
   2  -6   6  554.24   41.80
   2   6   6  563.44   44.30
   2   6   6  592.84   42.40
   2   6   6  603.34   42.00
   2   6   6  676.83   43.70
   2   6   6  592.24   43.00
   3  -6   6   80.09    9.30
   3  -6   6   83.79    8.10
   3  -6   6   77.89   10.80
   3  -6   6   79.89    8.50
  -3  -6  -6  102.39    9.60
   3  -6   6   81.29    7.30
   3   6   6   79.09    9.40
   3   6   6   86.79    9.50
   3   6   6   80.99   10.70
   3   6   6   87.69   11.50
   3   6   6  104.49   10.00
   4  -6   6  339.77   24.00
   4  -6   6  307.37   25.60
   4  -6   6  328.57   27.40
   4  -6   6  325.47   23.30
   4  -6   6  351.46   26.10
   4   6   6  327.07   29.10
   4   6   6  316.37   27.10
   4   6   6  367.46   28.90
   4   6   6  360.46   27.30
   4   6   6  419.36   28.70
   5  -6   6  100.19   10.90
   5  -6   6  119.29   12.40
   5  -6   6  135.39   14.40
   5  -6   6  104.79    9.50
   5   6   6  106.09   12.20
   5   6   6  121.99   12.50
   5   6   6   92.59   12.40
   5   6   6  106.29   11.60
   5   6   6  103.39   11.50
   6  -6   6   11.40    3.00
   6   6   6   23.20    6.30
   6   6   6   18.10    5.70
  -7  -7   6  197.38   19.90
  -7  -7   6  270.47   21.30
  -7  -7   6  176.38   20.50
   7  -7  -6  230.38   19.40
   7  -7  -6  199.58   20.10
   7  -7  -6  229.88   19.30
  -7   7   6  234.58   21.00
  -7   7   6  226.38   20.90
   7   7  -6  254.07   22.00
   7   7  -6  270.47   21.50
   6  -7  -6   48.40    8.90
  -6  -7   6   53.79    9.00
  -6  -7   6   56.69    8.40
  -6  -7   6   54.29   11.00
   6  -7  -6   74.29    8.60
   6  -7  -6   53.29    7.20
  -6  -7   6   57.69    7.90
   6   7  -6   46.40    7.60
   6   7  -6   51.39   10.20
  -6   7   6   47.10    7.90
  -6   7   6   54.09    7.60
  -6   7   6   54.79    9.90
   6   7  -6   68.89   10.00
  -6   7   6   64.59    9.10
   5  -7  -6   16.10    5.40
  -5  -7   6   18.90    5.10
   5  -7  -6   18.00    4.60
  -5  -7   6   23.00    5.70
  -5  -7   6   22.60    5.20
   5  -7  -6   15.60    3.70
  -5  -7   6   16.10    7.30
   5  -7  -6   18.10    4.70
  -5   7   6   16.20    5.40
   5   7  -6   14.00    3.80
  -5   7   6   10.30    3.90
   5   7  -6   12.90    4.10
  -5   7   6   16.10    4.20
   5   7  -6   16.80    4.70
  -5   7   6   15.40    4.20
   4  -7  -6   47.70    7.80
  -4  -7   6   48.50    8.00
  -4  -7   6   36.60    8.40
  -4  -7   6   56.69    7.50
   4  -7  -6   44.60    6.20
   4  -7  -6   45.90    6.30
  -4  -7   6   44.50    7.50
   4   7  -6   56.19    7.80
  -4   7   6   46.40    8.20
  -4   7   6   44.60    7.20
   4   7  -6   44.20    6.10
  -4   7   6   50.89    7.10
  -4   7   6   55.39    7.50
   3  -7  -6   43.50    6.70
   3  -7  -6   43.20    4.50
   3  -7  -6   56.29    7.00
  -3  -7   6   59.19    7.60
  -3  -7   6   35.70    6.80
  -3  -7   6   46.10    8.70
  -3  -7   6   43.20    6.90
   3  -7  -6   44.10    6.40
  -3  -7   6   47.80    9.00
  -3   7   6   59.59    7.10
   3   7  -6   44.30    5.70
  -3   7   6   53.29    7.40
  -3   7   6   46.40    8.10
  -3   7   6   55.79    7.30
  -2  -7   6  801.22   54.39
  -2  -7   6  818.12   55.99
   2  -7  -6  789.82   53.89
  -2  -7   6  794.62   54.89
  -2  -7   6  772.32   54.19
   2  -7  -6  807.32   53.89
  -2  -7   6  764.42   56.99
  -2   7   6  786.82   55.09
   2   7  -6  835.52   55.09
  -2   7   6  795.62   55.69
  -2   7   6  781.42   56.39
  -2   7   6  816.82   55.49
   2   7  -6  794.42   53.89
  -2   7   6  847.82   55.39
   1  -7  -6  237.68   18.10
  -1  -7   6  209.48   20.40
   1  -7  -6  301.97   20.30
  -1  -7   6  265.37   20.50
  -1  -7   6  235.18   21.60
  -1  -7   6  224.98   19.90
   1  -7  -6  299.87   20.00
   1  -7  -6  264.47   18.70
  -1  -7   6  253.47   22.10
  -1  -7   6  232.68   19.30
  -1   7   6  238.78   20.00
  -1   7   6  228.98   19.30
  -1   7   6  258.17   21.70
  -1   7   6  271.77   19.00
  -1   7   6  234.68   19.70
  -1   7   6  239.78   21.00
   1   7  -6  273.57   19.20
   0  -7   6  157.88   14.20
   0  -7  -6  162.78   13.70
   0  -7   6  176.88   16.50
   0  -7   6  144.49   13.50
   0  -7  -6  172.68   14.30
   0  -7  -6  169.08   14.50
   0  -7   6  215.88   17.70
   0  -7  -6  190.48   12.60
   0   7   6  166.08   15.90
   0   7   6  176.88   15.40
   0   7   6  165.88   14.40
   0   7   6  170.58   16.30
   0   7   6  156.98   14.60
  -1  -7  -6  169.28   15.70
   1  -7   6  227.48   15.10
   1  -7   6  175.98   17.80
   1  -7   6  168.48   16.70
   1  -7   6  194.38   15.80
   1  -7   6  170.78   16.90
  -1  -7  -6  210.68   15.50
   1   7   6  170.58   16.50
   1   7   6  155.18   14.30
   1   7   6  169.88   15.00
  -2  -7  -6  219.08   16.70
   2  -7   6  203.08   18.20
   2  -7   6  242.58   16.30
  -2  -7  -6  209.68   17.70
   2  -7   6  183.88   18.40
   2  -7   6  221.68   17.20
   2  -7   6  218.78   20.30
   2   7   6  222.98   19.00
   2   7   6  198.68   19.50
   2   7   6  207.78   18.20
   2   7   6  200.58   17.40
   3  -7   6   36.30    7.70
   3  -7   6   50.49    6.10
   3  -7   6   38.00    4.80
  -3  -7  -6   44.10    5.20
   3  -7   6   38.40    7.00
   3   7   6   49.50    8.30
   3   7   6   38.20    6.90
   3   7   6   49.10    7.30
   3   7   6   50.29    9.20
   4  -7   6  292.27   23.60
   4  -7   6  286.47   25.60
   4  -7   6  299.37   21.10
   4  -7   6  283.07   23.80
   4   7   6  282.77   23.80
   4   7   6  291.47   23.70
   4   7   6  333.57   25.90
   4   7   6  295.37   26.00
   4   7   6  298.37   24.60
   5  -7   6   18.70    3.60
   5  -7   6   16.40    4.90
   5   7   6   12.10    4.80
   5   7   6   10.10    4.50
   5   7   6   15.70    5.00
  -6  -8   6  298.87   25.40
   6  -8  -6  280.87   25.50
  -6  -8   6  292.37   25.40
  -6  -8   6  357.26   25.30
   6  -8  -6  294.87   24.10
  -6  -8   6  302.07   27.40
  -6   8   6  296.97   27.60
  -6   8   6  391.26   27.20
   6   8  -6  320.47   25.60
  -6   8   6  301.47   25.80
  -5  -8   6   49.20    8.40
  -5  -8   6   55.79    8.80
   5  -8  -6   59.49    8.20
   5  -8  -6   54.29    9.10
   5  -8  -6   72.59    8.50
  -5  -8   6   55.49   11.60
  -5  -8   6   49.30    8.90
  -5   8   6   50.89    7.40
  -5   8   6   64.89    8.40
  -5   8   6   56.39    9.80
   5   8  -6   43.80    6.70
   4  -8  -6    4.70    2.70
  -4  -8   6    3.50    2.80
   4  -8  -6    3.10    2.40
   4  -8  -6    2.90    3.20
  -4  -8   6    1.90    4.70
  -4  -8   6    3.40    3.40
  -4  -8   6    9.10    4.20
  -4   8   6    3.90    2.00
  -4   8   6    4.50    2.80
   4   8  -6    7.50    2.80
  -4   8   6    1.60    3.40
  -4   8   6    0.20    2.90
  -3  -8   6  219.38   18.70
   3  -8  -6  195.48   17.10
  -3  -8   6  207.38   18.80
   3  -8  -6  195.18   17.00
  -3  -8   6  266.37   23.20
  -3  -8   6  201.38   17.80
  -3   8   6  227.98   18.20
  -3   8   6  188.08   18.80
   3   8  -6  194.08   15.90
  -3   8   6  236.38   18.60
   2  -8  -6   79.39    9.00
   2  -8  -6   79.59    8.70
  -2  -8   6   79.39   10.90
  -2  -8   6   75.39   12.50
  -2  -8   6   99.79    9.90
  -2  -8   6   77.39    9.80
   2  -8  -6   74.39    8.80
  -2  -8   6   94.89   10.50
  -2   8   6   91.99    9.70
  -2   8   6   82.79   10.40
  -2   8   6   76.19    8.50
  -2   8   6   87.59    9.70
  -1  -8   6  106.79   13.00
   1  -8  -6  121.59   11.20
  -1  -8   6  139.69   11.40
  -1  -8   6  110.59   11.10
   1  -8  -6  102.19    9.50
  -1  -8   6  104.19   13.50
  -1  -8   6  105.09   12.00
   1  -8  -6   98.89   10.40
  -1   8   6  115.99   11.60
  -1   8   6  139.59   14.00
  -1   8   6  105.59   12.70
  -1   8   6  130.99   12.40
  -1   8   6  105.99   11.30
   0  -8   6   24.00    6.40
   0  -8  -6   26.20    5.20
   0  -8   6   28.00    5.60
   0  -8  -6   29.50    5.40
   0  -8   6   19.90    5.80
   0  -8   6   37.00    5.40
   0  -8   6   21.60    5.80
   0   8   6   19.30    5.70
   0   8   6   33.90    6.20
   0   8   6   31.20    5.50
   0   8   6   48.10    8.00
   0   8   6   27.80    5.70
  -1  -8  -6  165.78   13.90
   1  -8   6  169.88   16.60
   1  -8   6  166.48   13.60
   1  -8   6  162.48   14.60
  -1  -8  -6  163.98   14.40
   1   8   6  165.38   15.90
   1   8   6  164.28   16.70
   1   8   6  174.08   15.50
   1   8   6  163.58   14.70
   2  -8   6   88.39    9.70
   2  -8   6   89.79   12.20
   2  -8   6   97.79    8.70
  -2  -8  -6   95.69    9.30
   2  -8   6   83.09   10.10
   2  -8   6  106.79   11.90
   2   8   6   90.59    9.70
   2   8   6   75.19   10.00
   2   8   6   85.49   11.60
   2   8   6   84.89   10.40
   3  -8   6  145.59   11.70
   3  -8   6  127.99   14.10
   3  -8   6  125.79   14.90
   3  -8   6  157.98   13.00
  -3  -8  -6  134.59   11.80
   3   8   6  137.39   14.30
   3   8   6  121.79   13.30
   3   8   6  131.99   15.50
   3   8   6  135.99   13.00
   4  -8   6   10.10    4.40
   4  -8   6    8.90    2.70
   4   8   6   20.10    5.90
   4   8   6    6.40    4.10
   5  -9  -6   44.30    8.00
  -5  -9   6   38.30    8.10
  -5  -9   6   32.00    6.60
   5  -9  -6   40.60    7.80
   5  -9  -6   34.70    6.40
  -5  -9   6   39.80    7.90
  -5   9   6   38.30    6.90
  -5   9   6   43.30    8.40
  -5   9   6   41.30    7.10
   4  -9  -6   22.90    5.40
  -4  -9   6   22.50    5.80
  -4  -9   6   17.80    5.60
  -4  -9   6   14.80    5.50
   4  -9  -6   23.10    5.70
  -4  -9   6   13.40    6.50
   4  -9  -6   11.00    4.30
  -4   9   6   17.90    5.10
  -4   9   6   11.10    4.30
   4   9  -6   13.60    3.50
  -4   9   6   20.00    6.10
   3  -9  -6   42.40    7.00
   3  -9  -6   48.90    7.30
  -3  -9   6   51.39    8.60
  -3  -9   6   47.60    8.30
  -3  -9   6   43.10    7.30
  -3  -9   6   49.50    9.10
  -3  -9   6   45.30    9.50
   3  -9  -6   51.39    7.40
  -3   9   6   40.50    8.20
  -3   9   6   43.60    7.20
  -3   9   6   38.10    6.90
   2  -9  -6  252.27   20.50
  -2  -9   6  241.88   22.30
  -2  -9   6  251.87   20.60
  -2  -9   6  242.18   22.00
   2  -9  -6  280.07   20.90
  -2  -9   6  271.57   24.40
  -2  -9   6  236.78   21.20
  -2   9   6  289.27   21.00
  -2   9   6  250.57   21.50
  -2   9   6  248.28   22.60
  -2   9   6  250.47   20.90
  -1  -9   6  107.99   12.10
  -1  -9   6   85.59   11.00
  -1  -9   6   81.39    9.20
  -1  -9   6   79.59    9.60
   1  -9  -6   90.49    9.50
  -1  -9   6   64.49   11.60
   1  -9  -6   81.69    9.10
  -1   9   6   86.29    9.70
  -1   9   6   84.39    9.40
  -1   9   6   81.39   11.10
  -1   9   6   80.19    9.90
  -1   9   6   73.09    9.90
   0  -9   6   21.50    5.00
   0  -9  -6   14.80    4.30
   0  -9   6   14.80    5.70
   0  -9   6   16.20    5.30
   0  -9   6   17.00    5.90
   0  -9  -6   16.60    4.50
   0  -9   6   13.50    3.90
   0   9   6   23.50    6.30
   0   9   6   18.60    5.00
   0   9   6   23.20    5.10
   0   9   6   15.40    4.70
   0   9   6   18.70    5.50
   1  -9   6   62.69    7.30
   1  -9   6   61.19    9.60
   1  -9   6   69.59    8.60
  -1  -9  -6   61.89    7.40
   1  -9   6   63.39   10.00
   1  -9   6   74.39    9.60
  -1  -9  -6   61.39    8.50
   1   9   6   57.79    8.80
   1   9   6   56.39    8.70
   1   9   6   60.29    8.20
   1   9   6   92.89   10.80
   1   9   6   68.19   10.10
   2  -9   6    4.90    3.50
   2  -9   6   10.30    3.10
   2  -9   6    3.20    3.90
  -2  -9  -6    4.30    3.10
   2   9   6    6.50    4.20
   2   9   6    7.60    4.00
   2   9   6    4.50    3.20
   2   9   6    8.90    4.20
   3  -9   6   75.49    8.00
   3  -9   6  100.79   11.90
   3   9   6   72.39    9.80
  -4 -10   6  111.69   13.20
  -4 -10   6  113.59   12.90
   4 -10  -6  118.89   12.40
  -4  10   6  111.99   12.20
  -4  10   6  103.39   14.50
  -3 -10   6   65.79   10.20
  -3 -10   6   71.19   10.00
   3 -10  -6   69.09    9.10
   3 -10  -6   60.99    9.80
  -3 -10   6   66.69   11.30
  -3 -10   6   67.19    9.60
  -3  10   6   95.09   11.20
   2 -10  -6  157.08   14.00
  -2 -10   6  129.79   15.00
  -2 -10   6  148.39   15.00
  -2 -10   6  120.49   14.40
   2 -10  -6  134.69   13.10
  -2 -10   6  144.09   15.10
  -2 -10   6  139.69   15.90
  -2  10   6  137.19   14.50
  -2  10   6  146.49   16.10
  -2  10   6  183.08   15.50
   1 -10  -6   16.10    4.40
   1 -10  -6   10.40    4.00
  -1 -10   6   12.00    5.40
  -1 -10   6   11.70    4.70
  -1 -10   6   16.80    4.60
  -1 -10   6    8.70    4.80
  -1 -10   6    7.50    4.70
  -1  10   6    6.90    3.50
  -1  10   6   15.80    4.80
  -1  10   6    8.40    3.90
   0 -10   6   82.69   12.20
   0 -10   6   57.09    8.20
   0 -10   6   42.10    8.30
   0 -10  -6   36.80    6.50
   0 -10   6   37.60    6.30
   0 -10  -6   42.70    7.00
   0 -10   6   33.30    7.40
   0  10   6   47.00    8.30
   0  10   6   63.79   10.40
   0  10   6   42.60    7.60
   0  10   6   47.30    9.00
   1 -10   6  351.46   29.40
  -1 -10  -6  413.16   29.00
   1  10   6  367.76   29.70
   1  10   6  379.76   29.30
   2 -10   6    5.40    3.70
  -2 -10  -6    7.00    3.30
   9   0  -7   36.80    7.20
   9   0  -7   36.20    7.10
  -9   0   7   42.70    8.40
  -9   0   7   45.40    9.20
   9   0  -7   45.80    8.10
  -9   0   7   49.30    8.40
   8   0  -7  360.66   29.00
  -8   0   7  411.16   30.40
  -8   0   7  380.66   32.40
   8   0  -7  386.76   29.80
  -8   0   7  375.66   30.00
  -8   0   7  394.76   29.40
   8   0  -7  357.06   29.00
  -7   0   7  482.35   35.90
  -7   0   7  445.06   35.50
   7   0  -7  525.35   33.00
   7   0  -7  455.55   35.40
  -7   0   7  449.26   35.10
   7   0  -7  453.25   35.00
   7   0  -7  565.74   35.80
  -7   0   7  474.25   38.60
  -6   0   7  165.68   17.50
   6   0  -7  170.98   15.60
  -6   0   7  158.28   15.40
   6   0  -7  180.08   14.90
   6   0  -7  167.58   15.00
  -6   0   7  212.18   16.30
  -6   0   7  194.48   16.00
  -5   0   7  398.26   30.30
   5   0  -7  418.56   26.60
  -5   0   7  388.56   29.00
   5   0  -7  409.36   29.60
   5   0  -7  390.96   29.30
   5   0  -7  417.76   30.00
   5   0  -7  390.16   28.90
   5   0  -7  402.16   29.10
   5   0  -7  406.06   26.60
  -5   0   7  409.86   28.90
  -5   0   7  406.46   31.90
  -5   0   7  413.66   30.20
  -5   0   7  495.65   31.00
  -5   0   7  441.06   30.40
   4   0  -7   19.80    3.90
   4   0  -7   21.10    3.70
   4   0  -7   21.00    3.60
   4   0  -7   21.00    4.00
  -4   0   7   15.90    4.10
  -4   0   7   38.20    6.40
  -4   0   7   24.00    3.40
  -4   0   7   29.40    4.70
   4   0  -7   24.10    3.70
  -4   0   7   21.90    4.10
  -4   0   7   25.70    4.00
  -4   0   7   17.40    3.80
   3   0  -7    0.50    1.20
  -3   0   7    2.30    1.40
   3   0  -7    1.80    1.10
  -3   0   7    1.70    1.30
   3   0  -7    1.00    1.30
  -3   0   7    3.40    1.90
  -3   0   7    2.60    1.30
  -3   0   7    6.70    2.30
  -3   0   7    2.50    2.00
   3   0  -7    2.30    2.10
  -3   0   7    2.80    1.40
  -3   0   7    0.90    1.10
  -3   0   7    1.30    2.00
   3   0  -7    4.10    1.80
   3   0  -7    2.70    1.20
  -2   0   7 1448.16   95.59
  -2   0   7 1628.24   94.69
  -2   0   7 1401.86   97.29
  -2   0   7 1740.53   95.59
  -2   0   7 1469.25   95.29
   2   0  -7 1353.16   95.29
   2   0  -7 1433.26   95.09
   2   0  -7 1431.76   96.99
  -2   0   7 1470.35   97.39
  -2   0   7 1506.75   96.69
   2   0  -7 1440.56   96.29
  -2   0   7 1400.16   95.49
   1   0  -7 1092.19   62.99
  -1   0   7  986.60   63.09
  -1   0   7  914.91   64.69
   1   0  -7 1087.09   63.19
  -1   0   7  951.50   62.99
  -1   0   7  959.80   63.09
  -1   0   7  916.71   63.19
  -1   0   7  922.01   63.69
  -1   0   7  952.20   65.49
   0   0   7    3.10    0.90
   0   0   7    3.60    0.90
   0   0   7    4.80    2.20
   0   0   7    5.60    2.20
   0   0   7    3.40    1.30
   0   0   7    4.10    2.30
   1   0   7 2043.80  137.59
   1   0   7 2039.90  140.89
   1   0   7 2465.45  139.59
   1   0   7 2062.49  140.49
   1   0   7 2243.88  140.39
   1   0   7 2135.09  138.69
   2   0   7   54.59    4.50
   2   0   7   55.49    4.10
   2   0   7   54.99    6.50
   2   0   7   57.29    4.10
   2   0   7   49.30    7.20
   2   0   7   75.29    6.90
   2   0   7   63.59    7.60
   2   0   7   60.49    4.50
   3   0   7  285.07   19.50
   3   0   7  250.47   21.60
   3   0   7  248.78   20.40
   3   0   7  265.37   18.40
   3   0   7  238.88   20.00
   3   0   7  294.97   18.50
   3   0   7  300.67   18.70
   3   0   7  250.07   18.20
   4   0   7  192.08   15.60
   4   0   7  225.58   15.90
   4   0   7  234.58   16.20
   4   0   7  244.58   15.70
   4   0   7  219.18   18.10
   4   0   7  193.58   18.50
   4   0   7  207.48   15.70
   4   0   7  218.78   17.40
   5   0   7   12.00    4.40
   5   0   7   12.50    2.90
   5   0   7   14.60    3.20
   5   0   7   13.80    3.80
   5   0   7   10.90    4.20
   6   0   7  427.46   33.10
   6   0   7  432.26   34.10
   7   0   7  156.08   13.30
  -9  -1   7   89.39   10.90
   9  -1  -7   87.29   11.30
   9  -1  -7   91.89   10.80
  -9  -1   7   85.59   11.00
   9  -1  -7   85.79   10.40
  -9  -1   7   99.79   13.50
   9   1  -7   89.69   10.70
  -9   1   7   82.19   11.90
  -9   1   7   85.19   10.70
   9   1  -7   86.09   10.40
   9   1  -7   82.39   10.50
  -9   1   7   93.29   11.20
   8  -1  -7   82.39    9.80
  -8  -1   7   74.89    9.70
   8  -1  -7   73.09   10.10
   8  -1  -7   82.49   10.00
  -8  -1   7   81.89   11.50
  -8  -1   7  103.19   11.00
  -8  -1   7   71.29   10.10
   8   1  -7   80.19   10.10
   8   1  -7   75.69    9.90
  -8   1   7  103.49   11.10
  -8   1   7   80.39   11.40
  -8   1   7   82.29    9.40
  -8   1   7   69.59    9.50
   8   1  -7   76.19    9.90
   7  -1  -7  144.59   11.20
  -7  -1   7  128.59   13.40
   7  -1  -7  135.59   13.20
  -7  -1   7  131.19   15.80
   7  -1  -7  141.79   12.80
   7  -1  -7  141.19   13.30
  -7  -1   7  136.99   13.80
  -7  -1   7  134.59   13.60
   7   1  -7  131.49   13.00
   7   1  -7  125.69   13.00
  -7   1   7  144.09   13.70
  -7   1   7  127.29   16.00
  -7   1   7  139.49   13.70
  -7   1   7  157.78   13.40
   6  -1  -7  941.01   68.09
  -6  -1   7  983.70   68.79
   6  -1  -7  960.50   67.89
   6  -1  -7 1177.28   66.29
   6  -1  -7  963.70   67.39
   6  -1  -7 1057.79   66.09
  -6  -1   7  969.40   69.09
  -6  -1   7 1026.30   71.69
  -6  -1   7  991.90   68.69
  -6   1   7 1008.10   70.99
   6   1  -7 1137.09   71.59
   6   1  -7 1009.80   70.79
  -6   1   7 1008.80   73.29
   6   1  -7 1019.70   70.89
  -6   1   7 1065.69   69.69
  -6   1   7 1207.58   72.19
  -6   1   7  995.00   71.09
   6   1  -7 1040.60   67.89
  -5  -1   7  510.05   36.10
   5  -1  -7  513.35   36.10
   5  -1  -7  471.95   35.20
   5  -1  -7  565.54   33.50
  -5  -1   7  500.75   37.90
  -5  -1   7  521.65   35.50
   5  -1  -7  458.45   35.30
  -5  -1   7  488.55   36.50
  -5  -1   7  502.85   35.20
  -5   1   7  509.05   34.10
  -5   1   7  519.65   35.30
  -5   1   7  516.85   37.80
   5   1  -7  493.85   34.60
  -5   1   7  511.25   36.10
   5   1  -7  484.55   34.80
  -5   1   7  485.45   35.70
   5   1  -7  482.95   35.50
  -5   1   7  525.65   36.10
   5   1  -7  505.25   35.40
  -4  -1   7  428.56   30.90
   4  -1  -7  403.26   28.60
  -4  -1   7  412.66   31.30
  -4  -1   7  410.76   29.10
   4  -1  -7  389.96   28.10
  -4  -1   7  421.56   29.80
   4  -1  -7  401.96   29.20
   4  -1  -7  404.06   29.70
   4  -1  -7  418.56   29.10
   4  -1  -7  424.56   27.20
  -4  -1   7  449.76   29.40
  -4   1   7  434.26   30.00
  -4   1   7  516.85   32.90
   4   1  -7  449.26   31.00
  -4   1   7  538.05   32.30
   4   1  -7  401.76   31.30
  -4   1   7  428.16   32.10
  -4   1   7  433.76   31.80
   4   1  -7  497.75   30.80
  -4   1   7  395.56   32.60
  -4   1   7  442.06   31.10
   4   1  -7  412.96   30.90
   3  -1  -7   30.90    4.10
  -3  -1   7   40.20    4.70
   3  -1  -7   36.90    3.20
  -3  -1   7   45.00    5.90
   3  -1  -7   33.20    4.70
   3  -1  -7   39.20    4.50
  -3  -1   7   32.60    4.30
  -3  -1   7   33.50    4.30
  -3  -1   7   47.20    6.40
  -3  -1   7   30.30    4.50
   3  -1  -7   33.60    3.90
   3  -1  -7   40.30    5.70
  -3  -1   7   41.20    4.80
   3  -1  -7   40.70    4.30
  -3  -1   7   32.60    4.40
  -3   1   7   32.40    4.40
  -3   1   7   34.80    4.50
  -3   1   7   36.60    5.50
  -3   1   7   41.10    4.60
   3   1  -7   37.30    4.70
   3   1  -7   40.70    3.80
   3   1  -7   36.20    3.80
   3   1  -7   36.90    4.20
  -3   1   7   53.39    5.40
  -3   1   7   38.70    3.60
  -3   1   7   49.20    5.80
  -3   1   7   36.00    5.80
   3   1  -7   43.40    5.90
   3   1  -7   40.90    4.50
  -3   1   7   38.70    5.30
  -2  -1   7  256.37   17.10
  -2  -1   7  219.88   16.80
  -2  -1   7  221.48   15.30
   2  -1  -7  229.38   16.20
   2  -1  -7  215.58   17.70
   2  -1  -7  223.28   15.40
   2  -1  -7  238.38   15.50
   2  -1  -7  242.58   17.90
  -2  -1   7  220.78   16.30
  -2  -1   7  215.18   16.40
  -2  -1   7  282.97   18.80
   2  -1  -7  211.08   16.30
  -2  -1   7  227.68   16.40
   2  -1  -7  234.38   16.00
  -2  -1   7  225.88   18.20
  -2   1   7  222.98   16.70
  -2   1   7  230.68   18.00
   2   1  -7  221.48   16.10
  -2   1   7  207.48   16.30
  -2   1   7  233.78   17.80
  -2   1   7  248.98   15.60
  -2   1   7  243.38   16.60
   2   1  -7  228.68   17.80
  -2   1   7  274.27   16.50
   2   1  -7  230.98   17.00
   2   1  -7  234.88   16.50
  -2   1   7  224.38   18.30
  -2   1   7  213.88   16.60
   1  -1  -7  681.03   46.10
  -1  -1   7  775.92   45.80
  -1  -1   7  660.13   48.10
  -1  -1   7  776.02   45.80
  -1  -1   7  760.02   46.10
   1  -1  -7  698.83   46.80
  -1  -1   7  650.03   45.50
  -1  -1   7  688.23   48.10
  -1  -1   7  665.93   46.30
   1  -1  -7  685.33   48.00
   1   1  -7  661.13   46.40
  -1   1   7  694.33   49.00
  -1   1   7  688.93   47.10
  -1   1   7  694.83   47.30
  -1   1   7  834.72   47.30
  -1   1   7  717.03   48.00
   1   1  -7  681.13   46.70
  -1   1   7  802.72   46.60
   0  -1   7  910.81   62.99
   0  -1   7  908.81   63.49
   0  -1  -7 1014.50   61.69
   0  -1   7  972.90   60.99
   0  -1  -7  890.41   61.39
   0  -1   7 1064.79   64.29
   0  -1   7  931.21   61.09
   0   1   7 1008.30   59.49
   0   1   7  912.91   62.29
   0   1   7  886.61   59.79
   0   1   7  913.91   59.59
   0   1   7  848.12   61.89
   0   1   7  877.61   61.29
   0   1   7 1047.30   59.89
   0   1   7  866.61   59.59
   1  -1   7   98.29    9.40
  -1  -1  -7   89.99    6.90
   1  -1   7   92.09    9.40
   1  -1   7  105.19    9.70
   1  -1   7   98.59    8.60
   1  -1   7   99.69    9.40
  -1  -1  -7  111.79    7.00
   1   1   7  102.79    7.60
   1   1   7   99.29    9.60
   1   1   7  118.99    8.70
   1   1   7   94.99   10.20
   1   1   7   97.19    7.80
   1   1   7   96.79    7.40
   1   1   7  105.49    7.60
   2  -1   7   17.50    4.20
   2  -1   7   21.60    4.40
   2  -1   7   21.80    3.80
   2  -1   7   18.30    3.50
  -2  -1  -7   20.50    1.90
  -2  -1  -7   22.90    2.00
   2   1   7   23.30    3.90
   2   1   7   18.10    4.50
   2   1   7   23.40    2.70
   2   1   7   25.30    2.90
   2   1   7   21.60    4.60
   2   1   7   20.00    2.90
   2   1   7   23.10    2.80
   2   1   7   26.70    3.60
   3  -1   7  620.74   40.60
   3  -1   7  617.74   42.60
  -3  -1  -7  660.03   40.80
   3  -1   7  618.44   44.80
   3  -1   7  627.64   40.90
   3  -1   7  620.04   40.70
   3  -1   7  653.93   40.90
   3  -1   7  597.24   43.70
   3  -1   7  606.64   43.60
  -3  -1  -7  652.83   40.70
   3   1   7  608.54   47.20
   3   1   7  608.44   45.80
   3   1   7  701.13   47.80
   3   1   7  779.52   45.30
   3   1   7  628.24   44.20
   3   1   7  632.94   44.20
   3   1   7  676.03   44.30
   3   1   7  710.93   44.60
   4  -1   7  389.36   27.30
   4  -1   7  376.06   29.70
   4  -1   7  448.06   27.20
   4  -1   7  399.46   27.40
   4  -1   7  387.26   31.10
   4  -1   7  403.76   29.80
   4  -1   7  411.86   28.20
   4  -1   7  415.16   27.70
   4   1   7  483.25   32.70
   4   1   7  384.86   28.20
   4   1   7  463.15   28.60
   4   1   7  368.86   29.90
   4   1   7  402.96   28.70
   4   1   7  393.06   27.70
   4   1   7  356.16   28.20
   4   1   7  453.25   29.10
   5  -1   7  210.18   17.70
   5  -1   7  200.98   18.10
   5  -1   7  200.98   18.80
   5  -1   7  222.58   15.60
   5   1   7  210.58   19.40
   5   1   7  213.98   16.20
   5   1   7  217.88   16.70
   5   1   7  215.48   16.60
   5   1   7  192.98   17.90
   6  -1   7   68.49    6.90
   6  -1   7   59.89    9.30
   6  -1   7   64.39    9.40
   6  -1   7   68.59    8.80
   6   1   7   74.99    7.50
   6   1   7   53.39    9.00
   6   1   7   59.99   10.20
   7   1   7   84.79    9.00
   9  -2  -7  415.26   32.00
   9  -2  -7  403.06   31.50
  -9  -2   7  371.56   33.60
  -9  -2   7  403.46   31.70
   9  -2  -7  414.86   31.10
  -9  -2   7  391.16   33.10
   9   2  -7  385.36   34.10
  -9   2   7  538.25   36.40
   9   2  -7  400.26   34.70
   9   2  -7  427.76   35.20
  -9   2   7  506.85   35.80
  -9   2   7  509.75   38.10
   8  -2  -7  121.49   14.10
  -8  -2   7  113.29   13.30
  -8  -2   7  110.39   12.70
  -8  -2   7  123.49   14.60
   8  -2  -7  121.69   12.70
  -8  -2   7  131.89   11.40
  -8  -2   7  155.68   14.30
   8  -2  -7  124.99   12.90
   8   2  -7  156.98   14.00
  -8   2   7  111.79   12.70
   8   2  -7  113.19   12.80
   8   2  -7  115.39   12.30
  -8   2   7  119.69   14.50
  -8   2   7  118.59   12.70
  -7  -2   7   87.89   11.50
  -7  -2   7   73.29    9.40
   7  -2  -7   81.69    9.50
  -7  -2   7   84.09   10.50
   7  -2  -7   93.69    9.30
   7  -2  -7   91.89   10.90
  -7  -2   7   79.19    9.50
   7  -2  -7   70.49    9.10
   7   2  -7  108.09   10.70
   7   2  -7   85.29    9.70
  -7   2   7  105.19   13.50
  -7   2   7   73.19    9.40
   7   2  -7   72.99    9.30
  -7   2   7   75.49    8.70
   6  -2  -7  305.77   21.10
   6  -2  -7  279.97   22.30
  -6  -2   7  299.47   23.50
   6  -2  -7  338.87   23.20
   6  -2  -7  282.37   23.90
  -6  -2   7  260.47   23.20
   6  -2  -7  278.47   21.50
  -6  -2   7  275.77   22.60
  -6  -2   7  289.97   25.30
   6   2  -7  291.37   22.70
  -6   2   7  288.77   24.80
  -6   2   7  306.67   21.20
  -6   2   7  277.57   22.30
   6   2  -7  313.67   23.20
   6   2  -7  270.77   22.70
  -6   2   7  290.27   23.40
  -6   2   7  290.57   23.20
   6   2  -7  296.37   19.80
   5  -2  -7   93.49    9.30
   5  -2  -7   63.89    7.50
  -5  -2   7   73.79    7.60
  -5  -2   7   69.09    8.20
  -5  -2   7   65.39    9.50
  -5  -2   7   66.49    8.80
   5  -2  -7   64.79    6.20
   5  -2  -7   60.69    6.50
  -5  -2   7   63.69    7.90
   5  -2  -7   75.99    7.80
  -5   2   7   57.99    7.40
  -5   2   7   74.79    7.90
  -5   2   7   61.29    7.70
   5   2  -7   63.49    7.80
  -5   2   7   67.59    8.30
   5   2  -7   85.09    7.30
   5   2  -7   76.09    7.40
  -5   2   7   81.89    6.60
  -5   2   7   70.39    9.10
   5   2  -7   60.39    7.40
   5   2  -7   57.59    7.40
  -5   2   7   95.89    8.20
  -4  -2   7  365.56   26.80
  -4  -2   7  377.96   26.70
   4  -2  -7  378.26   24.90
   4  -2  -7  386.26   26.40
  -4  -2   7  341.57   27.60
  -4  -2   7  378.56   26.90
   4  -2  -7  358.86   25.00
   4  -2  -7  365.36   26.00
  -4  -2   7  347.87   28.10
  -4   2   7  382.46   27.40
  -4   2   7  397.06   25.90
   4   2  -7  449.76   27.50
  -4   2   7  384.06   28.20
   4   2  -7  373.36   26.70
  -4   2   7  379.56   28.10
  -4   2   7  375.96   27.80
  -4   2   7  385.56   29.50
   4   2  -7  373.56   26.60
   4   2  -7  377.56   27.80
  -3  -2   7 1374.76   94.09
   3  -2  -7 1514.35   91.49
  -3  -2   7 1395.86   93.99
   3  -2  -7 1374.06   94.59
  -3  -2   7 1390.86   92.49
  -3  -2   7 1386.16   92.49
   3  -2  -7 1465.45   92.09
  -3  -2   7 1376.66   92.19
   3  -2  -7 1387.96   93.39
  -3  -2   7 1461.15   92.89
   3  -2  -7 1462.55   91.99
  -3  -2   7 1389.66   91.59
   3  -2  -7 1403.36   92.29
  -3   2   7 1447.16   93.99
  -3   2   7 1506.05   93.79
   3   2  -7 1425.36   93.09
  -3   2   7 1429.46   94.89
  -3   2   7 1426.26   94.09
   3   2  -7 1529.15   94.19
  -3   2   7 1445.16   94.39
  -3   2   7 1387.26   95.09
   3   2  -7 1401.16   94.99
   3   2  -7 1413.16   92.49
   2  -2  -7  137.89   11.30
  -2  -2   7  138.69   11.20
   2  -2  -7  160.08   13.30
  -2  -2   7  153.18   12.30
  -2  -2   7  140.19   11.40
  -2  -2   7  148.59   11.20
  -2  -2   7  165.68   10.70
  -2  -2   7  145.59   13.30
   2  -2  -7  151.28   11.60
   2  -2  -7  156.48   11.00
  -2  -2   7  141.29   11.40
   2  -2  -7  149.39   11.00
  -2  -2   7  144.99   13.00
   2  -2  -7  149.19   11.50
  -2  -2   7  157.58   11.60
  -2   2   7  166.38   12.50
  -2   2   7  180.88   12.60
   2   2  -7  156.08   12.10
  -2   2   7  148.99   12.50
  -2   2   7  140.99   12.70
   2   2  -7  182.18   12.00
  -2   2   7  159.78   13.90
   2   2  -7  181.28   12.40
  -2   2   7  152.58   12.30
   2   2  -7  158.08   13.30
  -2   2   7  153.88   12.20
  -1  -2   7  189.18   13.40
  -1  -2   7  175.28   15.10
  -1  -2   7  194.38   13.60
   1  -2  -7  194.38   13.90
  -1  -2   7  178.68   13.20
  -1  -2   7  180.98   13.40
   1  -2  -7  220.18   14.90
  -1  -2   7  221.18   14.50
   1  -2  -7  191.38   15.70
   1  -2  -7  175.18   13.90
  -1  -2   7  198.18   16.00
   1   2  -7  193.48   13.30
  -1   2   7  182.08   14.20
  -1   2   7  199.58   14.50
   1   2  -7  205.48   13.50
  -1   2   7  184.58   14.20
  -1   2   7  215.48   15.00
  -1   2   7  201.58   16.10
  -1   2   7  183.08   15.90
  -1   2   7  199.28   14.40
  -1   2   7  198.38   15.10
   0  -2   7  290.07   19.20
   0  -2  -7  320.27   20.40
   0  -2   7  272.07   21.80
   0  -2   7  284.57   21.10
   0  -2   7  285.17   21.70
   0  -2  -7  300.87   22.50
   0  -2  -7  290.17   21.50
   0  -2   7  298.27   19.10
   0  -2   7  280.27   21.60
   0   2   7  279.97   21.10
   0   2   7  282.57   21.70
   0   2   7  276.87   19.40
   0   2   7  273.97   19.60
   0   2   7  271.17   19.30
   0   2   7  268.17   19.70
   0   2   7  278.47   19.70
   0   2   7  312.27   19.10
   0   2   7  268.07   21.40
   1  -2   7   68.19    7.50
  -1  -2  -7   83.59    6.00
   1  -2   7   58.09    7.80
   1  -2   7   60.99    7.30
   1  -2   7   66.09    7.30
  -1  -2  -7   72.49    7.70
   1  -2   7   89.39    7.80
  -1  -2  -7   75.59    6.30
   1   2   7   67.59    6.40
   1   2   7   66.99    7.60
   1   2   7   81.79    6.30
   1   2   7   80.19    6.30
   1   2   7   66.39    6.30
   1   2   7   63.29    6.00
   1   2   7   62.69    7.70
   1   2   7   71.29    6.40
   2  -2   7  506.65   36.70
  -2  -2  -7  613.04   36.10
   2  -2   7  513.55   38.00
   2  -2   7  506.55   36.80
   2  -2   7  522.65   36.90
  -2  -2  -7  517.95   35.00
   2   2   7  557.54   38.90
   2   2   7  642.94   39.10
   2   2   7  650.13   39.30
   2   2   7  530.65   41.20
   2   2   7  536.85   38.90
   2   2   7  511.05   38.60
   2   2   7  668.53   40.10
   2   2   7  596.74   38.40
   2   2   7  532.25   41.40
   3  -2   7  186.98   16.30
   3  -2   7  177.98   14.80
   3  -2   7  205.48   15.80
   3  -2   7  180.48   16.30
   3  -2   7  184.48   12.90
   3  -2   7  202.28   12.70
   3  -2   7  187.38   12.80
   3  -2   7  191.68   12.80
   3  -2   7  173.48   14.80
   3   2   7  207.18   16.00
   3   2   7  199.88   15.50
   3   2   7  245.38   16.70
   3   2   7  193.68   16.70
   3   2   7  241.78   16.50
   3   2   7  215.98   15.20
   3   2   7  193.18   18.30
   4  -2   7   59.59    5.40
   4  -2   7   64.29    5.10
   4  -2   7   65.39    7.90
   4  -2   7   59.79    7.60
   4  -2   7   57.79    6.50
   4  -2   7   61.59    8.90
   4  -2   7   60.69    6.40
   4  -2   7   59.39    5.20
   4   2   7   81.89    9.80
   4   2   7   58.79    6.50
   4   2   7   67.79    7.00
   4   2   7   58.59    5.80
   4   2   7   60.09    7.80
   4   2   7   65.49    8.80
   5  -2   7   87.19   10.20
   5  -2   7   77.79   10.10
   5  -2   7   84.89    9.50
   5  -2   7   79.59    7.20
   5   2   7   80.89   10.90
   5   2   7   88.59    9.20
   5   2   7   99.79   10.80
   5   2   7  115.59   12.60
   5   2   7   80.89    8.50
   6  -2   7  236.28   20.80
   6  -2   7  270.57   23.10
   6  -2   7  240.68   21.10
   6  -2   7  250.47   18.40
   6   2   7  253.57   19.80
   6   2   7  244.88   21.80
   6   2   7  259.77   22.00
   6   2   7  268.17   23.50
  -9  -3   7  120.79   17.40
   9  -3  -7  110.49   12.20
  -9  -3   7  100.19   12.50
   9  -3  -7  126.09   12.90
   9   3  -7  149.59   14.40
   9   3  -7  102.39   14.30
  -9   3   7  106.29   14.30
  -9   3   7  137.69   14.20
   9   3  -7  111.39   13.50
  -9   3   7  103.59   12.90
  -8  -3   7    6.50    5.00
   8  -3  -7    5.50    3.70
   8  -3  -7    7.90    3.40
   8  -3  -7    5.60    2.90
  -8  -3   7    4.20    2.70
  -8  -3   7    9.70    6.10
  -8  -3   7    5.60    3.30
   8  -3  -7   10.80    5.00
  -8  -3   7    2.50    2.60
   8   3  -7    3.70    3.40
  -8   3   7    4.50    5.00
   8   3  -7    2.80    3.60
  -8   3   7    4.10    3.40
   8   3  -7    3.90    2.90
  -8   3   7    6.00    3.20
   7  -3  -7   35.90    6.60
  -7  -3   7   38.70    7.40
   7  -3  -7   43.10    6.90
  -7  -3   7   32.60    7.70
   7  -3  -7   44.20    8.00
   7  -3  -7   41.60    6.00
  -7  -3   7   42.10    5.90
  -7  -3   7   64.29    8.90
  -7  -3   7   42.10    7.40
  -7   3   7   40.30    7.10
  -7   3   7   44.90    6.00
   7   3  -7   40.40    7.10
   7   3  -7   35.60    6.80
   7   3  -7   61.99    8.40
  -7   3   7   43.60    8.90
  -7   3   7   45.70    7.50
   6  -3  -7   13.60    4.30
   6  -3  -7   10.00    2.90
   6  -3  -7   11.20    3.00
   6  -3  -7   21.00    4.50
  -6  -3   7   12.10    4.00
  -6  -3   7    9.00    4.10
  -6  -3   7   11.30    3.40
   6  -3  -7    8.10    3.30
  -6  -3   7   13.30    4.70
  -6  -3   7   11.80    3.80
   6   3  -7   12.30    4.10
   6   3  -7   13.00    3.90
   6   3  -7    8.50    3.60
  -6   3   7   18.80    4.80
  -6   3   7   15.00    3.50
  -6   3   7   12.70    4.70
  -6   3   7   11.00    5.00
   6   3  -7   12.50    2.20
  -6   3   7    7.30    3.10
   6   3  -7   10.20    2.90
  -5  -3   7  395.46   27.70
   5  -3  -7  385.46   26.60
   5  -3  -7  394.36   26.20
  -5  -3   7  374.16   27.70
  -5  -3   7  389.56   29.70
   5  -3  -7  355.46   27.20
  -5  -3   7  379.26   28.20
   5  -3  -7  359.96   27.30
  -5  -3   7  389.96   30.40
   5  -3  -7  353.66   28.60
  -5  -3   7  352.96   27.90
  -5   3   7  410.76   28.40
   5   3  -7  366.26   27.90
  -5   3   7  370.26   29.10
   5   3  -7  367.56   26.10
  -5   3   7  359.76   29.20
  -5   3   7  366.56   28.30
  -5   3   7  368.26   27.40
   5   3  -7  419.26   27.80
   5   3  -7  381.26   27.20
   4  -3  -7  489.95   36.10
  -4  -3   7  505.55   38.30
   4  -3  -7  521.75   36.50
  -4  -3   7  496.65   36.70
   4  -3  -7  514.45   36.10
  -4  -3   7  514.65   37.00
  -4  -3   7  523.35   37.20
  -4  -3   7  577.44   34.10
   4  -3  -7  517.85   37.60
   4  -3  -7  552.84   34.60
   4   3  -7  529.35   36.60
   4   3  -7  543.35   36.00
   4   3  -7  508.75   36.90
  -4   3   7  577.74   37.60
  -4   3   7  514.65   37.70
  -4   3   7  542.35   39.30
   4   3  -7  617.54   38.40
  -4   3   7  546.45   39.40
  -4   3   7  520.75   38.00
  -3  -3   7  106.79    9.30
   3  -3  -7   90.99    8.50
   3  -3  -7  122.19    9.30
  -3  -3   7  125.69    9.40
   3  -3  -7   97.59    8.90
  -3  -3   7  118.69    9.60
  -3  -3   7   86.99   10.20
  -3  -3   7   86.69   10.10
  -3  -3   7   85.39    9.40
  -3  -3   7  106.19    7.60
  -3  -3   7   90.49    9.10
   3  -3  -7   93.49    8.70
  -3  -3   7   91.99    9.60
   3   3  -7  129.59    9.70
  -3   3   7  100.29    8.90
   3   3  -7   97.89    7.80
  -3   3   7   91.39    9.00
  -3   3   7   97.99    9.10
   3   3  -7   89.89    9.20
  -3   3   7   94.69   10.20
   3   3  -7  104.39    7.60
   3   3  -7  103.19    7.50
  -3   3   7   95.19   10.20
  -3   3   7   94.19    9.60
  -2  -3   7  404.86   29.30
  -2  -3   7  398.96   27.30
  -2  -3   7  375.86   29.50
  -2  -3   7  418.76   28.00
   2  -3  -7  412.36   28.60
  -2  -3   7  443.06   28.60
  -2  -3   7  425.96   28.60
  -2  -3   7  406.26   28.50
   2  -3  -7  401.46   28.30
  -2  -3   7  475.95   31.50
   2  -3  -7  391.96   28.00
  -2  -3   7  445.76   30.10
   2  -3  -7  384.46   28.70
   2   3  -7  403.66   27.80
  -2   3   7  388.06   28.10
  -2   3   7  398.86   28.50
   2   3  -7  392.76   27.40
  -2   3   7  396.86   29.60
  -2   3   7  414.06   28.70
   2   3  -7  436.66   29.00
  -2   3   7  406.76   29.90
  -2   3   7  426.06   28.80
  -2   3   7  379.36   27.90
  -1  -3   7  255.97   16.90
  -1  -3   7  185.48   14.60
  -1  -3   7  198.38   14.90
   1  -3  -7  231.78   14.60
  -1  -3   7  197.48   14.80
   1  -3  -7  226.08   15.40
  -1  -3   7  203.78   15.00
   1  -3  -7  201.78   16.10
  -1  -3   7  195.88   17.20
  -1  -3   7  202.08   14.90
  -1   3   7  209.98   18.40
  -1   3   7  205.78   17.00
  -1   3   7  270.17   17.80
  -1   3   7  266.27   18.50
   1   3  -7  208.68   15.80
  -1   3   7  257.67   19.30
  -1   3   7  215.48   16.90
  -1   3   7  232.28   17.00
   1   3  -7  214.68   17.40
  -1   3   7  281.37   17.70
   0  -3   7  354.76   24.90
   0  -3   7  342.17   23.50
   0  -3  -7  343.57   25.80
   0  -3   7  346.17   25.20
   0  -3   7  348.27   26.10
   0  -3   7  371.06   23.20
   0  -3  -7  353.06   24.20
   0  -3   7  358.36   23.50
   0  -3   7  357.66   23.20
   0   3   7  323.87   25.80
   0   3   7  362.16   23.00
   0   3   7  345.27   23.40
   0   3   7  371.96   24.10
   0   3   7  353.16   24.80
   0   3   7  320.17   24.10
   0   3   7  339.87   26.00
   0   3   7  340.37   24.30
   0   3   7  336.97   24.10
   1  -3   7  653.43   47.60
   1  -3   7  747.03   47.30
   1  -3   7  718.23   44.90
   1  -3   7  702.03   48.00
   1  -3   7  670.63   48.90
  -1  -3  -7  666.33   45.70
   1  -3   7  709.63   44.70
  -1  -3  -7  703.13   45.90
   1   3   7  741.83   48.30
   1   3   7  732.43   48.20
   1   3   7  735.63   49.60
   1   3   7  685.53   49.90
   1   3   7  669.73   49.70
   1   3   7  866.91   50.49
   1   3   7  708.73   52.09
   1   3   7  844.52   49.80
   1   3   7  748.63   50.19
   2  -3   7  883.11   63.39
   2  -3   7  967.70   59.09
   2  -3   7  929.21   58.89
  -2  -3  -7  870.61   60.39
   2  -3   7 1086.39   62.59
   2  -3   7  974.90   58.89
   2  -3   7  881.01   58.99
   2  -3   7  824.02   61.69
   2  -3   7  889.81   61.49
  -2  -3  -7  920.11   60.79
   2   3   7  887.31   60.19
   2   3   7  887.41   60.19
   2   3   7  880.31   59.99
   2   3   7  948.71   59.89
   2   3   7  900.61   62.39
   2   3   7  883.51   59.79
   2   3   7  941.61   62.59
   3  -3   7 1618.74  114.09
   3  -3   7 1693.13  110.29
   3  -3   7 1911.91  112.49
   3  -3   7 1708.33  109.99
   3  -3   7 1872.81  113.09
   3  -3   7 1584.94  112.79
   3  -3   7 1672.33  110.09
   3  -3   7 1712.93  109.99
   3   3   7 1695.23  112.39
   3   3   7 1622.74  112.59
   3   3   7 1911.31  115.99
   3   3   7 1676.33  112.49
   3   3   7 1685.93  115.09
   3   3   7 1706.13  111.79
   3   3   7 1822.92  113.59
   4  -3   7  237.38   21.60
   4  -3   7  330.97   21.10
   4  -3   7  260.67   18.40
   4  -3   7  270.27   18.80
   4  -3   7  276.37   19.90
   4  -3   7  249.28   18.60
   4   3   7  229.78   20.80
   4   3   7  244.78   19.00
   4   3   7  241.28   19.70
   5  -3   7   18.10    4.80
   5  -3   7   21.90    5.90
   5  -3   7   28.00    6.10
   5  -3   7   17.40    2.90
   5   3   7   20.50    6.30
   5   3   7   25.80    4.80
   5   3   7   27.40    6.00
   5   3   7   25.70    6.20
   5   3   7   26.50    5.10
   6  -3   7   91.59   10.80
   6  -3   7   82.59    8.30
   6  -3   7  106.89   12.90
   6  -3   7  113.59   12.10
   6   3   7  106.69   10.30
   6   3   7   89.19   11.70
   6   3   7   93.09   11.70
   6   3   7  105.89   11.20
   6   3   7   99.69   12.90
   9  -4  -7   46.50    8.30
  -9  -4   7   48.80    8.70
  -9  -4   7   52.39   11.50
  -9   4   7   44.30    9.40
   9   4  -7   46.60    9.00
  -9   4   7   56.49    9.20
   8  -4  -7   68.49    8.30
  -8  -4   7   82.29   13.80
   8  -4  -7   99.49   10.40
  -8  -4   7   73.39    9.60
   8  -4  -7   56.99   10.10
  -8  -4   7   53.99   10.50
   8  -4  -7   89.69   10.10
  -8  -4   7   61.79    9.10
  -8   4   7   77.39   12.20
   8   4  -7   81.59   10.30
   8   4  -7   76.69    9.50
  -8   4   7   81.99   10.10
   8   4  -7   65.59    9.70
  -8   4   7   77.09   10.30
  -7  -4   7  224.28   20.70
  -7  -4   7  258.87   21.80
  -7  -4   7  254.27   23.10
   7  -4  -7  263.77   22.60
   7  -4  -7  252.47   20.80
   7  -4  -7  262.17   19.80
  -7  -4   7  252.27   20.10
  -7   4   7  214.98   20.00
  -7   4   7  269.37   21.50
   7   4  -7  246.28   20.50
  -7   4   7  285.07   24.10
   7   4  -7  267.57   21.60
  -7   4   7  256.07   21.40
   7   4  -7  238.88   21.30
  -6  -4   7    8.30    3.80
   6  -4  -7    7.50    2.40
   6  -4  -7    3.10    2.30
   6  -4  -7    6.30    3.30
  -6  -4   7    5.40    4.10
   6  -4  -7    8.40    3.40
  -6  -4   7    6.90    3.80
  -6  -4   7    5.70    4.00
  -6  -4   7    7.40    3.20
   6   4  -7    9.30    2.10
   6   4  -7    8.00    3.60
  -6   4   7   18.80    4.70
  -6   4   7    7.00    3.60
  -6   4   7    9.70    4.20
   6   4  -7   10.50    3.30
  -6   4   7    8.80    3.00
  -6   4   7    6.40    3.20
  -5  -4   7   58.39    7.30
  -5  -4   7   50.29    4.90
  -5  -4   7   63.79    7.50
  -5  -4   7   54.29    9.10
  -5  -4   7   44.30    6.70
   5  -4  -7   53.49    6.30
  -5  -4   7   54.39    8.20
  -5  -4   7   46.70    6.60
   5  -4  -7   51.99    7.20
   5  -4  -7   52.69    5.20
   5  -4  -7   47.80    6.40
   5  -4  -7   46.30    6.20
  -5   4   7   38.80    7.50
  -5   4   7   41.90    7.30
   5   4  -7   45.30    5.80
  -5   4   7   38.50    6.20
   5   4  -7   49.80    7.30
   5   4  -7   45.20    4.30
  -5   4   7   39.30    6.00
  -5   4   7   50.29    6.00
   5   4  -7   48.20    6.10
  -4  -4   7  326.87   26.90
   4  -4  -7  316.57   24.50
  -4  -4   7  343.07   25.40
   4  -4  -7  340.27   25.90
   4  -4  -7  335.07   24.60
   4  -4  -7  333.27   24.60
  -4  -4   7  353.76   25.20
  -4  -4   7  350.56   25.80
  -4  -4   7  326.37   27.00
   4  -4  -7  342.57   22.70
  -4  -4   7  329.07   25.50
  -4  -4   7  354.16   23.30
   4   4  -7  370.76   22.80
  -4   4   7  354.06   26.20
  -4   4   7  345.57   27.20
   4   4  -7  336.47   24.80
   4   4  -7  378.86   26.50
  -4   4   7  351.76   25.60
   4   4  -7  356.86   25.20
  -4   4   7  325.87   27.20
  -3  -4   7  376.86   30.50
   3  -4  -7  385.46   28.90
  -3  -4   7  389.76   28.80
   3  -4  -7  416.36   28.30
  -3  -4   7  391.86   28.60
   3  -4  -7  403.86   28.40
  -3  -4   7  395.76   27.20
   3  -4  -7  426.26   28.70
  -3   4   7  369.46   29.00
  -3   4   7  469.55   29.00
  -3   4   7  391.76   28.60
   3   4  -7  382.76   26.30
  -3   4   7  410.96   28.20
  -3   4   7  372.06   28.00
   3   4  -7  371.06   28.20
   3   4  -7  392.86   28.10
   3   4  -7  387.36   26.20
  -3   4   7  382.16   29.40
  -2  -4   7  538.05   36.50
  -2  -4   7  487.65   37.50
   2  -4  -7  467.95   36.00
  -2  -4   7  575.44   36.30
  -2  -4   7  547.05   36.30
  -2  -4   7  549.95   36.70
   2  -4  -7  518.05   36.90
  -2  -4   7  512.05   36.40
  -2  -4   7  503.65   37.20
  -2  -4   7  515.15   38.80
   2  -4  -7  611.74   36.30
   2   4  -7  508.65   38.00
  -2   4   7  475.95   37.90
  -2   4   7  508.85   38.10
   2   4  -7  621.94   37.90
  -2   4   7  654.13   38.70
  -2   4   7  520.85   39.60
  -2   4   7  591.84   39.00
  -2   4   7  646.74   38.70
  -2   4   7  475.05   38.90
  -1  -4   7  232.18   16.30
  -1  -4   7  199.58   15.80
  -1  -4   7  218.28   16.30
  -1  -4   7  203.38   18.10
  -1  -4   7  204.48   16.70
  -1  -4   7  221.78   17.10
   1  -4  -7  266.87   16.60
  -1  -4   7  204.88   17.80
   1  -4  -7  205.68   15.60
   1  -4  -7  243.08   17.90
  -1  -4   7  223.58   15.20
  -1  -4   7  212.98   16.20
   1  -4  -7  234.78   16.50
  -1   4   7  211.98   17.90
  -1   4   7  217.98   17.40
   1   4  -7  207.58   16.10
  -1   4   7  228.38   15.90
  -1   4   7  206.38   16.60
  -1   4   7  219.08   17.70
   1   4  -7  219.88   15.40
   1   4  -7  207.08   15.20
   0  -4   7   94.99    7.70
   0  -4  -7   87.19    6.50
   0  -4   7   91.69    7.20
   0  -4   7   88.79    9.50
   0  -4   7   99.19    7.30
   0  -4   7   80.89    7.00
   0  -4   7   94.79    7.20
   0  -4   7   81.69    9.30
   0  -4   7   77.09    7.80
   0  -4  -7   77.59    7.60
   0   4   7   95.49    7.10
   0   4   7   85.89   10.00
   0   4  -7   92.69    6.60
   0   4  -7   95.79    6.70
   0   4   7   79.49    8.30
   0   4   7   81.29    9.40
   0   4   7  107.09   10.20
   0   4   7   84.59    8.10
   0   4   7   86.49    8.70
   1  -4   7   67.99    5.60
   1  -4   7   73.69    6.10
  -1  -4  -7   83.19    6.50
   1  -4   7   71.09    9.00
   1  -4   7   72.49    6.00
   1  -4   7   91.89    7.60
   1  -4   7   73.19    5.90
  -1  -4  -7   73.59    6.80
   1  -4   7   70.49    8.20
   1  -4   7   69.29    7.90
   1   4   7   64.79    7.40
   1   4   7   86.19    8.00
   1   4   7   55.99    7.00
   1   4   7   96.09    9.70
   1   4   7   68.09    6.90
   1   4   7   64.49    6.30
   1   4   7   62.59    8.10
   2  -4   7  745.43   49.00
   2  -4   7  789.52   48.60
   2  -4   7  822.92   49.00
   2  -4   7  749.82   53.29
  -2  -4  -7  696.43   49.70
  -2  -4  -7  745.33   50.09
   2  -4   7  699.43   50.09
   2  -4   7  714.73   51.19
   2  -4   7  775.82   48.90
   2   4   7  700.33   47.70
   2   4   7  720.43   50.39
   2   4   7  723.43   47.60
   2   4   7  689.13   49.90
   2   4   7  683.83   47.50
   3  -4   7   78.39    7.50
   3  -4   7   69.79    8.40
   3  -4   7   63.29    7.00
   3  -4   7   64.59    8.00
   3  -4   7   66.69    5.50
   3  -4   7   70.19    9.40
  -3  -4  -7   70.19    7.80
   3  -4   7   60.19    5.80
   3   4   7   72.19    8.10
   3   4   7   74.69    9.50
   3   4   7   74.69    9.80
   3   4   7   75.39    7.90
   3   4   7   71.49    7.30
   3   4   7   81.39    8.70
   4  -4   7  213.78   17.60
   4  -4   7  210.88   19.50
   4  -4   7  228.28   18.60
   4   4   7  170.38   14.80
   4   4   7  153.18   13.90
   4   4   7  153.48   13.40
   4   4   7  153.28   15.90
   4   4   7  152.18   15.60
   5  -4   7   65.59    9.50
   5  -4   7   87.49    9.70
   5  -4   7   58.89    6.00
   5  -4   7   65.49    8.60
   5   4   7   69.09    9.70
   5   4   7   71.79   10.50
   5   4   7   64.99    9.00
   5   4   7   67.49    8.60
   6  -4   7   48.70    5.30
   6  -4   7   53.59    9.10
   6   4   7   55.39    9.10
   6   4   7   42.00    7.00
   6   4   7   64.89    8.40
   8  -5  -7  165.18   14.70
   8  -5  -7  132.09   15.00
  -8  -5   7  137.59   18.00
   8  -5  -7  136.89   14.10
  -8  -5   7  127.69   14.70
  -8  -5   7  143.79   14.90
   8   5  -7  134.39   14.20
   8   5  -7  167.78   15.00
  -8   5   7  133.09   16.10
  -8   5   7  127.89   13.60
  -8   5   7  128.89   13.90
  -7  -5   7  135.79   14.60
  -7  -5   7  146.69   16.10
   7  -5  -7  145.09   14.00
  -7  -5   7  154.68   13.60
  -7  -5   7  202.58   19.70
  -7  -5   7  150.08   15.20
   7  -5  -7  144.69   14.10
   7  -5  -7  146.19   15.30
  -7   5   7  150.08   14.90
  -7   5   7  165.98   15.70
   7   5  -7  162.08   15.90
  -7   5   7  174.18   17.90
   7   5  -7  158.28   15.30
  -6  -5   7  136.69   14.20
   6  -5  -7  186.98   16.20
   6  -5  -7  139.79   13.60
   6  -5  -7  149.19   12.30
  -6  -5   7  149.69   14.60
   6  -5  -7  134.29   13.40
  -6  -5   7  176.08   14.50
  -6  -5   7  150.98   16.00
  -6  -5   7  151.28   15.90
  -6   5   7  132.19   13.90
   6   5  -7  153.98   14.50
   6   5  -7  133.79   13.20
  -6   5   7  136.69   14.60
  -6   5   7  179.28   14.90
  -6   5   7  177.08   13.20
  -6   5   7  145.59   15.60
   6   5  -7  137.69   12.30
   5  -5  -7   64.19    8.50
  -5  -5   7   52.79    7.50
  -5  -5   7   62.99    7.80
   5  -5  -7   56.89    6.90
  -5  -5   7   55.89    7.30
   5  -5  -7   53.09    6.80
  -5  -5   7   54.99    8.70
   5  -5  -7   52.19    5.40
  -5  -5   7   60.09    8.90
  -5  -5   7   52.89    7.60
  -5   5   7   50.59    7.50
  -5   5   7   62.29    7.50
  -5   5   7   62.19    8.00
   5   5  -7   57.69    7.10
  -5   5   7   54.79    9.00
   5   5  -7   59.09    7.90
  -4  -5   7   23.30    5.20
  -4  -5   7   22.10    4.90
  -4  -5   7   33.70    5.60
   4  -5  -7   25.60    4.60
  -4  -5   7   19.30    4.80
   4  -5  -7   24.40    2.80
   4  -5  -7   32.80    5.30
  -4  -5   7   19.20    5.10
  -4  -5   7   26.20    3.80
   4  -5  -7   24.20    5.20
  -4  -5   7   23.50    5.80
  -4   5   7   28.60    5.30
  -4   5   7   28.10    6.00
   4   5  -7   26.90    4.40
   4   5  -7   30.50    4.20
   4   5  -7   27.60    5.30
  -4   5   7   21.30    5.10
  -4   5   7   24.40    5.00
  -3  -5   7  295.57   23.50
   3  -5  -7  279.67   22.10
   3  -5  -7  283.77   21.60
  -3  -5   7  291.67   24.10
  -3  -5   7  319.27   22.60
  -3  -5   7  305.97   21.50
   3  -5  -7  289.87   21.80
   3  -5  -7  284.37   18.70
  -3  -5   7  297.57   22.30
   3   5  -7  276.57   22.80
  -3   5   7  332.37   23.70
  -3   5   7  305.77   23.50
  -3   5   7  295.77   23.00
   3   5  -7  312.37   23.20
   3   5  -7  325.37   21.40
  -3   5   7  329.67   25.10
  -2  -5   7   62.89    6.70
  -2  -5   7   52.89    6.50
   2  -5  -7   57.49    6.40
  -2  -5   7   58.19    6.40
  -2  -5   7   76.59    9.20
   2  -5  -7   56.59    6.40
  -2  -5   7   47.80    7.50
   2  -5  -7   51.09    6.30
   2  -5  -7   60.69    6.30
  -2  -5   7   52.09    6.60
  -2  -5   7   49.00    5.90
  -2   5   7   48.90    6.10
   2   5  -7   47.90    5.70
  -2   5   7   46.60    7.80
  -2   5   7   51.99    7.10
  -2   5   7   67.49    7.20
  -2   5   7   47.70    6.00
  -2   5   7   45.30    5.70
   2   5  -7   46.30    5.60
  -2   5   7   60.79    7.60
  -1  -5   7  916.31   63.19
   1  -5  -7  890.51   59.79
  -1  -5   7 1001.70   62.39
  -1  -5   7  883.01   62.59
   1  -5  -7  907.51   61.89
  -1  -5   7  979.70   62.39
  -1  -5   7 1002.40   64.59
   1  -5  -7 1030.20   62.79
  -1  -5   7  945.61   60.09
   1  -5  -7  977.40   62.49
  -1  -5   7  899.21   62.29
  -1  -5   7  928.91   60.09
  -1  -5   7  875.71   64.59
  -1   5   7  867.21   60.59
  -1   5   7  890.01   61.39
  -1   5   7  893.41   59.29
  -1   5   7  836.32   60.39
  -1   5   7  867.41   62.09
  -1   5   7 1046.90   60.69
   0  -5   7  144.49   10.80
   0  -5   7  119.39   10.20
   0  -5  -7  137.79    9.50
   0  -5  -7  139.99   10.30
   0  -5   7  118.89   10.10
   0  -5   7  128.09   10.60
   0  -5  -7  147.39   10.80
   0  -5  -7  114.49   10.70
   0  -5   7  116.89   10.30
   0  -5   7  118.09   13.00
   0  -5   7  164.98   13.60
   0  -5   7  138.99   10.60
   0  -5   7  118.99   10.10
   0  -5   7  117.59   12.30
   0   5   7  152.58   12.80
   0   5   7  136.19   13.40
   0   5  -7  152.68   10.40
   0   5   7  127.09   13.30
   0   5   7  124.19   11.60
   0   5   7  151.88   12.80
   0   5   7  144.89   10.20
   0   5   7  138.29   13.80
   1  -5   7   21.60    3.40
   1  -5   7   20.10    3.50
   1  -5   7   26.10    3.20
  -1  -5  -7   25.00    3.50
   1  -5   7   29.30    5.70
  -1  -5  -7   27.80    4.40
   1  -5   7   25.50    5.60
   1  -5   7   27.70    3.50
  -1  -5  -7   28.30    3.20
   1  -5   7   25.70    5.30
   1  -5   7   28.10    3.50
   1   5   7   22.30    4.40
   1   5   7   30.70    4.00
  -1   5  -7   26.00    2.60
   1   5   7   25.80    5.40
   1   5   7   34.60    6.70
   1   5   7   31.70    5.50
   1   5   7   27.50    5.10
  -1   5  -7   28.70    3.10
   2  -5   7  295.17   20.30
  -2  -5  -7  275.07   21.30
   2  -5   7  288.27   23.50
   2  -5   7  283.77   24.70
   2  -5   7  292.67   22.80
   2  -5   7  319.17   21.00
   2  -5   7  288.17   20.80
   2  -5   7  336.57   21.50
   2  -5   7  313.97   21.30
  -2  -5  -7  286.77   19.60
  -2  -5  -7  300.77   22.00
   2   5   7  251.27   20.90
   2   5   7  289.67   20.70
   2   5   7  269.97   22.90
   2   5   7  265.97   22.80
   2   5   7  278.27   20.80
   2   5   7  284.77   21.40
   3  -5   7  108.99    9.30
   3  -5   7  130.89   10.40
   3  -5   7  119.99   11.80
   3  -5   7  137.99   12.70
   3  -5   7  117.39   11.00
   3  -5   7  162.08   14.70
   3   5   7  110.79   11.10
   3   5   7  142.59   12.30
   3   5   7  113.29   10.80
   3   5   7  110.69   13.20
   3   5   7  122.19   13.20
   4  -5   7    9.60    2.10
   4  -5   7   11.60    3.80
   4  -5   7    7.70    4.40
   4  -5   7    8.50    3.60
   4   5   7    9.10    4.40
   4   5   7    8.40    3.70
   4   5   7    7.80    4.30
   4   5   7    9.50    3.70
   4   5   7   14.80    4.00
   5  -5   7   77.19    9.10
   5  -5   7   77.19    7.00
   5  -5   7   70.89    9.90
   5   5   7   92.49   10.60
   5   5   7  109.89   12.50
   5   5   7   77.29    9.40
   5   5   7   77.99    9.70
   5   5   7   73.89   11.70
   6  -5   7  142.09   11.20
   6  -5   7  121.79   15.00
   6   5   7  136.09   14.30
   6   5   7  146.59   14.60
  -8  -6   7   84.79   15.00
  -8  -6   7   84.19   10.80
   8  -6  -7   85.19   10.20
  -8   6   7  107.99   11.80
   8   6  -7   83.19   14.10
   8   6  -7   80.59   10.30
   7  -6  -7  236.38   22.10
  -7  -6   7  215.38   20.90
  -7  -6   7  241.88   22.10
   7  -6  -7  308.27   21.90
   7  -6  -7  233.18   20.70
  -7  -6   7  273.77   20.80
  -7  -6   7  240.38   26.10
   7   6  -7  280.57   21.50
  -7   6   7  252.97   21.30
  -7   6   7  219.48   22.00
   7   6  -7  270.17   22.30
  -7   6   7  221.98   21.00
   6  -6  -7    3.80    3.80
  -6  -6   7    4.40    3.80
   6  -6  -7    5.30    3.30
  -6  -6   7    2.00    4.80
   6  -6  -7    1.60    2.90
  -6  -6   7    2.90    3.20
  -6  -6   7    3.70    2.20
  -6  -6   7    3.00    3.00
  -6   6   7    0.90    3.50
   6   6  -7    7.60    3.40
  -6   6   7    1.10    1.90
  -6   6   7    3.00    2.30
  -6   6   7    5.40    3.50
  -6   6   7    6.70    3.60
   6   6  -7    4.80    3.20
  -5  -6   7   50.69    7.90
  -5  -6   7   57.09    9.90
   5  -6  -7   43.30    6.30
  -5  -6   7   57.39    8.30
   5  -6  -7   45.70    5.80
   5  -6  -7   51.19    7.50
  -5  -6   7   47.80    7.50
   5  -6  -7   44.00    6.10
  -5  -6   7   42.60    7.70
  -5   6   7   47.00    7.20
  -5   6   7   62.69    7.90
   5   6  -7   47.20    6.50
  -5   6   7   54.79    7.60
   5   6  -7   53.99    7.30
  -5   6   7   47.90    8.50
   4  -6  -7  140.89   13.00
   4  -6  -7  147.29   10.80
  -4  -6   7  137.49   13.80
  -4  -6   7  155.08   13.90
  -4  -6   7  147.49   13.90
  -4  -6   7  175.58   15.00
  -4  -6   7  142.19   15.50
   4  -6  -7  147.59   13.00
  -4  -6   7  147.99   12.60
   4  -6  -7  147.49   14.10
  -4   6   7  143.69   14.20
   4   6  -7  201.98   15.20
  -4   6   7  147.49   13.80
  -4   6   7  161.08   16.00
   4   6  -7  157.68   12.80
  -3  -6   7    5.40    3.50
  -3  -6   7   10.30    3.70
   3  -6  -7    9.30    2.90
  -3  -6   7    9.00    3.40
   3  -6  -7   12.40    3.70
  -3  -6   7   10.10    3.20
  -3  -6   7    7.20    2.90
  -3  -6   7    5.90    3.00
   3  -6  -7   10.10    1.80
  -3  -6   7   14.20    3.70
   3  -6  -7   10.70    1.50
   3  -6  -7   10.50    3.40
  -3   6   7   11.40    3.80
  -3   6   7   11.60    4.30
  -3   6   7    8.10    2.90
  -3   6   7   10.90    3.80
   3   6  -7   10.70    3.00
   3   6  -7   10.60    2.40
   3   6  -7    8.80    3.00
  -2  -6   7  504.55   36.90
   2  -6  -7  503.25   36.20
   2  -6  -7  514.85   36.70
   2  -6  -7  570.84   36.70
  -2  -6   7  544.25   36.90
   2  -6  -7  540.05   33.80
  -2  -6   7  493.25   37.90
   2  -6  -7  530.15   33.90
  -2  -6   7  525.75   37.30
  -2  -6   7  535.15   37.20
  -2  -6   7  493.25   39.00
  -2   6   7  515.35   36.90
  -2   6   7  528.65   36.70
  -2   6   7  513.75   37.60
  -2   6   7  540.35   39.00
  -2   6   7  508.05   38.00
  -2   6   7  514.25   37.30
   2   6  -7  555.34   36.70
  -2   6   7  510.55   37.30
  -1  -6   7  286.87   19.70
   1  -6  -7  295.27   19.80
  -1  -6   7  207.78   19.90
  -1  -6   7  215.88   18.50
  -1  -6   7  221.58   20.90
   1  -6  -7  279.47   19.00
   1  -6  -7  291.37   19.50
   1  -6  -7  236.68   16.70
  -1  -6   7  234.08   18.70
  -1  -6   7  226.98   18.60
   1   6  -7  223.88   17.40
  -1   6   7  261.77   17.70
  -1   6   7  232.98   20.20
  -1   6   7  246.48   20.50
  -1   6   7  237.68   19.40
  -1   6   7  222.88   18.50
  -1   6   7  229.98   18.30
   0  -6  -7  252.27   19.30
   0  -6   7  240.58   18.60
   0  -6  -7  226.38   19.00
   0  -6   7  259.47   21.30
   0  -6  -7  259.07   18.80
   0  -6   7  272.47   19.20
   0  -6  -7  253.47   17.80
   0  -6   7  264.97   18.50
   0  -6   7  261.77   18.00
   0  -6   7  270.17   19.50
   0   6   7  262.87   20.40
   0   6  -7  246.48   17.30
   0   6   7  235.08   18.90
   0   6   7  248.28   19.80
   0   6   7  234.58   19.70
   1  -6   7  121.89   11.40
   1  -6   7   89.79    7.10
   1  -6   7   82.39    9.00
  -1  -6  -7   84.69    8.50
   1  -6   7   94.59   11.40
  -1  -6  -7   67.39    7.90
   1  -6   7   84.89    9.50
   1  -6   7   84.29    8.30
  -1  -6  -7   83.19    7.40
   1   6   7   97.29   10.60
   1   6   7   81.29    9.10
   1   6   7   91.69    9.10
   1   6   7   85.59   10.40
   1   6   7   79.69    9.00
   2  -6   7   58.89    7.40
   2  -6   7   59.69    6.40
   2  -6   7   61.79    5.50
  -2  -6  -7   52.49    6.90
  -2  -6  -7   53.09    5.30
   2  -6   7   62.59    8.00
   2  -6   7   51.79    8.90
   2   6   7   84.79    7.90
   2   6   7   60.29    7.90
   2   6   7   62.89    7.40
   2   6   7   56.89    8.80
   2   6   7   65.99    9.80
   3  -6   7   54.39    8.50
   3  -6   7   49.50    7.10
   3  -6   7   54.69    8.20
   3  -6   7   47.20    7.80
   3  -6   7   61.49    5.40
   3   6   7   59.29    9.80
   3   6   7   57.29    8.00
   3   6   7   55.49    9.30
   3   6   7   54.09    7.40
   3   6   7   68.79    8.00
   4  -6   7   32.90    7.70
   4  -6   7   35.20    4.20
   4  -6   7   33.30    6.20
   4  -6   7   32.90    6.60
   4   6   7   41.90    6.80
   4   6   7   34.00    7.60
   4   6   7   36.10    7.00
   4   6   7   41.60    8.20
   4   6   7   31.70    6.00
   5  -6   7  166.28   16.40
   5  -6   7  146.29   15.10
   5   6   7  210.68   17.70
   5   6   7  162.58   17.00
   5   6   7  165.08   16.10
   7  -7  -7   86.49   11.70
  -7  -7   7   74.29   10.50
  -7  -7   7   85.89   11.00
  -7  -7   7   69.79   15.90
   7  -7  -7   83.89    9.80
  -7   7   7   85.29   10.60
   7   7  -7   81.59    9.70
  -7   7   7   94.69   10.70
   6  -7  -7  111.29   12.60
   6  -7  -7  122.69   12.90
  -6  -7   7  162.38   14.40
  -6  -7   7  126.09   17.90
  -6  -7   7  178.78   15.60
  -6  -7   7  159.48   15.30
   6  -7  -7  122.79   14.30
  -6   7   7  127.99   14.60
  -6   7   7  116.29   13.00
  -6   7   7  124.99   13.50
   6   7  -7  146.29   13.10
  -6   7   7  133.29   13.10
  -5  -7   7  211.78   23.10
  -5  -7   7  234.58   21.00
  -5  -7   7  250.57   20.80
   5  -7  -7  274.97   20.10
   5  -7  -7  230.08   19.50
   5  -7  -7  234.38   20.90
  -5  -7   7  242.88   20.70
  -5   7   7  220.48   20.50
  -5   7   7  215.78   18.80
  -5   7   7  229.28   19.40
   5   7  -7  216.18   20.80
   5   7  -7  227.48   18.00
   4  -7  -7  241.88   20.00
   4  -7  -7  248.88   20.80
  -4  -7   7  266.77   20.70
   4  -7  -7  231.38   19.70
  -4  -7   7  234.58   23.20
  -4  -7   7  260.77   21.40
  -4  -7   7  262.47   21.40
   4   7  -7  261.37   19.90
   4   7  -7  245.88   21.20
  -4   7   7  287.47   23.80
  -4   7   7  262.07   21.40
  -4   7   7  311.27   22.50
  -4   7   7  248.78   21.40
   3  -7  -7   34.30    5.80
   3  -7  -7   37.50    5.90
  -3  -7   7   44.60    7.60
  -3  -7   7   38.70    6.00
  -3  -7   7   38.40    7.80
   3  -7  -7   51.79    6.70
  -3  -7   7   33.80    6.30
  -3  -7   7   32.70    5.80
  -3   7   7   48.20    8.40
  -3   7   7   46.60    6.90
   3   7  -7   40.50    4.60
  -3   7   7   39.00    6.50
  -3   7   7   40.70    6.90
   2  -7  -7  101.89    9.50
   2  -7  -7   80.79    9.00
  -2  -7   7  109.89   10.40
  -2  -7   7   88.69    9.40
  -2  -7   7   86.09   10.40
  -2  -7   7   92.19   11.50
  -2  -7   7   88.99    8.90
   2  -7  -7   83.79    8.60
  -2   7   7  100.39   10.00
  -2   7   7   88.19   11.10
  -2   7   7  114.29   10.90
  -2   7   7   82.99   10.10
  -2   7   7   81.19   10.00
  -1  -7   7    8.00    2.20
  -1  -7   7    5.50    3.20
  -1  -7   7    8.70    3.00
  -1  -7   7   11.90    3.20
   1  -7  -7    9.20    2.90
   1  -7  -7    7.00    2.80
  -1  -7   7    5.80    3.70
  -1  -7   7    6.50    3.60
   1  -7  -7    7.70    2.30
  -1   7   7    8.60    3.70
  -1   7   7    9.90    3.00
  -1   7   7    8.60    3.90
  -1   7   7   12.30    3.80
  -1   7   7   15.00    4.70
   0  -7   7  288.47   19.80
   0  -7  -7  294.27   20.00
   0  -7   7  240.08   21.90
   0  -7   7  249.97   22.80
   0  -7   7  267.97   20.60
   0  -7  -7  238.28   19.70
   0  -7   7  242.58   21.70
   0   7   7  312.07   22.30
   0   7   7  247.08   22.40
   0   7   7  271.17   21.00
   0   7   7  260.77   22.80
   0   7   7  252.07   21.70
   1  -7   7  512.15   35.60
   1  -7   7  432.46   35.20
   1  -7   7  557.44   34.20
  -1  -7  -7  449.95   32.60
   1  -7   7  457.75   32.40
  -1  -7  -7  462.25   33.80
   1  -7   7  438.46   36.40
   1   7   7  430.66   33.80
   1   7   7  435.76   32.70
   1   7   7  440.76   31.80
   1   7   7  437.46   33.70
   2  -7   7  111.29   12.90
   2  -7   7  102.79   11.30
   2  -7   7  102.09   11.70
   2  -7   7  116.29   10.40
   2  -7   7  117.39    9.20
   2   7   7  100.39   11.90
   2   7   7   97.89   10.90
   2   7   7  101.59   12.10
   2   7   7   96.79   10.40
   3  -7   7  123.79   14.20
   3  -7   7  108.29    9.30
   3  -7   7  114.29   12.50
   3   7   7  113.59   12.00
   3   7   7  100.49   10.60
   3   7   7   98.69   11.70
   3   7   7  103.09   13.20
   4  -7   7  205.08   18.00
   4  -7   7  209.68   17.90
   4  -7   7  187.98   14.70
   4  -7   7  181.38   18.80
   4   7   7  202.48   20.20
   4   7   7  198.58   19.30
   4   7   7  200.98   18.20
   4   7   7  216.08   18.20
   4   7   7  241.18   19.70
   6  -8  -7  247.18   23.60
   6  -8  -7  288.77   24.20
   6  -8  -7  226.88   21.80
  -6  -8   7  364.06   28.20
  -6  -8   7  289.47   23.50
  -6  -8   7  318.47   25.20
  -6   8   7  261.57   22.10
  -6   8   7  252.87   21.40
   6   8  -7  238.78   20.40
   5  -8  -7   44.20    7.20
  -5  -8   7   38.20    7.50
  -5  -8   7   52.59    8.90
   5  -8  -7   40.20    7.70
   5  -8  -7   51.39    7.10
  -5  -8   7   44.70   10.20
  -5  -8   7   47.90    8.20
  -5   8   7   45.80    8.70
   5   8  -7   46.90    6.40
  -5   8   7   41.20    7.20
  -5   8   7   46.30    7.70
   4  -8  -7  171.68   15.30
  -4  -8   7  181.88   16.20
  -4  -8   7  176.58   16.70
   4  -8  -7  165.18   15.70
   4  -8  -7  178.08   15.20
  -4  -8   7  165.68   16.30
  -4  -8   7  151.28   18.40
  -4   8   7  162.48   15.00
  -4   8   7  176.68   15.60
  -4   8   7  161.68   16.90
   3  -8  -7  133.59   12.20
  -3  -8   7  125.39   13.70
  -3  -8   7  115.79   12.30
  -3  -8   7  128.59   13.20
   3  -8  -7  140.69   12.70
   3  -8  -7  127.49   12.30
  -3  -8   7  132.39   15.60
  -3   8   7  136.49   12.70
  -3   8   7  135.19   13.00
  -3   8   7  119.39   14.00
  -3   8   7  125.19   12.40
   2  -8  -7   12.90    3.60
  -2  -8   7   14.20    4.00
  -2  -8   7   16.30    4.80
   2  -8  -7   17.10    4.20
   2  -8  -7   16.80    3.80
  -2  -8   7   19.10    5.00
  -2  -8   7   12.50    5.60
  -2   8   7   18.70    5.20
  -2   8   7   21.80    5.00
  -2   8   7   20.10    4.80
  -2   8   7   17.00    4.90
  -2   8   7   12.00    4.60
  -1  -8   7   79.29   10.80
  -1  -8   7   90.39   10.80
  -1  -8   7   79.69   10.70
  -1  -8   7   69.99    7.90
   1  -8  -7   75.19    8.50
  -1  -8   7   84.49    9.60
   1  -8  -7   74.59    8.30
  -1   8   7   86.39   11.30
  -1   8   7   84.09    9.70
  -1   8   7   78.59    8.90
  -1   8   7   79.99    9.70
  -1   8   7   85.59   11.10
   0  -8  -7  100.89    9.30
   0  -8   7   81.19   10.60
   0  -8   7   85.19    8.50
   0  -8   7   84.99   11.30
   0  -8  -7   83.39    9.30
   0  -8   7   76.69    9.40
   0  -8   7   89.69   11.50
   0   8   7   84.19    9.70
   0   8   7   86.69   11.10
   0   8   7   81.49    9.60
   0   8   7   81.99    9.00
   0   8   7   84.09   11.40
  -1  -8  -7   21.10    4.20
   1  -8   7   28.70    6.60
   1  -8   7   26.30    6.40
   1  -8   7   24.70    4.10
   1  -8   7   22.30    6.10
   1  -8   7   23.10    5.10
   1   8   7   21.10    6.50
   1   8   7   24.20    5.00
   1   8   7   22.40    6.00
   1   8   7   18.00    5.30
  -2  -8  -7   33.00    4.70
   2  -8   7   25.20    6.60
   2  -8   7   24.40    7.00
   2  -8   7   20.90    3.80
   2  -8   7   31.70    5.60
   2   8   7   33.40    7.30
   2   8   7   28.00    6.20
   2   8   7   45.90    7.10
   2   8   7   29.90    6.90
   3  -8   7   65.29    6.70
   3  -8   7   88.69   12.10
   3  -8   7   62.49    9.80
   3   8   7   88.69   10.70
   3   8   7   87.59   11.20
   3   8   7   70.09   11.00
   3   8   7   71.39    9.40
   4  -8   7   37.40    7.10
   4  -8   7   28.60    4.40
   4   8   7   57.29   11.10
  -5  -9   7  107.49   12.30
   5  -9  -7   83.99   10.80
   5  -9  -7  103.39   12.00
  -5   9   7   76.09    9.90
  -4  -9   7  200.98   17.20
   4  -9  -7  191.18   16.30
   4  -9  -7  208.28   16.60
  -4  -9   7  163.28   19.30
  -4  -9   7  149.29   16.40
   4  -9  -7  182.68   16.60
  -4  -9   7  151.18   16.50
  -4   9   7  144.49   14.30
  -4   9   7  161.38   14.70
  -4   9   7  151.78   16.40
   3  -9  -7   14.50    4.40
  -3  -9   7   10.70    4.10
  -3  -9   7    9.70    3.50
   3  -9  -7   13.80    4.30
  -3  -9   7    7.40    3.70
   3  -9  -7   10.70    5.20
  -3  -9   7   18.50    7.30
  -3   9   7    8.50    4.30
  -3   9   7    9.00    3.50
  -3   9   7   10.90    4.50
  -2  -9   7   37.70    7.30
  -2  -9   7   45.60    7.20
  -2  -9   7   58.29   10.00
   2  -9  -7   35.80    6.10
   2  -9  -7   41.30    6.60
  -2  -9   7   64.69    9.70
  -2  -9   7   39.40    9.20
  -2   9   7   47.20    7.60
  -2   9   7   65.99   10.40
  -2   9   7   46.80    7.10
  -2   9   7   60.39    9.10
  -1  -9   7   32.50    7.30
  -1  -9   7   43.10    7.40
   1  -9  -7   40.60    6.50
   1  -9  -7   44.90    6.50
  -1  -9   7   41.10    9.00
  -1  -9   7   46.20    8.10
  -1  -9   7   46.80    6.50
  -1   9   7   50.99    9.20
  -1   9   7   41.40    7.10
  -1   9   7   40.10    7.70
  -1   9   7   35.70    6.70
  -1   9   7   53.49    8.30
   0  -9   7  198.28   17.80
   0  -9  -7  208.98   16.90
   0  -9   7  208.18   20.30
   0  -9   7  203.18   19.80
   0  -9   7  203.08   16.50
   0  -9   7  197.98   18.90
   0   9   7  166.08   17.10
   0   9   7  208.98   18.90
   0   9   7  214.68   20.20
   0   9   7  238.18   18.60
   0   9   7  201.48   17.70
   1  -9   7  190.28   15.80
  -1  -9  -7  249.38   17.20
   1  -9   7  187.78   17.10
   1  -9   7  193.58   19.90
   1  -9   7  196.38   19.30
   1  -9   7  206.78   19.30
   1   9   7  211.78   19.90
   1   9   7  210.98   21.10
   1   9   7  212.08   19.10
   1   9   7  198.28   18.20
   1   9   7  254.67   20.10
   2  -9   7   30.70    4.60
   2  -9   7   35.40    7.40
   2   9   7   42.10    7.90
   2   9   7   35.30    7.70
   3 -10  -7   13.60    4.40
  -3 -10   7   12.60    5.30
  -3 -10   7   10.10    4.20
  -3  10   7   14.40    4.40
  -3  10   7   11.50    6.40
   2 -10  -7  131.69   12.60
  -2 -10   7  127.09   14.70
  -2 -10   7  121.79   13.70
   2 -10  -7  121.49   12.20
  -2 -10   7  124.19   15.40
  -2  10   7  143.79   15.40
  -2  10   7  128.09   13.20
   1 -10  -7  192.88   16.50
  -1 -10   7  185.28   17.30
  -1 -10   7  190.88   18.80
  -1 -10   7  189.18   18.80
  -1  10   7  189.98   18.00
  -1  10   7  176.18   20.10
  -1  10   7  183.98   16.60
   0 -10  -7   83.79    9.60
   0 -10   7   91.79   10.90
   0 -10   7   92.79   11.80
   0  10   7   86.39   11.20
  -9   0   8   14.30    5.50
  -9   0   8   12.50    4.40
   9   0  -8   17.80    5.20
   9   0  -8   13.90    4.50
  -9   0   8   12.90    4.70
   9   0  -8   11.40    4.40
  -8   0   8   37.10    6.90
   8   0  -8   33.50    6.80
  -8   0   8   31.50    6.50
  -8   0   8   45.50    9.30
  -8   0   8   39.80    7.50
   8   0  -8   39.60    7.30
   8   0  -8   44.40    7.30
  -7   0   8  314.37   25.50
   7   0  -8  295.07   24.50
  -7   0   8  376.76   26.40
   7   0  -8  311.57   24.90
   7   0  -8  320.07   25.50
  -7   0   8  323.67   25.70
   6   0  -8  375.86   27.60
  -6   0   8  358.06   27.90
   6   0  -8  376.06   27.10
  -6   0   8  353.86   29.50
   6   0  -8  355.86   26.50
  -6   0   8  352.76   27.50
  -6   0   8  352.46   27.60
   5   0  -8  489.45   29.60
   5   0  -8  414.86   28.80
  -5   0   8  409.86   28.40
   5   0  -8  402.06   30.40
   5   0  -8  381.66   29.30
  -5   0   8  384.86   29.60
  -5   0   8  393.86   30.50
  -5   0   8  393.36   29.90
  -5   0   8  406.06   28.90
   5   0  -8  380.06   28.30
  -4   0   8  602.44   43.40
   4   0  -8  619.44   43.10
   4   0  -8  738.73   42.30
  -4   0   8  669.43   43.60
  -4   0   8  606.44   42.00
   4   0  -8  626.84   42.40
  -4   0   8  628.74   42.60
  -4   0   8  622.94   43.20
  -4   0   8  615.54   44.40
  -4   0   8  566.84   44.40
   4   0  -8  610.84   43.00
   3   0  -8    1.50    1.50
   3   0  -8    0.40    1.20
  -3   0   8   -1.10    1.40
  -3   0   8    0.10    1.50
  -3   0   8    0.20    2.20
  -3   0   8    3.70    2.60
  -3   0   8    2.70    2.60
   3   0  -8   -0.80    0.80
  -3   0   8    1.30    1.60
  -3   0   8    0.90    1.50
  -3   0   8    2.10    1.30
  -3   0   8   -2.80    1.00
   3   0  -8    0.60    0.80
  -2   0   8 1163.18   78.39
   2   0  -8 1213.48   79.69
  -2   0   8 1240.68   80.79
   2   0  -8 1197.08   77.89
  -2   0   8 1243.78   77.79
  -2   0   8 1192.28   77.99
  -2   0   8 1171.78   80.49
  -2   0   8 1171.98   78.39
   2   0  -8 1185.98   78.29
  -2   0   8 1277.47   78.39
  -1   0   8   12.00    2.10
  -1   0   8   11.50    2.90
  -1   0   8   10.80    1.90
   1   0  -8   12.10    3.00
  -1   0   8    7.70    1.60
   1   0  -8   13.10    1.80
  -1   0   8   10.10    1.90
  -1   0   8   13.40    3.80
  -1   0   8   14.40    2.70
   1   0  -8   11.30    1.70
   0   0   8   11.00    1.70
   0   0   8   11.30    1.70
   0   0   8   12.20    1.30
   0   0   8    9.00    2.20
   0   0   8   12.50    1.40
   0   0   8   11.80    3.50
   0   0   8    8.20    3.00
   0   0   8   10.20    2.60
   1   0   8 1251.57   84.99
   1   0   8 1239.18   84.99
   1   0   8 1292.37   83.19
   1   0   8 1292.17   81.19
   1   0   8 1316.57   81.39
   1   0   8 1256.47   84.19
   1   0   8 1256.67   84.49
   2   0   8  416.96   30.90
   2   0   8  432.26   26.80
   2   0   8  370.06   28.80
   2   0   8  429.86   26.60
   2   0   8  431.56   26.70
   2   0   8  387.66   30.40
   2   0   8  389.26   29.30
   2   0   8  412.96   26.70
   3   0   8  580.04   37.70
   3   0   8  555.74   37.70
   3   0   8  592.44   38.00
   3   0   8  666.63   42.90
   3   0   8  549.45   40.00
   3   0   8  570.54   38.20
   3   0   8  552.34   41.80
   3   0   8  511.85   39.90
   3   0   8  638.14   39.60
   4   0   8  460.25   30.90
   4   0   8  446.46   31.30
   4   0   8  445.46   35.10
   4   0   8  456.05   33.70
   4   0   8  493.35   33.20
   5   0   8   46.40    5.20
   5   0   8   48.60    8.50
   5   0   8   52.59    7.50
   5   0   8   54.79    6.80
   6   0   8   34.70    7.40
   6   0   8   33.60    4.80
   6   0   8   37.60    7.90
  -9  -1   8   51.39   10.40
  -9  -1   8   64.69   10.10
   9  -1  -8   46.90    8.20
   9  -1  -8   67.99    8.80
   9  -1  -8   51.19    8.80
  -9  -1   8   61.69    9.70
  -9   1   8   44.70    8.40
   9   1  -8   67.39    9.10
   9   1  -8   48.70    8.30
   9   1  -8   55.69    8.20
  -9   1   8   65.09   10.10
  -9   1   8   49.80   10.40
  -8  -1   8  111.79   12.60
  -8  -1   8  109.29   12.10
  -8  -1   8   97.89   11.80
   8  -1  -8   99.89   11.40
  -8  -1   8  116.49   14.30
   8  -1  -8  115.99   12.30
   8  -1  -8  144.09   12.30
  -8   1   8  115.89   14.90
   8   1  -8  126.39   13.00
   8   1  -8  108.59   12.60
   8   1  -8  114.19   12.90
  -8   1   8  131.89   13.60
  -8   1   8  131.29   12.70
  -8   1   8  155.18   14.30
  -7  -1   8  170.28   16.30
  -7  -1   8  171.58   18.40
   7  -1  -8  173.38   15.00
  -7  -1   8  174.28   16.40
   7  -1  -8  175.38   15.70
  -7  -1   8  199.98   17.00
   7  -1  -8  183.58   16.20
  -7   1   8  203.08   19.40
  -7   1   8  178.68   15.80
  -7   1   8  159.58   15.40
  -7   1   8  162.08   15.60
   7   1  -8  171.18   15.30
   7   1  -8  169.48   15.60
   7   1  -8  175.68   15.40
  -6  -1   8  435.66   32.10
  -6  -1   8  397.86   33.30
  -6  -1   8  402.66   31.00
   6  -1  -8  410.96   30.20
   6  -1  -8  422.66   30.90
   6  -1  -8  408.76   27.60
  -6  -1   8  412.36   31.00
   6  -1  -8  429.26   27.60
   6  -1  -8  415.96   29.60
  -6   1   8  398.36   32.20
   6   1  -8  400.46   31.70
  -6   1   8  529.25   30.80
   6   1  -8  413.16   31.50
  -6   1   8  423.86   32.10
   6   1  -8  412.46   31.40
  -6   1   8  464.85   33.00
   5  -1  -8   21.80    4.20
  -5  -1   8   29.30    4.90
   5  -1  -8   13.70    3.90
   5  -1  -8   19.80    1.90
   5  -1  -8   15.00    3.10
  -5  -1   8   17.90    4.20
  -5  -1   8   18.10    5.20
   5  -1  -8   22.40    1.90
  -5  -1   8   26.20    5.50
  -5  -1   8   24.00    4.80
  -5  -1   8   21.40    4.30
  -5  -1   8   19.00    3.80
   5  -1  -8   18.80    3.70
  -5   1   8   22.50    4.70
  -5   1   8   22.20    4.80
  -5   1   8   23.40    4.30
  -5   1   8   35.00    6.00
   5   1  -8   23.20    4.40
  -5   1   8   19.30    3.20
   5   1  -8   23.30    3.80
   5   1  -8   20.40    4.40
   5   1  -8   20.20    4.00
  -5   1   8   19.50    5.10
  -5   1   8   22.90    4.80
   4  -1  -8  784.02   49.40
  -4  -1   8  756.82   49.90
  -4  -1   8  737.73   51.89
  -4  -1   8  705.73   52.09
   4  -1  -8  721.73   49.40
  -4  -1   8  719.03   49.99
   4  -1  -8  771.22   47.30
  -4  -1   8  787.32   50.89
   4  -1  -8  672.03   49.80
  -4   1   8  752.12   53.89
   4   1  -8  753.42   52.09
  -4   1   8  768.42   53.09
  -4   1   8  918.71   52.99
  -4   1   8  833.92   51.49
   4   1  -8  787.52   51.79
  -4   1   8  773.32   55.09
   4   1  -8  722.43   52.39
  -4   1   8  757.72   53.29
   3  -1  -8 2342.27  151.88
  -3  -1   8 2496.45  151.08
  -3  -1   8 2306.87  151.08
   3  -1  -8 2387.16  149.29
  -3  -1   8 2301.37  152.88
  -3  -1   8 2466.15  150.68
  -3  -1   8 2387.56  151.08
  -3  -1   8 2261.57  150.98
   3  -1  -8 2328.67  149.88
  -3  -1   8 2353.26  153.18
  -3  -1   8 2212.68  150.78
   3  -1  -8 2245.68  150.68
   3   1  -8 2498.45  153.78
  -3   1   8 2171.48  157.28
  -3   1   8 2401.86  155.48
   3   1  -8 2643.14  155.88
  -3   1   8 2387.36  157.48
  -3   1   8 2272.17  156.78
  -3   1   8 2407.56  155.98
  -3   1   8 2351.16  154.28
   3   1  -8 2693.53  156.08
  -3   1   8 2340.07  157.08
   2  -1  -8  294.17   23.30
  -2  -1   8  352.16   22.10
  -2  -1   8  290.77   24.00
  -2  -1   8  347.67   22.30
  -2  -1   8  360.16   22.20
  -2  -1   8  311.07   22.80
   2  -1  -8  278.57   21.50
   2  -1  -8  317.57   22.00
  -2  -1   8  291.57   21.50
  -2  -1   8  306.57   22.40
   2  -1  -8  310.07   21.70
  -2  -1   8  323.97   21.20
  -2   1   8  282.87   20.70
  -2   1   8  287.57   21.00
  -2   1   8  315.07   21.00
  -2   1   8  300.37   20.80
  -2   1   8  299.87   22.40
  -2   1   8  321.17   19.90
   2   1  -8  296.47   22.50
   2   1  -8  284.57   21.50
  -2   1   8  278.17   22.90
  -2   1   8  296.27   22.60
   2   1  -8  309.87   20.40
   1  -1  -8  224.78   19.80
  -1  -1   8  265.57   17.80
  -1  -1   8  286.97   19.00
  -1  -1   8  251.17   20.30
   1  -1  -8  237.98   18.00
  -1  -1   8  233.78   20.20
  -1  -1   8  270.27   17.90
  -1  -1   8  244.48   19.30
  -1  -1   8  274.87   18.10
   1  -1  -8  301.57   18.40
  -1  -1   8  289.67   17.90
  -1   1   8  234.98   20.30
  -1   1   8  272.27   19.60
   1   1  -8  269.97   17.60
   1   1  -8  253.27   17.80
  -1   1   8  281.27   18.60
  -1   1   8  272.97   18.70
  -1   1   8  278.47   18.00
  -1   1   8  242.98   20.70
  -1   1   8  297.17   18.70
  -1   1   8  261.77   18.70
   0  -1   8  249.38   19.50
   0  -1   8  284.17   17.30
   0  -1   8  257.97   20.00
   0  -1   8  258.47   20.60
   0  -1   8  270.07   20.60
   0  -1   8  257.57   17.40
   0  -1  -8  290.57   18.00
   0  -1  -8  247.78   17.60
   0   1   8  235.78   17.80
   0   1   8  281.87   18.00
   0   1   8  238.28   17.60
   0   1   8  287.17   17.70
   0   1   8  247.78   20.30
   0   1   8  251.77   19.60
   0   1   8  262.07   17.90
   1  -1   8  458.45   33.20
   1  -1   8  436.56   32.70
   1  -1   8  460.85   33.20
  -1  -1  -8  490.95   29.40
   1  -1   8  454.05   31.80
  -1  -1  -8  447.36   29.40
   1   1   8  438.26   33.80
   1   1   8  443.26   31.80
   1   1   8  444.96   33.50
   1   1   8  472.45   30.70
   1   1   8  476.05   30.90
   1   1   8  447.76   32.40
   1   1   8  524.05   31.30
   1   1   8  475.45   30.70
   2  -1   8  644.64   44.40
   2  -1   8  623.24   43.30
   2  -1   8  629.84   44.60
   2  -1   8  635.84   44.80
   2   1   8  661.03   43.60
   2   1   8  599.24   46.70
   2   1   8  609.24   46.50
   2   1   8  721.03   43.70
   2   1   8  690.93   45.30
   2   1   8  661.83   43.60
   2   1   8  737.83   43.50
   2   1   8  607.94   44.50
   3  -1   8  217.08   16.70
   3  -1   8  216.38   14.70
   3  -1   8  211.78   14.50
   3  -1   8  260.37   18.30
   3  -1   8  206.48   14.10
   3  -1   8  218.48   14.00
   3  -1   8  211.78   17.50
   3  -1   8  196.88   18.40
   3   1   8  269.77   21.00
   3   1   8  282.47   21.20
   3   1   8  224.68   16.70
   3   1   8  253.57   18.00
   3   1   8  214.28   16.90
   3   1   8  216.98   17.10
   4  -1   8  183.78   17.00
   4  -1   8  188.88   13.10
   4  -1   8  188.78   16.20
   4  -1   8  208.18   16.60
   4  -1   8  168.48   14.30
   4   1   8  188.58   18.00
   4   1   8  189.08   15.40
   4   1   8  239.58   17.90
   5  -1   8   50.99    5.10
   5  -1   8   58.69    7.70
   5  -1   8   54.79    7.60
   5  -1   8   51.89    8.90
   5   1   8   51.09    9.00
   5   1   8   57.59    5.90
   5   1   8   49.80    8.90
   5   1   8   55.49    8.10
   6  -1   8  168.28   13.30
   6  -1   8  173.08   19.70
   6  -1   8  177.58   16.90
   6   1   8  172.38   19.20
   6   1   8  166.28   16.10
   9  -2  -8  277.57   25.60
  -9  -2   8  263.47   24.00
   9  -2  -8  241.08   23.60
   9  -2  -8  346.67   24.50
  -9   2   8  246.38   21.70
  -9   2   8  241.68   23.40
   9   2  -8  233.48   21.90
  -9   2   8  266.57   24.80
   9   2  -8  249.68   21.70
   9   2  -8  241.28   21.60
  -8  -2   8    4.90    4.80
  -8  -2   8    9.90    4.00
  -8  -2   8    6.60    3.90
   8  -2  -8   11.20    4.50
  -8  -2   8   10.40    4.20
   8  -2  -8    8.80    3.30
   8  -2  -8    8.80    3.60
   8   2  -8    9.90    4.20
  -8   2   8    8.70    4.20
   8   2  -8    7.10    3.90
  -8   2   8    7.80    4.30
   8   2  -8    4.20    3.70
  -8   2   8   13.00    7.00
  -7  -2   8  357.06   27.30
   7  -2  -8  334.07   26.80
   7  -2  -8  324.77   26.20
  -7  -2   8  425.26   28.50
  -7  -2   8  357.26   30.10
  -7  -2   8  334.17   27.80
   7  -2  -8  308.77   25.30
   7   2  -8  351.76   27.10
  -7   2   8  424.56   31.20
   7   2  -8  333.37   27.20
  -7   2   8  358.76   27.80
  -7   2   8  332.57   26.70
  -7   2   8  335.97   27.30
   7   2  -8  340.87   27.00
  -6  -2   8  586.74   42.80
  -6  -2   8  572.84   42.60
  -6  -2   8  585.94   45.50
   6  -2  -8  567.34   42.10
  -6  -2   8  574.84   43.70
   6  -2  -8  696.03   41.30
   6  -2  -8  595.04   42.10
  -6   2   8  714.13   45.10
   6   2  -8  592.24   44.30
  -6   2   8  639.44   42.40
   6   2  -8  608.64   44.00
  -6   2   8  624.04   44.80
  -6   2   8  726.33   47.80
   6   2  -8  640.64   43.30
  -6   2   8  588.64   45.30
   6   2  -8  562.94   43.90
  -5  -2   8  140.69   13.80
   5  -2  -8  169.78   12.00
   5  -2  -8  167.88   13.80
   5  -2  -8  154.38   13.60
   5  -2  -8  168.48   12.40
  -5  -2   8  192.88   16.80
  -5  -2   8  154.98   15.40
  -5  -2   8  167.88   13.80
  -5  -2   8  143.59   13.80
  -5   2   8  179.88   13.50
   5   2  -8  143.79   13.30
  -5   2   8  144.09   13.40
  -5   2   8  167.98   14.10
  -5   2   8  157.28   11.50
  -5   2   8  149.09   13.50
  -5   2   8  154.68   15.00
   5   2  -8  159.38   12.50
  -5   2   8  140.79   14.30
   5   2  -8  149.79   12.90
   5   2  -8  155.18   12.40
  -4  -2   8  145.89   12.60
   4  -2  -8  163.18   11.10
  -4  -2   8  136.19   12.40
   4  -2  -8  151.68   12.10
  -4  -2   8  151.28   14.50
  -4  -2   8  140.29   11.80
  -4  -2   8  144.39   12.80
   4  -2  -8  143.59   11.80
  -4   2   8  153.78   14.00
  -4   2   8  142.19   14.10
   4   2  -8  172.58   12.00
   4   2  -8  145.09   11.60
  -4   2   8  144.19   13.30
  -4   2   8  158.68   13.00
   4   2  -8  152.48   11.40
  -4   2   8  157.38   12.50
  -4   2   8  149.79   13.00
   4   2  -8  136.09   12.40
  -4   2   8  144.39   10.50
  -3  -2   8  380.96   27.90
   3  -2  -8  379.26   27.70
  -3  -2   8  428.76   30.50
  -3  -2   8  399.06   28.30
   3  -2  -8  382.26   26.80
  -3  -2   8  378.06   27.70
  -3  -2   8  388.86   27.50
  -3  -2   8  397.76   27.30
   3  -2  -8  375.56   27.00
  -3  -2   8  396.76   29.70
   3  -2  -8  458.85   27.40
   3   2  -8  440.86   27.70
  -3   2   8  381.86   28.00
  -3   2   8  378.56   27.60
   3   2  -8  397.06   28.00
  -3   2   8  411.46   29.30
  -3   2   8  381.76   29.40
  -2  -2   8  571.14   33.30
  -2  -2   8  504.15   32.40
  -2  -2   8  443.26   33.70
   2  -2  -8  477.95   33.30
  -2  -2   8  498.25   33.40
  -2  -2   8  483.75   33.20
  -2  -2   8  495.65   33.30
   2  -2  -8  491.55   32.10
   2  -2  -8  509.85   32.10
  -2  -2   8  447.06   35.20
  -2  -2   8  472.35   35.10
   2  -2  -8  489.65   33.30
  -2  -2   8  484.15   33.20
  -2   2   8  504.05   34.50
  -2   2   8  540.55   33.80
   2   2  -8  470.55   34.70
  -2   2   8  488.35   33.60
  -2   2   8  549.65   33.50
  -2   2   8  467.15   33.40
  -2   2   8  471.05   35.50
   2   2  -8  461.15   33.00
  -2   2   8  476.65   33.80
  -1  -2   8  719.53   46.30
  -1  -2   8  707.73   49.50
  -1  -2   8  697.03   47.70
  -1  -2   8  675.33   48.70
  -1  -2   8  688.53   47.30
   1  -2  -8  696.43   47.80
  -1  -2   8  716.53   46.70
  -1  -2   8  719.13   46.50
   1  -2  -8  682.73   46.80
  -1  -2   8  817.72   46.60
  -1   2   8  747.83   50.79
   1   2  -8  767.22   49.30
  -1   2   8  804.12   51.59
  -1   2   8  716.33   52.89
  -1   2   8  797.62   50.79
  -1   2   8  730.93   50.69
  -1   2   8  799.22   53.29
  -1   2   8  722.33   50.89
  -1   2   8  769.02   49.10
   1   2  -8  766.22   49.50
  -1   2   8  851.91   52.09
   0  -2   8  609.94   42.20
   0  -2   8  591.24   39.50
   0  -2   8  611.34   42.70
   0  -2   8  570.54   42.90
   0  -2   8  647.54   39.40
   0  -2  -8  718.33   42.90
   0  -2   8  608.04   42.70
   0  -2   8  596.44   42.00
   0  -2  -8  586.64   40.70
   0   2   8  614.24   45.40
   0   2   8  618.54   42.40
   0   2   8  601.24   45.30
   0   2   8  624.14   43.00
   0   2   8  717.73   43.60
   0   2   8  619.64   44.80
   0   2   8  761.02   43.10
   0   2   8  634.34   43.50
   0   2   8  646.54   43.20
   1  -2   8   62.39    7.00
  -1  -2  -8   58.49    5.30
   1  -2   8   57.79    6.70
   1  -2   8   57.29    7.10
   1  -2   8   56.09    6.60
   1  -2   8   76.79    6.90
   1  -2   8   58.99    7.40
   1  -2   8   56.19    6.70
  -1  -2  -8   61.59    5.00
   1   2   8   58.69    5.70
   1   2   8   61.09    5.80
   1   2   8   55.19    7.30
   1   2   8   62.39    6.10
   1   2   8   66.59    7.70
   1   2   8   56.79    5.80
   1   2   8   63.59    5.50
   1   2   8   61.89    6.00
   2  -2   8  655.93   47.30
   2  -2   8  806.22   48.30
   2  -2   8  678.43   48.60
   2  -2   8  675.53   47.60
   2  -2   8  689.03   48.80
   2  -2   8  670.23   47.90
   2   2   8  660.13   49.60
   2   2   8  639.74   46.50
   2   2   8  700.03   46.40
   2   2   8  795.72   47.80
   2   2   8  783.32   46.90
   2   2   8  681.83   49.50
   2   2   8  671.13   46.20
   2   2   8  679.23   46.60
   3  -2   8   10.70    3.20
   3  -2   8   14.60    1.70
   3  -2   8   17.70    4.50
   3  -2   8   11.70    3.40
   3  -2   8   12.90    3.50
   3  -2   8   18.30    4.70
   3   2   8    9.20    2.50
   3   2   8   11.20    2.20
   3   2   8    8.90    2.40
   3   2   8   10.80    3.80
   3   2   8   16.30    3.30
   3   2   8   10.90    3.40
   3   2   8   12.30    2.70
   3   2   8    9.80    4.20
   3   2   8   12.40    2.90
   4  -2   8  198.48   16.40
   4  -2   8  201.58   18.10
   4  -2   8  204.98   18.60
   4  -2   8  212.38   14.40
   4  -2   8  242.38   18.50
   4   2   8  189.98   18.90
   4   2   8  189.78   19.00
   4   2   8  261.07   18.80
   4   2   8  222.78   17.00
   5  -2   8   92.19    7.90
   5  -2   8  124.89   13.30
   5  -2   8  108.09   11.50
   5  -2   8  106.19   11.50
   5   2   8   94.09   11.40
   5   2   8   78.99    8.20
   5   2   8   89.79   11.30
   5   2   8   90.29   10.40
   6  -2   8   38.10    7.60
   6  -2   8   46.50    4.90
   6  -2   8   34.60    6.90
   6   2   8   47.10    6.00
   6   2   8   37.50    7.20
   9  -3  -8    7.40    3.60
  -9  -3   8    6.00    5.60
  -9  -3   8    8.70    4.40
   9   3  -8    4.40    3.10
   9   3  -8   17.90    5.50
  -9   3   8   10.10    5.90
  -9   3   8    9.20    3.80
   9   3  -8    5.10    4.00
  -8  -3   8  242.78   21.00
   8  -3  -8  238.88   20.40
   8  -3  -8  228.08   21.50
  -8  -3   8  225.78   20.90
   8  -3  -8  245.68   20.20
  -8  -3   8  234.08   18.90
  -8  -3   8  218.58   22.10
  -8  -3   8  239.08   21.80
   8  -3  -8  234.48   19.70
  -8   3   8  282.47   21.30
   8   3  -8  220.38   20.00
  -8   3   8  217.68   22.40
   8   3  -8  217.88   20.20
   8   3  -8  228.38   20.20
   7  -3  -8  453.95   29.60
  -7  -3   8  454.85   31.60
   7  -3  -8  402.06   27.50
  -7  -3   8  327.27   27.40
  -7  -3   8  305.97   30.10
  -7  -3   8  340.77   28.80
   7  -3  -8  327.77   27.80
   7  -3  -8  357.86   30.00
  -7  -3   8  433.16   30.40
  -7   3   8  294.67   27.20
  -7   3   8  339.17   26.10
  -7   3   8  366.96   26.90
   7   3  -8  327.17   25.40
   7   3  -8  303.07   25.40
   7   3  -8  316.07   25.80
   6  -3  -8   42.60    5.30
  -6  -3   8   56.29    7.70
  -6  -3   8   63.99    9.00
  -6  -3   8   60.49    7.80
  -6  -3   8   36.70    8.00
   6  -3  -8   42.30    6.80
   6  -3  -8   41.90    7.60
  -6  -3   8   45.50    6.30
   6  -3  -8   38.50    6.50
   6   3  -8   37.20    6.50
  -6   3   8   32.50    7.30
   6   3  -8   37.20    5.90
  -6   3   8   47.80    6.40
  -6   3   8   38.60    6.80
  -6   3   8   34.20    6.80
  -6   3   8   40.20    6.70
   5  -3  -8  183.38   15.10
   5  -3  -8  174.58   13.80
  -5  -3   8  189.38   16.10
  -5  -3   8  211.08   16.20
  -5  -3   8  179.48   17.30
  -5  -3   8  166.98   15.10
  -5  -3   8  174.18   14.80
  -5  -3   8  174.38   17.00
   5  -3  -8  175.18   13.10
   5   3  -8  239.68   16.70
  -5   3   8  171.78   15.70
  -5   3   8  157.78   16.40
  -5   3   8  226.28   16.50
  -5   3   8  184.68   16.20
   5   3  -8  176.88   14.40
   5   3  -8  178.28   14.90
  -4  -3   8   13.80    4.20
   4  -3  -8   10.30    3.20
   4  -3  -8   20.60    3.80
  -4  -3   8   15.00    4.00
   4  -3  -8   14.30    3.10
  -4  -3   8   22.10    4.10
  -4  -3   8   13.60    3.40
   4  -3  -8   12.00    2.60
  -4  -3   8   10.30    3.80
   4   3  -8   15.20    3.50
   4   3  -8   11.90    2.20
   4   3  -8   10.40    2.10
  -4   3   8   12.10    4.00
   4   3  -8   13.30    2.60
  -4   3   8   12.90    3.50
  -4   3   8   19.70    4.90
  -4   3   8   14.10    3.60
  -4   3   8    9.30    3.30
  -3  -3   8   28.80    5.00
  -3  -3   8   21.30    4.50
  -3  -3   8   17.60    3.60
   3  -3  -8   17.60    3.30
  -3  -3   8   15.60    3.30
   3  -3  -8   23.90    3.50
  -3  -3   8   15.90    4.40
   3  -3  -8   18.10    3.50
  -3  -3   8   20.10    2.20
  -3  -3   8   16.60    4.00
  -3  -3   8   19.70    3.50
  -3  -3   8   15.90    2.40
  -3  -3   8   15.00    4.70
   3  -3  -8   17.00    3.20
  -3   3   8   16.10    3.80
  -3   3   8   22.90    5.10
  -3   3   8   15.60    4.10
  -3   3   8   17.30    3.60
   3   3  -8   15.70    3.30
  -3   3   8   17.60    3.50
  -3   3   8   15.20    3.70
   2  -3  -8  859.61   61.79
  -2  -3   8  851.71   64.69
  -2  -3   8 1043.50   61.89
  -2  -3   8 1012.00   62.69
  -2  -3   8  913.61   62.09
  -2  -3   8  892.81   64.19
  -2  -3   8 1072.19   62.89
  -2  -3   8 1080.19   62.89
  -2  -3   8  891.81   62.29
   2  -3  -8  845.32   62.69
   2  -3  -8  976.90   61.89
  -2   3   8  887.51   60.39
  -2   3   8 1067.69   62.79
  -2   3   8  859.61   60.09
  -2   3   8  900.41   61.79
  -2   3   8  823.02   59.59
  -2   3   8  957.60   59.99
   2   3  -8  841.12   60.29
   1  -3  -8  722.63   48.80
  -1  -3   8  749.82   50.69
   1  -3  -8  697.93   47.60
  -1  -3   8  806.12   49.60
  -1  -3   8  685.93   49.40
  -1  -3   8  696.53   47.20
  -1  -3   8  719.73   47.40
  -1  -3   8  753.92   47.30
  -1  -3   8  689.73   47.10
  -1  -3   8  682.43   47.60
  -1   3   8  732.33   49.70
  -1   3   8  719.53   49.30
  -1   3   8  718.33   51.39
  -1   3   8  719.93   51.49
  -1   3   8  725.33   49.40
   1   3  -8  816.82   47.80
  -1   3   8  730.63   50.39
   0  -3   8  346.87   22.70
   0  -3   8  328.37   24.50
   0  -3  -8  312.67   25.00
   0  -3   8  314.87   25.80
   0  -3  -8  349.87   23.60
   0  -3   8  364.96   22.70
   0  -3   8  326.87   25.60
   0  -3   8  317.97   24.80
   0  -3   8  366.26   22.50
   0  -3   8  366.16   22.50
   0   3   8  323.17   23.30
   0   3   8  311.47   23.80
   0   3   8  338.67   24.00
   0   3   8  336.47   26.00
   0   3   8  343.17   25.90
   0   3   8  345.97   23.20
   0   3   8  341.17   25.30
   0   3   8  336.87   22.50
   0   3   8  342.17   23.70
   1  -3   8  336.47   24.50
   1  -3   8  334.27   25.00
   1  -3   8  352.56   25.10
   1  -3   8  316.27   24.10
   1  -3   8  311.37   25.70
   1   3   8  422.76   27.70
   1   3   8  343.97   24.60
   1   3   8  316.17   24.50
   1   3   8  316.57   24.00
   1   3   8  325.87   27.00
   1   3   8  393.36   25.00
   1   3   8  354.06   23.20
   1   3   8  310.27   24.00
   1   3   8  351.96   23.10
   2  -3   8   40.30    5.70
   2  -3   8   25.30    4.70
   2  -3   8   35.40    5.20
   2  -3   8   31.40    6.10
  -2  -3  -8   29.80    3.50
   2  -3   8   33.90    5.70
   2   3   8   33.80    4.50
   2   3   8   24.30    5.50
   2   3   8   31.10    4.40
   2   3   8   37.80    4.90
   2   3   8   24.20    4.00
   2   3   8   35.10    4.80
   2   3   8   27.90    5.80
   3  -3   8   38.50    5.80
   3  -3   8   22.60    5.40
   3  -3   8   27.70    5.50
   3  -3   8   28.70    4.90
   3   3   8   42.10    6.20
   3   3   8   38.30    5.30
   3   3   8   35.60    4.90
   3   3   8   23.20    6.00
   3   3   8   24.30    6.20
   4  -3   8   79.39    9.40
   4  -3   8   90.89    8.60
   4  -3   8   85.89    9.00
   4  -3   8   90.09    6.60
   4  -3   8   96.19   11.00
   4   3   8   87.49    8.60
   4   3   8   89.79   11.00
   4   3   8   92.09    9.10
   4   3   8   88.99   10.80
   4   3   8   96.49   10.20
   5  -3   8  127.09   13.60
   5  -3   8  131.89   13.60
   5  -3   8  124.39   14.10
   5  -3   8  145.89   10.20
   5   3   8  159.28   14.70
   5   3   8  130.69   15.20
   5   3   8  146.59   13.30
   5   3   8  131.59   14.90
   6  -3   8  128.89   13.80
   8  -4  -8   27.90    6.30
   8  -4  -8   28.50    6.00
  -8  -4   8   41.00    9.60
   8  -4  -8   28.80    7.10
  -8  -4   8   35.40    7.30
  -8  -4   8   28.90    6.70
  -8  -4   8   32.90    8.20
  -8   4   8   39.10    7.60
  -8   4   8   26.30    6.10
   8   4  -8   23.20    5.80
  -8   4   8   31.50    9.00
   8   4  -8   34.40    6.80
  -7  -4   8  125.59   14.90
  -7  -4   8  154.38   13.20
   7  -4  -8  125.09   13.00
  -7  -4   8  146.09   14.30
   7  -4  -8  126.29   13.00
  -7  -4   8  139.69   14.30
  -7  -4   8  138.29   15.20
   7   4  -8  136.09   13.20
  -7   4   8  132.49   13.70
  -7   4   8  138.39   13.70
   7   4  -8  136.99   13.80
  -7   4   8  120.29   14.90
  -7   4   8  143.09   12.60
   6  -4  -8  660.23   43.80
  -6  -4   8  601.94   44.40
  -6  -4   8  576.14   41.50
  -6  -4   8  543.05   43.30
   6  -4  -8  583.94   41.10
  -6  -4   8  573.74   42.10
  -6  -4   8  532.75   41.90
   6   4  -8  710.23   45.20
  -6   4   8  577.04   43.20
   6   4  -8  569.64   43.20
  -6   4   8  719.43   45.00
  -6   4   8  571.34   45.60
  -6   4   8  604.54   44.30
   5  -4  -8  240.38   22.10
  -5  -4   8  253.17   21.10
  -5  -4   8  343.87   25.00
  -5  -4   8  337.97   23.30
  -5  -4   8  259.97   21.90
   5  -4  -8  254.77   21.10
   5  -4  -8  301.87   21.10
  -5  -4   8  292.17   24.60
   5  -4  -8  243.08   21.20
  -5   4   8  257.07   20.40
   5   4  -8  260.27   19.40
  -5   4   8  249.18   20.50
  -5   4   8  314.97   22.50
   5   4  -8  236.28   18.60
   5   4  -8  248.38   20.30
  -5   4   8  222.18   21.00
  -5   4   8  255.87   20.20
  -4  -4   8   91.79    6.80
  -4  -4   8   82.19    8.90
  -4  -4   8   90.69   10.60
   4  -4  -8   89.39    8.40
  -4  -4   8   78.39    8.90
  -4  -4   8   80.39    9.40
   4  -4  -8   90.89    8.70
   4  -4  -8   82.09    9.30
  -4  -4   8   70.39    9.50
  -4  -4   8   82.49    8.40
   4  -4  -8   84.49    8.40
  -4   4   8   84.99    8.30
   4   4  -8   90.69    7.50
  -4   4   8   74.89    8.60
  -4   4   8   73.19    9.60
  -4   4   8   89.49    9.20
   4   4  -8   89.19    8.80
   3  -4  -8  187.18   15.50
  -3  -4   8  211.88   14.70
  -3  -4   8  198.98   16.10
  -3  -4   8  205.68   17.60
   3  -4  -8  202.38   16.00
  -3  -4   8  204.58   17.40
   3  -4  -8  199.48   15.50
  -3  -4   8  209.38   18.40
  -3  -4   8  194.38   15.70
  -3  -4   8  212.28   16.30
   3  -4  -8  203.58   16.00
   3   4  -8  216.08   16.30
  -3   4   8  200.58   16.60
  -3   4   8  203.58   16.20
  -3   4   8  212.98   16.40
  -3   4   8  206.38   17.00
  -3   4   8  203.98   17.60
   2  -4  -8   14.40    3.00
  -2  -4   8   14.50    4.30
  -2  -4   8   24.20    3.70
   2  -4  -8   18.80    3.40
  -2  -4   8   14.30    3.30
  -2  -4   8   17.70    3.60
  -2  -4   8   13.80    3.60
  -2  -4   8   17.10    3.30
  -2  -4   8   15.80    3.30
  -2  -4   8   17.00    1.80
  -2  -4   8   17.40    4.40
   2  -4  -8   14.90    3.30
   2  -4  -8   18.60    3.90
  -2   4   8   22.50    4.10
  -2   4   8   18.10    3.70
  -2   4   8   31.40    6.00
  -2   4   8   17.30    3.90
  -2   4   8   25.50    4.30
  -2   4   8   17.60    4.60
   2   4  -8   21.50    4.10
  -2   4   8   18.60    4.30
  -1  -4   8  151.08   14.30
   1  -4  -8  141.29   13.00
  -1  -4   8  135.69   13.30
  -1  -4   8  169.88   11.90
   1  -4  -8  144.59   11.30
  -1  -4   8  153.18   11.80
  -1  -4   8  172.08   11.80
  -1  -4   8  150.68   11.80
  -1  -4   8  157.88   11.30
  -1  -4   8  135.69   12.70
   1  -4  -8  156.08   12.10
  -1   4   8  155.58   12.60
  -1   4   8  147.09   11.60
   1   4  -8  149.39   10.60
  -1   4   8  144.29   13.90
  -1   4   8  136.89   12.80
  -1   4   8  140.89   12.10
  -1   4   8  136.89   11.60
   1   4  -8  145.29   10.90
   0  -4   8  683.73   43.90
   0  -4   8  669.83   43.60
   0  -4   8  670.93   45.50
   0  -4   8  629.64   46.50
   0  -4  -8  620.24   44.30
   0  -4   8  676.53   43.80
   0  -4   8  705.33   44.80
   0  -4   8  661.43   43.60
   0   4   8  631.34   43.90
   0   4   8  669.83   46.70
   0   4   8  626.64   45.70
   0   4   8  647.84   46.10
   0   4   8  669.13   42.70
   0   4   8  660.63   44.70
  -1  -4  -8  153.78   12.10
   1  -4   8  145.39   10.80
   1  -4   8  157.68   14.10
   1  -4   8  156.98   10.90
   1  -4   8  153.28   10.60
  -1  -4  -8  156.88   11.50
   1  -4   8  146.69   14.80
   1  -4   8  163.18   11.20
   1  -4   8  166.68   13.10
   1   4   8  158.28   13.80
   1   4   8  157.88   13.10
   1   4   8  158.98   15.20
   1   4   8  145.09   13.40
   1   4   8  212.98   16.60
   1   4   8  174.08   12.70
   2  -4   8   71.79    5.30
   2  -4   8   66.79    6.00
   2  -4   8   77.79    8.60
   2  -4   8  100.69   10.70
  -2  -4  -8   74.09    7.50
   2  -4   8   79.39    7.70
   2  -4   8   68.79    5.80
   2  -4   8   82.79    8.30
   2  -4   8   64.79    8.00
   2  -4   8   63.19    5.10
  -2  -4  -8   76.19    6.90
   2   4   8   80.59    7.50
   2   4   8   71.09    7.30
   2   4   8   56.29    8.50
   2   4   8   83.89   10.20
   2   4   8   52.19    7.20
   3  -4   8  101.99    9.20
   3  -4   8   73.99    9.80
   3  -4   8   83.99    8.60
   3  -4   8   87.19    6.30
   3  -4   8   79.79    6.20
   3  -4   8   79.39    9.20
   3  -4   8   90.69    9.70
   3   4   8   78.39    8.50
   3   4   8   82.09    8.20
   3   4   8   80.09   10.40
   3   4   8   77.59    8.70
   3   4   8   84.19   10.20
   4  -4   8   69.19    9.10
   4  -4   8   78.09    6.10
   4  -4   8   73.69   10.20
   4  -4   8   96.09    9.40
   4   4   8   78.49    9.30
   4   4   8   88.59   11.50
   4   4   8   79.89    9.00
   4   4   8   70.09   10.10
   4   4   8   80.39    8.30
   5  -4   8   87.69    7.30
   5  -4   8   83.09   10.90
   5  -4   8   83.99   10.90
   5  -4   8  112.99   11.70
   5   4   8   82.99   10.40
   5   4   8   83.59    9.90
   5   4   8  102.89    9.60
   5   4   8   88.89   12.10
   5   4   8   74.19   11.50
   8  -5  -8    2.20    4.00
   8  -5  -8    7.40    4.40
   8  -5  -8    3.80    2.90
  -8  -5   8    2.90    7.90
  -8  -5   8    3.70    3.70
  -8  -5   8    4.40    4.30
   8   5  -8    8.90    4.10
  -8   5   8    8.70    4.90
  -8   5   8    5.70    3.30
  -8   5   8    8.30    6.70
  -7  -5   8   67.69    9.20
  -7  -5   8   56.39   10.90
   7  -5  -8   57.19    9.10
  -7  -5   8   88.59   10.60
   7  -5  -8   59.89    9.00
  -7  -5   8   69.09   10.60
  -7  -5   8   53.19    8.30
   7  -5  -8   63.39    8.10
   7   5  -8   78.19    9.20
  -7   5   8   61.69    8.50
  -7   5   8   67.69    9.60
  -7   5   8   60.59   10.60
   7   5  -8   72.39    9.60
  -6  -5   8  148.09   14.60
   6  -5  -8  138.29   14.60
  -6  -5   8  127.09   14.80
  -6  -5   8  150.48   13.80
  -6  -5   8  172.08   15.30
   6  -5  -8  135.99   13.20
  -6  -5   8  147.89   16.10
   6  -5  -8  166.48   14.30
  -6   5   8  145.29   13.70
  -6   5   8  143.79   15.20
  -6   5   8  133.79   13.60
  -6   5   8  138.19   14.40
   6   5  -8  133.29   12.60
   6   5  -8  132.59   13.60
   5  -5  -8    2.80    2.60
  -5  -5   8    1.80    2.70
  -5  -5   8    4.60    3.40
   5  -5  -8    3.40    2.70
   5  -5  -8    3.30    3.30
  -5  -5   8    3.50    3.10
  -5  -5   8    2.80    2.80
  -5  -5   8    8.80    3.80
  -5   5   8    3.30    2.70
   5   5  -8    2.20    2.90
  -5   5   8    4.30    3.20
   5   5  -8    3.20    2.30
  -5   5   8    3.60    2.80
  -5   5   8    4.40    3.10
   4  -5  -8  657.13   47.70
  -4  -5   8  681.93   48.30
  -4  -5   8  712.43   47.30
  -4  -5   8  677.93   47.50
  -4  -5   8  686.73   49.80
   4  -5  -8  688.23   46.80
  -4  -5   8  665.43   47.70
  -4   5   8  657.53   46.20
   4   5  -8  675.43   46.00
  -4   5   8  646.54   47.60
   4   5  -8  652.63   43.70
  -4   5   8  637.64   46.80
  -4   5   8  678.13   46.00
   3  -5  -8  291.87   19.20
  -3  -5   8  231.18   18.90
  -3  -5   8  261.37   20.80
  -3  -5   8  303.77   22.80
  -3  -5   8  261.27   18.40
   3  -5  -8  222.48   19.20
  -3  -5   8  220.58   20.10
  -3  -5   8  213.28   18.90
   3  -5  -8  231.08   18.90
  -3  -5   8  257.37   19.70
  -3   5   8  238.48   19.20
  -3   5   8  262.57   19.80
  -3   5   8  234.18   20.90
  -3   5   8  248.38   20.60
   3   5  -8  239.48   19.00
  -3   5   8  267.77   20.10
   2  -5  -8   34.10    4.90
   2  -5  -8   35.70    4.70
  -2  -5   8   31.90    5.70
  -2  -5   8   30.20    6.10
  -2  -5   8   28.00    4.70
  -2  -5   8   33.00    4.90
   2  -5  -8   34.00    4.50
  -2  -5   8   28.30    6.10
  -2  -5   8   31.60    4.80
  -2  -5   8   31.30    4.30
  -2   5   8   27.10    4.70
  -2   5   8   45.80    7.20
  -2   5   8   24.20    5.80
  -2   5   8   38.60    5.80
   2   5  -8   26.80    4.70
  -2   5   8   33.90    5.00
  -2   5   8   31.60    5.50
  -2   5   8   33.50    5.70
   1  -5  -8  160.98   12.00
  -1  -5   8  131.19   13.50
  -1  -5   8  129.99   11.40
   1  -5  -8  131.49   10.70
  -1  -5   8  145.29    9.90
  -1  -5   8  151.98    9.90
  -1  -5   8  153.88   12.70
  -1  -5   8  137.89   11.50
  -1  -5   8  139.89   12.10
  -1  -5   8  126.09   11.00
   1  -5  -8  126.69   11.00
  -1  -5   8  130.19   11.00
  -1  -5   8  143.39   13.70
  -1   5   8  114.39   11.70
  -1   5   8  131.59   13.80
  -1   5   8  142.89   12.40
  -1   5   8  136.49   13.30
  -1   5   8  131.89   11.00
  -1   5   8  156.58   13.60
   1   5  -8  151.38   10.60
  -1   5   8  133.29   11.70
   0  -5   8  407.46   26.90
   0  -5  -8  351.56   25.90
   0  -5  -8  379.36   27.10
   0  -5  -8  388.36   25.20
   0  -5  -8  364.76   25.70
   0  -5   8  375.96   26.60
   0  -5   8  371.06   30.20
   0  -5   8  375.16   27.30
   0  -5   8  417.26   26.90
   0  -5   8  345.07   29.00
   0  -5   8  377.46   26.40
   0  -5   8  436.56   29.70
   0  -5   8  413.46   26.40
   0   5   8  364.16   26.50
   0   5  -8  368.86   24.30
   0   5   8  346.87   26.80
   0   5   8  388.36   24.50
   0   5   8  378.56   29.10
   0   5   8  374.26   28.60
   0   5   8  356.96   28.40
   1  -5   8   17.00    2.60
  -1  -5  -8   16.20    4.00
   1  -5   8   20.60    3.60
   1  -5   8   17.00    4.60
   1  -5   8   15.60    4.50
   1  -5   8   14.90    2.80
   1  -5   8   17.90    2.90
   1  -5   8   13.70    2.20
   1  -5   8   15.50    4.50
  -1  -5  -8   15.80    3.20
   1   5   8   14.30    2.80
   1   5   8   18.10    4.20
   1   5   8   13.00    4.40
   1   5   8   13.70    3.50
   1   5   8   13.80    4.70
   1   5   8   14.10    4.90
   2  -5   8  205.88   13.80
   2  -5   8  170.38   17.70
   2  -5   8  210.18   14.80
   2  -5   8  199.38   16.90
   2  -5   8  186.18   15.20
   2  -5   8  215.48   17.80
   2  -5   8  201.18   14.70
   2   5   8  214.28   16.30
   2   5   8  208.48   18.90
   2   5   8  202.08   16.40
   2   5   8  201.28   17.00
   2   5   8  198.28   18.40
   3  -5   8  210.38   18.00
   3  -5   8  190.18   17.70
   3  -5   8  201.58   19.60
   3  -5   8  220.18   14.90
   3  -5   8  224.18   18.50
   3  -5   8  242.48   17.80
   3   5   8  232.48   17.90
   3   5   8  200.88   19.30
   3   5   8  195.28   16.40
   3   5   8  187.58   16.40
   4  -5   8  404.76   28.60
   4  -5   8  358.06   28.80
   4  -5   8  354.06   30.10
   4  -5   8  373.86   25.10
   4   5   8  326.67   29.00
   4   5   8  350.76   25.90
   4   5   8  350.26   27.10
   4   5   8  357.56   28.80
   4   5   8  357.36   27.10
   5  -5   8  134.49   14.30
   5   5   8  194.28   16.30
   5   5   8  156.78   14.50
   5   5   8  146.39   15.30
  -8   6   8   35.40    7.70
   8   6  -8   39.80    7.30
   7  -6  -8   52.09    8.10
  -7  -6   8   59.09    9.20
  -7  -6   8   51.59    8.70
  -7  -6   8   46.60   11.10
  -7  -6   8   51.19    9.00
   7  -6  -8   49.99    8.80
  -7  -6   8   44.10    7.40
   7  -6  -8   51.99    7.40
  -7   6   8   37.20    8.10
   7   6  -8   51.49    7.50
  -7   6   8   52.39    8.40
  -7   6   8   51.19    8.50
   6  -6  -8   41.30    7.60
  -6  -6   8   64.39    9.40
   6  -6  -8   48.10    6.80
  -6  -6   8   54.19   10.40
  -6  -6   8   45.80    7.60
  -6  -6   8   50.59    8.30
  -6  -6   8   43.70    7.40
   6  -6  -8   41.30    7.20
  -6   6   8   43.00    8.80
  -6   6   8   36.90    7.20
   6   6  -8   39.50    5.80
  -6   6   8   48.60    7.50
  -6   6   8   53.29    8.90
  -6   6   8   54.49    6.70
  -5  -6   8  121.99   13.00
  -5  -6   8  134.99   15.50
  -5  -6   8  133.19   13.80
  -5  -6   8  144.99   13.90
   5  -6  -8  133.69   13.50
   5  -6  -8  139.79   13.00
   5  -6  -8  142.79   12.80
  -5  -6   8  174.18   15.60
  -5   6   8  155.08   14.30
  -5   6   8  127.39   13.10
  -5   6   8  131.99   13.00
  -5   6   8  152.98   15.40
   5   6  -8  138.69   14.90
  -4  -6   8  260.67   20.80
  -4  -6   8  242.28   21.10
  -4  -6   8  256.77   21.70
  -4  -6   8  245.88   20.90
   4  -6  -8  253.57   20.20
  -4  -6   8  272.17   23.40
   4  -6  -8  259.87   21.00
  -4   6   8  303.87   24.10
   4   6  -8  269.97   21.30
  -4   6   8  263.87   21.30
  -4   6   8  261.67   21.70
   4   6  -8  268.57   19.20
  -4   6   8  259.87   22.20
   3  -6  -8  461.25   34.50
  -3  -6   8  495.65   35.00
  -3  -6   8  493.05   36.60
  -3  -6   8  517.05   38.60
  -3  -6   8  501.15   35.60
  -3  -6   8  508.35   36.60
   3  -6  -8  497.25   35.60
   3  -6  -8  511.15   35.40
  -3   6   8  485.75   34.20
   3   6  -8  484.15   33.90
  -3   6   8  471.65   36.20
  -3   6   8  457.65   34.50
  -3   6   8  480.75   35.20
  -2  -6   8  227.98   18.50
  -2  -6   8  164.08   15.10
  -2  -6   8  164.98   14.40
  -2  -6   8  162.08   14.80
   2  -6  -8  218.18   15.30
  -2  -6   8  158.08   14.30
   2  -6  -8  194.68   14.40
  -2  -6   8  147.59   15.40
  -2   6   8  173.28   16.70
  -2   6   8  176.58   15.80
  -2   6   8  164.98   15.20
  -2   6   8  218.68   15.40
   2   6  -8  194.38   14.60
  -2   6   8  169.88   16.30
  -2   6   8  170.28   15.10
  -2   6   8  179.98   16.40
  -1  -6   8  222.28   19.60
  -1  -6   8  239.68   18.40
   1  -6  -8  243.18   18.20
  -1  -6   8  219.18   17.90
   1  -6  -8  250.77   17.60
  -1  -6   8  253.87   21.00
   1  -6  -8  219.38   17.70
  -1   6   8  252.47   19.70
  -1   6   8  225.88   18.60
  -1   6   8  226.88   18.40
  -1   6   8  225.58   19.60
  -1   6   8  229.98   19.90
  -1   6   8  254.07   20.80
   0  -6   8    6.50    2.40
   0  -6   8    9.80    4.30
   0  -6   8   10.20    4.80
   0  -6   8    5.70    1.90
   0  -6   8   10.00    3.70
   0  -6   8    6.50    2.10
   0  -6  -8    6.30    2.80
   0  -6   8    6.10    2.40
   0  -6  -8    7.80    2.10
   0   6   8    8.70    3.50
   0   6   8    5.30    3.00
   0   6   8    6.90    4.10
   0   6   8    4.00    2.70
   0   6   8    9.60    3.10
   1  -6   8  349.17   28.70
   1  -6   8  344.37   24.90
   1  -6   8  347.07   23.60
   1   6   8  370.06   28.90
   1   6   8  374.06   26.50
   1   6   8  345.17   26.90
   1   6   8  333.77   28.20
   2  -6   8    0.50    2.20
   2  -6   8    4.20    2.60
   2  -6   8    2.90    2.50
   2  -6   8    2.30    1.40
   2   6   8    1.70    1.80
   2   6   8    3.20    2.20
   2   6   8    2.30    2.30
   2   6   8    4.00    3.10
   2   6   8    6.40    3.50
   3  -6   8  161.38   17.00
   3  -6   8  182.08   16.10
   3  -6   8  160.38   15.00
   3   6   8  210.68   15.60
   3   6   8  171.78   17.70
   3   6   8  163.08   15.60
   3   6   8  155.58   14.80
   3   6   8  164.48   16.60
   4  -6   8   78.99   11.30
   4  -6   8   96.89   10.50
   4  -6   8   77.99    9.70
   4  -6   8   69.49    6.50
   4   6   8   64.49    8.80
   4   6   8   74.19   10.80
   4   6   8   73.19   10.50
   4   6   8   70.79    9.50
   4   6   8   77.19    8.80
   7  -7  -8   31.20    7.30
   7  -7  -8   40.20    7.20
  -7  -7   8   34.30    6.90
  -7   7   8   28.40    6.10
   7   7  -8   30.00    6.00
   6  -7  -8   20.80    5.40
  -6  -7   8   12.20    6.10
  -6  -7   8   15.70    5.60
   6  -7  -8   17.30    4.80
  -6  -7   8   15.50    5.20
  -6  -7   8   18.20    4.80
   6  -7  -8   13.90    4.50
  -6   7   8   25.20    6.90
  -6   7   8   10.20    4.20
  -6   7   8    9.60    3.60
  -6   7   8   14.20    4.80
   6   7  -8   17.50    4.30
  -5  -7   8   21.30    5.90
   5  -7  -8   26.90    5.80
  -5  -7   8   24.70    7.00
  -5  -7   8   28.30    6.60
   5  -7  -8   32.70    5.90
  -5  -7   8   27.40    6.20
   5  -7  -8   32.10    5.80
  -5  -7   8   29.00    6.20
  -5   7   8   22.70    5.30
   5   7  -8   29.60    4.80
  -5   7   8   25.80    5.90
  -5   7   8   24.10    6.20
  -5   7   8   31.80    6.20
   4  -7  -8   39.10    6.50
  -4  -7   8   44.40    7.40
   4  -7  -8   29.70    5.50
  -4  -7   8   37.30    7.00
  -4  -7   8   35.80    8.00
   4  -7  -8   42.90    6.90
  -4  -7   8   36.80    7.00
  -4  -7   8   56.49    7.60
  -4   7   8   35.60    6.80
  -4   7   8   35.30    7.40
  -4   7   8   42.20    7.00
  -4   7   8   40.20    7.10
  -3  -7   8  145.79   13.50
  -3  -7   8  142.59   15.70
  -3  -7   8  178.08   14.10
  -3  -7   8  139.59   14.60
   3  -7  -8  133.59   12.70
   3  -7  -8  133.39   12.50
  -3  -7   8  147.19   14.10
   3  -7  -8  144.69   13.10
  -3   7   8  177.58   15.30
  -3   7   8  152.18   16.10
  -3   7   8  145.19   14.40
  -3   7   8  148.39   13.80
  -2  -7   8   76.49    8.20
   2  -7  -8   91.19    8.50
  -2  -7   8   64.99    8.10
   2  -7  -8   76.89    8.70
  -2  -7   8   74.89   10.90
   2  -7  -8   73.19    7.80
  -2  -7   8   80.29    9.80
  -2  -7   8   83.69    9.10
  -2   7   8   76.79    9.70
  -2   7   8   96.99    9.80
  -2   7   8   72.09    9.90
  -2   7   8   77.49    9.40
  -2   7   8  106.29   11.80
   1  -7  -8  279.97   21.80
  -1  -7   8  284.97   23.90
  -1  -7   8  275.47   22.10
  -1  -7   8  300.67   25.20
  -1  -7   8  295.97   21.50
  -1  -7   8  286.27   24.60
  -1   7   8  314.37   23.50
  -1   7   8  287.27   25.10
  -1   7   8  312.77   24.80
  -1   7   8  311.37   24.30
  -1   7   8  312.17   25.40
   0  -7   8  310.07   26.60
   0  -7   8  325.97   26.90
   0  -7  -8  315.17   23.40
   0  -7   8  398.56   25.50
   0  -7  -8  314.27   24.30
   0  -7   8  337.57   23.70
   0  -7   8  304.47   27.10
   0   7   8  336.57   26.40
   0   7   8  322.07   25.50
   0   7   8  310.47   24.70
   0   7   8  303.07   26.00
   0   7   8  300.27   23.80
  -1  -7  -8   92.29    8.50
   1  -7   8   97.79   11.30
   1  -7   8  107.49   10.00
   1  -7   8   93.79   11.20
   1  -7   8  111.69   13.30
   1  -7   8  112.09    8.70
   1   7   8  106.49   11.60
   1   7   8  112.39   11.00
   1   7   8  104.89   12.20
   1   7   8  109.99   12.80
   1   7   8  104.99   12.00
   2  -7   8   34.90    7.50
   2  -7   8   33.10    7.30
   2  -7   8   38.30    6.60
   2  -7   8   35.90    4.30
   2   7   8   37.80    7.80
   2   7   8   42.60    7.30
   2   7   8   55.19    9.10
   2   7   8   35.60    5.90
   3  -7   8   39.80    7.20
   3  -7   8   38.50    6.80
   3  -7   8   42.60    4.50
   3   7   8   42.00    8.20
   3   7   8   35.80    6.40
   3   7   8   57.69    8.80
   3   7   8   31.70    7.70
   4  -7   8   15.80    4.70
   4  -7   8   19.50    3.10
   4   7   8   17.20    5.40
   6  -8  -8   42.00    7.50
   6  -8  -8   46.40    8.60
  -6  -8   8   28.30    6.30
  -6   8   8   38.10    7.20
  -5  -8   8   14.90    5.30
  -5  -8   8   26.00    8.40
   5  -8  -8   12.30    4.10
   5  -8  -8   18.70    5.20
   5  -8  -8    8.40    4.10
  -5  -8   8   17.40    5.50
  -5  -8   8   16.50    5.10
  -5   8   8   16.30    5.90
  -5   8   8   13.10    4.90
  -5   8   8   17.00    5.30
  -5   8   8   18.60    4.80
  -4  -8   8   19.70    5.40
   4  -8  -8   20.70    4.80
  -4  -8   8   16.00    6.80
  -4  -8   8   21.90    5.70
   4  -8  -8   20.70    4.80
  -4  -8   8   20.90    5.30
   4  -8  -8   15.70    4.20
  -4   8   8   36.10    6.70
  -4   8   8   21.70    5.50
  -4   8   8   14.90    5.30
  -4   8   8   18.60    5.20
   3  -8  -8    8.10    3.30
   3  -8  -8   10.20    3.50
  -3  -8   8    9.60    4.20
   3  -8  -8    9.00    3.40
  -3  -8   8   10.40    4.20
  -3  -8   8    9.30    3.80
  -3  -8   8   15.40    6.40
  -3   8   8    7.50    3.80
  -3   8   8   14.70    5.40
  -3   8   8   14.60    4.50
  -3   8   8   10.20    4.20
  -2  -8   8    9.70    4.40
  -2  -8   8    8.50    4.30
   2  -8  -8    9.40    3.30
   2  -8  -8    8.60    3.30
  -2  -8   8   10.00    3.90
  -2  -8   8    9.90    3.10
  -2   8   8    6.20    3.70
  -2   8   8    9.30    3.80
  -2   8   8   11.60    4.20
  -2   8   8   15.10    4.70
  -2   8   8    5.00    3.40
  -1  -8   8  399.26   35.30
  -1  -8   8  437.56   35.90
  -1  -8   8  447.36   33.60
   1  -8  -8  521.35   33.40
  -1  -8   8  507.65   32.90
   1  -8  -8  420.66   32.10
  -1  -8   8  442.16   35.20
  -1   8   8  546.15   36.70
  -1   8   8  462.65   34.50
  -1   8   8  438.46   34.10
  -1   8   8  412.66   33.00
  -1   8   8  441.76   35.40
   0  -8  -8   18.30    3.90
   0  -8   8   26.30    6.70
   0  -8   8   19.50    4.60
   0  -8   8   23.40    4.20
   0  -8   8   15.80    5.80
   0  -8   8   18.50    5.30
   0   8   8   18.00    5.80
   0   8   8   12.60    4.40
   0   8   8   14.20    3.90
   0   8   8   14.00    5.60
   0   8   8   16.70    5.00
   1  -8   8  136.29   13.50
   1  -8   8  107.49   14.70
   1  -8   8   92.79   11.80
   1  -8   8   94.79   12.30
   1  -8   8   88.89    8.40
   1   8   8  107.29   12.60
   1   8   8  116.69   12.40
   1   8   8  101.09   10.70
   1   8   8   92.79   12.00
   1   8   8   90.39   10.80
   2  -8   8  200.78   15.30
   2  -8   8  204.58   20.10
   2   8   8  207.78   19.00
   2   8   8  217.88   18.00
   2   8   8  211.18   19.90
   2   8   8  220.98   20.90
   3  -8   8   11.50    2.70
   3  -8   8   11.70    4.50
   3   8   8    6.90    5.40
   3   8   8   13.50    4.40
   5  -9  -8   26.90    6.50
   5  -9  -8   28.10    5.90
  -5  -9   8   23.80    6.10
  -5   9   8   40.50    7.70
  -4  -9   8  169.38   16.70
   4  -9  -8  172.48   15.30
   4  -9  -8  160.08   15.40
  -4  -9   8  167.98   16.50
  -4   9   8  215.68   19.10
  -3  -9   8   35.70    9.10
   3  -9  -8   34.70    5.90
  -3  -9   8   43.40    8.00
  -3  -9   8   37.00    6.90
  -3  -9   8   33.80    7.00
   3  -9  -8   33.60    6.40
  -3   9   8   37.10    7.80
  -3   9   8   37.70    7.40
  -3   9   8   47.50    7.60
  -2  -9   8   90.29   12.70
  -2  -9   8  114.89   13.00
  -2  -9   8  123.49   11.10
   2  -9  -8   96.89   15.60
   2  -9  -8  102.19   10.30
  -2  -9   8   76.49   13.80
  -2  -9   8   84.39   11.00
  -2   9   8  103.69   11.40
  -2   9   8   94.79   12.50
  -2   9   8   90.99   11.50
  -2   9   8  113.39   11.60
  -1  -9   8   21.90    6.00
  -1  -9   8   25.30    5.80
  -1  -9   8   18.30    4.30
  -1  -9   8   26.50    6.60
   1  -9  -8   26.50    5.00
  -1  -9   8   22.90    7.30
  -1   9   8   17.00    5.50
  -1   9   8   24.70    5.60
  -1   9   8   23.40    5.80
  -1   9   8   31.30    7.50
  -1   9   8   41.70    6.90
   0  -9   8   26.10    7.10
   0  -9   8   32.50    6.40
   0  -9  -8   26.70    4.80
   0  -9   8   25.30    7.40
   0  -9   8   24.30    7.10
   0  -9   8   25.10    4.70
   0   9   8   26.50    5.70
   0   9   8   27.80    5.90
   0   9   8   29.60    7.20
   0   9   8   36.10    6.40
   0   9   8   28.60    6.90
   1  -9   8  161.18   13.10
   1   9   8  144.79   14.70
   1   9   8  144.29   17.30
   1   9   8  130.39   14.10
   9   0  -9   -1.90    2.50
  -9   0   9    0.30    3.20
   9   0  -9   -0.20    2.30
   9   0  -9    1.60    3.20
  -8   0   9  184.18   16.80
  -8   0   9  157.88   15.70
  -8   0   9  146.19   18.50
  -8   0   9  154.38   15.90
   8   0  -9  184.78   15.50
   8   0  -9  148.89   14.80
   8   0  -9  170.48   15.80
   7   0  -9   74.59    8.50
  -7   0   9   72.59   11.00
  -7   0   9   77.29    9.70
   7   0  -9   78.49    9.40
  -7   0   9   75.79    9.20
  -7   0   9   78.19    9.60
   7   0  -9   72.19    8.40
  -6   0   9    2.20    2.70
   6   0  -9    1.50    2.50
  -6   0   9    3.00    2.30
  -6   0   9    2.50    2.40
  -6   0   9    4.20    3.20
   6   0  -9    2.50    2.10
   6   0  -9    5.10    3.10
  -6   0   9    3.00    2.50
   5   0  -9  610.94   43.40
  -5   0   9  529.15   44.80
   5   0  -9  655.93   42.70
   5   0  -9  687.13   42.30
  -5   0   9  649.83   43.90
  -5   0   9  743.33   42.50
  -5   0   9  566.64   44.40
  -5   0   9  537.85   43.30
  -5   0   9  598.04   42.70
  -4   0   9  487.85   31.00
   4   0  -9  433.56   31.00
   4   0  -9  391.16   30.90
  -4   0   9  424.86   31.60
  -4   0   9  449.86   30.10
  -4   0   9  431.96   32.80
   4   0  -9  434.66   29.80
  -4   0   9  491.35   34.10
  -4   0   9  418.46   31.10
  -3   0   9  489.35   33.30
  -3   0   9  455.95   30.50
   3   0  -9  411.76   30.60
  -3   0   9  496.05   31.10
  -3   0   9  420.96   32.90
  -3   0   9  414.06   30.80
  -3   0   9  451.15   30.30
  -3   0   9  433.06   31.90
  -3   0   9  436.46   31.00
  -2   0   9   27.50    3.40
  -2   0   9   25.20    5.10
  -2   0   9   26.80    3.70
  -2   0   9   29.10    3.30
  -2   0   9   22.50    3.40
  -2   0   9   31.70    3.70
   2   0  -9   23.50    3.20
  -2   0   9   28.60    3.40
   2   0  -9   37.60    5.10
  -2   0   9   23.00    4.40
  -2   0   9   27.80    5.40
   1   0  -9    2.70    0.90
  -1   0   9    4.80    1.30
  -1   0   9    3.50    1.10
  -1   0   9    4.40    1.30
  -1   0   9    3.60    1.80
   1   0  -9    3.60    1.00
  -1   0   9    2.30    1.20
  -1   0   9    4.90    2.60
  -1   0   9    1.20    2.00
   0   0   9  126.89   11.50
   0   0   9  108.29    8.10
   0   0   9  114.99    8.10
   0   0   9  107.49    9.10
   0   0   9  115.39    8.00
   0   0   9  116.49   10.40
   0   0   9  105.89   11.00
   0   0   9  111.69    8.10
   1   0   9  129.49    8.70
   1   0   9  127.09    8.60
   1   0   9  125.79    8.80
   1   0   9  116.39   12.20
   1   0   9  147.59   12.20
   1   0   9  128.99   12.10
   1   0   9  141.69   11.00
   1   0   9  120.39    8.70
   1   0   9  172.18   13.60
   2   0   9  202.68   13.30
   2   0   9  182.48   15.80
   2   0   9  196.58   13.30
   2   0   9  206.08   17.30
   2   0   9  192.28   12.80
   2   0   9  228.48   18.20
   2   0   9  202.28   12.80
   2   0   9  184.28   15.60
   3   0   9   61.99    8.30
   3   0   9   60.89    8.80
   3   0   9   72.79    7.20
   3   0   9   58.69    7.20
   3   0   9   54.19    7.10
   3   0   9   62.59    4.70
   3   0   9   66.69    4.70
   4   0   9   12.90    4.30
   4   0   9   14.80    3.90
   4   0   9   29.70    6.50
   4   0   9   11.50    4.00
   4   0   9   15.30    2.20
   5   0   9    1.10    3.60
   5   0   9    7.90    3.80
   5   0   9    5.80    3.60
   6   0   9   93.69   11.90
  -9  -1   9   72.29    9.70
   9  -1  -9   65.19    9.40
  -9  -1   9   61.79   10.40
   9  -1  -9   94.29   10.70
  -9   1   9   84.79   10.80
   9   1  -9   86.29   10.60
   9   1  -9  102.89   11.30
   9   1  -9   71.39    9.70
  -8  -1   9   52.69    9.10
   8  -1  -9   57.19    9.00
  -8  -1   9   70.69    9.60
   8  -1  -9   62.99    8.60
  -8  -1   9   65.29    8.90
  -8  -1   9   80.99   12.30
  -8   1   9   72.59   12.90
  -8   1   9   60.59    8.80
   8   1  -9   55.59    8.20
   8   1  -9   64.99    8.50
  -8   1   9   54.29    8.10
   8   1  -9   67.49    8.50
  -8   1   9   50.59    8.60
  -7  -1   9   68.79   11.90
   7  -1  -9   78.89    9.10
  -7  -1   9   78.19    9.50
  -7  -1   9   72.99    9.90
   7  -1  -9   72.59    8.30
  -7  -1   9   83.79   10.60
   7  -1  -9  108.09   10.70
  -7   1   9   94.69   10.40
   7   1  -9   73.59    9.20
   7   1  -9   88.89    9.50
  -7   1   9   74.09   11.20
  -7   1   9   85.69   10.40
   7   1  -9   78.69    9.00
  -7   1   9   90.69   10.10
  -6  -1   9  513.55   40.00
  -6  -1   9  472.25   37.30
  -6  -1   9  512.95   38.70
   6  -1  -9  499.85   35.70
   6  -1  -9  508.25   37.20
  -6  -1   9  526.75   37.70
   6  -1  -9  591.84   37.20
  -6   1   9  541.55   39.60
  -6   1   9  527.55   41.10
  -6   1   9  520.85   39.30
   6   1  -9  524.95   38.60
  -6   1   9  513.95   38.70
  -6   1   9  536.15   39.40
   6   1  -9  537.65   38.00
  -6   1   9  598.34   36.90
  -5  -1   9   53.59    6.70
   5  -1  -9   54.69    6.20
  -5  -1   9   61.69    6.60
  -5  -1   9   52.39    7.20
   5  -1  -9   62.29    6.60
   5  -1  -9   67.19    7.40
  -5  -1   9   52.29    6.60
  -5  -1   9   53.69    7.10
  -5  -1   9   53.79    8.20
  -5  -1   9   49.99    8.30
   5   1  -9   55.49    6.40
  -5   1   9   53.69    5.20
  -5   1   9   54.29    8.40
  -5   1   9   48.70    7.10
  -5   1   9   57.29    7.20
   5   1  -9   56.69    6.20
   5   1  -9   60.39    6.00
  -5   1   9   56.79    7.70
  -5   1   9   58.09    6.60
   5   1  -9   47.70    6.30
  -4  -1   9   33.10    6.60
  -4  -1   9   26.60    4.80
   4  -1  -9   22.50    4.20
  -4  -1   9   32.30    5.30
  -4  -1   9   29.50    4.80
  -4  -1   9   28.00    4.30
   4  -1  -9   25.70    4.10
  -4  -1   9   30.00    6.00
  -4  -1   9   41.00    4.90
   4   1  -9   17.50    3.70
  -4   1   9   21.10    4.90
  -4   1   9   21.10    5.20
  -4   1   9   23.80    3.90
  -4   1   9   24.20    2.90
  -4   1   9   21.20    4.50
  -4   1   9   20.80    4.00
   4   1  -9   30.30    4.60
  -4   1   9   22.30    4.40
  -3  -1   9   79.19    7.70
  -3  -1   9   82.59    8.00
  -3  -1   9   95.19    8.50
   3  -1  -9   86.89    6.20
   3  -1  -9   86.59    6.20
  -3  -1   9   82.99    9.50
  -3  -1   9   81.59    7.80
  -3  -1   9   87.39    8.00
  -3  -1   9   78.99    9.40
  -3  -1   9   79.39    7.40
   3  -1  -9   83.79    7.80
   3   1  -9   87.59    8.20
  -3   1   9   80.49    9.10
  -3   1   9   82.69    7.90
  -3   1   9   77.09    9.20
  -3   1   9   87.59    8.10
  -3   1   9   71.59    7.40
   3   1  -9   81.59    7.50
  -3   1   9   88.49    6.30
  -3   1   9   76.49    9.00
  -2  -1   9  412.46   26.00
  -2  -1   9  384.56   26.50
  -2  -1   9  348.37   26.40
  -2  -1   9  432.36   29.80
   2  -1  -9  349.77   26.30
  -2  -1   9  419.66   26.70
  -2  -1   9  388.06   27.60
  -2  -1   9  395.26   27.20
  -2  -1   9  375.56   26.20
  -2  -1   9  367.06   28.80
  -2   1   9  408.26   26.40
  -2   1   9  412.16   26.60
  -2   1   9  451.45   27.80
  -2   1   9  376.66   29.10
   2   1  -9  439.56   27.10
  -2   1   9  340.37   29.50
  -2   1   9  375.86   27.60
  -2   1   9  396.36   27.60
  -2   1   9  410.66   29.80
   2   1  -9  364.36   28.50
  -2   1   9  431.56   28.10
  -2   1   9  375.26   27.70
   2   1  -9  444.86   27.50
  -1  -1   9  541.55   34.60
   1  -1  -9  513.35   34.90
  -1  -1   9  476.75   37.50
  -1  -1   9  511.35   35.70
   1  -1  -9  577.74   34.90
  -1  -1   9  496.05   37.60
  -1  -1   9  562.44   34.70
  -1  -1   9  568.04   37.10
  -1  -1   9  514.45   34.50
  -1  -1   9  496.65   34.70
  -1   1   9  536.65   40.40
  -1   1   9  601.34   37.70
  -1   1   9  525.95   37.40
  -1   1   9  533.65   39.90
   1   1  -9  521.45   36.10
   1   1  -9  573.84   36.20
  -1   1   9  560.84   37.50
  -1   1   9  616.24   37.70
  -1   1   9  605.24   37.00
   0  -1   9  107.59   10.10
   0  -1   9  116.49   11.30
   0  -1   9  110.89    7.60
   0  -1   9  122.19    9.50
   0  -1   9  105.99   10.40
   0  -1   9  112.89    7.60
   0  -1  -9  111.59    7.90
   0  -1   9  104.79   10.70
   0  -1  -9  114.39    7.80
   0   1   9  127.19    9.10
   0   1   9  106.99    8.70
   0   1   9  112.69    9.00
   0   1   9  102.29    8.90
   0   1   9  130.59    8.90
   0   1   9  103.79   11.10
   0   1   9  143.19   11.30
   0   1   9  114.59   11.50
   1  -1   9  227.98   17.10
   1  -1   9  229.38   18.50
   1  -1   9  226.28   18.00
   1  -1   9  210.28   18.10
   1  -1   9  225.48   18.30
   1  -1   9  216.38   18.20
   1   1   9  210.08   19.10
   1   1   9  226.98   16.10
   1   1   9  258.27   16.50
   1   1   9  245.48   16.10
   1   1   9  232.48   17.20
   1   1   9  232.38   17.90
   1   1   9  219.48   19.20
   1   1   9  228.28   19.00
   1   1   9  239.68   16.40
   2  -1   9  233.98   21.20
   2  -1   9  270.57   20.40
   2  -1   9  257.97   20.20
   2  -1   9  247.58   21.00
   2  -1   9  329.97   22.30
   2   1   9  268.17   17.80
   2   1   9  288.97   18.10
   2   1   9  240.48   21.40
   2   1   9  230.18   18.90
   2   1   9  252.57   19.40
   2   1   9  247.58   21.10
   2   1   9  260.67   18.00
   2   1   9  250.87   17.30
   3  -1   9  191.18   14.70
   3  -1   9  153.08   14.40
   3  -1   9  168.98   15.90
   3  -1   9  187.58   15.50
   3  -1   9  180.88   16.50
   3   1   9  176.08   16.30
   3   1   9  171.58   12.90
   3   1   9  166.48   16.10
   3   1   9  173.88   12.10
   3   1   9  153.58   14.10
   3   1   9  165.18   13.50
   4  -1   9   23.80    1.90
   4  -1   9   33.90    6.80
   4  -1   9   25.70    5.10
   4  -1   9   22.60    4.90
   4  -1   9   23.10    4.90
   4  -1   9   27.30    6.00
   4   1   9   25.00    3.40
   4   1   9   28.00    6.70
   4   1   9   26.90    5.60
   4   1   9   34.50    7.30
   5  -1   9  168.38   16.30
   5  -1   9  125.39   13.80
   5  -1   9  141.79   18.10
   5   1   9  142.99   13.60
   5   1   9  132.79   14.50
   5   1   9  118.39   13.90
   9  -2  -9  340.17   26.20
  -9  -2   9  264.17   25.20
   9   2  -9  272.97   22.70
  -9   2   9  245.38   22.30
   9   2  -9  258.07   23.00
  -8  -2   9    1.20    3.20
  -8  -2   9   -1.60    2.80
   8  -2  -9    5.30    3.60
  -8  -2   9    0.70    2.50
   8  -2  -9    3.90    3.00
  -8  -2   9    0.50    3.20
  -8   2   9    0.60    2.70
  -8   2   9    0.10    2.70
  -8   2   9    2.00    5.80
   8   2  -9    4.20    3.20
   8   2  -9   -0.60    1.90
   8   2  -9    0.20    2.10
  -8   2   9    1.40    2.70
   7  -2  -9  101.09   10.80
  -7  -2   9  117.19   11.50
   7  -2  -9   82.09    9.90
  -7  -2   9   94.89   12.80
  -7  -2   9   90.89   11.10
   7  -2  -9   78.99    8.80
  -7  -2   9  101.89   12.00
  -7   2   9   83.99   10.30
  -7   2   9   84.49   10.00
   7   2  -9   78.39    9.70
  -7   2   9  120.59   11.90
  -7   2   9   82.79   11.50
   7   2  -9  107.69   11.20
   6  -2  -9  206.88   16.80
  -6  -2   9  184.98   18.60
   6  -2  -9  187.78   17.00
  -6  -2   9  265.17   21.40
  -6  -2   9  212.28   18.10
  -6  -2   9  209.58   17.70
   6  -2  -9  182.58   15.40
  -6   2   9  231.08   17.50
  -6   2   9  247.28   18.40
  -6   2   9  177.78   18.20
   6   2  -9  160.98   16.30
   6   2  -9  178.18   15.70
  -6   2   9  181.88   16.80
  -5  -2   9   66.29    8.10
  -5  -2   9   65.99    9.20
   5  -2  -9   57.49    7.40
  -5  -2   9   63.79    9.10
  -5  -2   9   62.19    7.20
   5  -2  -9   73.39    7.50
  -5  -2   9   64.89    7.70
   5  -2  -9   68.39    5.50
   5   2  -9   69.79    7.80
  -5   2   9   59.09    7.30
   5   2  -9   52.69    6.20
  -5   2   9   66.19    5.40
  -5   2   9   56.79    7.60
  -5   2   9   76.59    9.50
   5   2  -9   73.79    6.90
  -5   2   9   86.99    8.00
   5   2  -9   54.39    6.00
  -5   2   9   59.39    7.60
  -5   2   9   59.49    8.30
   4  -2  -9  989.70   66.29
  -4  -2   9  950.60   67.49
  -4  -2   9  989.30   66.49
   4  -2  -9 1095.29   65.39
  -4  -2   9 1019.80   67.39
  -4  -2   9  966.90   67.39
   4  -2  -9 1025.30   67.29
  -4  -2   9 1019.50   69.69
  -4  -2   9 1035.80   66.89
  -4  -2   9  962.60   69.39
  -4   2   9  970.50   65.09
  -4   2   9  917.61   64.99
  -4   2   9  917.41   63.89
  -4   2   9  952.90   63.09
  -4   2   9  925.11   63.69
   4   2  -9  971.50   63.69
  -4   2   9  915.11   65.79
   4   2  -9  971.60   61.59
  -4   2   9 1033.90   60.89
   4   2  -9  903.31   62.49
   3  -2  -9 1460.15   92.29
  -3  -2   9 1422.96   92.89
  -3  -2   9 1439.06   93.59
  -3  -2   9 1409.46   95.89
  -3  -2   9 1392.86   95.59
  -3  -2   9 1382.66   92.69
  -3  -2   9 1349.27   92.99
  -3  -2   9 1549.05   94.09
  -3   2   9 1359.16   98.39
  -3   2   9 1456.05   98.79
   3   2  -9 1680.23   98.39
  -3   2   9 1475.85  100.39
  -3   2   9 1423.36  100.69
  -3   2   9 1653.73   98.59
  -2  -2   9  278.87   18.80
  -2  -2   9  259.47   18.70
   2  -2  -9  268.57   18.90
  -2  -2   9  237.28   19.10
  -2  -2   9  245.28   21.10
  -2  -2   9  267.07   18.10
   2  -2  -9  257.57   18.90
  -2  -2   9  237.48   18.20
  -2  -2   9  306.07   19.10
  -2   2   9  250.87   18.50
  -2   2   9  247.98   19.60
  -2   2   9  244.48   18.60
  -2   2   9  256.27   18.80
  -2   2   9  243.98   20.50
  -2   2   9  261.97   21.10
  -2   2   9  254.37   19.00
   2   2  -9  284.97   18.10
  -1  -2   9  239.08   21.10
  -1  -2   9  271.17   18.40
  -1  -2   9  249.88   18.10
   1  -2  -9  320.77   20.40
  -1  -2   9  271.47   18.00
  -1  -2   9  230.88   19.50
  -1  -2   9  284.47   19.50
  -1  -2   9  320.27   21.70
  -1  -2   9  239.48   18.20
  -1   2   9  246.08   17.70
  -1   2   9  245.08   20.10
  -1   2   9  248.18   17.90
  -1   2   9  246.68   17.70
  -1   2   9  249.88   16.10
  -1   2   9  233.68   18.70
  -1   2   9  287.77   18.30
  -1   2   9  224.68   18.30
  -1   2   9  224.88   19.80
   0  -2   9   37.40    5.00
   0  -2   9   24.70    4.40
   0  -2  -9   26.20    4.60
   0  -2  -9   34.30    3.20
   0  -2   9   31.10    2.10
   0  -2   9   29.00    5.20
   0  -2   9   28.10    2.00
   0  -2   9   28.50    5.50
   0  -2   9   27.20    5.20
   0   2   9   25.20    3.50
   0   2   9   32.50    3.60
   0   2   9   25.60    5.30
   0   2   9   30.60    3.70
   0   2   9   24.20    4.70
   0   2   9   26.90    3.10
   0   2   9   25.70    5.40
   0   2   9   27.10    3.90
   0   2   9   25.60    3.60
   1  -2   9  145.99   13.60
   1  -2   9  143.49   13.50
   1  -2   9  141.49   13.10
   1  -2   9  139.59   14.10
   1  -2   9  179.68   14.20
   1  -2   9  142.49   12.60
  -1  -2  -9  163.38   10.90
   1  -2   9  181.18   14.50
   1   2   9  138.99   11.90
   1   2   9  167.78   12.00
   1   2   9  168.78   15.00
   1   2   9  171.98   12.20
   1   2   9  149.99   11.80
   1   2   9  148.19   14.40
   1   2   9  162.68   11.50
   1   2   9  140.79   12.00
   1   2   9  142.19   13.80
   2  -2   9  288.67   22.70
   2  -2   9  294.27   23.40
   2  -2   9  278.97   23.10
   2  -2   9  295.27   22.60
   2  -2   9  302.07   23.90
   2  -2   9  336.47   23.20
   2   2   9  335.77   22.10
   2   2   9  326.17   22.30
   2   2   9  299.77   23.10
   2   2   9  363.86   22.90
   2   2   9  278.77   24.80
   2   2   9  345.37   22.90
   2   2   9  283.87   22.20
   2   2   9  305.57   25.60
   3  -2   9   19.90    4.20
   3  -2   9   28.90    5.70
   3  -2   9   20.20    4.30
   3  -2   9   22.30    4.60
   3  -2   9   17.70    5.10
   3   2   9   15.40    4.90
   3   2   9   21.10    4.50
   3   2   9   26.40    3.40
   3   2   9   22.60    5.60
   3   2   9   24.40    4.10
   4  -2   9  244.38   19.30
   4  -2   9  247.78   17.80
   4  -2   9  187.28   17.80
   4  -2   9  198.68   16.90
   4  -2   9  200.38   19.30
   4   2   9  204.28   19.10
   4   2   9  173.98   16.60
   4   2   9  218.48   19.50
   4   2   9  203.08   14.90
   5  -2   9  296.37   24.00
   5  -2   9  299.57   25.00
   5  -2   9  280.67   23.50
   5   2   9  287.97   20.90
   5   2   9  286.57   23.40
   5   2   9  278.17   25.30
   5   2   9  294.67   25.60
  -9  -3   9    5.50    6.40
   9  -3  -9    7.10    4.20
  -9   3   9   12.20    4.50
   9   3  -9    5.50    3.10
   9   3  -9    9.20    3.70
  -8  -3   9   59.89    7.50
  -8  -3   9   62.29    9.50
  -8  -3   9   76.49    9.90
   8  -3  -9   61.69    8.50
  -8  -3   9   74.09    9.90
   8  -3  -9   53.89    7.70
  -8  -3   9   52.99   10.70
  -8   3   9   74.09    9.90
  -8   3   9   64.69    9.30
   8   3  -9   64.69    8.90
   8   3  -9   75.69    9.30
  -8   3   9   49.50   11.70
  -7  -3   9   62.19    9.30
  -7  -3   9   79.39    8.70
  -7  -3   9   54.89    9.20
  -7  -3   9   77.99   11.70
   7  -3  -9   59.79    8.20
   7  -3  -9   56.89    7.90
  -7  -3   9   52.09    8.70
  -7   3   9   72.99    9.50
   7   3  -9   55.89    7.80
  -7   3   9   63.29    8.40
  -7   3   9   48.00    9.50
  -7   3   9   71.79    8.10
   7   3  -9   58.79    7.70
   6  -3  -9  132.29   12.80
  -6  -3   9  135.69   14.60
  -6  -3   9  181.98   14.10
   6  -3  -9  136.69   13.20
  -6  -3   9  139.09   13.90
  -6  -3   9  150.08   13.90
   6  -3  -9  127.99   11.10
  -6   3   9  124.59   12.60
  -6   3   9  163.78   14.20
   6   3  -9  122.69   13.00
  -6   3   9  141.39   14.60
  -6   3   9  144.59   14.80
  -6   3   9  145.69   13.40
   6   3  -9  138.39   12.50
  -5  -3   9   55.39    7.20
   5  -3  -9   81.69    8.90
  -5  -3   9   52.59    8.40
   5  -3  -9   66.69    7.90
   5  -3  -9   70.09    7.50
  -5  -3   9   51.79    7.20
  -5  -3   9   66.49    8.00
  -5  -3   9   55.99    8.60
  -5   3   9   45.80    8.20
   5   3  -9   55.39    6.80
  -5   3   9   55.99    7.80
  -5   3   9   50.39    6.90
  -5   3   9   52.19    7.30
  -5   3   9   52.59    6.80
  -4  -3   9  366.56   28.20
  -4  -3   9  381.96   25.60
   4  -3  -9  340.57   24.40
  -4  -3   9  318.37   27.60
   4  -3  -9  347.77   25.60
  -4  -3   9  337.77   26.00
  -4  -3   9  346.47   25.80
   4   3  -9  396.56   24.50
  -4   3   9  330.97   27.50
   4   3  -9  363.16   26.00
  -4   3   9  358.56   25.80
   4   3  -9  341.07   23.40
  -4   3   9  351.06   26.40
  -4   3   9  340.97   26.00
   4   3  -9  355.66   23.50
  -4   3   9  339.67   27.50
  -3  -3   9  663.33   41.50
  -3  -3   9  627.84   46.50
  -3  -3   9  551.34   44.40
  -3  -3   9  579.34   43.10
   3  -3  -9  633.04   42.80
  -3  -3   9  657.33   43.90
  -3  -3   9  639.84   41.50
   3  -3  -9  716.63   43.10
  -3  -3   9  710.43   44.20
   3  -3  -9  665.83   43.80
  -3  -3   9  607.74   45.50
   3  -3  -9  583.44   43.00
  -3  -3   9  692.83   42.70
  -3   3   9  598.04   45.20
  -3   3   9  622.74   43.50
  -3   3   9  569.44   43.30
   3   3  -9  702.83   43.30
  -3   3   9  634.84   45.40
  -3   3   9  693.13   43.40
  -3   3   9  619.84   42.80
  -2  -3   9  271.87   23.00
  -2  -3   9  276.37   19.70
  -2  -3   9  275.07   20.10
  -2  -3   9  280.07   19.80
   2  -3  -9  317.57   20.50
   2  -3  -9  280.77   18.70
  -2  -3   9  277.17   19.70
  -2  -3   9  278.37   20.20
   2  -3  -9  261.57   20.50
  -2  -3   9  285.17   20.20
  -2  -3   9  271.17   22.10
  -2  -3   9  285.17   22.30
  -2   3   9  267.87   21.00
  -2   3   9  297.17   20.80
  -2   3   9  255.37   22.40
   2   3  -9  297.37   19.90
  -2   3   9  282.87   20.80
  -2   3   9  319.17   21.40
  -2   3   9  275.57   22.70
  -2   3   9  260.97   20.80
  -1  -3   9  352.16   26.50
  -1  -3   9  424.16   29.90
  -1  -3   9  400.96   25.90
  -1  -3   9  345.97   28.00
   1  -3  -9  377.26   27.50
  -1  -3   9  355.76   28.00
  -1  -3   9  377.96   25.60
  -1  -3   9  356.76   25.70
   1  -3  -9  450.75   26.70
  -1  -3   9  381.16   25.90
  -1   3   9  366.36   28.00
  -1   3   9  417.86   27.50
  -1   3   9  454.15   27.50
  -1   3   9  365.46   29.10
   1   3  -9  359.06   24.60
   1   3  -9  404.56   24.70
  -1   3   9  361.06   26.60
  -1   3   9  342.07   26.80
   0  -3   9   81.39    6.00
   0  -3   9   84.49    6.00
   0  -3   9   84.09    6.10
   0  -3   9   83.29    8.60
   0  -3   9   93.69    9.50
   0  -3   9   84.99    5.90
   0  -3   9   82.99    8.10
   0  -3   9   70.79    9.00
   0   3   9   84.19    6.40
   0   3   9   86.19    7.80
   0   3   9   82.29    9.90
   0   3   9   79.09    8.70
   0   3   9   72.29    7.10
   0   3   9   79.69    7.20
   0   3   9   80.59    7.80
  -1  -3  -9   88.19    7.20
   1  -3   9   79.89    8.70
   1  -3   9   98.19    9.90
   1  -3   9   87.39   10.10
   1  -3   9   84.49    9.40
   1  -3   9   86.39    9.10
   1   3   9   80.69    9.80
   1   3   9   81.69    6.60
   1   3   9   76.69    7.20
   1   3   9   79.09    9.40
   1   3   9   82.69    7.40
   1   3   9   83.79    6.80
   1   3   9   94.49    8.10
   1   3   9   84.29    8.10
   2  -3   9   69.79    8.70
   2  -3   9   58.59    7.90
   2  -3   9   69.89    7.70
   2  -3   9   61.69    7.70
   2  -3   9   66.09    7.50
   2  -3   9   60.49    7.80
   2  -3   9   60.99    8.30
   2   3   9   62.19    9.10
   2   3   9   82.69    7.70
   2   3   9   63.29    7.10
   2   3   9   74.19    6.70
   2   3   9   58.09    8.80
   3  -3   9  342.87   27.50
   3  -3   9  346.27   26.10
   3  -3   9  368.06   27.80
   3  -3   9  343.67   26.10
   3  -3   9  342.07   25.90
   3   3   9  366.46   30.60
   3   3   9  352.96   28.20
   3   3   9  447.16   28.60
   3   3   9  414.36   27.40
   3   3   9  347.27   30.20
   4  -3   9   82.89   10.40
   4  -3   9   76.79   10.30
   4  -3   9   76.29    9.40
   4  -3   9  107.09    9.60
   4   3   9   83.69    9.90
   4   3   9   94.59   12.20
   4   3   9  100.09    9.00
   4   3   9  125.09   13.50
   5  -3   9   13.90    4.20
   5  -3   9   12.00    4.30
   5  -3   9   11.00    5.10
   5   3   9   23.30    6.90
   5   3   9   25.70    7.90
   5   3   9   17.50    3.70
   5   3   9   16.20    5.10
  -8  -4   9  132.49   15.90
  -8  -4   9  142.79   15.10
  -8  -4   9  127.29   15.80
   8  -4  -9  175.68   14.80
  -8  -4   9  178.98   16.00
  -8  -4   9  125.29   12.80
   8  -4  -9  127.09   13.60
  -8   4   9  190.38   16.40
  -8   4   9  142.69   14.80
   8   4  -9  140.99   14.30
  -8   4   9  131.49   16.90
  -7  -4   9  178.48   17.30
  -7  -4   9  129.89   14.80
  -7  -4   9  159.08   13.90
  -7  -4   9  121.99   13.30
   7  -4  -9  125.29   13.30
   7  -4  -9  113.79   13.50
  -7  -4   9  153.48   14.80
   7  -4  -9  124.49   12.70
   7   4  -9  117.49   19.30
  -7   4   9  133.99   13.60
  -7   4   9  119.69   14.10
  -7   4   9  123.19   13.30
  -7   4   9  126.99   12.30
   7   4  -9  147.79   13.10
  -7   4   9  138.09   14.90
  -6  -4   9  202.38   18.10
   6  -4  -9  154.78   14.40
   6  -4  -9  161.58   14.90
  -6  -4   9  149.39   14.70
  -6  -4   9  156.88   15.40
  -6  -4   9  167.78   15.20
  -6  -4   9  153.68   17.20
  -6   4   9  212.88   16.00
   6   4  -9  168.18   15.40
  -6   4   9  156.48   16.30
  -6   4   9  155.68   15.40
  -6   4   9  169.28   15.90
  -6   4   9  159.98   16.90
   5  -4  -9   55.19    7.40
   5  -4  -9   55.59    7.00
  -5  -4   9   52.69    7.20
  -5  -4   9   60.19    7.80
  -5  -4   9   53.59    9.50
  -5  -4   9   49.30    8.90
  -5  -4   9   54.29    7.80
  -5   4   9   58.99    7.70
  -5   4   9   58.29    7.50
  -5   4   9   50.09    7.50
  -5   4   9   50.09    7.90
  -5   4   9   51.39    8.50
   5   4  -9   72.59    8.10
  -4  -4   9  259.57   16.20
  -4  -4   9  236.48   19.30
  -4  -4   9  242.18   19.90
  -4  -4   9  240.38   21.30
  -4  -4   9  237.58   19.20
   4  -4  -9  266.27   19.70
   4  -4  -9  243.18   18.40
   4  -4  -9  226.18   18.60
  -4  -4   9  237.98   20.90
   4  -4  -9  230.18   18.20
  -4  -4   9  221.78   18.50
   4   4  -9  228.08   15.30
  -4   4   9  224.68   20.00
  -4   4   9  220.78   18.40
   4   4  -9  229.78   18.10
  -4   4   9  223.18   18.30
  -4   4   9  231.28   19.90
  -4   4   9  232.18   18.00
  -3  -4   9  663.43   45.90
   3  -4  -9  672.33   45.30
  -3  -4   9  701.13   46.70
  -3  -4   9  647.04   46.20
  -3  -4   9  653.13   47.70
  -3  -4   9  622.64   48.70
  -3  -4   9  684.73   44.60
   3  -4  -9  644.54   45.50
   3  -4  -9  791.52   46.60
   3  -4  -9  614.84   45.70
  -3  -4   9  744.73   48.70
  -3   4   9  644.14   46.10
  -3   4   9  685.03   46.80
   3   4  -9  675.93   45.80
  -3   4   9  693.13   46.30
  -3   4   9  636.64   48.20
  -3   4   9  711.93   46.50
  -2  -4   9  694.13   44.00
  -2  -4   9  597.14   43.70
  -2  -4   9  623.04   46.50
   2  -4  -9  638.44   43.80
  -2  -4   9  661.83   45.30
  -2  -4   9  654.73   43.70
   2  -4  -9  649.43   42.70
  -2  -4   9  597.44   45.60
  -2  -4   9  684.63   42.20
  -2  -4   9  637.34   43.50
  -2   4   9  571.04   41.30
  -2   4   9  634.24   44.00
  -2   4   9  631.44   42.60
  -2   4   9  615.44   43.90
  -2   4   9  623.24   42.00
  -2   4   9  556.84   41.70
   2   4  -9  620.64   40.60
  -1  -4   9   18.20    2.90
  -1  -4   9   19.10    5.20
  -1  -4   9   17.50    3.00
  -1  -4   9   17.90    2.80
   1  -4  -9   13.80    2.80
  -1  -4   9   14.90    3.00
  -1  -4   9   12.30    3.50
  -1  -4   9   10.60    3.90
  -1  -4   9   15.80    2.70
  -1   4   9   28.40    6.00
   1   4  -9   17.20    2.00
  -1   4   9   14.30    3.80
  -1   4   9   15.40    4.20
  -1   4   9   18.90    4.00
  -1   4   9   15.00    4.30
  -1   4   9   17.50    3.70
   0  -4   9  423.46   32.70
   0  -4   9  424.46   34.10
   0  -4   9  508.45   31.10
   0  -4  -9  441.36   31.50
   0  -4   9  492.25   30.60
   0  -4   9  454.65   30.40
   0  -4   9  455.75   30.90
   0  -4   9  485.55   32.40
   0   4   9  424.16   29.60
   0   4   9  454.15   30.90
   0   4   9  445.06   33.50
   0   4   9  429.56   32.90
   0   4   9  470.75   31.90
   1  -4   9  272.17   21.80
   1  -4   9  304.47   18.80
   1  -4   9  297.77   22.20
   1  -4   9  281.07   23.00
   1  -4   9  291.67   18.80
   1  -4   9  307.17   23.30
   1  -4   9  284.87   19.60
   1  -4   9  290.37   24.20
   1   4   9  307.07   22.70
   1   4   9  331.97   21.50
   1   4   9  325.57   24.80
   1   4   9  285.07   24.30
   1   4   9  262.07   21.50
   2  -4   9   63.39    7.90
   2  -4   9   73.09    8.20
   2  -4   9   65.49    7.50
   2  -4   9   73.99    9.90
   2  -4   9   58.49    7.60
   2   4   9   67.09    7.00
   2   4   9   83.99    7.70
   2   4   9   59.39    8.90
   2   4   9   75.59   10.10
   2   4   9   64.69    7.70
   3  -4   9  133.89   12.60
   3  -4   9  169.08   13.90
   3  -4   9  129.29   14.00
   3  -4   9  129.49   12.10
   3   4   9  134.29   12.60
   3   4   9  135.79   12.00
   3   4   9  130.39   14.30
   3   4   9  172.88   13.60
   4  -4   9   80.59   10.30
   4  -4   9   86.09    9.40
   4  -4   9   80.79   10.90
   4  -4   9   82.29    9.60
   4   4   9   91.89   12.50
   4   4   9   85.09    9.60
   4   4   9   99.09    9.30
   4   4   9   96.19   12.50
   4   4   9  105.29   10.90
   5  -4   9   77.79   10.50
   5   4   9   86.29    8.80
   5   4   9   86.99   10.70
  -8  -5   9    1.30    3.50
  -8  -5   9    3.10    6.50
   8  -5  -9    5.90    3.90
   8   5  -9    3.70    3.10
  -8   5   9    0.70    3.40
  -8   5   9    5.00    4.70
  -7  -5   9  728.53   55.49
  -7  -5   9  682.93   54.69
   7  -5  -9  747.03   52.99
  -7  -5   9  803.22   54.19
   7  -5  -9  758.52   52.59
  -7  -5   9  743.53   53.99
   7  -5  -9  772.12   55.09
  -7  -5   9  760.12   52.79
  -7   5   9  738.03   52.89
  -7   5   9  748.23   54.69
  -7   5   9  731.73   52.29
  -7   5   9  726.63   54.09
  -6  -5   9  136.09   13.60
  -6  -5   9  131.19   15.30
  -6  -5   9  127.19   15.10
  -6  -5   9  148.49   14.30
   6  -5  -9  168.88   15.60
   6  -5  -9  123.39   12.80
   6  -5  -9  140.09   13.00
  -6  -5   9  140.59   14.00
   6   5  -9  132.59   12.40
  -6   5   9  155.08   13.50
  -6   5   9  134.49   13.50
  -6   5   9  159.68   15.60
  -6   5   9  135.59   14.90
  -5  -5   9   57.49   10.00
   5  -5  -9   65.69    7.90
  -5  -5   9   50.99    8.20
  -5  -5   9   59.89   10.10
   5  -5  -9   46.10    7.40
  -5  -5   9   72.39    8.50
  -5  -5   9   76.59    9.10
   5  -5  -9   45.00    6.40
  -5   5   9   50.89    7.60
  -5   5   9   52.59    8.80
  -5   5   9   43.80    7.90
  -5   5   9   50.49    7.10
  -4  -5   9   15.60    4.40
  -4  -5   9    9.20    4.30
  -4  -5   9    9.00    3.50
   4  -5  -9   11.60    3.50
  -4  -5   9   18.50    5.10
  -4  -5   9    8.40    4.00
   4  -5  -9   10.40    3.30
  -4   5   9   13.40    4.30
  -4   5   9    8.70    4.50
  -4   5   9    7.50    3.40
  -4   5   9    7.80    3.50
   3  -5  -9   59.19    6.70
  -3  -5   9   59.69    8.20
  -3  -5   9   66.89    8.60
  -3  -5   9   60.49    7.30
  -3  -5   9   76.59    9.70
   3  -5  -9   63.59    7.50
  -3  -5   9   67.39    7.80
   3  -5  -9   61.59    6.80
  -3   5   9   75.59    8.20
  -3   5   9   71.99    7.90
  -3   5   9   58.49    7.90
  -3   5   9   65.29    9.00
  -3   5   9   63.19    7.40
  -3   5   9   87.69   10.20
  -2  -5   9  184.38   16.80
  -2  -5   9  185.28   14.70
   2  -5  -9  186.08   14.90
  -2  -5   9  183.48   16.10
   2  -5  -9  171.78   13.90
   2  -5  -9  211.88   14.80
  -2  -5   9  169.48   17.00
  -2  -5   9  188.48   14.90
  -2  -5   9  184.18   15.00
  -2   5   9  171.78   15.00
  -2   5   9  198.68   16.00
  -2   5   9  186.38   17.20
  -2   5   9  189.08   16.50
  -2   5   9  167.58   15.30
  -2   5   9  197.48   15.20
  -2   5   9  217.88   17.80
  -1  -5   9  632.54   40.50
  -1  -5   9  546.65   42.30
  -1  -5   9  524.45   41.30
  -1  -5   9  668.03   39.10
  -1  -5   9  565.54   40.10
  -1  -5   9  603.54   39.30
  -1  -5   9  517.15   39.80
   1  -5  -9  557.44   39.20
  -1  -5   9  546.65   38.70
  -1  -5   9  568.34   37.80
  -1   5   9  523.45   41.30
  -1   5   9  640.24   40.80
  -1   5   9  525.05   41.70
  -1   5   9  556.04   39.40
  -1   5   9  651.73   39.20
  -1   5   9  523.75   40.70
   0  -5   9  482.05   33.40
   0  -5   9  437.26   32.90
   0  -5   9  486.85   34.30
   0  -5   9  519.65   32.50
   0  -5   9  468.95   36.20
   0  -5   9  550.04   33.30
   0  -5   9  519.85   32.70
   0  -5  -9  463.05   33.30
   0  -5   9  439.46   35.40
   0  -5   9  467.45   37.10
   0   5   9  508.85   36.70
   0   5   9  448.46   37.50
   0   5   9  480.65   38.40
   0   5   9  634.74   39.40
   1  -5   9  253.47   19.10
   1  -5   9  231.68   21.30
   1  -5   9  236.18   20.40
   1  -5   9  269.87   16.90
   1  -5   9  250.67   21.00
   1  -5   9  251.57   19.10
   1  -5   9  244.38   17.50
   1   5   9  264.97   21.30
   1   5   9  326.97   24.10
   1   5   9  284.27   23.30
   1   5   9  248.48   22.90
   1   5   9  258.47   20.50
   1   5   9  281.07   19.70
   2  -5   9  448.86   28.50
   2  -5   9  390.26   25.60
   2  -5   9  374.46   30.00
   2  -5   9  376.86   29.60
   2  -5   9  361.96   31.00
   2   5   9  356.86   31.50
   2   5   9  378.86   28.80
   2   5   9  473.75   29.60
   2   5   9  362.56   29.80
   2   5   9  476.95   33.00
   3  -5   9   42.90    8.40
   3  -5   9   55.09    7.40
   3  -5   9   52.09    7.30
   3   5   9   49.90    6.60
   3   5   9   55.39    9.40
   3   5   9   50.49    6.90
   3   5   9   45.90    8.90
   3   5   9   54.79    6.70
   4  -5   9    6.40    3.60
   4  -5   9    6.50    3.70
   4  -5   9    2.90    3.00
   4   5   9    6.90    4.70
   4   5   9    6.60    3.60
   4   5   9    6.90    3.00
   4   5   9    6.00    4.80
  -7  -6   9   32.50    6.40
  -7  -6   9   37.80    7.50
  -7  -6   9   18.80    5.90
   7  -6  -9   19.40    5.00
   7  -6  -9   16.60    4.60
  -7  -6   9   24.50    6.10
  -7  -6   9   29.10    8.70
   7  -6  -9   27.20    6.90
  -7   6   9   21.40    7.40
  -7   6   9   44.10    7.70
   7   6  -9   23.50    5.10
  -7   6   9   24.60    7.10
  -6  -6   9   94.89   10.60
   6  -6  -9  109.89   10.70
  -6  -6   9   72.69    9.80
   6  -6  -9   77.39    9.10
   6  -6  -9   87.99   11.00
  -6  -6   9   76.29    9.60
  -6  -6   9   82.39   11.50
  -6  -6   9   81.89   10.90
  -6   6   9   97.59   10.60
   6   6  -9   79.99    8.60
  -6   6   9   75.39   10.80
  -6   6   9   77.89   10.30
  -6   6   9   98.79    9.80
  -6   6   9   66.59   10.20
  -5  -6   9  138.79   13.90
   5  -6  -9  129.99   13.00
  -5  -6   9  128.19   13.80
  -5  -6   9  146.19   15.10
  -5  -6   9  131.29   13.60
   5  -6  -9  132.29   13.90
   5  -6  -9  165.28   13.40
  -5  -6   9  141.79   16.20
  -5   6   9  132.39   13.00
  -5   6   9  129.29   13.60
  -5   6   9  127.49   14.60
  -5   6   9  134.39   13.40
  -4  -6   9  355.06   30.60
  -4  -6   9  370.26   29.50
   4  -6  -9  367.06   27.60
  -4  -6   9  367.36   29.10
  -4  -6   9  375.26   28.60
  -4  -6   9  368.96   28.10
   4  -6  -9  370.06   28.40
   4  -6  -9  393.46   27.50
  -4   6   9  385.46   28.90
  -4   6   9  392.66   31.30
  -4   6   9  379.86   30.10
  -4   6   9  384.56   29.60
  -3  -6   9  129.89   13.60
  -3  -6   9  131.39   13.30
   3  -6  -9  128.69   11.40
  -3  -6   9  130.39   14.60
  -3  -6   9  143.49   12.70
   3  -6  -9  124.19   11.60
  -3  -6   9  120.89   11.70
  -3   6   9  128.19   14.30
  -3   6   9  142.09   14.00
  -3   6   9  148.79   12.80
  -3   6   9  129.59   12.80
  -2  -6   9  195.58   18.40
  -2  -6   9  201.08   19.70
  -2  -6   9  262.47   18.20
   2  -6  -9  202.38   17.10
  -2  -6   9  206.08   17.00
   2  -6  -9  237.28   16.70
  -2  -6   9  207.58   17.90
  -2   6   9  219.38   18.90
  -2   6   9  224.98   19.20
  -2   6   9  186.78   17.70
  -2   6   9  209.38   17.50
  -2   6   9  272.27   20.90
  -1  -6   9  319.57   23.40
  -1  -6   9  216.98   20.70
  -1  -6   9  277.57   19.00
  -1  -6   9  260.27   19.80
  -1  -6   9  227.18   19.20
   1  -6  -9  235.68   19.20
  -1   6   9  248.28   22.80
  -1   6   9  284.77   22.60
  -1   6   9  253.87   22.10
  -1   6   9  229.88   20.70
  -1   6   9  316.67   21.10
   0  -6   9  281.57   19.20
   0  -6   9  245.28   22.50
   0  -6   9  248.58   17.80
   0  -6   9  237.48   20.90
   0  -6   9  229.58   18.50
   0  -6   9  241.18   21.10
   0   6   9  252.67   21.20
   0   6   9  241.98   20.20
   0   6   9  247.18   21.70
   0   6   9  242.58   19.00
   1  -6   9  166.58   16.20
   1  -6   9  169.08   17.50
   1  -6   9  169.08   16.10
   1  -6   9  185.38   12.70
   1   6   9  169.88   17.00
   1   6   9  220.08   16.70
   1   6   9  162.08   14.50
   1   6   9  171.68   16.70
   2  -6   9   80.49    6.40
   2  -6   9   83.79    9.50
   2  -6   9   78.19   10.00
   2  -6   9   74.89   10.40
   2   6   9   67.29    9.80
   2   6   9   84.09   11.00
   2   6   9   76.69    9.30
   2   6   9   74.69    8.00
   3  -6   9   12.40    5.20
   3  -6   9   16.30    2.20
   3  -6   9   14.20    4.40
   3  -6   9   14.10    4.30
   3   6   9   26.40    6.90
   3   6   9   13.20    4.70
   3   6   9   21.90    6.90
   3   6   9   16.50    4.30
   4  -6   9  127.69   13.20
   4   6   9  115.89   12.40
  -6  -7   9  216.78   20.40
   6  -7  -9  190.28   18.00
   6  -7  -9  254.47   19.10
  -6  -7   9  269.27   24.30
  -6  -7   9  199.38   19.50
  -6  -7   9  198.38   18.90
  -6  -7   9  176.78   20.20
  -6   7   9  206.98   19.40
  -6   7   9  233.48   19.60
  -6   7   9  213.88   23.20
  -6   7   9  217.78   20.10
   5  -7  -9  304.07   24.40
   5  -7  -9  359.86   25.30
  -5  -7   9  306.97   26.00
   5  -7  -9  298.57   25.30
  -5  -7   9  314.87   28.10
  -5  -7   9  336.27   25.80
  -5  -7   9  300.67   25.60
  -5  -7   9  316.67   25.80
  -5   7   9  286.17   24.90
  -5   7   9  300.87   26.60
  -5   7   9  377.56   26.80
  -5   7   9  298.97   24.80
   4  -7  -9    2.50    2.70
  -4  -7   9   -0.80    2.30
  -4  -7   9    1.50    2.50
   4  -7  -9    1.00    2.50
  -4  -7   9    2.00    2.90
   4  -7  -9    1.70    1.90
  -4  -7   9    4.30    2.80
  -4  -7   9   -0.30    3.80
  -4   7   9    0.40    2.30
  -4   7   9   -0.40    2.60
  -4   7   9    3.30    3.20
  -4   7   9    2.60    2.20
  -3  -7   9  297.57   22.00
  -3  -7   9  274.47   22.80
   3  -7  -9  241.78   20.40
  -3  -7   9  263.87   21.70
  -3  -7   9  288.77   21.40
  -3  -7   9  272.07   24.50
   3  -7  -9  225.38   19.60
  -3   7   9  238.28   20.40
  -3   7   9  244.38   20.10
  -3   7   9  263.37   21.30
  -2  -7   9  116.79   12.90
  -2  -7   9  122.89   12.10
   2  -7  -9  108.09   10.40
  -2  -7   9  110.49   11.00
  -2  -7   9  150.38   15.30
  -2  -7   9  142.99   13.40
   2  -7  -9  118.79   11.20
  -2   7   9  129.19   14.50
  -2   7   9  130.49   13.90
  -2   7   9  126.39   13.20
  -2   7   9  129.09   13.90
  -2   7   9  172.98   13.70
  -1  -7   9   97.39    9.30
  -1  -7   9  102.49   10.10
  -1  -7   9  105.79   12.80
  -1  -7   9   97.09   11.80
  -1  -7   9  106.19   11.90
  -1   7   9  112.89   13.10
  -1   7   9  138.79   13.70
  -1   7   9   94.09   11.40
  -1   7   9  112.99   11.80
  -1   7   9  102.89   10.70
   0  -7   9   74.49    9.90
   0  -7   9   78.19    8.60
   0  -7   9   83.19    7.60
   0  -7   9   89.69   11.20
   0  -7   9   94.29   12.00
   0   7   9   88.59   11.00
   0   7   9   84.29    9.90
   0   7   9   81.59    8.70
   0   7   9   92.39   10.90
   0   7   9   75.69   10.20
   1  -7   9   32.00    6.70
   1  -7   9   28.80    6.50
   1  -7   9   20.90    3.30
   1  -7   9   25.90    7.20
   1   7   9   25.40    5.20
   1   7   9   28.50    6.70
   1   7   9   28.20    7.10
   1   7   9   32.00    7.10
   1   7   9   38.90    6.90
   2  -7   9   38.90    7.70
   2  -7   9   36.70    7.90
   2   7   9   46.30    6.90
   2   7   9   51.09    9.10
   2   7   9   48.20    8.80
   2   7   9   41.50    7.40
   3  -7   9   77.09    6.50
   3  -7   9   75.39   10.10
   3   7   9  106.59   12.00
   5  -8  -9   18.30    5.10
  -5  -8   9   10.90    5.00
  -5  -8   9    5.50    4.10
   5  -8  -9   16.80    4.70
   5  -8  -9   10.80    4.60
  -5   8   9    9.10    4.30
  -5   8   9    8.00    4.10
  -4  -8   9  489.25   36.50
  -4  -8   9  482.65   35.60
   4  -8  -9  480.35   35.30
   4  -8  -9  468.35   35.50
   4  -8  -9  468.65   34.40
  -4  -8   9  512.95   37.40
  -4  -8   9  463.05   39.00
  -4   8   9  516.15   41.30
  -4   8   9  541.55   39.30
  -4   8   9  548.35   40.10
  -3  -8   9   33.80    6.80
  -3  -8   9   41.30    9.30
   3  -8  -9   44.50    6.20
  -3  -8   9   32.70    7.60
  -3  -8   9   38.70    6.50
  -3   8   9   35.30    7.10
  -3   8   9   42.30    8.50
  -3   8   9   56.49    8.10
  -3   8   9   39.50    6.90
  -2  -8   9   21.00    5.70
  -2  -8   9   26.40    7.20
   2  -8  -9   23.40    4.70
  -2  -8   9   30.40    5.20
  -2  -8   9   37.00    6.70
  -2   8   9   27.60    6.90
  -2   8   9   32.80    6.70
  -2   8   9   27.90    5.90
  -2   8   9   19.90    5.60
  -2   8   9   24.50    6.20
  -1  -8   9  194.28   17.70
  -1  -8   9  203.08   20.10
  -1  -8   9  179.08   18.70
   1  -8  -9  186.08   16.10
  -1  -8   9  254.47   17.20
  -1  -8   9  234.78   20.70
  -1   8   9  194.58   19.10
  -1   8   9  261.77   21.00
  -1   8   9  200.48   17.50
  -1   8   9  191.08   18.30
   0  -8   9  109.49   13.00
   0  -8   9  126.29   14.00
   0  -8   9  125.09   10.50
   0  -8   9  116.09   14.10
   0   8   9  154.18   13.20
   0   8   9  111.59   14.30
   0   8   9  160.78   14.80
   0   8   9  122.69   14.30
   0   8   9  114.09   13.00
   1  -8   9    0.40    1.80
   1  -8   9    1.80    3.20
   1  -8   9    3.30    3.00
   1  -8   9    1.90    3.40
   1   8   9    0.20    2.00
   1   8   9    4.00    4.10
   1   8   9    0.10    3.00
   1   8   9    1.00    3.10
   1   8   9   -1.20    3.30
   2  -8   9  166.88   16.40
   2   8   9  214.68   19.40
  -4  -9   9   74.19   10.70
   4  -9  -9   81.89    8.90
  -3  -9   9   30.30    6.80
  -3  -9   9   18.70    6.90
  -3   9   9   25.60    7.30
  -3   9   9   21.70    5.60
  -2  -9   9   85.89   13.50
  -2  -9   9   62.09    9.50
   2  -9  -9   76.29    8.50
  -2   9   9   67.89   10.00
  -2   9   9   61.29    8.90
  -1  -9   9  298.77   25.40
   1  -9  -9  234.08   19.60
  -1  -9   9  247.48   19.90
  -1  -9   9  266.17   21.50
  -1   9   9  254.97   23.70
  -1   9   9  258.07   22.40
  -1   9   9  266.27   23.90
   0  -9   9   62.69    7.10
   0  -9   9   64.29   10.80
   0   9   9   56.79    9.20
   0   9   9   85.69   13.80
   9   0 -10  101.29   11.40
  -8   0  10  335.77   25.00
  -8   0  10  273.17   26.70
  -8   0  10  295.87   24.40
   8   0 -10  287.27   23.20
  -8   0  10  274.87   23.80
   8   0 -10  253.27   22.10
   8   0 -10  270.77   23.40
   7   0 -10    5.70    3.00
  -7   0  10    3.40    3.20
  -7   0  10    4.80    4.70
  -7   0  10    5.60    3.30
   7   0 -10    4.00    3.40
  -7   0  10    1.80    2.20
  -6   0  10  170.18   15.40
   6   0 -10  185.38   14.40
  -6   0  10  151.58   14.90
  -6   0  10  172.18   15.30
  -6   0  10  156.18   16.80
   6   0 -10  176.58   15.30
  -6   0  10  159.58   15.80
  -5   0  10  176.28   14.90
  -5   0  10  174.68   14.00
   5   0 -10  215.28   16.00
  -5   0  10  228.98   17.90
  -5   0  10  170.18   15.50
  -5   0  10  163.18   17.00
  -5   0  10  181.28   15.90
  -5   0  10  170.18   15.50
  -4   0  10  134.19   13.80
  -4   0  10  123.49   11.80
   4   0 -10  123.39   11.10
  -4   0  10  118.59   11.20
   4   0 -10  122.29    8.90
  -4   0  10  117.89   11.20
  -4   0  10  144.69   10.40
  -4   0  10  114.39   12.60
   4   0 -10  126.79    8.90
  -3   0  10 2508.35  162.48
  -3   0  10 2552.94  163.78
  -3   0  10 2588.94  161.98
   3   0 -10 2541.85  162.28
  -3   0  10 2400.66  164.88
  -2   0  10   10.10    4.00
  -2   0  10   14.10    2.80
  -2   0  10   16.00    2.90
  -2   0  10   13.90    2.50
   2   0 -10   10.30    2.10
  -2   0  10   11.10    2.50
  -2   0  10   13.40    2.50
  -2   0  10   10.90    3.60
  -2   0  10   11.10    3.70
  -2   0  10   12.90    2.60
  -1   0  10  143.29   13.40
  -1   0  10  147.89   13.90
   1   0 -10  150.68   10.20
  -1   0  10  141.89   10.80
  -1   0  10  138.09   12.00
  -1   0  10  172.18   11.50
   1   0 -10  144.09   10.10
  -1   0  10  152.78   11.10
  -1   0  10  157.18   11.20
  -1   0  10  150.28   14.20
  -1   0  10  145.19   11.00
   0   0  10  104.99   10.20
   0   0  10  115.89    7.90
   0   0  10  106.99    7.90
   0   0  10   95.29    8.80
   0   0  10  104.39   10.80
   0   0  10  108.19   11.40
   0   0  10  108.19    7.80
   0   0  10  110.29    7.90
   1   0  10   27.70    5.90
   1   0  10   30.30    2.50
   1   0  10   26.40    5.10
   1   0  10   26.70    4.40
   1   0  10   25.70    5.40
   1   0  10   29.70    5.70
   1   0  10   29.50    2.70
   2   0  10   51.29    6.60
   2   0  10   62.89    7.30
   2   0  10   61.09    8.20
   2   0  10   57.49    7.80
   2   0  10   62.09    8.20
   3   0  10    3.40    1.90
   3   0  10    2.70    3.30
   3   0  10    4.10    3.10
   3   0  10    2.60    2.20
   3   0  10    4.70    2.80
   4   0  10   29.30    5.60
   4   0  10   23.80    5.90
   4   0  10   21.40    6.30
   5   0  10   47.10    7.80
  -9  -1  10  146.99   15.70
   9  -1 -10  150.98   14.80
  -9   1  10  122.89   15.40
   9   1 -10  135.69   14.40
   9   1 -10  137.09   14.00
  -8  -1  10   88.59   10.80
   8  -1 -10   98.29   11.30
   8  -1 -10   80.19    9.80
  -8  -1  10   73.99   13.10
  -8  -1  10   59.59    9.30
  -8  -1  10   91.89   11.20
  -8   1  10   88.99   10.40
  -8   1  10   60.09    8.80
   8   1 -10   74.19    9.20
  -8   1  10   69.09    9.80
  -8   1  10   68.29   12.40
   8   1 -10   67.09    8.80
   7  -1 -10   20.80    4.90
  -7  -1  10   19.00    5.30
   7  -1 -10   24.70    5.10
  -7  -1  10   17.50    5.20
  -7  -1  10   27.10    7.10
   7  -1 -10   21.40    4.20
  -7  -1  10   24.10    5.30
  -7   1  10   20.10    5.20
  -7   1  10   31.80    7.80
  -7   1  10   22.40    5.80
  -7   1  10   23.20    5.40
   7   1 -10   31.20    6.20
   7   1 -10   20.70    4.90
   6  -1 -10  186.08   15.00
   6  -1 -10  176.38   15.70
  -6  -1  10  161.48   15.60
  -6  -1  10  187.38   16.00
  -6  -1  10  179.08   18.20
  -6   1  10  167.88   16.40
  -6   1  10  177.38   16.00
  -6   1  10  182.18   18.50
  -6   1  10  221.68   17.60
   6   1 -10  194.28   15.30
   6   1 -10  175.28   15.70
  -6   1  10  180.08   17.10
  -5  -1  10  112.79   12.50
  -5  -1  10  101.69   10.70
   5  -1 -10  102.99    9.80
   5  -1 -10  124.49   11.00
  -5  -1  10  108.49   10.00
  -5  -1  10  147.69   14.10
  -5  -1  10  107.69   10.60
  -5  -1  10   96.89   10.30
  -5   1  10  109.09   11.40
   5   1 -10  123.79    9.40
  -5   1  10  106.29   10.60
  -5   1  10  107.79   10.00
   5   1 -10   99.89   10.60
   5   1 -10  101.79   10.20
  -5   1  10  109.09    9.70
  -5   1  10  111.19   11.90
  -5   1  10   93.69   10.40
  -5   1  10  151.28   13.80
   4  -1 -10   61.59    6.70
  -4  -1  10   76.69    9.30
  -4  -1  10   52.89    6.60
  -4  -1  10   51.89    6.10
  -4  -1  10   49.99    6.60
  -4  -1  10   73.09    9.10
  -4  -1  10   51.49    6.10
   4  -1 -10   47.90    5.00
  -4  -1  10   58.49    6.90
  -4   1  10   49.40    7.60
  -4   1  10   50.69    6.50
   4   1 -10   62.79    6.50
  -4   1  10   56.69    6.30
   4   1 -10   58.89    6.40
  -4   1  10   55.69    6.90
  -4   1  10   39.60    7.70
  -4   1  10   52.69    7.40
  -4   1  10   48.70    4.50
  -3  -1  10  657.63   50.29
  -3  -1  10  672.03   48.60
  -3  -1  10  651.73   50.29
   3  -1 -10  796.32   48.30
  -3  -1  10  788.52   48.20
  -3  -1  10  819.72   48.70
  -3  -1  10  664.23   47.40
  -3  -1  10  649.74   47.90
  -3   1  10  643.24   47.40
  -3   1  10  617.64   48.30
  -3   1  10  642.94   45.50
  -3   1  10  654.53   46.20
  -3   1  10  639.54   48.10
  -3   1  10  736.53   44.50
  -3   1  10  665.53   46.10
  -3   1  10  700.63   44.20
   3   1 -10  689.33   46.60
   3   1 -10  794.42   45.90
  -2  -1  10  355.96   26.80
  -2  -1  10  358.86   25.50
  -2  -1  10  371.06   25.00
  -2  -1  10  385.16   25.50
  -2  -1  10  373.16   25.50
  -2  -1  10  345.07   28.10
  -2  -1  10  357.26   25.00
  -2  -1  10  390.76   26.30
  -2   1  10  365.36   25.20
  -2   1  10  344.57   25.50
  -2   1  10  350.26   28.00
  -2   1  10  375.96   25.80
  -2   1  10  362.16   25.50
  -2   1  10  359.06   25.40
  -2   1  10  389.26   24.40
  -2   1  10  373.06   24.10
  -2   1  10  360.16   27.50
  -1  -1  10  242.88   19.30
  -1  -1  10  239.08   16.80
  -1  -1  10  252.57   17.10
  -1  -1  10  225.38   19.90
  -1  -1  10  234.08   18.20
  -1  -1  10  262.47   17.10
  -1  -1  10  242.68   17.10
   1  -1 -10  267.47   17.10
  -1   1  10  238.58   20.00
  -1   1  10  253.77   18.70
  -1   1  10  238.48   17.30
  -1   1  10  235.48   17.30
  -1   1  10  239.08   17.50
  -1   1  10  238.28   20.40
  -1   1  10  260.47   16.90
   0  -1  10  136.69   13.60
   0  -1  10  151.78   13.80
   0  -1  10  152.88   10.10
   0  -1  10  139.99   12.70
   0  -1  10  169.98   12.40
   0  -1  10  154.68   10.10
   0  -1  10  137.39   13.60
   0   1  10  150.48   14.10
   0   1  10  148.09   11.50
   0   1  10  138.29   11.30
   0   1  10  138.39   13.90
   0   1  10  152.58   11.30
   0   1  10  167.48   13.60
   0   1  10  165.98   11.30
   0   1  10  151.68   11.10
   1  -1  10   71.49    8.30
   1  -1  10   73.39    8.30
   1  -1  10   80.19    8.90
   1  -1  10   50.99    6.40
   1  -1  10   61.49    8.10
   1  -1  10   53.79    7.20
   1  -1  10   66.49    8.10
   1   1  10   70.49    5.60
   1   1  10   63.69    5.80
   1   1  10   59.89    5.20
   1   1  10   75.89    6.80
   1   1  10   59.39    5.40
   1   1  10   67.89    7.30
   1   1  10   62.29    8.20
   1   1  10   79.09    9.30
   1   1  10   57.39    8.40
   2  -1  10   25.50    5.90
   2  -1  10   32.00    5.30
   2  -1  10   32.40    6.00
   2  -1  10   28.50    5.10
   2  -1  10   41.90    6.30
   2  -1  10   27.30    6.00
   2  -1  10   28.40    5.90
   2   1  10   29.30    2.90
   2   1  10   30.60    6.10
   2   1  10   27.00    5.90
   2   1  10   30.00    3.20
   2   1  10   28.00    4.60
   2   1  10   31.20    5.00
   3  -1  10  220.98   19.40
   3  -1  10  279.97   20.60
   3  -1  10  271.57   21.90
   3  -1  10  229.08   20.00
   3  -1  10  219.08   20.90
   3  -1  10  272.27   19.70
   3   1  10  225.08   18.00
   3   1  10  227.78   21.00
   3   1  10  217.68   20.50
   3   1  10  271.47   19.50
   3   1  10  236.08   16.00
   4  -1  10  109.09   11.60
   4  -1  10  112.59   12.90
   4  -1  10  114.19   11.60
   4  -1  10  142.09   14.00
   4   1  10  128.89    9.80
   4   1  10  158.58   15.50
   4   1  10  138.09   13.20
   4   1  10  120.89   14.30
   5  -1  10  124.99   16.60
   5  -1  10  164.88   15.10
   5   1  10  147.69   13.90
   5   1  10  130.39   10.20
   8  -2 -10   78.79    9.30
  -8  -2  10   72.39   10.60
   8  -2 -10   60.29    8.80
  -8  -2  10   82.59   13.90
  -8  -2  10   60.79    9.90
  -8  -2  10   80.49   10.30
   8   2 -10   54.39    8.00
  -8   2  10   51.49   11.20
  -8   2  10   61.49    9.50
  -8   2  10   60.69    8.30
  -8   2  10   48.60    8.70
  -7  -2  10  406.56   32.60
   7  -2 -10  347.17   27.80
  -7  -2  10  376.96   30.20
  -7  -2  10  351.26   28.70
   7  -2 -10  345.07   27.10
  -7   2  10  384.66   31.80
   7   2 -10  333.07   29.60
  -7   2  10  369.76   29.20
  -7   2  10  366.86   29.10
   7   2 -10  369.76   27.90
  -7   2  10  358.66   29.50
  -7   2  10  451.45   31.10
   6  -2 -10  222.38   17.20
   6  -2 -10  178.58   15.70
  -6  -2  10  174.78   16.40
  -6  -2  10  206.28   17.50
  -6  -2  10  170.78   18.30
  -6  -2  10  202.78   18.60
  -6   2  10  175.58   16.60
   6   2 -10  193.18   16.30
  -6   2  10  180.18   18.20
  -6   2  10  189.58   16.50
  -6   2  10  189.58   17.40
  -6   2  10  175.38   16.60
   6   2 -10  195.68   15.30
  -5  -2  10  101.39   10.60
  -5  -2  10   96.09   10.20
   5  -2 -10  105.49   10.30
  -5  -2  10  119.99   12.90
   5  -2 -10  101.59    9.50
  -5  -2  10  109.89    9.90
  -5   2  10  169.98   13.30
   5   2 -10  149.49   12.70
  -5   2  10  148.09   14.70
  -5   2  10  132.19   13.60
  -5   2  10  110.49   12.60
  -5   2  10  150.18   13.40
  -5   2  10  107.49   11.40
   4  -2 -10  123.59    9.20
   4  -2 -10  111.39    8.20
   4  -2 -10  102.29    8.90
  -4  -2  10  100.49   10.20
   4  -2 -10  111.39    9.90
  -4  -2  10  103.99    9.60
  -4  -2  10  119.09   12.70
  -4  -2  10  104.79    9.60
  -4  -2  10   98.59   10.10
  -4  -2  10  108.29   12.30
   4   2 -10   96.89    9.30
  -4   2  10   99.69    9.70
  -4   2  10  120.69   10.60
  -4   2  10  106.59   11.40
  -4   2  10  100.49    9.40
  -4   2  10   96.69   11.20
  -4   2  10  100.19   11.20
   4   2 -10   98.99    9.00
  -3  -2  10  128.49   11.80
  -3  -2  10  136.19   11.90
  -3  -2  10  165.78   15.10
  -3  -2  10  152.78   14.70
   3  -2 -10  144.99   12.10
  -3  -2  10  134.39   12.40
  -3  -2  10  150.28   11.80
   3  -2 -10  166.68   11.40
  -3  -2  10  154.08   12.50
  -3   2  10  183.88   15.50
  -3   2  10  139.79   13.60
   3   2 -10  161.38   12.00
  -3   2  10  142.89   11.30
  -3   2  10  139.29   12.10
  -3   2  10  135.19   12.20
  -3   2  10  138.89   11.80
  -2  -2  10   39.00    4.40
   2  -2 -10   35.10    4.40
  -2  -2  10   37.00    3.90
   2  -2 -10   41.00    4.80
  -2  -2  10   37.00    4.00
  -2  -2  10   35.00    4.40
  -2  -2  10   40.10    5.10
  -2  -2  10   29.60    6.00
  -2  -2  10   32.70    5.90
  -2  -2  10   36.50    4.20
  -2   2  10   40.20    4.90
  -2   2  10   32.90    4.90
  -2   2  10   44.00    6.80
  -2   2  10   34.40    4.60
  -2   2  10   39.20    6.80
  -2   2  10   34.70    5.50
  -2   2  10   38.40    4.90
   2   2 -10   38.20    3.80
  -1  -2  10  385.66   24.50
  -1  -2  10  330.07   28.10
  -1  -2  10  366.26   26.90
  -1  -2  10  384.16   28.20
  -1  -2  10  378.96   24.90
   1  -2 -10  391.96   26.90
  -1  -2  10  354.36   25.00
  -1  -2  10  389.66   26.30
  -1  -2  10  351.26   24.80
  -1   2  10  366.46   24.40
  -1   2  10  328.47   23.90
  -1   2  10  327.07   24.90
  -1   2  10  347.77   24.20
  -1   2  10  352.86   25.50
  -1   2  10  345.17   26.70
  -1   2  10  340.57   27.00
  -1   2  10  330.47   24.00
  -1   2  10  354.16   22.40
   0  -2  10  209.88   17.70
   0  -2  10  210.68   16.70
   0  -2  10  215.98   13.60
   0  -2  10  187.18   17.60
   0  -2  10  195.98   16.80
   0  -2  10  212.18   17.80
   0  -2  10  218.18   13.60
   0   2  10  236.78   15.70
   0   2  10  236.48   16.80
   0   2  10  192.38   18.30
   0   2  10  218.78   16.00
   0   2  10  246.28   18.50
   0   2  10  194.78   15.20
   0   2  10  197.88   18.20
   0   2  10  216.78   16.00
   0   2  10  214.58   16.10
   1  -2  10  487.15   37.10
   1  -2  10  626.24   36.70
   1  -2  10  494.85   37.00
   1  -2  10  462.95   36.40
   1  -2  10  504.55   36.90
   1  -2  10  504.35   37.70
   1   2  10  579.04   35.70
   1   2  10  534.75   39.40
   1   2  10  530.75   39.90
   1   2  10  540.05   36.20
   1   2  10  587.94   36.30
   1   2  10  483.65   36.10
   1   2  10  502.65   36.50
   1   2  10  518.95   38.80
   2  -2  10  287.77   24.00
   2  -2  10  315.07   23.50
   2  -2  10  343.87   24.20
   2  -2  10  267.67   23.30
   2  -2  10  338.67   23.30
   2  -2  10  291.37   23.90
   2  -2  10  277.57   24.00
   2   2  10  289.37   20.70
   2   2  10  272.57   23.40
   2   2  10  327.37   21.30
   2   2  10  285.87   21.50
   2   2  10  274.47   20.00
   3  -2  10   46.90    7.50
   3  -2  10   49.60    8.20
   3  -2  10   41.20    6.60
   3  -2  10   36.20    7.00
   3  -2  10   47.30    7.60
   3  -2  10   33.00    6.00
   3  -2  10   39.80    6.10
   3   2  10   43.80    4.40
   3   2  10   60.09    9.60
   3   2  10   41.40    7.70
   3   2  10   32.00    5.70
   4  -2  10    3.40    3.60
   4  -2  10    1.60    3.20
   4  -2  10    2.40    2.20
   4  -2  10    1.30    3.20
   4   2  10    0.60    1.20
   4   2  10    3.80    3.70
   4   2  10    2.10    2.80
   4   2  10    1.20    2.70
   5  -2  10  124.99   13.20
   5  -2  10  167.58   17.60
  -8  -3  10  200.88   18.30
  -8  -3  10  219.38   19.20
  -8  -3  10  192.78   19.20
  -8  -3  10  167.18   19.20
  -8  -3  10  200.28   17.00
   8  -3 -10  166.18   16.60
   8  -3 -10  186.88   17.60
  -8   3  10  203.88   18.10
  -8   3  10  139.79   18.20
   8   3 -10  191.38   16.40
  -8   3  10  189.68   17.50
  -7  -3  10   30.40    6.00
  -7  -3  10   30.40    6.70
  -7  -3  10   38.00    7.30
  -7  -3  10   40.10    8.40
  -7  -3  10   30.30    8.10
   7  -3 -10   41.50    7.10
   7  -3 -10   34.00    6.00
  -7   3  10   46.60    8.80
   7   3 -10   35.10    6.00
  -7   3  10   38.80    7.50
  -7   3  10   31.40    7.60
  -7   3  10   33.80    6.60
  -7   3  10   35.00    6.40
   6  -3 -10  597.04   40.70
  -6  -3  10  639.84   42.30
  -6  -3  10  500.15   43.50
   6  -3 -10  669.43   41.90
  -6  -3  10  525.95   41.90
  -6  -3  10  526.35   43.30
  -6   3  10  610.24   40.00
  -6   3  10  587.24   41.10
  -6   3  10  471.75   40.50
  -6   3  10  504.65   39.20
  -6   3  10  528.95   39.20
   5  -3 -10  337.67   23.10
  -5  -3  10  316.17   23.10
  -5  -3  10  255.47   22.50
  -5  -3  10  252.57   24.40
   5  -3 -10  303.47   21.70
  -5  -3  10  267.37   24.50
  -5   3  10  267.87   20.90
  -5   3  10  260.37   22.80
   5   3 -10  253.77   20.30
  -5   3  10  258.67   21.20
  -5   3  10  263.67   21.40
  -5   3  10  247.58   21.80
  -4  -3  10  488.35   37.40
   4  -3 -10  475.05   34.30
   4  -3 -10  531.15   33.60
  -4  -3  10  465.85   34.70
   4  -3 -10  468.65   35.00
  -4  -3  10  487.05   34.70
  -4  -3  10  487.95   36.90
  -4   3  10  469.05   35.60
   4   3 -10  503.95   35.50
  -4   3  10  459.15   37.50
  -4   3  10  487.35   37.40
  -4   3  10  601.54   35.90
  -3  -3  10   20.40    2.00
  -3  -3  10   27.60    4.70
  -3  -3  10   20.00    3.30
  -3  -3  10   17.00    4.70
   3  -3 -10   26.10    3.70
  -3  -3  10   21.10    5.70
  -3  -3  10   21.20    4.00
  -3  -3  10   23.20    2.10
  -3  -3  10   21.90    3.70
   3  -3 -10   16.90    3.50
  -3  -3  10   19.20    4.70
  -3   3  10   24.00    4.40
  -3   3  10   18.00    4.00
  -3   3  10   17.10    5.10
  -3   3  10   21.40    3.80
  -3   3  10   20.20    4.10
  -3   3  10   19.30    5.40
  -2  -3  10   36.20    4.50
  -2  -3  10   36.30    4.60
  -2  -3  10   34.70    4.60
   2  -3 -10   33.90    4.60
  -2  -3  10   39.20    6.10
  -2  -3  10   35.50    4.30
  -2  -3  10   33.20    4.10
  -2  -3  10   37.70    6.70
  -2  -3  10   35.50    4.60
   2  -3 -10   41.90    4.80
  -2  -3  10   39.20    7.30
   2   3 -10   38.90    3.90
  -2   3  10   35.10    5.30
  -2   3  10   47.50    7.70
  -2   3  10   39.80    5.20
  -2   3  10   41.60    5.60
  -2   3  10   35.90    7.00
  -2   3  10   33.90    4.90
  -2   3  10   32.10    4.50
  -1  -3  10   49.80    5.70
   1  -3 -10   59.39    5.30
  -1  -3  10   45.10    4.20
  -1  -3  10   44.50    7.80
  -1  -3  10   43.60    4.70
  -1  -3  10   49.80    5.70
  -1  -3  10   45.20    4.50
  -1  -3  10   53.29    7.10
  -1  -3  10   39.90    6.80
  -1  -3  10   47.90    4.80
  -1   3  10   45.70    7.80
  -1   3  10   49.99    5.60
  -1   3  10   41.40    5.90
  -1   3  10   35.40    6.70
  -1   3  10   45.90    5.40
  -1   3  10   40.90    4.70
  -1   3  10   43.30    5.40
   0  -3  10  230.68   18.40
   0  -3  10  249.38   16.50
   0  -3  10  203.48   19.40
   0  -3  10  287.17   19.40
   0  -3  10  236.38   19.80
   0  -3  10  217.68   19.00
   0  -3  10  244.08   16.00
   0   3  10  287.47   20.60
   0   3  10  246.98   19.20
   0   3  10  285.37   20.20
   0   3  10  307.07   22.10
   0   3  10  243.58   21.90
   0   3  10  248.58   22.30
   0   3  10  261.97   18.20
   1  -3  10  131.89   12.50
   1  -3  10  127.29   12.80
   1  -3  10  133.89   11.80
   1  -3  10  116.29   12.00
   1  -3  10  138.99   13.90
   1  -3  10  127.09   12.50
   1  -3  10  174.58   13.80
   1   3  10  127.19   13.40
   1   3  10  132.89   10.80
   1   3  10  133.79   13.50
   1   3  10  136.49   10.50
   1   3  10  129.39   10.10
   1   3  10  137.49   11.60
   2  -3  10  300.87   23.70
   2  -3  10  290.07   23.40
   2  -3  10  276.47   22.70
   2  -3  10  295.77   24.20
   2  -3  10  295.37   23.50
   2  -3  10  292.67   23.30
   2  -3  10  362.26   25.70
   2   3  10  314.17   25.90
   2   3  10  345.87   23.50
   2   3  10  289.07   25.90
   2   3  10  350.36   23.50
   2   3  10  276.67   21.90
   3  -3  10   18.80    4.40
   3  -3  10   11.50    4.50
   3  -3  10   15.70    4.80
   3  -3  10   18.90    4.50
   3  -3  10   16.20    4.40
   3  -3  10   14.20    4.60
   3  -3  10   15.00    4.30
   3   3  10   16.00    4.10
   3   3  10   17.00    3.10
   3   3  10    9.80    4.80
   3   3  10   17.90    5.30
   4  -3  10   16.10    5.10
   4  -3  10   22.60    5.10
   4  -3  10   20.00    5.00
   4  -3  10   16.70    5.20
   4   3  10   27.30    6.90
   4   3  10   15.90    5.30
   4   3  10   17.00    3.30
   4   3  10   29.50    5.80
  -8  -4  10   47.70    9.50
   8  -4 -10   63.49    8.70
  -8  -4  10   46.30    7.40
   8  -4 -10   37.40    7.40
   8   4 -10   35.20    7.00
  -8   4  10   57.59   11.10
  -8   4  10   59.79    9.40
  -7  -4  10   49.40    8.20
  -7  -4  10   64.09    9.10
  -7  -4  10   51.79    8.30
   7  -4 -10   42.20    7.60
  -7  -4  10   48.70    9.70
   7  -4 -10   57.89    7.70
  -7  -4  10   51.89    9.80
  -7   4  10   46.00    9.10
  -7   4  10   49.70    7.40
   7   4 -10   57.89    7.10
  -7   4  10   47.30    7.90
  -7   4  10   46.60    8.80
  -7   4  10   47.50    8.50
  -6  -4  10  475.45   38.80
  -6  -4  10  497.25   36.70
   6  -4 -10  494.55   34.90
   6  -4 -10  489.25   35.40
  -6  -4  10  461.95   35.60
  -6  -4  10  469.85   37.80
  -6  -4  10  487.05   35.90
  -6   4  10  472.35   35.10
  -6   4  10  459.55   35.00
  -6   4  10  485.95   35.80
  -6   4  10  479.75   36.80
   5  -4 -10  275.87   20.90
  -5  -4  10  284.77   24.30
  -5  -4  10  277.77   21.90
   5  -4 -10  252.57   21.10
  -5  -4  10  268.97   22.10
  -5  -4  10  277.97   24.20
  -5   4  10  253.87   20.70
  -5   4  10  258.67   22.50
  -5   4  10  259.37   21.10
  -5   4  10  256.07   22.20
  -5   4  10  253.17   21.10
   4  -4 -10  129.19   10.90
  -4  -4  10  121.19   11.50
   4  -4 -10  123.59   11.60
  -4  -4  10  122.59   13.80
  -4  -4  10  133.59   12.40
  -4  -4  10  120.99   13.30
  -4   4  10  126.99   11.60
  -4   4  10  146.79   14.30
  -4   4  10  111.89   12.90
  -4   4  10  109.79   11.30
  -3  -4  10   41.20    7.20
  -3  -4  10   40.60    5.90
  -3  -4  10   36.20    7.40
  -3  -4  10   45.30    5.70
  -3  -4  10   38.70    6.80
   3  -4 -10   41.10    5.40
  -3  -4  10   40.20    3.70
   3  -4 -10   41.00    5.60
  -3   4  10   46.00    6.30
  -3   4  10   53.49    6.30
  -3   4  10   50.29    8.30
  -3   4  10   56.79   10.20
  -3   4  10   42.80    7.80
  -3   4  10   48.80    6.50
  -2  -4  10  400.96   31.20
  -2  -4  10  402.36   28.90
  -2  -4  10  386.86   28.80
  -2  -4  10  456.95   27.90
  -2  -4  10  409.76   28.70
   2  -4 -10  403.46   28.90
   2  -4 -10  381.86   26.60
  -2  -4  10  427.36   32.50
  -2  -4  10  432.66   29.30
  -2  -4  10  414.16   30.90
  -2   4  10  410.46   31.50
  -2   4  10  418.86   29.80
  -2   4  10  399.16   28.80
  -2   4  10  387.76   29.20
  -2   4  10  403.46   31.20
  -1  -4  10   47.60    5.00
  -1  -4  10   58.99    8.20
   1  -4 -10   63.49    6.60
  -1  -4  10   48.10    7.00
  -1  -4  10   54.79    5.60
  -1  -4  10   55.89    5.60
  -1  -4  10   54.29    8.00
  -1  -4  10   56.09    5.30
  -1  -4  10   66.69    6.10
  -1   4  10   69.99    7.00
  -1   4  10   54.09    7.50
  -1   4  10   68.09    9.30
  -1   4  10   52.59    7.90
  -1   4  10   72.99    7.50
   0  -4  10   93.59    6.50
   0  -4  10   97.29    9.70
   0  -4  10   93.19    8.70
   0  -4  10   88.99   10.60
   0  -4  10   83.59   10.30
   0  -4  10   88.29    6.50
   0  -4  10   86.49    7.80
   0   4  10   78.59    8.70
   0   4  10   88.79    8.10
   0   4  10   90.59   10.70
   0   4  10  101.39   11.20
   0   4  10   81.29    9.90
   1  -4  10  235.08   21.80
   1  -4  10  316.67   21.60
   1  -4  10  333.17   24.20
   1  -4  10  243.48   20.80
   1  -4  10  244.08   21.80
   1   4  10  249.38   22.70
   1   4  10  308.77   21.40
   1   4  10  260.77   22.80
   1   4  10  247.68   19.80
   1   4  10  313.27   24.00
   2  -4  10   12.40    3.60
   2  -4  10   14.30    4.00
   2  -4  10   16.60    4.50
   2  -4  10   13.00    4.00
   2  -4  10   11.10    4.30
   2  -4  10   12.80    3.60
   2   4  10   11.80    3.50
   2   4  10   16.50    5.70
   2   4  10   11.40    2.90
   2   4  10    7.80    4.50
   3  -4  10  207.08   18.80
   3  -4  10  206.78   17.70
   3  -4  10  195.68   17.60
   3  -4  10  206.48   17.90
   3  -4  10  203.38   18.90
   3  -4  10  214.88   17.30
   3   4  10  220.08   18.30
   3   4  10  221.38   20.60
   3   4  10  239.18   21.30
   3   4  10  214.58   16.80
   4  -4  10   15.80    5.50
   4  -4  10   10.60    3.70
   4  -4  10   17.60    5.60
   4   4  10   18.30    6.10
  -7  -5  10   25.50    7.40
  -7  -5  10   18.50    5.40
  -7  -5  10   16.60    5.60
   7  -5 -10   18.00    4.90
  -7  -5  10   19.40    5.60
  -7  -5  10   13.80    5.50
   7  -5 -10   20.30    5.50
  -7   5  10   16.30    4.90
  -7   5  10   17.60    4.90
  -7   5  10   14.60    5.80
  -7   5  10   15.30    6.20
  -6  -5  10   60.89    9.00
   6  -5 -10   51.19    7.20
  -6  -5  10   57.89   10.40
  -6  -5  10   49.40    8.20
  -6  -5  10   60.39    8.90
   6  -5 -10   67.39    8.00
  -6  -5  10   50.19    9.70
  -6   5  10   52.29    8.20
  -6   5  10   47.70    8.90
  -6   5  10   44.40    7.80
  -6   5  10   50.69    7.50
  -6   5  10   66.59    9.60
  -5  -5  10    3.60    3.90
  -5  -5  10    5.30    3.70
  -5  -5  10    7.90    3.40
  -5  -5  10    5.70    3.50
   5  -5 -10    4.70    3.20
   5  -5 -10    0.80    2.30
  -5  -5  10    5.90    3.30
  -5   5  10    1.10    3.00
  -5   5  10    5.00    3.30
  -5   5  10    1.10    2.70
  -5   5  10    2.00    2.50
  -4  -5  10  798.02   49.50
   4  -5 -10  691.33   48.00
  -4  -5  10  672.33   51.29
   4  -5 -10  662.33   47.10
  -4  -5  10  679.43   49.40
  -4  -5  10  667.23   50.09
  -4   5  10  705.23   49.00
  -4   5  10  667.23   48.10
  -4   5  10  704.43   50.49
   3  -5 -10  186.68   13.90
  -3  -5  10  152.98   15.80
  -3  -5  10  216.28   17.50
  -3  -5  10  168.38   15.10
   3  -5 -10  175.68   14.80
  -3  -5  10  193.28   15.20
  -3  -5  10  169.48   17.30
  -3   5  10  153.58   15.30
  -3   5  10  156.78   15.00
  -3   5  10  156.78   14.10
  -3   5  10  141.69   12.90
  -3   5  10  151.08   13.60
  -2  -5  10  206.48   17.30
  -2  -5  10  184.88   17.50
  -2  -5  10  170.88   14.00
  -2  -5  10  180.38   15.80
  -2  -5  10  167.88   14.40
   2  -5 -10  169.58   14.40
  -2   5  10  182.68   17.60
  -2   5  10  183.18   17.40
  -2   5  10  174.48   16.00
  -2   5  10  190.28   16.80
  -2   5  10  230.98   16.20
  -1  -5  10   57.49    6.30
  -1  -5  10   54.19    8.70
  -1  -5  10   70.29    7.80
  -1  -5  10   54.19    8.30
  -1  -5  10   56.09    5.70
  -1   5  10   46.00    7.80
  -1   5  10   49.99    6.00
  -1   5  10   47.90    7.40
  -1   5  10   50.29    8.50
  -1   5  10   45.70    6.10
   0  -5  10   25.10    4.70
   0  -5  10   26.40    2.90
   0  -5  10   28.30    6.90
   0  -5  10   23.00    5.60
   0  -5  10   23.80    5.90
   0   5  10   38.30    7.60
   0   5  10   21.40    5.00
   0   5  10   32.30    6.60
   0   5  10   26.90    6.10
   0   5  10   28.40    4.70
   1  -5  10  111.99   11.00
   1  -5  10  124.19    8.20
   1  -5  10  120.99   12.80
   1  -5  10  151.18   14.60
   1  -5  10  120.09   11.30
   1  -5  10  116.59   12.70
   1   5  10  120.39   13.40
   1   5  10  111.49   13.60
   1   5  10  127.79   13.70
   1   5  10  113.09   10.70
   1   5  10  142.19   12.20
   2  -5  10  211.98   17.20
   2  -5  10  208.68   17.50
   2  -5  10  158.58   16.90
   2  -5  10  192.78   18.70
   2   5  10  143.79   12.80
   2   5  10  167.98   14.50
   2   5  10  162.88   16.00
   3  -5  10   23.30    6.40
   3  -5  10   30.50    6.20
   3  -5  10   21.10    5.00
   3   5  10   29.70    4.90
   3   5  10   21.50    6.30
   3   5  10   27.80    6.60
   3   5  10   28.30    5.70
   4  -5  10  295.27   25.70
   7  -6 -10   57.29    8.30
   7  -6 -10   75.49   14.00
   7  -6 -10   62.79    9.90
  -7  -6  10   65.09    9.00
  -7  -6  10   48.20    9.60
  -7   6  10   55.39    9.00
  -7   6  10   50.69    9.50
  -6  -6  10   49.10    8.40
  -6  -6  10   46.20   10.00
   6  -6 -10   52.79    8.10
   6  -6 -10   56.79    7.50
  -6  -6  10   68.19   10.30
  -6  -6  10   54.49    8.90
  -6  -6  10   47.90    8.10
  -6   6  10   53.69    7.90
  -6   6  10   51.79    8.50
  -6   6  10   46.30    7.60
  -6   6  10   44.10    8.60
  -6   6  10   63.59    9.60
   5  -6 -10   82.29    8.80
  -5  -6  10   71.99    9.40
  -5  -6  10   87.69   10.80
  -5  -6  10   66.99   11.40
  -5  -6  10   70.39   10.00
   5  -6 -10   82.59    9.40
  -5  -6  10   84.99   10.40
  -5   6  10   62.39    8.40
  -5   6  10   64.09    8.30
  -5   6  10   65.19   10.60
  -5   6  10   71.99    9.70
  -4  -6  10   24.10    7.00
  -4  -6  10   27.50    5.40
   4  -6 -10   20.00    4.50
   4  -6 -10   24.30    4.90
  -4  -6  10   24.70    6.10
  -4  -6  10   19.30    4.80
  -4  -6  10   20.20    5.80
  -4   6  10   14.00    5.00
  -4   6  10   35.50    6.70
  -4   6  10   26.60    6.80
  -4   6  10   20.90    5.00
  -3  -6  10  207.08   16.50
  -3  -6  10  158.28   17.80
   3  -6 -10  172.48   14.60
  -3  -6  10  172.88   16.40
  -3  -6  10  216.68   16.00
  -3  -6  10  170.98   17.20
  -3   6  10  176.48   17.00
  -3   6  10  180.78   17.80
  -3   6  10  182.58   16.00
  -2  -6  10  289.27   22.60
  -2  -6  10  293.87   23.90
  -2  -6  10  336.47   23.80
  -2  -6  10  320.17   26.70
  -2   6  10  309.77   24.90
  -2   6  10  364.56   26.30
  -2   6  10  297.47   26.80
  -2   6  10  408.46   27.50
  -2   6  10  303.97   26.60
  -1  -6  10  280.27   21.00
  -1  -6  10  294.77   22.60
  -1  -6  10  304.47   22.20
  -1  -6  10  290.57   24.30
  -1   6  10  310.07   23.60
  -1   6  10  289.27   24.30
  -1   6  10  293.37   22.60
  -1   6  10  304.87   25.00
   0  -6  10  145.09   14.80
   0  -6  10  144.69   10.60
   0  -6  10  117.79   13.70
   0  -6  10  143.89   15.30
   0   6  10  121.09   11.00
   0   6  10  137.89   13.80
   0   6  10  116.09   13.80
   0   6  10  114.69   12.70
   1  -6  10   49.40    8.50
   1  -6  10   48.70    8.20
   1  -6  10   45.20    4.20
   1  -6  10   58.99    9.90
   1   6  10   37.40    5.60
   1   6  10   64.09   10.20
   1   6  10   52.29    8.00
   1   6  10   64.89   10.10
   1   6  10   44.20    8.00
   2  -6  10   49.50    8.60
   2  -6  10   46.20    8.80
   2  -6  10   65.79    8.00
   2   6  10   53.29    6.60
   2   6  10   49.99    8.90
   2   6  10   45.40    6.60
   2   6  10   47.00    9.00
   3  -6  10   38.70    7.80
   3  -6  10   42.00    7.60
   3  -6  10   29.90    7.10
   3   6  10   38.50    7.20
   3   6  10   35.90    9.10
  -6  -7  10  171.08   17.10
  -6  -7  10  192.68   18.60
  -6  -7  10  191.48   18.00
   6  -7 -10  171.48   17.30
  -6   7  10  181.98   18.40
  -6   7  10  172.38   17.30
  -5  -7  10   86.39   10.90
  -5  -7  10   89.59   10.30
  -5  -7  10  103.59   11.70
   5  -7 -10   76.29    9.10
  -5  -7  10   77.39   10.00
  -5  -7  10   64.69   11.80
  -5   7  10  105.49   12.20
  -5   7  10   81.19   10.40
  -5   7  10   83.29   11.60
  -5   7  10   92.19   11.10
   4  -7 -10  201.58   17.20
  -4  -7  10  228.98   22.00
  -4  -7  10  202.78   18.00
  -4  -7  10  208.08   19.50
  -4  -7  10  202.28   18.70
  -4  -7  10  250.47   20.00
  -4   7  10  186.28   18.50
  -4   7  10  211.78   18.80
  -4   7  10  239.98   21.10
  -4   7  10  207.78   18.00
  -3  -7  10   38.10    7.80
  -3  -7  10   48.60    6.90
   3  -7 -10   53.69    6.50
  -3  -7  10   40.60    6.60
  -3  -7  10   43.40    9.30
  -3   7  10   39.70    7.60
  -3   7  10   41.70    6.70
  -3   7  10   41.80    8.00
  -3   7  10   42.90    7.10
  -2  -7  10  219.78   19.30
  -2  -7  10  267.87   21.70
  -2  -7  10  219.68   18.30
  -2  -7  10  255.77   22.60
  -2   7  10  238.28   20.60
  -2   7  10  181.18   18.00
  -2   7  10  245.98   19.70
  -2   7  10  187.38   16.90
  -2   7  10  179.98   17.20
  -1  -7  10   32.30    4.60
  -1  -7  10   32.40    7.20
  -1  -7  10   27.60    6.70
  -1  -7  10   30.70    7.80
  -1   7  10   23.70    6.20
  -1   7  10   24.80    6.50
  -1   7  10   21.00    5.40
  -1   7  10   21.60    4.80
  -1   7  10   23.60    6.20
   0  -7  10  309.37   24.60
   0  -7  10  227.78   21.90
   0  -7  10  268.07   18.50
   0  -7  10  227.18   21.90
   0   7  10  209.58   20.00
   0   7  10  235.38   21.10
   0   7  10  228.18   19.20
   0   7  10  230.38   18.40
   1  -7  10   32.20    3.70
   1  -7  10   34.40    7.10
   1  -7  10   44.00    7.90
   1  -7  10   34.20    7.80
   1   7  10   30.30    6.90
   1   7  10   29.50    7.00
   1   7  10   34.80    6.70
   1   7  10   30.80    5.30
   1   7  10   50.59    9.10
   2  -7  10   49.10    8.30
   2   7  10   66.99   11.90
   2   7  10   39.30    8.40
   2   7  10   55.89    8.70
  -5  -8  10   53.09    9.30
   5  -8 -10   49.90    7.40
  -5   8  10   38.10    7.70
  -4  -8  10   68.39    9.30
  -4  -8  10   72.69   12.50
  -4   8  10   72.59    9.90
  -4   8  10   56.69    8.00
  -3  -8  10   50.19    7.30
  -3  -8  10   53.59    9.40
  -3  -8  10   40.90    8.80
  -3  -8  10   50.89    7.20
  -3   8  10   49.80    7.10
  -3   8  10   57.79    8.90
  -3   8  10   58.99    8.70
  -3   8  10   50.89    9.60
  -2  -8  10   40.60    8.70
  -2  -8  10   48.80    6.40
  -2  -8  10   42.50    7.50
  -2  -8  10   32.90    7.40
  -2  -8  10   59.59   10.80
  -2   8  10   42.30    7.50
  -2   8  10   39.70    7.40
  -2   8  10   36.90    7.90
  -2   8  10   31.00    7.20
  -2   8  10   46.10    7.20
  -1  -8  10  264.47   24.00
  -1  -8  10  284.27   25.00
  -1  -8  10  258.97   20.00
  -1   8  10  277.97   22.60
  -1   8  10  271.47   24.00
  -1   8  10  272.77   24.10
   0  -8  10   89.39    8.20
   0  -8  10   97.89   12.00
   0   8  10   88.89   11.30
   0   8  10   87.99   10.30
   0   8  10   80.29   13.30
   0   8  10   73.89   10.60
   1   8  10   64.79    9.50
   1   8  10   81.69   11.00
  -8   0  11  121.19   13.80
  -8   0  11  127.79   16.00
   8   0 -11  105.19   11.50
  -8   0  11  110.49   13.00
  -8   0  11  112.99   12.60
  -7   0  11   83.89   10.70
  -7   0  11  103.09   13.50
   7   0 -11   99.39    9.90
  -7   0  11   81.49   10.60
  -7   0  11  107.59   12.30
  -6   0  11  617.14   48.40
  -6   0  11  637.54   47.40
  -6   0  11  638.74   45.90
   6   0 -11  670.73   44.20
  -6   0  11  634.04   45.90
  -6   0  11  669.93   46.60
   5   0 -11  367.86   27.30
  -5   0  11  306.37   27.40
  -5   0  11  319.37   27.00
  -5   0  11  329.87   26.10
  -5   0  11  331.17   25.70
  -5   0  11  385.36   26.60
  -4   0  11   24.50    5.20
  -4   0  11   23.70    5.80
  -4   0  11   20.10    5.20
   4   0 -11   23.10    4.30
  -4   0  11   20.80    4.20
  -4   0  11   33.60    5.50
  -3   0  11   23.60    5.70
  -3   0  11   24.30    5.30
  -3   0  11   29.90    3.90
  -3   0  11   37.60    4.40
  -3   0  11   25.60    4.40
  -3   0  11   28.70    6.40
  -3   0  11   37.60    4.90
  -2   0  11   17.30    3.00
  -2   0  11   12.30    4.00
  -2   0  11   14.30    2.70
   2   0 -11   14.10    2.40
  -2   0  11   18.30    3.20
  -2   0  11   17.00    2.70
  -2   0  11   23.50    5.70
  -2   0  11   12.60    3.90
  -2   0  11   16.70    3.20
  -2   0  11   15.70    3.00
  -1   0  11  117.69    9.00
  -1   0  11  125.09   12.40
  -1   0  11  130.79    9.40
  -1   0  11  115.79   10.40
  -1   0  11  123.09    9.30
  -1   0  11  112.79    9.30
  -1   0  11  104.99    8.90
  -1   0  11  112.39   12.50
   0   0  11 1104.99   78.19
   0   0  11 1181.98   74.29
   0   0  11 1318.17   76.19
   0   0  11 1119.79   77.29
   0   0  11 1139.09   74.29
   0   0  11 1142.49   74.79
   0   0  11 1092.49   78.59
   1   0  11    1.10    2.20
   1   0  11    2.10    1.80
   1   0  11    1.10    2.00
   1   0  11    0.70    2.60
   1   0  11    1.10    2.40
   2   0  11  111.89   11.10
   2   0  11  118.19   12.60
   2   0  11  116.69   11.00
   2   0  11  120.29   11.30
   2   0  11  148.59   13.60
   2   0  11  111.09   12.40
   3   0  11  568.64   44.90
   3   0  11  647.24   43.10
   3   0  11  569.74   45.10
   3   0  11  670.03   43.80
   4   0  11    5.40    4.30
   4   0  11    8.60    3.90
   4   0  11   17.50    5.40
  -8  -1  11  238.08   24.60
  -8  -1  11  251.67   22.80
  -8  -1  11  263.47   22.30
  -8  -1  11  249.08   22.30
   8  -1 -11  248.78   20.70
  -8   1  11  235.98   21.70
  -8   1  11  313.97   23.20
  -8   1  11  249.08   22.20
  -8   1  11  214.48   23.70
  -7  -1  11  425.26   29.20
  -7  -1  11  316.87   30.20
  -7  -1  11  354.26   28.10
   7  -1 -11  344.57   26.50
  -7  -1  11  327.17   28.80
  -7   1  11  308.07   26.50
  -7   1  11  377.76   27.90
  -7   1  11  321.07   29.00
   7   1 -11  331.17   24.90
  -7   1  11  325.17   26.60
  -6  -1  11    3.70    3.50
  -6  -1  11    9.90    4.90
   6  -1 -11    7.90    2.80
  -6  -1  11    5.10    2.80
  -6  -1  11    7.70    4.00
  -6  -1  11    4.00    3.00
   6   1 -11    3.70    1.90
  -6   1  11    5.60    3.80
  -6   1  11    3.20    3.00
  -6   1  11    3.10    3.30
  -6   1  11    4.00    3.10
  -6   1  11    5.50    4.00
  -5  -1  11  125.79   12.80
   5  -1 -11  157.58   12.80
  -5  -1  11  132.09   14.50
  -5  -1  11  142.19   15.00
   5  -1 -11  123.09   10.50
  -5  -1  11  134.49   12.40
  -5  -1  11  130.49   12.50
  -5   1  11  154.18   13.10
  -5   1  11  109.29   12.60
  -5   1  11  111.49   13.60
  -5   1  11  151.78   14.20
  -4  -1  11  147.89   15.80
  -4  -1  11  209.88   14.50
  -4  -1  11  167.98   14.50
  -4  -1  11  175.78   14.90
  -4  -1  11  157.48   16.70
  -4  -1  11  209.38   15.70
   4  -1 -11  157.88   14.10
  -4   1  11  204.58   14.80
  -4   1  11  163.58   15.80
  -4   1  11  153.78   14.80
  -4   1  11  162.28   16.40
  -4   1  11  148.99   13.90
  -3  -1  11  189.58   13.20
  -3  -1  11  148.39   12.20
  -3  -1  11  143.89   12.70
   3  -1 -11  170.88   12.80
  -3  -1  11  147.29   15.30
  -3  -1  11  153.38   13.10
  -3  -1  11  151.28   15.30
  -3   1  11  186.28   13.90
  -3   1  11  158.88   11.70
  -3   1  11  170.68   15.20
  -3   1  11  160.18   13.30
  -3   1  11  156.68   13.60
  -3   1  11  163.88   12.00
  -3   1  11  217.28   17.50
  -3   1  11  150.48   15.40
  -2  -1  11  205.58   14.10
  -2  -1  11  190.58   13.50
  -2  -1  11  170.08   16.60
  -2  -1  11  171.78   15.20
  -2  -1  11  160.38   16.40
  -2  -1  11  189.38   13.80
  -2  -1  11  193.78   13.30
  -2  -1  11  159.08   13.50
  -2   1  11  171.98   14.20
  -2   1  11  175.58   12.60
  -2   1  11  229.08   18.00
  -2   1  11  174.78   13.80
  -2   1  11  190.18   13.00
  -2   1  11  171.38   14.20
  -2   1  11  173.68   16.10
  -2   1  11  222.18   14.60
  -1  -1  11  266.97   17.50
  -1  -1  11  276.17   17.90
  -1  -1  11  250.47   21.30
  -1  -1  11  233.88   21.00
  -1  -1  11  259.07   19.30
  -1  -1  11  240.28   20.20
  -1  -1  11  259.37   18.00
  -1  -1  11  261.77   18.00
  -1   1  11  275.67   20.30
  -1   1  11  264.97   21.70
  -1   1  11  250.57   18.60
  -1   1  11  262.17   18.60
  -1   1  11  282.67   22.60
  -1   1  11  280.37   19.10
  -1   1  11  252.37   18.10
  -1   1  11  246.98   18.40
   0  -1  11  110.19   10.50
   0  -1  11  103.89   10.70
   0  -1  11  100.19   11.40
   0  -1  11  108.59   11.40
   0   1  11  108.39   12.00
   0   1  11  103.29    8.90
   0   1  11  109.79    8.80
   0   1  11  122.99    9.40
   0   1  11  112.09    9.40
   0   1  11  134.99   11.90
   0   1  11  109.19   11.70
   0   1  11  141.19   10.40
   1  -1  11  358.26   23.50
   1  -1  11  307.47   24.70
   1  -1  11  317.67   25.10
   1  -1  11  297.97   24.60
   1  -1  11  294.27   24.00
   1  -1  11  303.77   24.90
   1   1  11  317.77   23.90
   1   1  11  334.37   22.10
   1   1  11  313.67   25.00
   1   1  11  324.97   26.20
   1   1  11  305.97   25.60
   1   1  11  320.47   21.30
   2  -1  11  375.16   28.10
   2  -1  11  371.86   29.10
   2  -1  11  376.56   29.60
   2  -1  11  431.26   29.10
   2  -1  11  382.26   29.50
   2  -1  11  375.16   29.50
   2   1  11  460.65   30.30
   2   1  11  346.47   31.50
   2   1  11  386.36   27.00
   2   1  11  415.26   32.30
   2   1  11  501.75   33.20
   3  -1  11  266.77   23.10
   3  -1  11  254.47   21.50
   3  -1  11  262.27   21.20
   3  -1  11  267.77   22.80
   3  -1  11  249.78   22.20
   3  -1  11  313.07   22.60
   3   1  11  253.87   23.10
   3   1  11  309.67   22.20
   3   1  11  267.27   24.00
   3   1  11  272.27   18.20
   4  -1  11   40.40    7.20
   4  -1  11   53.79    9.30
   4  -1  11   49.99    8.80
   4   1  11   38.30    8.10
   4   1  11   44.30    8.40
   4   1  11   44.70    7.20
   8  -2 -11    6.90    3.50
  -8  -2  11    4.80    4.40
  -8  -2  11    4.90    3.40
  -8  -2  11    4.20    4.00
   8   2 -11    7.20    3.50
  -8   2  11   11.00    4.10
  -8   2  11    7.40    4.90
  -8   2  11    8.00    4.30
  -7  -2  11   48.40   10.10
  -7  -2  11   64.29    9.10
  -7  -2  11   59.59    8.50
   7  -2 -11   64.39    7.80
  -7  -2  11   47.80    9.10
  -7   2  11   68.89    9.60
  -7   2  11   52.89    8.50
  -7   2  11   49.00    8.70
  -7   2  11   73.89   11.10
  -7   2  11   57.49    9.30
   7   2 -11   54.59    7.00
  -6  -2  11   84.09   10.80
  -6  -2  11   69.89    8.70
   6  -2 -11   80.79    8.40
  -6  -2  11   89.09   11.50
  -6  -2  11   81.49    9.40
  -6   2  11   91.79   10.60
  -6   2  11  112.69   10.90
  -6   2  11   68.19    9.60
  -6   2  11   80.39   11.50
  -6   2  11   78.99   10.30
   6   2 -11   80.89    8.30
   5  -2 -11  138.19   12.40
  -5  -2  11  179.98   16.40
   5  -2 -11  134.99   11.20
  -5  -2  11  123.39   12.70
  -5  -2  11  130.99   12.50
  -5  -2  11  134.29   11.90
  -5   2  11  145.99   14.40
  -5   2  11  172.08   15.50
  -5   2  11  144.19   13.80
  -5   2  11  140.69   15.60
  -5   2  11  150.08   13.50
  -4  -2  11  464.95   35.60
  -4  -2  11  421.16   34.70
  -4  -2  11  472.95   32.30
  -4  -2  11  472.85   33.00
  -4  -2  11  446.16   32.40
  -4   2  11  468.65   35.10
  -4   2  11  535.55   35.80
  -4   2  11  466.95   36.80
  -4   2  11  515.15   38.10
   3  -2 -11  229.68   19.10
  -3  -2  11  242.48   18.80
  -3  -2  11  261.57   19.20
  -3  -2  11  261.37   22.10
  -3  -2  11  262.67   19.30
  -3  -2  11  256.47   21.70
  -3   2  11  278.37   20.20
  -3   2  11  254.97   21.00
  -3   2  11  359.16   25.20
  -3   2  11  269.67   21.40
  -2  -2  11  225.98   20.50
  -2  -2  11  260.27   17.90
  -2  -2  11  268.07   19.20
  -2  -2  11  221.78   20.00
  -2  -2  11  268.67   17.30
  -2  -2  11  248.68   17.80
  -2  -2  11  207.08   17.40
  -2   2  11  233.18   20.30
  -2   2  11  264.17   21.30
  -2   2  11  220.58   18.10
  -2   2  11  249.78   18.30
  -2   2  11  235.78   17.80
  -1  -2  11  293.97   19.70
  -1  -2  11  263.47   19.80
  -1  -2  11  328.87   21.70
  -1  -2  11  261.17   22.80
  -1  -2  11  332.27   22.60
  -1  -2  11  275.87   19.20
  -1   2  11  261.27   20.30
  -1   2  11  304.47   21.80
  -1   2  11  272.67   18.60
  -1   2  11  274.37   23.40
  -1   2  11  297.07   21.30
  -1   2  11  270.27   19.90
  -1   2  11  280.07   23.10
   0  -2  11  477.35   33.20
   0  -2  11  422.96   32.90
   0  -2  11  456.55   31.60
   0  -2  11  436.66   33.80
   0  -2  11  448.16   33.40
   0   2  11  465.15   34.60
   0   2  11  510.35   31.90
   0   2  11  481.05   32.70
   0   2  11  465.95   35.70
   0   2  11  440.16   31.60
   1  -2  11   21.90    5.40
   1  -2  11   17.00    4.40
   1  -2  11   25.00    5.60
   1  -2  11   13.60    3.70
   1  -2  11   18.90    4.80
   1  -2  11   16.10    4.50
   1  -2  11   17.50    4.70
   1   2  11   11.80    3.00
   1   2  11   17.90    3.20
   1   2  11   15.50    2.40
   1   2  11   22.50    5.40
   1   2  11   13.30    4.90
   1   2  11   17.60    5.40
   1   2  11   16.80    3.30
   2  -2  11  146.39   13.40
   2  -2  11  135.69   13.50
   2  -2  11  138.59   13.90
   2  -2  11  127.39   12.40
   2  -2  11  132.59   13.60
   2  -2  11  140.29   13.50
   2  -2  11  154.58   14.30
   2   2  11  139.49   10.40
   2   2  11  137.79   14.40
   2   2  11  148.09   12.30
   2   2  11  135.79   14.30
   2   2  11  137.09   14.10
   3  -2  11  127.79   14.60
   3  -2  11  126.19   13.70
   3  -2  11  187.48   16.30
   3  -2  11  165.88   14.90
   3  -2  11  137.39   13.60
   3  -2  11  185.28   15.00
   3   2  11  130.29   14.10
   3   2  11  136.69   12.30
   3   2  11  129.49   13.90
   3   2  11  127.99    9.70
   4  -2  11  205.18   17.50
   4  -2  11  181.88   16.40
   4  -2  11  166.78   17.50
   4  -2  11  178.18   17.70
   4  -2  11  190.78   17.90
   4   2  11  237.78   22.10
  -8  -3  11  258.87   24.20
   8  -3 -11  277.57   22.00
  -8  -3  11  261.77   21.90
  -7  -3  11   15.30    6.00
   7  -3 -11   23.50    5.10
  -7  -3  11   19.20    4.90
  -7  -3  11   20.40    6.70
  -7  -3  11   27.30    6.50
  -7  -3  11   18.30    4.90
  -7   3  11   25.10    6.70
  -7   3  11    8.60    4.40
  -7   3  11   18.80    5.10
  -7   3  11   19.30    5.30
  -7   3  11   22.90    6.10
  -6  -3  11   14.30    5.40
  -6  -3  11   15.10    4.60
  -6  -3  11   17.80    6.40
  -6  -3  11   19.10    5.30
   6  -3 -11   25.00    4.60
  -6   3  11   19.30    5.60
  -6   3  11   15.30    4.30
  -6   3  11   13.00    4.60
  -6   3  11   20.10    5.80
  -6   3  11   17.90    5.10
  -5  -3  11   65.09    7.70
  -5  -3  11   53.99    8.00
   5  -3 -11   80.99    9.90
  -5  -3  11   64.99   10.10
  -5  -3  11   57.29   10.10
  -5   3  11   53.99    8.30
  -5   3  11   61.59    8.00
  -5   3  11   58.99    7.80
  -5   3  11   59.09    9.10
  -5   3  11   66.99    8.90
   4  -3 -11   53.99    7.30
  -4  -3  11   54.69    7.00
  -4  -3  11   47.40    8.30
  -4  -3  11   42.50    6.30
  -4  -3  11   57.39    9.50
  -4   3  11   62.09    7.50
  -4   3  11   76.89    9.60
  -4   3  11   66.19    8.00
  -4   3  11   49.20    8.80
  -4   3  11   53.99    8.40
  -3  -3  11 1199.68   81.39
  -3  -3  11 1373.86   84.99
  -3  -3  11 1165.28   81.49
  -3  -3  11 1171.08   84.69
  -3  -3  11 1289.17   83.89
  -3   3  11 1247.88   80.49
  -3   3  11 1185.78   80.69
  -3   3  11 1186.08   83.09
  -3   3  11 1232.88   82.89
  -2  -3  11   73.89    7.00
   2  -3 -11  103.39   10.00
  -2  -3  11   71.69    7.40
  -2  -3  11  101.09   11.30
  -2  -3  11   70.29    9.30
  -2  -3  11   72.99    7.10
  -2  -3  11   70.09    6.70
  -2  -3  11   68.59    7.70
  -2   3  11  102.99    9.50
  -2   3  11   76.69   10.70
  -2   3  11  110.89   11.70
  -2   3  11   78.19    8.70
  -2   3  11   92.69    8.70
  -1  -3  11  265.17   17.50
  -1  -3  11  250.77   16.50
  -1  -3  11  290.57   21.10
  -1  -3  11  235.68   21.00
  -1  -3  11  222.08   16.60
  -1  -3  11  206.38   19.60
  -1  -3  11  242.28   18.50
  -1  -3  11  236.18   18.60
  -1   3  11  232.38   19.00
  -1   3  11  251.67   18.20
  -1   3  11  224.18   17.40
  -1   3  11  233.58   20.50
   0  -3  11  217.78   18.70
   0  -3  11  208.98   18.80
   0  -3  11  198.18   18.00
   0  -3  11  229.88   18.00
   0  -3  11  234.88   17.90
   0   3  11  212.48   19.60
   0   3  11  202.78   18.50
   0   3  11  212.08   19.40
   0   3  11  252.37   16.60
   0   3  11  214.28   17.00
   1  -3  11   21.60    5.70
   1  -3  11   21.60    5.40
   1  -3  11   18.50    4.90
   1  -3  11   29.70    5.30
   1  -3  11   33.10    5.80
   1  -3  11   28.50    5.40
   1  -3  11   28.00    5.80
   1   3  11   22.70    5.60
   1   3  11   23.70    4.40
   1   3  11   26.20    3.60
   1   3  11   26.50    5.90
   1   3  11   23.10    5.60
   2  -3  11   77.29    9.90
   2  -3  11   80.09   10.00
   2  -3  11  113.09   11.10
   2  -3  11  109.89   10.90
   2  -3  11   91.79    9.90
   2  -3  11   92.99   10.20
   2  -3  11   83.79   10.50
   2   3  11   96.89   11.40
   2   3  11   77.49   11.00
   2   3  11   82.99    7.50
   2   3  11  113.89   12.80
   3  -3  11   40.80    7.00
   3  -3  11   55.89    8.70
   3  -3  11   57.59    9.00
   3  -3  11   48.40    7.10
   3  -3  11   39.70    7.70
   3  -3  11   45.00    7.10
   3   3  11   38.90    4.40
   3   3  11   48.40    8.80
   3   3  11   35.60    7.30
   4  -3  11  103.19   12.40
   4  -3  11  107.69   12.00
   4  -3  11   77.89   10.40
   4  -3  11   94.79   11.00
   7  -4 -11   71.59    8.40
  -7  -4  11   83.69   11.60
  -7  -4  11   45.40    8.30
  -7  -4  11   59.19    9.20
  -7  -4  11   49.10   10.00
  -7  -4  11   57.49    9.50
  -7   4  11   45.30    8.70
  -7   4  11   72.89   11.10
  -7   4  11   56.39    9.50
  -7   4  11   51.99    8.60
  -7   4  11   64.69    8.50
  -6  -4  11  347.77   25.40
   6  -4 -11  300.57   23.40
  -6  -4  11  317.87   25.40
  -6  -4  11  283.97   24.70
  -6  -4  11  295.77   26.70
  -6  -4  11  317.57   27.80
  -6   4  11  289.77   24.90
  -6   4  11  285.77   23.40
  -6   4  11  288.37   25.50
  -6   4  11  299.37   23.80
  -6   4  11  281.37   24.00
   5  -4 -11  130.59   11.30
  -5  -4  11  121.39   14.00
  -5  -4  11  119.59   12.30
  -5  -4  11  118.49   13.00
  -5  -4  11  119.69   14.20
  -5  -4  11  165.98   13.90
  -5   4  11  185.48   17.00
  -5   4  11  173.98   14.80
  -5   4  11  126.09   14.60
  -5   4  11  125.79   13.20
  -4  -4  11  292.07   23.10
  -4  -4  11  282.17   25.10
  -4  -4  11  300.67   23.80
   4  -4 -11  319.97   21.80
  -4  -4  11  344.07   25.40
  -4  -4  11  285.47   26.00
  -4   4  11  292.97   23.80
  -4   4  11  248.38   21.10
  -4   4  11  271.67   23.30
  -4   4  11  273.77   21.10
  -3  -4  11   37.50    7.10
  -3  -4  11   42.50    6.00
  -3  -4  11   39.80    8.10
  -3  -4  11   41.70    7.70
  -3  -4  11   56.29    6.10
  -3   4  11   54.29    6.80
  -3   4  11   47.80    6.30
  -3   4  11   43.20    5.90
  -3   4  11   59.49    9.40
  -3   4  11   44.60    8.30
  -2  -4  11  201.48   16.80
  -2  -4  11  260.37   17.00
  -2  -4  11  246.58   16.70
  -2  -4  11  202.18   19.80
  -2  -4  11  203.28   18.90
  -2  -4  11  200.88   19.00
  -2   4  11  195.08   16.20
  -2   4  11  201.98   18.50
  -2   4  11  194.78   15.60
  -1  -4  11  130.79   14.60
  -1  -4  11  144.19   14.20
  -1  -4  11  129.49   13.30
  -1  -4  11  145.19   10.70
  -1  -4  11  159.48   12.60
  -1   4  11  146.19   14.10
  -1   4  11  140.89   15.30
  -1   4  11  160.88   12.80
  -1   4  11  176.88   13.80
  -1   4  11  144.59   15.30
   0  -4  11   33.10    5.80
   0  -4  11   29.70    6.60
   0  -4  11   32.90    5.30
   0  -4  11   29.60    5.30
   0  -4  11   31.40    6.50
   0  -4  11   34.10    6.70
   0   4  11   38.60    7.60
   0   4  11   34.30    5.70
   0   4  11   46.70    8.20
   0   4  11   37.70    6.70
   0   4  11   33.00    4.50
   1  -4  11   51.49    6.70
   1  -4  11   60.89    8.80
   1  -4  11   50.19    8.20
   1  -4  11   51.09    7.40
   1  -4  11   48.10    6.50
   1  -4  11   39.10    7.50
   1  -4  11   52.79    7.00
   1   4  11   52.69    8.00
   1   4  11   67.89    9.60
   1   4  11   46.00    6.40
   1   4  11   50.89    8.10
   1   4  11   58.89    6.10
   2  -4  11  156.08   15.40
   2  -4  11  170.48   16.90
   2  -4  11  158.08   15.40
   2  -4  11  194.38   16.10
   2  -4  11  156.28   15.20
   2  -4  11  178.78   15.40
   2  -4  11  162.88   14.80
   2   4  11  170.38   17.50
   2   4  11  190.48   18.30
   2   4  11  184.28   17.80
   2   4  11  192.48   14.40
   3  -4  11   32.50    6.20
   3  -4  11   37.30    7.50
   3  -4  11   32.70    7.10
   3  -4  11   30.50    6.30
   3  -4  11   28.50    6.10
   3   4  11   26.40    4.00
   3   4  11   19.40    7.10
   3   4  11   18.50    6.30
  -7  -5  11  166.28   17.90
   7  -5 -11  159.88   14.50
  -7  -5  11  166.28   16.30
  -7   5  11  228.18   22.20
   6  -5 -11  117.49   11.90
  -6  -5  11  125.49   12.90
  -6  -5  11  127.09   13.70
  -6  -5  11  136.99   15.80
  -6  -5  11  117.29   13.00
  -6  -5  11  162.98   16.70
  -6   5  11  162.38   16.20
  -6   5  11  141.49   14.00
  -6   5  11  123.19   14.60
  -6   5  11  149.19   14.70
  -6   5  11  121.59   13.40
   5  -5 -11   60.69    7.10
  -5  -5  11   54.29   10.00
  -5  -5  11   61.79    8.50
  -5  -5  11   51.49    7.20
  -5  -5  11   52.49   10.10
  -5  -5  11   57.89    8.90
  -5   5  11   69.89    8.70
  -5   5  11   48.90    9.30
  -5   5  11   56.19    9.60
  -5   5  11   51.09    7.20
  -4  -5  11  125.89   12.00
   4  -5 -11  113.59   10.10
  -4  -5  11  105.19   10.70
  -4  -5  11  128.19   13.20
  -4  -5  11  106.89   12.50
  -4  -5  11  127.19   14.20
  -4   5  11  124.79   12.20
  -4   5  11  128.19   14.10
  -4   5  11  105.69   12.40
  -4   5  11  110.09   11.10
  -3  -5  11  101.19   12.20
  -3  -5  11  113.29   12.50
  -3  -5  11  122.19   11.30
  -3  -5  11  105.29   10.50
  -3  -5  11  136.59   14.60
  -3   5  11  108.79   12.50
  -3   5  11  108.29   10.90
  -3   5  11  150.68   12.80
  -3   5  11  115.99   13.70
  -3   5  11  110.69   11.20
  -2  -5  11    0.80    2.20
  -2  -5  11    1.30    2.10
  -2  -5  11   -1.10    2.20
  -2  -5  11    0.60    1.60
  -2  -5  11    0.70    3.70
  -2   5  11    0.20    1.40
  -2   5  11   -0.30    2.20
  -2   5  11    0.50    2.60
  -2   5  11   -1.40    3.30
  -2   5  11   -1.00    3.10
  -1  -5  11  116.79    9.60
  -1  -5  11  115.79   12.00
  -1  -5  11  169.18   14.60
  -1  -5  11  121.39   13.80
  -1   5  11  111.49   11.20
  -1   5  11  140.29   13.00
  -1   5  11  115.59   13.20
  -1   5  11  105.49   12.80
  -1   5  11  122.19   10.90
   0  -5  11  124.09    8.50
   0  -5  11  121.39   13.20
   0  -5  11  130.79   12.00
   0  -5  11  107.29   13.20
   0  -5  11  122.09   13.40
   0   5  11  137.29   13.10
   0   5  11  151.58   12.40
   0   5  11  141.89   15.00
   0   5  11  156.08   15.30
   0   5  11  130.49   14.30
   1  -5  11  284.57   25.10
   1  -5  11  312.07   24.50
   1  -5  11  282.17   24.10
   1   5  11  281.67   25.10
   1   5  11  305.07   26.10
   1   5  11  293.27   23.30
   1   5  11  268.97   24.70
   1   5  11  356.46   22.70
   2  -5  11   53.89    9.60
   2  -5  11   60.69    8.50
   2  -5  11   52.69    8.50
   2  -5  11   64.59    7.90
   2   5  11   55.39    6.50
   2   5  11   56.19    8.90
   2   5  11   64.69    7.90
   2   5  11   55.69    9.40
   2   5  11   64.99    9.30
   3  -5  11   27.90    6.50
   3  -5  11   25.50    5.90
   3  -5  11   27.90    7.00
   3  -5  11   22.40    6.40
   3   5  11   23.70    4.30
   3   5  11   17.70    9.10
  -6  -6  11  263.47   23.30
  -6  -6  11  269.77   24.60
   6  -6 -11  264.97   21.30
  -6  -6  11  279.77   23.30
  -6   6  11  226.98   24.40
  -6   6  11  293.27   24.00
  -6   6  11  352.46   26.70
  -5  -6  11   89.19   11.90
  -5  -6  11  108.59   11.40
  -5  -6  11   68.09   10.80
   5  -6 -11   80.29    9.00
  -5  -6  11   84.89   10.20
  -5  -6  11  103.99   13.60
  -5   6  11  128.69   11.90
  -5   6  11   86.19   11.10
  -5   6  11  104.39   12.70
  -5   6  11   86.39   12.60
  -4  -6  11   44.70    8.10
  -4  -6  11   51.29    7.50
  -4  -6  11   40.70    6.60
  -4  -6  11   51.69    9.60
   4  -6 -11   44.20    6.10
  -4  -6  11   42.20    8.20
  -4   6  11   54.39    8.30
  -4   6  11   34.50    7.60
  -4   6  11   36.00    7.80
  -4   6  11   38.10    6.60
  -3  -6  11   50.69    8.70
  -3  -6  11   61.49   10.80
  -3  -6  11   45.30    6.30
  -3  -6  11   40.00    7.00
  -3  -6  11   53.69    8.10
  -3   6  11   40.20    6.90
  -3   6  11   39.70    6.50
  -3   6  11   44.40    8.40
  -3   6  11   41.70    8.60
  -3   6  11   51.79    7.90
  -2  -6  11   22.80    5.90
  -2  -6  11   22.00    5.50
  -2  -6  11   19.90    5.10
  -2  -6  11   22.20    4.00
  -2  -6  11   30.90    7.80
  -2   6  11   22.10    5.10
  -2   6  11   20.00    5.40
  -2   6  11   25.20    4.90
  -2   6  11   23.40    6.20
  -2   6  11   30.20    6.90
  -1  -6  11   14.90    5.20
  -1  -6  11   21.50    3.30
  -1  -6  11   16.20    5.40
  -1   6  11   28.50    6.90
  -1   6  11   18.80    5.30
  -1   6  11   17.70    4.30
  -1   6  11   28.70    5.60
  -1   6  11   15.50    4.60
   0  -6  11  118.49   13.60
   0  -6  11   83.39   10.60
   0  -6  11   93.79    7.30
   0  -6  11   87.49   11.60
   0   6  11   98.09   12.00
   0   6  11   70.09   10.00
   0   6  11   74.19    8.40
   0   6  11  101.19   10.10
   1  -6  11   38.20    7.30
   1  -6  11   40.50    7.70
   1  -6  11   40.80    8.20
   1   6  11   41.50    8.30
   1   6  11   42.30    8.30
   1   6  11   47.80    8.90
   1   6  11   48.80    7.60
   1   6  11   45.00    5.70
   2  -6  11  210.48   21.70
   2  -6  11  231.88   19.10
   2  -6  11  163.38   16.80
   2   6  11  179.98   16.10
   2   6  11  171.28   18.00
  -5  -7  11   18.30    5.80
  -5  -7  11   16.60    5.70
   5  -7 -11   17.80    4.50
  -5  -7  11   25.30    6.10
  -5   7  11   19.90    6.00
  -4  -7  11   61.79    8.00
   4  -7 -11   57.49    6.80
  -4  -7  11   56.69    8.40
  -4  -7  11   33.60    7.60
  -4  -7  11   68.39   12.00
  -4   7  11   59.49    8.00
  -4   7  11   45.50    9.20
  -4   7  11   46.50    8.70
  -4   7  11   52.59    8.60
  -3  -7  11   58.09    7.30
  -3  -7  11   56.29    9.60
  -3  -7  11   53.49    8.00
  -3  -7  11   70.19   11.50
  -3   7  11   44.80    8.50
  -3   7  11   60.29    8.60
  -3   7  11   59.59   10.00
  -3   7  11   60.69    8.00
  -2  -7  11  120.29   14.40
  -2  -7  11  110.89   12.60
  -2  -7  11  113.49   10.50
  -2   7  11  123.59   12.60
  -2   7  11  100.89   10.70
  -2   7  11  121.59   13.70
  -2   7  11  112.39   12.80
  -2   7  11  112.09   12.40
  -1  -7  11  259.77   23.80
  -1  -7  11  254.57   23.00
  -1  -7  11  243.28   23.80
  -1  -7  11  293.07   19.60
  -1   7  11  273.47   24.00
  -1   7  11  325.77   23.70
  -1   7  11  258.07   21.80
  -1   7  11  273.77   24.60
   0  -7  11   45.80    8.90
   0  -7  11   49.99    9.10
   0  -7  11   51.19    9.10
   0  -7  11   56.79    5.20
   0   7  11   56.69    8.20
   0   7  11   62.79    9.20
   0   7  11   65.39   12.10
   0   7  11   59.19    8.50
   0   7  11   76.19   10.40
   1  -7  11    7.00    4.70
   1  -7  11   15.90    5.80
   1   7  11   10.10    4.30
  -3  -8  11   45.90    8.10
  -3   8  11   33.50    7.50
  -2  -8  11   19.30    6.70
  -2  -8  11   20.20    4.20
  -2   8  11   34.00    7.30
  -2   8  11   22.70    6.30
  -1  -8  11   38.60    5.10
  -1  -8  11   54.19    9.70
  -1   8  11   39.00    8.00
  -1   8  11   31.60    6.80
  -1   8  11   29.10    6.70
  -8   0  12  232.48   21.80
  -7   0  12    4.30    4.40
  -7   0  12    6.80    3.90
  -7   0  12    0.00    2.50
  -7   0  12    5.80    3.50
  -6   0  12    3.20    3.60
  -6   0  12    0.20    2.40
  -6   0  12    0.80    2.50
  -6   0  12    3.50    2.80
  -6   0  12    1.50    2.30
  -5   0  12   23.90    5.30
  -5   0  12   24.00    5.90
  -5   0  12   26.00    6.70
  -5   0  12   31.90    6.10
  -5   0  12   28.40    5.30
  -4   0  12  417.46   33.60
  -4   0  12  402.86   32.80
  -4   0  12  415.26   30.50
  -4   0  12  405.36   31.30
  -4   0  12  470.85   31.40
  -3   0  12  193.68   15.80
  -3   0  12  192.58   15.60
  -3   0  12  199.78   18.30
  -3   0  12  186.38   18.00
  -3   0  12  230.98   17.70
  -2   0  12  187.18   12.90
  -2   0  12  167.78   15.40
  -2   0  12  196.48   13.70
  -2   0  12  169.78   13.70
  -2   0  12  165.08   16.20
  -2   0  12  163.78   13.40
  -2   0  12  168.58   16.30
  -1   0  12    6.20    3.60
  -1   0  12    5.00    3.20
  -1   0  12    5.10    1.80
  -1   0  12    4.70    1.50
  -1   0  12    5.40    2.40
  -1   0  12    4.80    3.60
  -1   0  12    5.40    1.90
   0   0  12  334.97   26.90
   0   0  12  324.77   26.80
   0   0  12  334.07   21.70
   0   0  12  324.47   26.10
   0   0  12  320.67   25.10
   0   0  12  342.17   21.80
   1   0  12   -0.50    2.80
   1   0  12    1.60    2.40
   1   0  12    1.50    1.70
   1   0  12    1.80    2.40
   1   0  12    1.50    2.80
   1   0  12   -0.20    2.10
   2   0  12  199.78   17.00
   2   0  12  187.38   18.30
   2   0  12  188.98   16.40
   2   0  12  216.18   19.00
   2   0  12  258.67   20.00
   3   0  12    1.00    3.50
   3   0  12    1.30    3.40
   3   0  12    0.70    2.20
   3   0  12    3.10    3.60
   8  -1 -12  166.58   16.60
  -8  -1  12  186.38   18.60
  -8   1  12  207.78   19.70
  -7  -1  12   95.49   11.50
  -7  -1  12  117.09   14.90
  -7  -1  12  114.79   12.20
  -7  -1  12  110.29   13.00
  -7   1  12  117.29   13.20
  -7   1  12  109.49   13.40
  -7   1  12  113.09   12.90
  -7   1  12  122.39   13.00
  -7   1  12  146.39   16.00
  -6  -1  12  121.79   14.00
  -6  -1  12  130.99   12.40
  -6  -1  12  120.49   12.70
  -6  -1  12  141.89   15.70
  -6  -1  12  119.09   12.50
  -6   1  12  126.29   13.00
  -6   1  12  151.78   14.50
  -6   1  12  113.49   11.90
  -6   1  12  105.19   13.60
  -6   1  12  117.99   12.90
  -5  -1  12  165.68   15.40
  -5  -1  12  174.88   18.00
  -5  -1  12  190.98   16.00
  -5  -1  12  187.98   16.60
  -5  -1  12  215.78   19.10
  -5   1  12  201.98   17.30
  -5   1  12  189.98   17.80
  -5   1  12  170.68   15.60
  -5   1  12  170.38   17.80
  -5   1  12  192.28   16.40
  -4  -1  12  169.18   17.60
  -4  -1  12  168.28   14.70
  -4  -1  12  197.48   15.70
  -4  -1  12  178.08   17.10
  -4   1  12  191.18   15.20
  -4   1  12  162.78   17.20
  -4   1  12  177.58   16.20
  -4   1  12  175.48   17.00
  -4   1  12  174.18   15.20
  -3  -1  12  345.07   25.30
  -3  -1  12  340.77   28.40
  -3  -1  12  354.16   25.70
  -3  -1  12  368.76   26.70
  -3   1  12  333.37   27.30
  -3   1  12  340.97   25.00
  -3   1  12  345.47   24.80
  -3   1  12  339.97   26.60
  -2  -1  12  177.58   17.00
  -2  -1  12  178.08   16.90
  -2  -1  12  195.88   13.90
  -2  -1  12  185.48   15.80
  -2  -1  12  170.18   13.90
  -2   1  12  201.68   18.10
  -2   1  12  228.58   15.80
  -2   1  12  190.18   15.70
  -2   1  12  195.68   18.60
  -2   1  12  207.18   18.60
  -1  -1  12   48.80    6.00
  -1  -1  12   38.80    6.80
  -1  -1  12   52.39    8.50
  -1  -1  12   43.30    5.30
  -1  -1  12   49.90    4.30
  -1  -1  12   43.50    7.60
  -1   1  12   36.50    4.80
  -1   1  12   37.60    4.40
  -1   1  12   52.49    6.40
  -1   1  12   38.10    7.50
  -1   1  12   40.40    7.00
   0  -1  12  221.78   15.80
   0  -1  12  169.68   17.10
   0  -1  12  168.98   16.00
   0  -1  12  206.38   17.40
   0  -1  12  224.08   18.50
   0   1  12  173.78   16.90
   0   1  12  183.38   13.10
   0   1  12  223.68   16.70
   0   1  12  161.08   14.50
   0   1  12  190.98   17.20
   1  -1  12   11.80    3.20
   1  -1  12   10.60    3.80
   1  -1  12    9.20    3.80
   1  -1  12   10.00    3.80
   1  -1  12   12.90    4.50
   1  -1  12    9.30    3.70
   1  -1  12   13.30    4.10
   1   1  12    9.70    3.10
   1   1  12   10.80    4.00
   1   1  12   11.30    1.60
   1   1  12   10.00    3.80
   1   1  12   14.50    5.10
   1   1  12    9.00    3.80
   2  -1  12  153.18   13.30
   2  -1  12  141.19   14.70
   2  -1  12  128.49   13.60
   2  -1  12  193.88   15.90
   2  -1  12  154.98   14.80
   2  -1  12  141.19   13.60
   2  -1  12  137.79   14.70
   2   1  12  142.79   14.50
   2   1  12  128.49   14.00
   2   1  12  121.69   13.90
   3  -1  12   12.90    5.20
   3  -1  12   12.30    4.80
   3  -1  12   10.50    3.60
   3  -1  12   10.50    4.00
   3  -1  12    9.90    4.70
   3   1  12    9.80    4.10
   3   1  12    7.40    4.40
   3   1  12   10.90    4.20
  -8  -2  12  209.18   20.70
   8  -2 -12  217.18   18.20
  -7  -2  12   68.59   11.50
  -7  -2  12   72.49    9.00
  -7  -2  12   63.39   11.70
  -7  -2  12   71.39   10.00
  -7   2  12   82.39   10.70
  -7   2  12   80.69   10.70
  -7   2  12  101.59   11.50
  -7   2  12   74.09   11.70
  -7   2  12   57.89    8.60
  -6  -2  12   45.60    9.20
  -6  -2  12   54.99    7.60
  -6  -2  12   46.30    7.90
  -6  -2  12   69.09   10.90
  -6   2  12   54.69    7.60
  -6   2  12   50.39    8.50
  -6   2  12   47.40    9.20
  -6   2  12   41.90    7.20
  -6   2  12   52.39    8.80
  -5  -2  12  165.88   17.30
  -5  -2  12  171.08   14.10
  -5  -2  12  156.38   14.40
  -5  -2  12  165.28   15.00
  -5  -2  12  169.98   17.00
  -5   2  12  178.48   15.30
  -5   2  12  172.38   16.70
  -5   2  12  175.78   16.70
  -5   2  12  169.88   15.50
  -5   2  12  169.58   17.50
  -4  -2  12  195.78   18.40
  -4  -2  12  182.98   15.70
  -4  -2  12  190.98   15.20
  -4  -2  12  168.78   17.10
  -4  -2  12  187.08   15.20
  -4   2  12  189.58   17.60
  -4   2  12  191.88   18.50
  -4   2  12  177.28   16.80
  -4   2  12  195.08   15.90
  -3  -2  12   10.10    3.00
  -3  -2  12   10.50    2.80
  -3  -2  12    9.50    4.10
  -3  -2  12   12.00    4.80
  -3  -2  12   10.70    3.30
  -3   2  12    7.00    3.90
  -3   2  12    9.70    3.40
  -3   2  12    6.60    3.50
  -3   2  12   15.10    3.40
  -3   2  12    8.90    4.60
  -2  -2  12   85.49    8.60
  -2  -2  12   78.79    7.20
  -2  -2  12   72.89    9.60
  -2  -2  12   71.79    9.20
  -2  -2  12   70.19    6.80
  -2   2  12   71.89    7.40
  -2   2  12   69.19    7.60
  -2   2  12   81.59    9.80
  -2   2  12   71.39    9.70
  -2   2  12   90.49    8.30
  -1  -2  12  153.58   10.90
  -1  -2  12  151.78   13.00
  -1  -2  12  178.08   14.30
  -1  -2  12  150.68   15.30
  -1  -2  12  152.28   15.00
  -1   2  12  158.48   13.70
  -1   2  12  139.29   11.80
  -1   2  12  173.58   12.90
  -1   2  12  145.19   14.80
   0  -2  12   25.70    4.80
   0  -2  12   30.00    6.00
   0  -2  12   24.60    6.00
   0  -2  12   22.50    5.10
   0  -2  12   23.20    5.40
   0  -2  12   21.70    4.20
   0   2  12   22.10    3.30
   0   2  12   30.20    5.60
   0   2  12   17.50    5.30
   0   2  12   24.00    6.20
   1  -2  12  163.48   15.00
   1  -2  12  184.38   16.20
   1  -2  12  161.88   14.20
   1  -2  12  160.38   14.90
   1  -2  12  174.08   15.70
   1  -2  12  165.88   15.80
   1  -2  12  152.88   15.20
   1   2  12  185.18   16.90
   1   2  12  147.09   15.90
   1   2  12  150.28   11.90
   1   2  12  207.18   16.70
   2  -2  12  183.08   15.70
   2  -2  12  142.69   14.90
   2  -2  12  142.29   14.00
   2  -2  12  169.38   15.60
   2  -2  12  152.58   13.80
   2  -2  12  145.29   14.50
   2  -2  12  147.89   14.80
   2   2  12  153.68   11.40
   2   2  12  166.88   16.00
   2   2  12  184.68   17.00
   2   2  12  147.29   16.10
   3  -2  12   11.70    4.30
   3  -2  12   16.20    5.00
   3  -2  12   10.30    4.10
   3  -2  12   10.30    3.70
   3  -2  12   12.90    4.60
   3  -2  12   23.30    6.00
   3   2  12   11.70    4.50
   3   2  12   14.80    5.00
   7  -3 -12   82.19    9.20
  -7  -3  12  102.59   13.20
  -7  -3  12   80.19   12.50
  -7  -3  12   84.39   10.70
  -7  -3  12   99.69   11.00
  -7   3  12   86.49   12.10
  -7   3  12   77.59   10.50
  -7   3  12   82.39   11.50
  -7   3  12   96.99   11.60
  -7   3  12   87.19   10.70
  -6  -3  12  212.38   21.30
  -6  -3  12  234.28   21.80
  -6  -3  12  211.18   19.30
  -6  -3  12  232.88   19.80
  -6  -3  12  227.78   19.20
  -6   3  12  221.68   20.20
  -6   3  12  278.07   21.90
  -6   3  12  213.18   19.40
  -6   3  12  210.78   21.30
  -5  -3  12  357.76   24.20
  -5  -3  12  266.97   25.80
  -5  -3  12  303.37   26.50
  -5  -3  12  278.57   23.80
  -5   3  12  293.47   23.40
  -5   3  12  317.27   25.10
  -5   3  12  270.87   22.40
  -5   3  12  279.17   23.80
  -4  -3  12  104.49   12.00
  -4  -3  12  116.99   10.90
  -4  -3  12  121.19   13.60
  -4  -3  12  106.99   11.00
  -4  -3  12  126.19   14.20
  -4   3  12  108.79   10.80
  -4   3  12   98.69   11.80
  -4   3  12  111.09   13.20
  -4   3  12  106.89   12.20
  -4   3  12  135.19   11.90
  -3  -3  12   20.70    4.30
  -3  -3  12   20.80    4.20
  -3  -3  12   22.00    5.60
  -3  -3  12   18.30    4.90
  -3  -3  12   19.30    5.60
  -3  -3  12   16.70    3.60
  -3   3  12   15.60    5.00
  -3   3  12   13.40    4.90
  -3   3  12   17.60    4.00
  -3   3  12   16.90    4.20
  -3   3  12   18.20    4.00
  -2  -3  12   38.50    4.60
  -2  -3  12   37.50    7.40
  -2  -3  12   42.80    8.30
  -2  -3  12   38.40    6.90
  -2  -3  12   39.20    5.50
  -2   3  12   40.20    7.80
  -2   3  12   43.30    6.10
  -2   3  12   40.40    7.70
  -2   3  12   40.30    5.80
  -2   3  12   45.80    5.50
  -1  -3  12  241.38   17.50
  -1  -3  12  211.98   15.10
  -1  -3  12  195.68   18.90
  -1  -3  12  218.38   20.20
  -1  -3  12  273.97   20.40
  -1  -3  12  226.88   17.90
  -1   3  12  215.28   20.50
  -1   3  12  207.38   20.00
  -1   3  12  279.27   17.90
  -1   3  12  209.48   17.90
  -1   3  12  245.18   19.40
   0  -3  12  201.58   17.40
   0  -3  12  141.09   13.60
   0  -3  12  188.28   14.90
   0  -3  12  157.88   15.10
   0  -3  12  144.39   15.50
   0  -3  12  167.18   15.70
   0   3  12  163.98   12.40
   0   3  12  141.69   15.30
   0   3  12  151.08   13.30
   0   3  12  168.98   16.40
   0   3  12  169.58   15.20
   1  -3  12  116.69   12.90
   1  -3  12  138.79   13.40
   1  -3  12  135.49   13.60
   1  -3  12  136.59   12.50
   1  -3  12  122.99   12.70
   1  -3  12  126.19   13.40
   1  -3  12  154.18   13.30
   1   3  12  142.79   10.90
   1   3  12  155.78   14.80
   1   3  12  125.89   14.00
   1   3  12  121.59   14.30
   2  -3  12  297.97   24.40
   2  -3  12  280.77   23.80
   2  -3  12  317.97   24.30
   2  -3  12  281.47   23.80
   2  -3  12  308.97   23.20
   2   3  12  324.87   27.20
   2   3  12  307.07   26.90
   2   3  12  309.57   22.70
   2   3  12  402.06   29.00
   3  -3  12  105.49   11.70
   3  -3  12   84.59    9.70
   3  -3  12   79.59   10.50
   3  -3  12   83.19   10.30
   3  -3  12   72.69   12.30
   3   3  12   87.29   12.10
  -7  -4  12    2.90    3.00
   7  -4 -12    5.30    3.00
  -7  -4  12    8.70    3.80
  -7  -4  12    4.20    4.30
  -7   4  12    6.90    3.70
  -7   4  12    5.70    5.20
  -7   4  12   10.10    4.00
  -6  -4  12    8.60    3.90
   6  -4 -12   11.40    4.20
  -6  -4  12   14.20    5.30
  -6  -4  12   20.90    5.60
  -6  -4  12   16.90    5.00
  -6  -4  12    7.00    5.00
  -6   4  12   11.10    4.60
  -6   4  12   16.80    4.70
  -6   4  12   20.80    5.70
  -6   4  12   13.20    4.80
  -6   4  12   12.60    5.20
  -5  -4  12   32.80    6.00
  -5  -4  12   29.50    6.00
  -5  -4  12   35.50    8.10
  -5  -4  12   27.40    6.80
  -5  -4  12   26.40    6.40
  -5   4  12   29.10    6.30
  -5   4  12   24.90    5.30
  -5   4  12   26.60    6.70
  -5   4  12   27.10    6.90
  -5   4  12   34.00    6.60
  -4  -4  12   32.40    7.20
  -4  -4  12   47.90    9.40
  -4  -4  12   40.80    6.20
  -4  -4  12   31.70    6.10
  -4  -4  12   37.70    7.40
  -4   4  12   27.30    6.40
  -4   4  12   24.20    5.40
  -4   4  12   31.40    7.10
  -4   4  12   27.20    5.20
  -3  -4  12  418.86   34.00
  -3  -4  12  450.25   30.40
  -3  -4  12  402.36   32.60
  -3  -4  12  435.26   33.40
  -3   4  12  443.66   35.20
  -3   4  12  507.45   35.80
  -3   4  12  586.24   37.00
  -3   4  12  458.05   38.20
  -3   4  12  538.85   39.10
  -2  -4  12   29.70    6.40
  -2  -4  12   30.40    7.20
  -2  -4  12   22.40    5.70
  -2  -4  12   30.80    3.90
  -2   4  12   26.00    6.40
  -2   4  12   32.60    5.80
  -2   4  12   47.60    8.60
  -2   4  12   38.70    5.30
  -2   4  12   29.50    5.50
  -1  -4  12  356.36   24.10
  -1  -4  12  394.56   30.10
  -1  -4  12  345.57   27.90
  -1   4  12  479.55   33.30
  -1   4  12  432.56   28.70
  -1   4  12  348.17   29.90
  -1   4  12  339.17   30.90
  -1   4  12  413.56   29.50
   0  -4  12   61.79    7.40
   0  -4  12   47.10    8.30
   0  -4  12   48.30    7.40
   0  -4  12   46.90    8.30
   0  -4  12   61.79   10.00
   0   4  12   53.09    8.10
   0   4  12   46.00    8.90
   0   4  12   62.99    7.30
   0   4  12   61.49    6.40
   0   4  12   48.60    8.80
   1  -4  12   68.19    8.70
   1  -4  12   76.59    9.80
   1  -4  12   62.99    9.00
   1  -4  12   59.39    8.00
   1  -4  12   67.19    9.40
   1  -4  12   62.99    8.40
   1  -4  12   75.99   10.40
   1   4  12   68.39    9.70
   1   4  12   66.69   10.90
   1   4  12   58.29    9.20
   1   4  12   77.09    7.10
   2  -4  12  109.29   12.00
   2  -4  12  112.59   12.50
   2  -4  12  154.98   13.70
   2  -4  12  138.39   13.60
   2  -4  12  110.69   13.40
   2  -4  12  120.59   12.60
   2   4  12  122.89   15.60
   2   4  12  133.29   14.60
  -6  -5  12   32.80    6.90
  -6  -5  12   42.10    9.60
  -6  -5  12   34.30    6.80
  -6   5  12   26.90    7.10
  -6   5  12   33.30    7.20
  -6   5  12   35.60    8.10
  -6   5  12   24.80    6.00
  -5  -5  12   67.09    8.60
  -5  -5  12   60.49    8.40
  -5  -5  12   66.59   11.20
  -5  -5  12   84.79   10.50
  -5  -5  12   71.09   10.60
  -5   5  12   64.69   10.00
  -5   5  12   80.99   10.20
  -5   5  12   93.69   12.10
  -5   5  12   65.89    8.50
  -5   5  12   80.59    9.80
  -4  -5  12   26.20    5.30
  -4  -5  12   34.60    7.10
  -4  -5  12   42.60    7.00
  -4  -5  12   29.30    7.70
  -4  -5  12   29.60    6.80
  -4   5  12   39.70    7.20
  -4   5  12   31.60    7.00
  -4   5  12   35.30    7.40
  -4   5  12   38.40    6.60
  -3  -5  12    5.30    3.90
  -3  -5  12    5.70    3.20
  -3  -5  12   10.20    4.00
  -3  -5  12   10.60    3.70
  -3  -5  12    8.20    2.80
  -3   5  12    6.70    4.30
  -3   5  12   11.20    3.60
  -3   5  12   14.50    4.10
  -3   5  12    8.80    3.00
  -3   5  12    7.00    4.00
  -2  -5  12  219.18   20.10
  -2  -5  12  239.18   22.00
  -2  -5  12  234.78   21.00
  -2  -5  12  253.77   17.80
  -2   5  12  295.97   20.70
  -2   5  12  264.17   21.70
  -2   5  12  234.08   22.80
  -2   5  12  237.18   22.90
  -2   5  12  274.47   21.50
  -1  -5  12  176.88   18.70
  -1  -5  12  183.58   14.40
  -1  -5  12  243.38   18.80
  -1  -5  12  259.87   20.10
  -1   5  12  179.18   16.90
  -1   5  12  183.18   18.60
  -1   5  12  205.68   15.40
  -1   5  12  178.38   15.90
   0  -5  12  207.58   20.30
   0  -5  12  247.98   21.40
   0  -5  12  242.48   22.10
   0   5  12  221.78   18.20
   0   5  12  219.08   20.50
   0   5  12  283.47   20.10
   0   5  12  233.58   21.70
   1  -5  12   18.50    5.40
   1  -5  12   22.60    5.40
   1  -5  12   17.70    4.80
   1  -5  12   26.10    7.10
   1  -5  12   20.70    5.80
   1   5  12   18.80    6.10
   1   5  12   15.60    3.60
   1   5  12   21.00    5.90
   1   5  12   26.10    6.40
   2  -5  12   33.20    6.60
   2  -5  12   36.70    7.10
   2  -5  12   37.00    8.10
   2  -5  12   36.20    7.10
   2   5  12   46.10    5.60
   2   5  12   42.60    8.60
  -5  -6  12   47.50    9.50
  -5  -6  12   52.89    7.60
  -5  -6  12   80.29   12.70
  -5   6  12   51.09    8.50
  -5   6  12   59.39    9.20
  -4  -6  12   78.19   10.60
  -4  -6  12   73.09   10.40
  -4  -6  12   71.39    8.50
  -4  -6  12   70.69   10.80
  -4  -6  12   65.99    8.20
  -4   6  12   70.49   10.00
  -4   6  12   87.59    9.80
  -4   6  12   71.69   10.30
  -4   6  12  119.19   13.60
  -3  -6  12  282.37   20.30
  -3  -6  12  282.37   22.60
  -3  -6  12  240.28   22.30
  -3  -6  12  218.88   22.90
  -3   6  12  235.28   22.60
  -3   6  12  306.17   23.80
  -3   6  12  249.97   21.30
  -3   6  12  239.18   20.20
  -2  -6  12   17.40    5.60
  -2  -6  12   20.00    3.60
  -2  -6  12   21.30    5.60
  -2   6  12   22.20    5.80
  -2   6  12   22.90    4.80
  -2   6  12   19.40    5.80
  -2   6  12   20.10    5.10
  -2   6  12   28.60    6.10
  -1  -6  12  144.59   15.00
  -1  -6  12  146.99   16.20
  -1  -6  12  142.59   10.90
  -1   6  12  183.08   15.50
  -1   6  12  176.68   14.30
  -1   6  12  157.98   17.40
  -1   6  12  147.19   16.50
  -1   6  12  148.19   15.30
   0  -6  12   47.80    9.20
   0  -6  12   44.10    7.80
   0  -6  12   39.90    8.30
   0   6  12   52.29    7.60
   0   6  12   46.20    6.50
   0   6  12   50.09    9.10
   0   6  12   49.60    8.80
   1  -6  12   72.59    9.80
   1   6  12   78.69    9.30
   1   6  12   77.19   10.50
  -4  -7  12   63.79    9.10
  -4   7  12   89.69   11.80
  -3  -7  12   45.60    6.20
  -3   7  12   44.00    7.90
  -3   7  12   50.59    9.00
  -2  -7  12    6.60    3.90
  -2  -7  12    6.20    2.40
  -2   7  12    4.30    4.20
  -2   7  12    9.20    4.60
  -2   7  12    5.10    2.90
  -1  -7  12    8.10    4.80
  -1  -7  12   10.30    2.50
  -1   7  12   10.00    4.10
  -1   7  12    9.90    4.40
  -7   0  13   34.00    8.00
  -7   0  13   41.50    7.90
  -6   0  13  401.46   31.70
  -6   0  13  457.75   35.60
  -6   0  13  421.66   32.70
  -6   0  13  421.86   32.10
  -5   0  13   13.40    5.10
  -5   0  13   16.40    5.10
  -5   0  13   16.40    4.60
  -5   0  13   16.10    4.00
  -5   0  13   13.60    4.00
  -4   0  13  115.89   12.80
  -4   0  13   93.69    9.80
  -4   0  13   81.29    9.00
  -4   0  13   85.39   10.10
  -4   0  13  102.89   12.60
  -3   0  13   75.09    7.80
  -3   0  13   93.79    9.90
  -3   0  13   64.69    9.60
  -3   0  13   71.79    8.00
  -3   0  13  103.39   11.70
  -2   0  13    7.90    2.10
  -2   0  13    9.90    4.60
  -2   0  13    5.70    3.90
  -2   0  13   10.10    4.10
  -1   0  13   19.10    5.80
  -1   0  13   29.20    5.70
  -1   0  13   27.30    3.10
  -1   0  13   17.90    4.70
  -1   0  13   24.80    6.30
   0   0  13  197.08   16.70
   0   0  13  216.78   19.00
   0   0  13  188.98   17.70
   0   0  13  181.18   18.00
   1   0  13    2.30    2.70
   1   0  13    1.40    2.70
   1   0  13    2.60    2.90
   1   0  13    2.00    3.20
   1   0  13    2.70    4.40
   2   0  13  154.28   15.80
   2   0  13  163.18   14.20
   2   0  13  152.98   15.60
   2   0  13  155.08   15.60
  -7  -1  13   23.50    7.10
  -7  -1  13   27.30    6.30
  -7   1  13   14.50    4.60
  -7   1  13   13.50    5.40
  -7   1  13   25.90    6.30
  -6  -1  13   19.70    5.10
  -6  -1  13   12.60    5.50
  -6  -1  13   21.10    7.00
  -6  -1  13   17.80    5.20
  -6   1  13   12.90    4.50
  -6   1  13   17.70    4.90
  -6   1  13   15.70    5.60
  -6   1  13   13.80    5.70
  -6   1  13   27.60    6.20
  -5  -1  13  291.77   25.20
  -5  -1  13  258.97   21.60
  -5  -1  13  281.27   21.90
  -5  -1  13  276.27   24.90
  -5  -1  13  280.47   22.60
  -5   1  13  279.77   22.50
  -5   1  13  314.87   23.40
  -5   1  13  279.67   23.70
  -5   1  13  273.07   25.20
  -4  -1  13   52.39    9.10
  -4  -1  13   56.59    6.80
  -4  -1  13   65.59    7.60
  -4  -1  13   48.40    9.10
  -4  -1  13   51.99    6.90
  -4   1  13   64.09    9.00
  -4   1  13   53.69    7.00
  -4   1  13   65.19    7.80
  -4   1  13   57.29    7.90
  -4   1  13   54.09    9.40
  -3  -1  13  510.75   42.20
  -3  -1  13  628.44   39.70
  -3  -1  13  551.14   40.40
  -3   1  13  549.05   40.10
  -3   1  13  508.75   40.60
  -3   1  13  615.84   38.40
  -3   1  13  535.15   41.40
  -3   1  13  519.05   38.10
  -2  -1  13  105.79   11.90
  -2  -1  13   73.69   10.10
  -2  -1  13   99.89   10.20
  -2  -1  13   74.89    7.10
  -2   1  13   74.59    7.80
  -2   1  13   77.99   10.10
  -2   1  13   87.19    7.80
  -2   1  13   75.39   10.60
  -2   1  13   84.69   10.40
  -1  -1  13   98.59   12.20
  -1  -1  13  103.79    7.50
  -1  -1  13  100.79   11.50
  -1  -1  13  100.69   11.00
  -1   1  13  100.49    8.30
  -1   1  13  101.49   11.90
  -1   1  13   98.89   12.00
  -1   1  13  100.49   11.70
   0  -1  13   20.70    5.40
   0  -1  13   15.60    4.10
   0  -1  13   23.60    4.10
   0  -1  13   16.50    5.30
   0  -1  13   16.10    4.80
   0   1  13   14.30    2.20
   0   1  13   18.40    5.40
   0   1  13   18.50    4.90
   0   1  13   15.70    5.70
   1  -1  13   86.09   10.90
   1  -1  13   77.79    9.50
   1  -1  13   73.29   10.30
   1  -1  13   77.49    9.80
   1  -1  13   84.99    8.80
   1  -1  13  112.69   10.80
   1  -1  13  110.99   11.60
   1   1  13   85.29   11.10
   1   1  13  109.89   11.30
   1   1  13   71.79   10.20
   2  -1  13    7.30    3.40
   2  -1  13    6.70    3.30
   2  -1  13    9.60    5.20
   2  -1  13    4.30    3.70
   2  -1  13   14.50    4.90
   2  -1  13    7.20    3.40
   2   1  13    8.90    4.50
   2   1  13    7.60    3.50
   2   1  13    6.10    3.50
  -7  -2  13   97.49   13.30
  -7  -2  13   84.99   11.20
  -7   2  13   94.09   11.70
  -7   2  13   65.69   10.30
  -7   2  13   82.39   10.90
  -6  -2  13   45.40    7.70
  -6  -2  13   48.80   10.00
  -6  -2  13   44.30    8.90
  -6  -2  13   50.79    7.00
  -6   2  13   53.39    9.90
  -6   2  13   49.80    7.90
  -6   2  13   63.09    9.70
  -6   2  13   52.29    8.60
  -6   2  13   46.60    8.90
  -5  -2  13   54.79    7.30
  -5  -2  13   54.19    9.70
  -5  -2  13   58.89   10.30
  -5   2  13   59.89    7.80
  -5   2  13   71.89    9.30
  -5   2  13   61.19    9.80
  -5   2  13   65.79    8.40
  -5   2  13   70.39   10.00
  -4  -2  13   34.80    5.50
  -4  -2  13   32.10    7.40
  -4  -2  13   35.90    8.00
  -4  -2  13   38.70    6.20
  -4   2  13   33.70    6.10
  -4   2  13   29.20    5.30
  -4   2  13   34.20    7.70
  -4   2  13   30.90    6.80
  -4   2  13   34.10    7.00
  -3  -2  13  113.59   13.50
  -3  -2  13  138.29   11.90
  -3  -2  13  112.19   10.90
  -3  -2  13  115.69   10.40
  -3  -2  13  131.79   14.20
  -3   2  13  117.29   10.70
  -3   2  13  118.49   11.20
  -3   2  13  110.69   13.70
  -3   2  13  113.59   12.80
  -3   2  13  128.09   13.80
  -2  -2  13  317.27   28.10
  -2  -2  13  359.06   24.90
  -2  -2  13  422.06   30.30
  -2  -2  13  358.06   27.10
  -2   2  13  323.67   25.10
  -2   2  13  372.06   25.00
  -2   2  13  319.47   27.70
  -2   2  13  366.26   28.80
  -1  -2  13   73.49    9.30
  -1  -2  13   74.99    9.90
  -1  -2  13   70.59   10.20
  -1  -2  13   74.99    7.60
  -1  -2  13   65.69    8.40
  -1   2  13   89.69   11.70
  -1   2  13   78.69    9.00
  -1   2  13   91.09    8.00
  -1   2  13  112.59   12.00
   0  -2  13  125.79   13.60
   0  -2  13  114.99   12.20
   0  -2  13  115.09   12.10
   0  -2  13  118.69   11.00
   0  -2  13  136.79   14.00
   0  -2  13  128.19   13.20
   0  -2  13  120.99   11.70
   0   2  13  123.29   10.10
   0   2  13  171.88   15.70
   0   2  13  141.69   14.60
   0   2  13  116.79   12.40
   1  -2  13   45.00    6.10
   1  -2  13   38.20    7.10
   1  -2  13   36.60    6.50
   1  -2  13   27.90    6.40
   1  -2  13   49.40    7.80
   1  -2  13   39.20    7.30
   1  -2  13   34.10    6.60
   1   2  13   49.90    8.30
   1   2  13   35.00    3.80
   1   2  13   51.49    8.80
   1   2  13   27.70    6.60
   2  -2  13   17.30    4.70
   2  -2  13   21.50    5.40
   2  -2  13   19.70    5.60
   2  -2  13   17.80    4.50
   2  -2  13   14.90    5.00
   2  -2  13   25.10    5.80
   2   2  13   18.70    5.30
   2   2  13   14.90    6.30
  -7  -3  13  167.98   16.30
  -7  -3  13  133.59   16.30
  -7   3  13  128.99   14.30
  -6  -3  13  246.78   22.30
  -6  -3  13  238.98   24.70
  -6  -3  13  323.07   24.20
  -6  -3  13  288.67   23.90
  -6  -3  13  314.87   26.70
  -6   3  13  226.28   19.80
  -6   3  13  219.18   19.70
  -6   3  13  230.58   20.70
  -6   3  13  228.08   20.70
  -6   3  13  233.18   21.70
  -5  -3  13   -1.50    2.70
  -5  -3  13   -0.70    2.00
  -5  -3  13    2.50    4.20
  -5  -3  13    1.80    2.90
  -5  -3  13    2.40    3.10
  -5   3  13    0.20    2.60
  -5   3  13    1.80    2.00
  -5   3  13    0.90    3.20
  -5   3  13    1.70    2.80
  -5   3  13    1.30    2.10
  -4  -3  13   93.59   11.40
  -4  -3  13   92.99   11.90
  -4  -3  13  108.09   10.50
  -4  -3  13   91.29    9.50
  -4  -3  13  100.09   13.10
  -4   3  13   98.79   12.50
  -4   3  13   96.49   10.10
  -4   3  13   92.79    9.60
  -4   3  13   92.39   11.70
  -4   3  13   98.79   12.00
  -3  -3  13   99.69   12.10
  -3  -3  13  102.49   12.80
  -3  -3  13  101.59   11.80
  -3  -3  13   87.79    8.70
  -3   3  13   98.89   11.80
  -3   3  13   87.49    9.60
  -3   3  13   91.29   11.60
  -3   3  13   88.59    9.10
  -2  -3  13   81.39   10.20
  -2  -3  13   72.49    6.60
  -2  -3  13   90.59   11.50
  -2  -3  13   63.59    9.60
  -2   3  13   67.09    9.80
  -2   3  13   69.89    9.80
  -2   3  13   74.89    7.60
  -2   3  13   81.49    8.40
  -1  -3  13   80.79   10.70
  -1  -3  13   61.79    8.60
  -1  -3  13   58.19    8.30
  -1   3  13   73.79   10.00
  -1   3  13   61.59   10.40
  -1   3  13   51.29    9.50
  -1   3  13   56.29    6.40
  -1   3  13   62.39    7.60
   0  -3  13  315.17   25.70
   0  -3  13  311.17   24.60
   0  -3  13  323.37   24.10
   0  -3  13  341.97   27.10
   0  -3  13  306.27   25.40
   0   3  13  374.46   24.70
   0   3  13  328.67   27.30
   0   3  13  388.26   29.60
   0   3  13  312.37   28.20
   1  -3  13   95.79   10.50
   1  -3  13   97.59   11.40
   1  -3  13  107.89   12.20
   1  -3  13   90.09   11.30
   1  -3  13   92.49   10.20
   1  -3  13   99.39   12.10
   1  -3  13  121.39   11.80
   1   3  13   88.59   11.90
   1   3  13   99.69   12.60
   1   3  13  125.09   12.80
   2  -3  13   19.70    5.20
   2  -3  13   21.30    5.50
   2  -3  13   16.50    4.60
   2  -3  13   15.10    4.40
   2  -3  13   23.60    5.90
   2  -3  13   12.00    4.80
   2  -3  13   19.80    5.00
   2   3  13   18.90    6.00
  -6  -4  13  266.77   24.70
  -6  -4  13  245.98   21.50
  -6   4  13  248.58   24.50
  -6   4  13  323.47   24.80
  -5  -4  13   81.89   11.60
  -5  -4  13   90.89   10.90
  -5  -4  13   59.39    9.00
  -5  -4  13   62.99   11.40
  -5  -4  13   81.69    9.00
  -5   4  13   54.69    9.70
  -5   4  13   61.89    8.40
  -5   4  13   66.89   11.30
  -5   4  13   78.89    9.50
  -5   4  13   72.89    9.90
  -4  -4  13   50.09    9.60
  -4  -4  13   62.69    8.00
  -4  -4  13   54.39    9.90
  -4  -4  13   68.99    7.60
  -4  -4  13   53.59    9.00
  -4   4  13   57.69    9.40
  -4   4  13   50.69    9.20
  -4   4  13   60.79    7.60
  -3  -4  13   63.59    6.90
  -3  -4  13   66.09   10.20
  -3  -4  13   63.09    9.50
  -3  -4  13   72.49   10.80
  -3   4  13   58.99   10.00
  -3   4  13   56.29    7.60
  -3   4  13   52.89    9.60
  -3   4  13   56.69    6.70
  -2  -4  13   72.39   10.30
  -2  -4  13   44.30    5.00
  -2  -4  13   55.09    9.00
  -2  -4  13   43.90    7.90
  -2   4  13   56.99    6.80
  -2   4  13   40.50    8.70
  -2   4  13   62.29    7.80
  -2   4  13   74.29   10.40
  -1  -4  13   71.89   11.00
  -1  -4  13   85.49   10.30
  -1  -4  13   86.69   10.00
  -1   4  13   75.19    9.10
  -1   4  13  116.49   13.00
  -1   4  13  103.29   12.70
  -1   4  13   88.39    8.70
  -1   4  13  101.69   10.90
   0  -4  13   81.29   10.90
   0  -4  13   83.89    9.80
   0  -4  13   91.69   11.20
   0   4  13   88.19   12.00
   0   4  13   91.39   11.90
   0   4  13   84.09    8.10
   0   4  13   87.39   10.40
   1  -4  13   18.50    5.10
   1  -4  13   21.10    4.80
   1  -4  13   21.70    5.50
   1  -4  13   19.50    6.00
   1   4  13   19.20    3.40
   1   4  13   14.80    5.30
  -5  -5  13  275.47   22.90
  -5  -5  13  270.87   24.60
  -5   5  13  344.07   25.30
  -5   5  13  292.37   25.10
  -5   5  13  254.77   27.10
  -4  -5  13  172.78   18.40
  -4  -5  13  171.58   17.80
  -4  -5  13  180.08   15.10
  -4  -5  13  174.08   17.50
  -4   5  13  254.07   21.00
  -4   5  13  154.98   17.90
  -4   5  13  187.68   16.80
  -4   5  13  214.68   18.00
  -3  -5  13  137.39   14.80
  -3  -5  13  131.09   11.80
  -3  -5  13  134.29   14.60
  -3  -5  13  156.88   16.90
  -3   5  13  167.98   16.80
  -3   5  13  175.58   15.00
  -3   5  13  132.59   13.30
  -3   5  13  142.19   16.00
  -2  -5  13    2.20    1.50
  -2  -5  13    3.40    4.20
  -2  -5  13    1.50    3.00
  -2  -5  13    4.00    4.40
  -2   5  13   -1.50    3.10
  -2   5  13   -2.50    1.60
  -2   5  13    0.50    2.50
  -2   5  13    1.20    3.60
  -1  -5  13    1.10    3.70
  -1  -5  13    2.60    3.00
  -1   5  13    8.50    2.80
  -1   5  13    2.20    2.50
  -1   5  13    4.70    2.40
  -1   5  13    5.70    4.70
  -1   5  13    7.30    4.90
   0  -5  13  151.28   16.30
   0  -5  13  121.39   14.20
   0  -5  13  144.09   15.30
   0   5  13  153.18   14.70
   0   5  13  117.89   11.10
  -4   6  13   80.59   10.10
  -3  -6  13   60.19    6.80
  -3   6  13   58.49    8.60
  -3   6  13   57.79   11.30
  -2  -6  13   56.09   10.40
  -2   6  13   60.19    8.50
  -1  -6  13   13.70    5.00
  -1   6  13   21.30    5.20
  -1   6  13   10.00    4.50
  -6   0  14   -1.40    3.50
  -6   0  14    3.20    3.60
  -5   0  14    7.00    4.60
  -5   0  14    5.00    3.50
  -5   0  14   11.90    4.20
  -5   0  14   12.70    3.60
  -5   0  14    8.80    4.00
  -4   0  14   91.69    9.30
  -4   0  14   90.29   11.50
  -4   0  14  105.69   13.00
  -4   0  14  101.99   10.80
  -4   0  14   66.39    8.50
  -3   0  14    0.80    2.90
  -3   0  14    5.20    3.50
  -3   0  14    0.20    2.60
  -3   0  14    2.60    2.10
  -2   0  14    2.00    3.20
  -2   0  14    0.40    1.40
  -2   0  14   -0.40    1.90
  -2   0  14    3.00    2.90
  -1   0  14  312.67   25.50
  -1   0  14  334.07   26.90
  -1   0  14  320.37   21.20
  -1   0  14  291.77   25.80
   0   0  14  155.48   15.40
   0   0  14  135.89   15.30
   0   0  14  162.88   16.20
   1   0  14   66.79    9.50
   1   0  14   70.89    9.90
   1   0  14   71.59    9.20
   1   0  14   80.59   10.40
  -6  -1  14  123.49   13.90
  -6  -1  14  187.98   20.00
  -6   1  14  106.89   12.30
  -6   1  14  122.39   12.60
  -6   1  14  114.59   13.80
  -5  -1  14   72.69   10.60
  -5  -1  14   76.19    9.50
  -5  -1  14   76.79    8.60
  -5  -1  14   69.19   11.60
  -5   1  14   93.59   10.00
  -5   1  14   82.09   10.70
  -5   1  14   77.09   10.90
  -5   1  14   88.19   10.10
  -5   1  14   87.99   12.60
  -4  -1  14   93.19    9.10
  -4  -1  14   73.89   11.40
  -4  -1  14   84.59    9.80
  -4  -1  14   82.29   11.40
  -4  -1  14   86.29    9.50
  -4   1  14   79.99    8.60
  -4   1  14   76.99   11.50
  -4   1  14  104.79   12.20
  -4   1  14   73.29    9.50
  -4   1  14   71.99    8.90
  -3  -1  14  388.46   26.10
  -3  -1  14  365.96   28.00
  -3  -1  14  333.27   29.70
  -3   1  14  409.86   30.50
  -3   1  14  355.56   30.60
  -3   1  14  424.26   27.80
  -3   1  14  334.67   30.50
  -2  -1  14   45.20    7.60
  -2  -1  14   44.90    8.30
  -2  -1  14   43.80    4.90
  -2  -1  14   63.09    9.90
  -2   1  14   45.60    8.10
  -2   1  14   36.50    4.70
  -2   1  14   40.40    7.90
  -2   1  14   44.50    8.00
  -1  -1  14   16.70    5.50
  -1  -1  14   21.90    5.60
  -1  -1  14   20.90    5.20
  -1   1  14   31.20    6.90
  -1   1  14   21.90    3.00
  -1   1  14   12.30    4.80
  -1   1  14   17.10    5.20
   0  -1  14  174.18   16.50
   0  -1  14  160.28   16.60
   0  -1  14  190.18   16.40
   0  -1  14  159.28   16.30
   0  -1  14  164.78   15.80
   0   1  14  165.38   17.10
   0   1  14  160.48   17.00
   0   1  14  216.48   18.90
   1  -1  14  127.79   12.20
   1  -1  14   76.99   10.60
   1  -1  14  117.39   12.90
   1  -1  14   93.69   12.00
   1   1  14   91.99   11.90
   1   1  14   93.19   11.20
   1   1  14  107.99   12.50
  -6  -2  14   65.09    9.20
  -6   2  14   77.59   11.00
  -6   2  14   69.59    9.10
  -6   2  14   60.49    9.00
  -5  -2  14  411.96   28.50
  -5  -2  14  342.97   30.50
  -5  -2  14  335.17   27.00
  -5  -2  14  349.17   30.70
  -5   2  14  337.37   29.40
  -5   2  14  331.17   26.50
  -5   2  14  340.07   27.70
  -5   2  14  323.57   27.90
  -5   2  14  334.27   25.80
  -4  -2  14   47.60    6.10
  -4  -2  14   31.50    8.00
  -4  -2  14   42.00    8.60
  -4   2  14   47.50    8.10
  -4   2  14   39.10    6.70
  -4   2  14   50.19    6.70
  -4   2  14   55.69    9.50
  -4   2  14   31.20    7.80
  -3  -2  14  127.99   15.30
  -3  -2  14  169.28   16.60
  -3   2  14  123.69   11.50
  -3   2  14  167.98   15.10
  -3   2  14  127.89   14.50
  -3   2  14  109.29   11.00
  -2  -2  14   77.39   10.50
  -2  -2  14   80.59   10.60
  -2  -2  14   74.19    6.60
  -2   2  14   77.49   10.50
  -2   2  14   73.39   10.20
  -2   2  14   69.09    9.90
  -1  -2  14   88.39   11.20
  -1  -2  14   99.49   10.70
  -1  -2  14   92.49   12.20
  -1  -2  14  104.69   12.20
  -1   2  14   98.19   12.30
  -1   2  14  103.09   12.40
   0  -2  14  157.18   15.40
   0  -2  14  159.58   15.70
   0  -2  14  156.68   16.10
   0  -2  14  156.98   15.00
   0  -2  14  151.78   15.60
   0   2  14  159.58   17.00
   0   2  14  171.28   16.90
   0   2  14  156.58   11.90
   1  -2  14  106.99   12.90
   1  -2  14   99.69   12.40
   1  -2  14  139.29   13.00
   1  -2  14   93.49   11.30
   1   2  14   99.89   11.90
  -6  -3  14   68.39    9.70
  -6   3  14   55.09    8.40
  -6   3  14   71.39   10.40
  -6   3  14   75.19   10.60
  -5  -3  14    1.90    2.60
  -5  -3  14   -1.60    2.60
  -5  -3  14    1.00    3.80
  -5   3  14    0.20    2.20
  -5   3  14    3.00    3.20
  -5   3  14   -0.40    3.40
  -4  -3  14  227.88   22.10
  -4  -3  14  221.08   21.30
  -4  -3  14  228.18   20.80
  -4  -3  14  224.78   17.90
  -4   3  14  219.08   20.80
  -4   3  14  239.18   18.90
  -4   3  14  239.78   19.50
  -4   3  14  222.48   21.80
  -3  -3  14  156.08   15.40
  -3  -3  14  154.08   16.60
  -3   3  14  164.58   17.40
  -3   3  14  158.38   15.70
  -3   3  14  196.48   18.50
  -3   3  14  234.98   20.30
  -3   3  14  199.58   15.60
  -2  -3  14  163.38   17.70
  -2  -3  14  191.68   17.60
  -2  -3  14  156.98   16.00
  -2   3  14  172.58   17.40
  -2   3  14  140.09   16.30
  -2   3  14  175.08   13.70
  -1  -3  14   17.00    4.80
  -1  -3  14   23.40    6.50
  -1  -3  14   22.40    5.60
  -1  -3  14   20.60    6.30
  -1   3  14   17.20    3.30
  -1   3  14   17.80    6.10
  -1   3  14   13.80    4.80
   0  -3  14  105.59   13.60
   0  -3  14  138.59   14.50
   0  -3  14  128.19   13.30
   0  -3  14  109.19   12.50
   0   3  14  102.29   14.30
   0   3  14   96.99    8.60
  -5  -4  14   47.90    9.30
  -5   4  14   53.19   10.60
  -5   4  14   50.89    7.50
  -4  -4  14   35.10    7.50
  -4  -4  14   32.20    5.50
  -4   4  14   33.90    7.30
  -4   4  14   43.20    8.10
  -4   4  14   38.10    6.80
  -3  -4  14  335.87   29.20
  -3  -4  14  322.47   27.10
  -3   4  14  343.77   31.30
  -3   4  14  302.57   25.20
  -3   4  14  356.76   25.30
  -2  -4  14   38.10    8.70
  -2  -4  14   36.00    7.80
  -2  -4  14   43.60    9.20
  -2   4  14   29.20    6.70
  -2   4  14   43.80    5.70
  -2   4  14   34.40    7.50
  -1  -4  14   53.99   10.10
  -1  -4  14   68.59    9.40
  -1   4  14   65.09    7.10
   0  -4  14   74.89   10.50
   0  -4  14   56.39   10.10
   0  -4  14   56.19    7.70
   0   4  14   59.89    6.40
  -3  -5  14   59.59    9.00
  -3  -5  14   67.09    7.00
  -3   5  14   57.59    8.20
  -2   5  14  172.68   15.70
  -5   0  15   22.80    5.60
  -4   0  15  106.09   10.40
  -4   0  15  115.99   12.40
  -3   0  15  236.78   18.20
  -3   0  15  242.98   20.60
  -2   0  15   44.30    8.90
  -2   0  15   40.90    7.80
  -2   0  15   46.60    5.00
  -1   0  15    3.40    3.10
  -1   0  15    4.20    2.90
  -5   1  15  157.88   15.70
  -5   1  15  144.59   14.00
  -4  -1  15   76.69   11.30
  -4  -1  15   78.09    8.30
  -4   1  15   78.89   10.00
  -4   1  15   86.49    9.00
  -3  -1  15  222.18   16.80
  -3  -1  15  218.18   20.80
  -3   1  15  219.88   20.70
  -3   1  15  251.47   18.50
  -2  -1  15   47.10    5.00
  -2  -1  15   52.29    9.00
  -2   1  15   60.79    8.70
  -2   1  15   52.29    5.90
  -1  -1  15   45.40    8.80
  -1  -1  15   43.50    7.40
  -1   1  15   56.09    9.40
  -5   2  15   11.80    4.50
  -5   2  15    5.50    4.30
  -4  -2  15   27.70    7.10
  -4  -2  15   22.50    4.40
  -4   2  15   23.80    6.20
  -3  -2  15  123.29   14.60
  -3   2  15  118.79   13.50
  -3   2  15  131.09   11.50
  -2  -2  15   97.39   11.90
  -2   2  15  100.09   12.50
  -1  -2  15   99.49   12.00
  -1   2  15   90.49   11.30
  -4  -3  15   94.89    9.90
  -4  -3  15  121.99   14.20
  -4   3  15   99.19   12.40
  -4   3  15   96.59   10.70
  -3  -3  15   14.00    5.60
  -3  -3  15   10.10    2.50
  -3   3  15    9.60    4.30
  -2  -3  15    4.50    3.20
  -2   3  15    6.80    2.80
  -2   3  15    7.20    4.60
   0   0   0    0.00    0.00

_computing_structure_solution     'SHELXT 2014/5 (Sheldrick, 2014)'
;
_shelx_hkl_checksum              73076
_olex2_submission_special_instructions 'No special instructions were received'
loop_
_space_group_symop_operation_xyz
'x, y, z'
'-x, y+1/2, -z'
loop_
_atom_site_label
_atom_site_type_symbol
_atom_site_fract_x
_atom_site_fract_y
_atom_site_fract_z
_atom_site_U_iso_or_equiv
_atom_site_adp_type
_atom_site_occupancy
_atom_site_site_symmetry_order
_atom_site_calc_flag
_atom_site_refinement_flags_posn
Cl1 Cl 0.10823(6) 0.30654(6) 0.32532(4) 0.02425(12) Uani 1 1 d .
O1 O 0.09644(19) 0.37364(16) 0.05381(12) 0.0199(3) Uani 1 1 d .
O2 O 0.6786(2) 0.68861(16) 0.10046(12) 0.0192(3) Uani 1 1 d D
H2 H 0.709(4) 0.783(3) 0.130(2) 0.035(7) Uiso 1 1 d D
N1 N 0.3939(2) 0.20403(18) 0.15135(15) 0.0157(3) Uani 1 1 d D
H1A H 0.289(3) 0.158(3) 0.165(2) 0.018(6) Uiso 1 1 d D
H1B H 0.505(3) 0.150(3) 0.180(2) 0.022(6) Uiso 1 1 d D
H1C H 0.369(4) 0.200(3) 0.0686(18) 0.026(6) Uiso 1 1 d D
C1 C 0.3447(3) 0.3534(2) 0.39454(17) 0.0188(4) Uani 1 1 d .
C2 C 0.4003(3) 0.3647(3) 0.51817(18) 0.0258(4) Uani 1 1 d .
H2A H 0.310783 0.351614 0.560637 0.031 Uiso 1 1 calc R
C3 C 0.5897(3) 0.3955(3) 0.57864(18) 0.0275(5) Uani 1 1 d .
H3 H 0.629847 0.404843 0.662961 0.033 Uiso 1 1 calc R
C4 C 0.7184(3) 0.4125(3) 0.51617(19) 0.0272(5) Uani 1 1 d .
H4 H 0.848023 0.430917 0.557663 0.033 Uiso 1 1 calc R
C5 C 0.6596(3) 0.4028(2) 0.39277(17) 0.0216(4) Uani 1 1 d .
H5 H 0.750215 0.415292 0.351042 0.026 Uiso 1 1 calc R
C6 C 0.4700(3) 0.3752(2) 0.32805(16) 0.0160(3) Uani 1 1 d .
C7 C 0.4082(3) 0.3674(2) 0.19166(16) 0.0143(3) Uani 1 1 d .
C8 C 0.2158(3) 0.4436(2) 0.12969(16) 0.0156(3) Uani 1 1 d .
C9 C 0.2056(3) 0.6122(2) 0.15424(18) 0.0187(4) Uani 1 1 d .
H9A H 0.237584 0.630763 0.241009 0.022 Uiso 1 1 calc R
H9B H 0.076413 0.651692 0.115211 0.022 Uiso 1 1 calc R
C10 C 0.3504(3) 0.6928(2) 0.10325(17) 0.0186(4) Uani 1 1 d .
H10A H 0.310285 0.681018 0.015536 0.022 Uiso 1 1 calc R
H10B H 0.353734 0.803848 0.121684 0.022 Uiso 1 1 calc R
C11 C 0.5483(3) 0.6248(2) 0.15584(16) 0.0163(3) Uani 1 1 d .
H11 H 0.594084 0.646250 0.243317 0.020 Uiso 1 1 calc R
C12 C 0.5458(3) 0.4511(2) 0.13538(16) 0.0154(3) Uani 1 1 d .
H12A H 0.675240 0.409823 0.170394 0.018 Uiso 1 1 calc R
H12B H 0.506820 0.430312 0.048696 0.018 Uiso 1 1 calc R
Cl2 Cl 0.75077(6) 0.99800(5) 0.23260(4) 0.01964(11) Uani 1 1 d .
O1S O 0.12099(18) -0.00020(18) 0.16143(12) 0.0196(3) Uani 1 1 d D
H1SA H 0.066(4) -0.038(3) 0.090(2) 0.033(7) Uiso 1 1 d D
H1SB H 0.029(4) 0.015(4) 0.196(3) 0.055(9) Uiso 1 1 d D
loop_
_atom_site_aniso_label
_atom_site_aniso_U_11
_atom_site_aniso_U_22
_atom_site_aniso_U_33
_atom_site_aniso_U_23
_atom_site_aniso_U_13
_atom_site_aniso_U_12
Cl1 0.0185(2) 0.0357(3) 0.0206(2) -0.0035(2) 0.00902(17) -0.0041(2)
O1 0.0185(6) 0.0207(7) 0.0180(6) 0.0007(5) 0.0016(5) 0.0001(5)
O2 0.0232(7) 0.0179(6) 0.0190(6) -0.0007(5) 0.0100(5) -0.0043(6)
N1 0.0175(8) 0.0148(8) 0.0149(7) -0.0011(6) 0.0051(6) 0.0001(6)
C1 0.0191(9) 0.0195(9) 0.0172(9) -0.0023(7) 0.0047(7) -0.0008(7)
C2 0.0310(11) 0.0302(10) 0.0177(9) -0.0014(8) 0.0096(8) -0.0026(9)
C3 0.0354(12) 0.0306(11) 0.0128(9) -0.0003(8) 0.0017(8) -0.0035(9)
C4 0.0253(10) 0.0303(11) 0.0200(10) 0.0002(8) -0.0023(8) -0.0026(9)
C5 0.0177(9) 0.0265(10) 0.0195(9) 0.0012(7) 0.0039(7) -0.0010(8)
C6 0.0179(8) 0.0157(8) 0.0136(8) -0.0004(7) 0.0034(7) 0.0010(7)
C7 0.0148(8) 0.0135(8) 0.0143(8) -0.0008(6) 0.0040(6) 0.0001(6)
C8 0.0161(8) 0.0182(8) 0.0137(8) 0.0015(7) 0.0063(7) 0.0012(7)
C9 0.0186(9) 0.0169(9) 0.0209(9) -0.0003(7) 0.0065(7) 0.0026(7)
C10 0.0203(9) 0.0147(8) 0.0213(9) 0.0027(7) 0.0071(7) 0.0019(7)
C11 0.0179(9) 0.0171(8) 0.0149(8) -0.0009(7) 0.0066(7) -0.0011(7)
C12 0.0174(8) 0.0157(8) 0.0146(8) -0.0002(7) 0.0071(7) 0.0001(6)
Cl2 0.0173(2) 0.0202(2) 0.0220(2) -0.00086(18) 0.00672(16) 0.00061(17)
O1S 0.0165(6) 0.0224(6) 0.0194(6) -0.0035(6) 0.0047(5) -0.0026(6)
loop_
_atom_type_symbol
_atom_type_description
_atom_type_scat_dispersion_real
_atom_type_scat_dispersion_imag
_atom_type_scat_source
C C 0.0033 0.0016 'International Tables Vol C Tables 4.2.6.8 and 6.1.1.4'
H H 0.0000 0.0000 'International Tables Vol C Tables 4.2.6.8 and 6.1.1.4'
Cl Cl 0.1484 0.1585 'International Tables Vol C Tables 4.2.6.8 and 6.1.1.4'
N N 0.0061 0.0033 'International Tables Vol C Tables 4.2.6.8 and 6.1.1.4'
O O 0.0106 0.0060 'International Tables Vol C Tables 4.2.6.8 and 6.1.1.4'
loop_
_geom_angle_atom_site_label_1
_geom_angle_atom_site_label_2
_geom_angle_atom_site_label_3
_geom_angle
C11 O2 H2 107.7(17)
H1A N1 H1B 114(2)
H1A N1 H1C 105(2)
H1B N1 H1C 104(2)
C7 N1 H1A 109.7(15)
C7 N1 H1B 113.4(15)
C7 N1 H1C 109.9(16)
C2 C1 Cl1 116.41(15)
C2 C1 C6 122.67(18)
C6 C1 Cl1 120.91(14)
C1 C2 H2A 120.6
C1 C2 C3 118.9(2)
C3 C2 H2A 120.6
C2 C3 H3 120.0
C4 C3 C2 119.99(19)
C4 C3 H3 120.0
C3 C4 H4 119.9
C3 C4 C5 120.21(19)
C5 C4 H4 119.9
C4 C5 H5 119.1
C4 C5 C6 121.78(18)
C6 C5 H5 119.1
C1 C6 C5 116.40(16)
C1 C6 C7 122.88(16)
C5 C6 C7 120.71(16)
N1 C7 C6 110.21(14)
N1 C7 C8 107.02(14)
N1 C7 C12 107.71(14)
C6 C7 C8 114.72(14)
C6 C7 C12 113.51(15)
C8 C7 C12 103.13(14)
O1 C8 C7 119.78(16)
O1 C8 C9 124.31(17)
C9 C8 C7 114.99(16)
C8 C9 H9A 110.4
C8 C9 H9B 110.4
C8 C9 C10 106.73(15)
H9A C9 H9B 108.6
C10 C9 H9A 110.4
C10 C9 H9B 110.4
C9 C10 H10A 109.4
C9 C10 H10B 109.4
H10A C10 H10B 108.0
C11 C10 C9 111.06(15)
C11 C10 H10A 109.4
C11 C10 H10B 109.4
O2 C11 C10 111.16(15)
O2 C11 H11 109.3
O2 C11 C12 106.88(14)
C10 C11 H11 109.3
C10 C11 C12 110.76(15)
C12 C11 H11 109.3
C7 C12 H12A 109.2
C7 C12 H12B 109.2
C11 C12 C7 112.03(15)
C11 C12 H12A 109.2
C11 C12 H12B 109.2
H12A C12 H12B 107.9
H1SA O1S H1SB 107(3)
loop_
_geom_bond_atom_site_label_1
_geom_bond_atom_site_label_2
_geom_bond_distance
Cl1 C1 1.742(2)
O1 C8 1.214(2)
O2 H2 0.89(2)
O2 C11 1.430(2)
N1 H1A 0.933(19)
N1 H1B 0.916(19)
N1 H1C 0.94(2)
N1 C7 1.493(2)
C1 C2 1.392(3)
C1 C6 1.395(3)
C2 H2A 0.9500
C2 C3 1.394(3)
C3 H3 0.9500
C3 C4 1.376(3)
C4 H4 0.9500
C4 C5 1.388(3)
C5 H5 0.9500
C5 C6 1.402(3)
C6 C7 1.533(2)
C7 C8 1.541(2)
C7 C12 1.554(2)
C8 C9 1.503(3)
C9 H9A 0.9900
C9 H9B 0.9900
C9 C10 1.546(3)
C10 H10A 0.9900
C10 H10B 0.9900
C10 C11 1.528(3)
C11 H11 1.0000
C11 C12 1.531(3)
C12 H12A 0.9900
C12 H12B 0.9900
O1S H1SA 0.88(2)
O1S H1SB 0.90(2)
loop_
_geom_hbond_atom_site_label_D
_geom_hbond_atom_site_label_H
_geom_hbond_atom_site_label_A
_geom_hbond_distance_DH
_geom_hbond_distance_HA
_geom_hbond_distance_DA
_geom_hbond_angle_DHA
_geom_hbond_site_symmetry_A
O2 H2 Cl2 0.89(2) 2.20(2) 3.0762(15) 167(2) .
N1 H1A O1S 0.933(19) 1.85(2) 2.721(2) 155(2) .
N1 H1B Cl2 0.916(19) 2.19(2) 3.0972(16) 172(2) 1_545
N1 H1C O2 0.94(2) 1.92(2) 2.852(2) 179(2) 2_645
O1S H1SA O1 0.88(2) 1.92(2) 2.7858(19) 169(3) 2_545
O1S H1SB Cl2 0.90(2) 2.23(2) 3.0987(14) 161(3) 1_445
