#------------------------------------------------------------------------------
#$Date: 2017-09-12 05:58:22 +0300 (Tue, 12 Sep 2017) $
#$Revision: 200559 $
#$URL: file:///home/coder/svn-repositories/cod/cif/1/54/70/1547050.cif $
#------------------------------------------------------------------------------
#
# This file is available in the Crystallography Open Database (COD),
# http://www.crystallography.net/
#
# All data on this site have been placed in the public domain by the
# contributors.
#
data_1547050
loop_
_publ_author_name
'Morris, Patrick J.'
'Moaddel, Ruin'
'Zanos, Panos'
'Moore, Curtis E.'
'Gould, Todd'
'Zarate, Jr, Carlos A'
'Thomas, Craig J.'
_publ_section_title
;
 Synthesis and N-Methyl-d-aspartate (NMDA) Receptor Activity of Ketamine
 Metabolites.
;
_journal_issue                   17
_journal_name_full               'Organic letters'
_journal_page_first              4572
_journal_page_last               4575
_journal_paper_doi               10.1021/acs.orglett.7b02177
_journal_volume                  19
_journal_year                    2017
_chemical_absolute_configuration ad
_chemical_formula_moiety         'C12 H15 Cl N O2, Cl'
_chemical_formula_sum            'C12 H15 Cl2 N O2'
_chemical_formula_weight         276.15
_space_group_crystal_system      monoclinic
_space_group_IT_number           4
_space_group_name_Hall           'P 2yb'
_space_group_name_H-M_alt        'P 1 21 1'
_symmetry_space_group_name_Hall  'P 2yb'
_symmetry_space_group_name_H-M   'P 1 21 1'
_atom_sites_solution_hydrogens   mixed
_atom_sites_solution_primary     direct
_atom_sites_solution_secondary   difmap
_audit_creation_date             2016-07-03
_audit_creation_method
;
Olex2 1.2-beta
(compiled 2016.02.19 svn.r3266 for OlexSys, GUI svn.r5155)
;
_cell_angle_alpha                90
_cell_angle_beta                 96.835(3)
_cell_angle_gamma                90
_cell_formula_units_Z            2
_cell_length_a                   7.3539(8)
_cell_length_b                   7.4949(7)
_cell_length_c                   11.3571(13)
_cell_measurement_reflns_used    9208
_cell_measurement_temperature    100.0
_cell_measurement_theta_max      26.350
_cell_measurement_theta_min      2.789
_cell_volume                     621.52(11)
_computing_cell_refinement       'SAINT v8.37A (Bruker, 2016)'
_computing_data_collection       'APEX3 v2016.1-0 (Bruker, 2016)'
_computing_data_reduction        'SAINT v8.37A (Bruker, 2016)'
_computing_molecular_graphics    'Olex2 (Dolomanov et al., 2009)'
_computing_publication_material  'Olex2 (Dolomanov et al., 2009)'
_computing_structure_refinement  'ShelXL (Sheldrick, 2015)'
_computing_structure_solution    'ShelXT (Sheldrick, 2015)'
_diffrn_ambient_temperature      100.0
_diffrn_detector                 'Bruker APEX-II CCD'
_diffrn_detector_area_resol_mean 8.258
_diffrn_detector_type            'CCD Area Detector'
_diffrn_measured_fraction_theta_full 1.000
_diffrn_measured_fraction_theta_max 0.998
_diffrn_measurement_device       'Kappa Four-Circle Diffractometer'
_diffrn_measurement_device_type  'Bruker APEX II Ultra'
_diffrn_measurement_method       '\w and \f scans'
_diffrn_radiation_monochromator  'Double Bounce Multilayer Mirrors'
_diffrn_radiation_probe          x-ray
_diffrn_radiation_type           MoK\a
_diffrn_radiation_wavelength     0.71073
_diffrn_reflns_av_R_equivalents  0.0438
_diffrn_reflns_av_unetI/netI     0.0276
_diffrn_reflns_Laue_measured_fraction_full 1.000
_diffrn_reflns_Laue_measured_fraction_max 0.998
_diffrn_reflns_limit_h_max       9
_diffrn_reflns_limit_h_min       -9
_diffrn_reflns_limit_k_max       9
_diffrn_reflns_limit_k_min       -9
_diffrn_reflns_limit_l_max       14
_diffrn_reflns_limit_l_min       -14
_diffrn_reflns_number            14291
_diffrn_reflns_point_group_measured_fraction_full 1.000
_diffrn_reflns_point_group_measured_fraction_max 0.990
_diffrn_reflns_theta_full        25.000
_diffrn_reflns_theta_max         26.351
_diffrn_reflns_theta_min         1.806
_diffrn_source                   'Micro Focus Rotating Anode'
_diffrn_source_type              'Bruker TXS'
_diffrn_standards_number         0
_exptl_absorpt_coefficient_mu    0.511
_exptl_absorpt_correction_T_max  0.0932
_exptl_absorpt_correction_T_min  0.0694
_exptl_absorpt_correction_type   multi-scan
_exptl_absorpt_process_details
;
SADABS-2014/5 (Bruker,2014/5) was used for absorption correction.
wR2(int) was 0.0665 before and 0.0560 after correction.
The Ratio of minimum to maximum transmission is 0.7446.
The \l/2 correction factor is Not present.
;
_exptl_crystal_colour            Colorless
_exptl_crystal_colour_primary    Colorless
_exptl_crystal_density_diffrn    1.476
_exptl_crystal_description       Block
_exptl_crystal_F_000             288
_exptl_crystal_size_max          0.107
_exptl_crystal_size_mid          0.051
_exptl_crystal_size_min          0.026
_refine_diff_density_max         0.193
_refine_diff_density_min         -0.159
_refine_diff_density_rms         0.036
_refine_ls_abs_structure_details
;
 Flack x determined using 1087 quotients [(I+)-(I-)]/[(I+)+(I-)]
 (Parsons, Flack and Wagner, Acta Cryst. B69 (2013) 249-259).
;
_refine_ls_abs_structure_Flack   0.04(3)
_refine_ls_extinction_method     none
_refine_ls_goodness_of_fit_ref   1.036
_refine_ls_hydrogen_treatment    mixed
_refine_ls_matrix_type           full
_refine_ls_number_parameters     170
_refine_ls_number_reflns         2510
_refine_ls_number_restraints     5
_refine_ls_restrained_S_all      1.037
_refine_ls_R_factor_all          0.0223
_refine_ls_R_factor_gt           0.0213
_refine_ls_shift/su_max          0.000
_refine_ls_shift/su_mean         0.000
_refine_ls_structure_factor_coef Fsqd
_refine_ls_weighting_details
'w=1/[\s^2^(Fo^2^)+(0.0265P)^2^+0.1217P] where P=(Fo^2^+2Fc^2^)/3'
_refine_ls_weighting_scheme      calc
_refine_ls_wR_factor_gt          0.0525
_refine_ls_wR_factor_ref         0.0532
_reflns_Friedel_coverage         0.837
_reflns_Friedel_fraction_full    0.999
_reflns_Friedel_fraction_max     0.981
_reflns_number_gt                2436
_reflns_number_total             2510
_reflns_threshold_expression     'I > 2\s(I)'
_cod_data_source_file            ol7b02177_si_002.cif
_cod_data_source_block           NIH12
_cod_depositor_comments
;
The following automatic conversions were performed:

'_diffrn_radiation_probe' value 'X-ray' changed to 'x-ray' according
to
/home/data/users/saulius/crontab/automatic-downloads/current/ACS/lib/dictionaries/cif_core.dic
dictionary named 'cif_core.dic' version 2.4.2 from 2011-04-26.

Automatic conversion script
Id: cif_fix_values 4973 2017-02-22 13:04:09Z antanas 
;
_cod_database_code               1547050
_shelx_space_group_comment
;
The symmetry employed for this shelxl refinement is uniquely defined
by the following loop, which should always be used as a source of
symmetry information in preference to the above space-group names.
They are only intended as comments.
;
_shelx_estimated_absorpt_t_max   0.987
_shelx_estimated_absorpt_t_min   0.947
_olex2_refinement_description
;
1. Fixed Uiso
 At 1.2 times of:
  All C(H) groups, All C(H,H) groups
2. Restrained distances
 N1-H1B = N1-H1C = N1-H1A = O2-H2
 0.95 with sigma of 0.02
3.a Ternary CH refined with riding coordinates:
 C2(H2A)
3.b Secondary CH2 refined with riding coordinates:
 C3(H3A,H3B), C4(H4A,H4B), C5(H5A,H5B)
3.c Aromatic/amide H refined with riding coordinates:
 C9(H9), C10(H10), C11(H11), C12(H12)
;
_shelx_res_file
;
    nih12.res created by SHELXL-2014/7

TITL NIH12 in P21 #4
REM SHELXT solution in P2(1)
REM R1 0.056, Rweak 0.027, Alpha 0.002, Orientation as input
REM Flack x = 0.056 ( 0.023 ) from Parsons' quotients
REM Formula found by SHELXT: C12 N O2 Cl2
CELL 0.71073 7.3539 7.4949 11.3571 90 96.835 90
ZERR 2 0.0008 0.0007 0.0013 0 0.003 0
LATT -1
SYMM -X,0.5+Y,-Z
SFAC C H Cl N O
UNIT 24 30 4 2 4
EQIV $1 -1+X,+Y,+Z
EQIV $2 1-X,0.5+Y,1-Z
EQIV $3 -X,0.5+Y,1-Z
DFIX 0.95 N1 H1b N1 H1c N1 H1a O2 H2

L.S. 10
PLAN  20
SIZE 0.107 0.051 0.026
TEMP -173.15
HTAB N1 O2_$1
HTAB O2 Cl2_$2
HTAB N1 Cl2
HTAB N1 Cl2_$3
ACTA 50
BOND $H
fmap 2
REM <olex2.extras>
REM <HklSrc "%.\\NIH12.hkl">
REM </olex2.extras>

WGHT    0.026500    0.121700
FVAR       1.08142
CL1   3    0.343505    0.806642    0.863454    11.00000    0.02595    0.01488 =
         0.02085   -0.00282    0.00304   -0.00165
O1    5    0.477434    0.704273    0.615045    11.00000    0.01794    0.01726 =
         0.02028    0.00377    0.00549    0.00041
O2    5    0.807643    0.597493    0.725402    11.00000    0.01160    0.01886 =
         0.02317    0.00221    0.00320   -0.00083
H2    2    0.779970    0.697853    0.685551    11.00000    0.04686
N1    4    0.143504    0.570926    0.631065    11.00000    0.01294    0.01669 =
         0.01471   -0.00013    0.00190    0.00097
H1A   2    0.032322    0.543137    0.660779    11.00000    0.01481
H1B   2    0.150040    0.695661    0.632513    11.00000    0.02541
H1C   2    0.126749    0.541148    0.549535    11.00000    0.03408
C1    1    0.477514    0.576058    0.680295    11.00000    0.01649    0.01255 =
         0.01223   -0.00345    0.00442    0.00037
C2    1    0.651378    0.490334    0.737045    11.00000    0.01338    0.01508 =
         0.01594    0.00137    0.00276   -0.00103
AFIX  13
H2A   2    0.641768    0.470704    0.823177    11.00000   -1.20000
AFIX   0
C3    1    0.669602    0.309764    0.677010    11.00000    0.01632    0.01576 =
         0.02007   -0.00053    0.00164    0.00407
AFIX  23
H3A   2    0.688120    0.328941    0.593016    11.00000   -1.20000
H3B   2    0.778488    0.246628    0.716418    11.00000   -1.20000
AFIX   0
C4    1    0.499887    0.194210    0.682799    11.00000    0.01964    0.01372 =
         0.02050   -0.00167    0.00236    0.00228
AFIX  23
H4A   2    0.490855    0.160995    0.766272    11.00000   -1.20000
H4B   2    0.511614    0.083069    0.637203    11.00000   -1.20000
AFIX   0
C5    1    0.326007    0.292904    0.632349    11.00000    0.01616    0.01505 =
         0.01562   -0.00269    0.00121   -0.00016
AFIX  23
H5A   2    0.218469    0.216044    0.639742    11.00000   -1.20000
H5B   2    0.330649    0.316187    0.546953    11.00000   -1.20000
AFIX   0
C6    1    0.301946    0.472398    0.696672    11.00000    0.01193    0.01342 =
         0.01455   -0.00029    0.00127    0.00049
C7    1    0.267305    0.451860    0.826836    11.00000    0.01032    0.01852 =
         0.01438    0.00129    0.00130    0.00250
C8    1    0.280382    0.594286    0.906381    11.00000    0.01242    0.01747 =
         0.01747    0.00151    0.00047    0.00091
C9    1    0.241718    0.576021    1.022323    11.00000    0.01832    0.02504 =
         0.01601   -0.00152    0.00076    0.00594
AFIX  43
H9    2    0.252581    0.675778    1.074289    11.00000   -1.20000
AFIX   0
C10   1    0.187395    0.412606    1.062154    11.00000    0.01825    0.03488 =
         0.01601    0.00608    0.00283    0.00430
AFIX  43
H10   2    0.161141    0.399061    1.141569    11.00000   -1.20000
AFIX   0
C11   1    0.171611    0.268910    0.985257    11.00000    0.01543    0.02513 =
         0.02368    0.00930    0.00413    0.00104
AFIX  43
H11   2    0.134844    0.156002    1.012193    11.00000   -1.20000
AFIX   0
C12   1    0.209102    0.288375    0.868916    11.00000    0.01398    0.01984 =
         0.01976    0.00106    0.00130   -0.00140
AFIX  43
H12   2    0.194980    0.188813    0.816861    11.00000   -1.20000
AFIX   0

CL2   3    0.037858    0.451538    0.370813    11.00000    0.01958    0.01501 =
         0.01605   -0.00023    0.00087   -0.00074
HKLF 4

REM  NIH12 in P21 #4
REM R1 =  0.0213 for    2436 Fo > 4sig(Fo)  and  0.0223 for all    2510 data
REM    170 parameters refined using      5 restraints

END

WGHT      0.0265      0.1217

REM Highest difference peak  0.193,  deepest hole -0.159,  1-sigma level  0.036
Q1    1   0.3761  0.5296  0.6917  11.00000  0.05    0.19
Q2    1   0.1578  0.3020  0.9245  11.00000  0.05    0.19
Q3    1   0.2853  0.4492  0.7770  11.00000  0.05    0.18
Q4    1   0.5700  0.5187  0.7029  11.00000  0.05    0.18
Q5    1   0.2429  0.5305  0.8571  11.00000  0.05    0.16
Q6    1   0.3320  0.3771  0.6751  11.00000  0.05    0.15
Q7    1   0.6486  0.3948  0.7037  11.00000  0.05    0.15
Q8    1   0.6128  0.2406  0.6963  11.00000  0.05    0.14
Q9    1   0.2386  0.3781  0.8496  11.00000  0.05    0.14
Q10   1   0.1452  0.5176  1.0265  11.00000  0.05    0.13
Q11   1   0.4127  0.2374  0.6591  11.00000  0.05    0.13
Q12   1   0.2290  0.5220  0.6646  11.00000  0.05    0.13
Q13   1   0.3073  0.6765  0.8875  11.00000  0.05    0.13
Q14   1   0.8066  0.2602  0.6910  11.00000  0.05    0.13
Q15   1  -0.0645  0.3514  0.3893  11.00000  0.05    0.12
Q16   1   0.1977  0.6216  0.9440  11.00000  0.05    0.12
Q17   1   0.2295  0.3018  1.0370  11.00000  0.05    0.12
Q18   1   0.2595  0.5697  0.9603  11.00000  0.05    0.12
Q19   1   0.1825  0.0018  0.8401  11.00000  0.05    0.11
Q20   1   0.7167  0.5465  0.7241  11.00000  0.05    0.11
;
_shelx_res_checksum              96277
_shelx_hkl_file
;
   1   0   0  427.56   19.40
   1   0   0  407.86   19.40
   1   0   0  411.66   18.80
   1   0   0  388.76   18.30
   1   0   0  403.46   18.70
  -1   0   0  386.16   19.20
  -1   0   0  419.56   18.30
  -1   0   0  397.96   18.70
  -1   0   0  413.96   18.80
  -1   0   0  349.17   19.20
   2   0   0 1911.61   80.29
   2   0   0 1499.65   78.89
   2   0   0 1745.23   79.89
  -2   0   0 1705.73   79.89
  -2   0   0 1687.53   79.99
  -2   0   0 1797.92   79.09
  -2   0   0 1727.93   78.89
   2   0   0 1741.23   80.09
   3   0   0   60.09    4.90
   3   0   0   54.69    4.70
   3   0   0   57.49    5.80
   3   0   0   66.79    6.00
  -3   0   0   62.39    4.80
  -3   0   0   61.79    5.00
  -3   0   0   61.09    5.70
  -3   0   0   60.09    6.40
   3   0   0   62.49    3.70
  -4   0   0  373.76   20.40
  -4   0   0  347.37   18.40
   4   0   0  342.07   16.60
   4   0   0  362.06   18.80
   4   0   0  339.07   20.30
   4   0   0  340.77   20.60
  -4   0   0  348.67   18.60
  -4   0   0  310.67   19.90
   5   0   0   61.09    6.30
  -5   0   0   50.39    7.20
  -5   0   0   57.09    6.00
   5   0   0   63.19    7.80
  -5   0   0   48.30    5.90
   5   0   0   53.39    7.20
  -5   0   0   51.59    7.50
   5   0   0   54.59    3.70
   5   0   0   65.99    6.50
   6   0   0 1390.26   69.39
  -6   0   0 1355.86   68.99
   6   0   0 1621.64   73.09
  -6   0   0 1375.76   72.29
  -6   0   0 1481.05   71.59
   6   0   0 1420.86   72.59
  -7   0   0  274.37   17.10
   7   0   0  236.58   18.90
  -7   0   0  297.47   20.80
   7   0   0  276.37   19.70
   7   0   0  242.58   17.00
   8   0   0   41.80    6.40
  -8   0   0   48.40    7.00
   8   0   0   34.40    8.20
   8   0   0   25.60    5.30
   9   0   0    1.90    3.70
  -9   0   0    6.70    4.10
   0  -1   0    0.00    0.30
   0  -1   0    0.30    0.60
   0  -1   0    1.40    0.60
   0  -1   0    0.30    0.80
   0  -1   0    0.10    0.30
   0   1   0   -0.10    0.60
   0   1   0    0.10    0.60
   0   1   0    1.00    0.90
  -1  -1   0 1524.45   71.39
   1  -1   0 1576.74   73.59
  -1  -1   0 1624.04   71.99
   1  -1   0 1559.34   72.69
  -1  -1   0 1564.84   73.59
  -1  -1   0 1569.14   71.69
   1  -1   0 1573.84   71.39
   1  -1   0 1628.04   72.19
   1  -1   0 1520.15   74.89
   1  -1   0 1599.24   72.89
  -1  -1   0 1550.44   72.09
  -1  -1   0 1575.74   71.39
   1   1   0 1448.96   66.49
  -1   1   0 1323.47   66.29
  -1   1   0 1325.87   65.79
  -1   1   0 1346.07   65.79
  -1   1   0 1597.54   66.39
  -1   1   0 1593.54   67.89
   1   1   0 1597.44   66.29
   1   1   0 1455.15   66.89
  -2  -1   0 3605.14  157.08
   2  -1   0 3139.99  153.98
  -2  -1   0 3353.36  154.58
  -2  -1   0 3737.43  155.78
  -2  -1   0 3259.27  154.28
   2  -1   0 3250.37  156.68
  -2  -1   0 3379.66  156.38
   2  -1   0 3378.66  155.08
  -2   1   0 3423.96  165.48
  -2   1   0 3412.26  167.28
   2   1   0 3973.70  167.98
   2   1   0 3685.73  165.98
   2   1   0 3782.72  169.28
  -2   1   0 3436.96  166.38
   3  -1   0  183.28   10.20
  -3  -1   0  183.18   11.90
   3  -1   0  190.68   10.50
   3  -1   0  169.48   11.30
  -3  -1   0  175.98   11.80
  -3  -1   0  170.88   10.40
   3  -1   0  180.28   11.80
  -3  -1   0  182.88    9.80
  -3  -1   0  166.68   10.50
  -3   1   0  205.48   11.80
   3   1   0  179.48   10.10
  -3   1   0  191.28   10.70
  -3   1   0  197.38   10.40
  -3   1   0  193.78   12.10
   3   1   0  185.58   12.30
   3   1   0  153.78   10.40
   3   1   0  189.88   12.00
  -4  -1   0  499.85   25.80
  -4  -1   0  505.45   25.60
   4  -1   0  564.44   26.00
   4  -1   0  454.35   27.00
   4  -1   0  476.35   27.10
  -4  -1   0  463.25   27.50
  -4  -1   0  543.55   27.60
  -4   1   0  437.06   23.70
  -4   1   0  481.25   25.80
  -4   1   0  529.15   26.90
  -4   1   0  476.75   24.20
   4   1   0  523.05   27.10
   4   1   0  455.65   23.30
   4   1   0  451.25   24.40
   4   1   0  451.35   24.20
   4   1   0  481.05   26.50
   5  -1   0 1027.20   52.59
  -5  -1   0 1022.40   50.39
   5  -1   0 1012.70   50.29
   5  -1   0 1121.89   50.79
  -5  -1   0  988.60   52.99
   5  -1   0 1000.90   52.89
  -5  -1   0 1108.29   53.09
  -5  -1   0 1036.40   50.79
  -5   1   0 1059.29   52.49
   5   1   0 1208.88   56.49
   5   1   0 1077.29   51.49
   5   1   0 1081.39   53.09
   5   1   0 1129.19   56.19
  -5   1   0 1039.30   52.79
  -5   1   0 1140.89   56.09
   5   1   0 1011.40   53.09
  -5   1   0 1168.78   55.29
  -6  -1   0  233.18   16.00
  -6  -1   0  183.58   15.30
   6  -1   0  203.48   13.40
   6  -1   0  176.38   14.60
   6  -1   0  219.78   15.60
  -6  -1   0  173.78   12.80
  -6   1   0  204.68   13.70
  -6   1   0  172.08   12.20
   6   1   0  195.78   13.40
   6   1   0  198.98   10.90
   6   1   0  198.48   15.70
   6   1   0  179.98   15.00
  -6   1   0  188.58   15.20
  -7  -1   0   48.30    7.80
   7  -1   0   65.79    9.30
   7  -1   0   63.29    7.50
  -7  -1   0   57.49    7.10
   7  -1   0   67.49   10.10
  -7  -1   0   55.89    8.90
   7   1   0   71.19   10.20
   7   1   0   58.89    9.40
  -7   1   0   48.00    6.40
  -7   1   0   51.39    8.50
   7   1   0   49.90    6.80
   8  -1   0  494.15   28.40
   8  -1   0  460.05   30.70
   8  -1   0  516.65   28.50
  -8  -1   0  491.55   28.00
   8   1   0  510.55   33.70
   8   1   0  567.74   29.40
   8   1   0  516.45   30.20
  -8   1   0  536.95   29.60
   9  -1   0  195.68   15.30
   9  -1   0  223.38   19.40
  -9   1   0  193.88   14.10
   0  -2   0   51.09    3.00
   0  -2   0   46.20    2.90
   0  -2   0   50.99    4.10
   0  -2   0   45.10    3.90
   0  -2   0   47.50    4.20
   0   2   0   64.39    4.20
   0   2   0   53.49    2.90
   0   2   0   54.29    4.50
   0   2   0   53.19    2.80
  -1  -2   0 2086.19  107.29
   1  -2   0 2344.07  106.59
   1  -2   0 2335.77  109.59
  -1  -2   0 2403.16  109.39
  -1  -2   0 2170.68  109.59
   1  -2   0 2517.55  106.79
   1  -2   0 2633.74  112.29
  -1  -2   0 2124.59  106.19
   1  -2   0 2306.77  107.49
  -1  -2   0 2222.48  109.89
   1  -2   0 2710.13  107.69
  -1   2   0 2577.84  113.79
   1   2   0 2578.14  113.29
   1   2   0 2516.75  113.99
   1   2   0 2423.56  112.09
  -1   2   0 2596.64  114.79
  -1   2   0 2305.57  113.79
   1   2   0 2461.25  114.09
   1   2   0 2491.85  116.19
  -1   2   0 2363.56  111.59
   1   2   0 2245.18  113.69
   2  -2   0  156.68    9.70
   2  -2   0  168.98    8.80
  -2  -2   0  147.69    9.10
  -2  -2   0  158.08    9.50
   2  -2   0  167.48    8.50
  -2  -2   0  149.88    9.90
  -2  -2   0  174.88   10.60
   2  -2   0  169.78    9.70
  -2  -2   0  156.68    9.10
   2  -2   0  184.18    8.80
  -2   2   0  175.88    9.10
   2   2   0  182.18   11.00
  -2   2   0  177.08   10.20
  -2   2   0  174.78    9.90
   2   2   0  173.88   10.00
   2   2   0  187.28    9.20
  -2   2   0  181.48    9.00
  -2   2   0  186.48   10.10
   2   2   0  179.78    9.90
   2   2   0  192.38   10.70
   3  -2   0 3356.66  143.09
  -3  -2   0 3136.69  143.29
  -3  -2   0 3047.70  143.39
   3  -2   0 3173.78  144.09
   3  -2   0 3004.00  144.39
  -3  -2   0 3028.30  145.09
   3  -2   0 3279.27  144.69
  -3  -2   0 3240.38  143.39
  -3  -2   0 2995.40  144.69
   3  -2   0 3128.19  142.89
  -3   2   0 3530.95  150.28
  -3   2   0 2906.31  149.39
   3   2   0 3192.88  148.89
  -3   2   0 3324.47  148.39
   3   2   0 3344.07  149.29
   3   2   0 3170.98  149.09
   3   2   0 3309.47  150.88
   3   2   0 3381.96  150.98
   3   2   0 3332.87  151.28
  -3   2   0 3209.68  148.89
  -3   2   0 3262.97  148.09
   4  -2   0  460.95   26.20
  -4  -2   0  486.15   24.60
  -4  -2   0  534.15   27.70
  -4  -2   0  480.35   25.00
  -4  -2   0  448.96   24.10
   4  -2   0  450.65   24.20
  -4  -2   0  458.85   26.30
   4  -2   0  503.85   26.40
  -4   2   0  461.35   26.20
   4   2   0  472.75   27.20
  -4   2   0  487.15   24.10
   4   2   0  488.75   23.80
   4   2   0  481.75   24.70
  -4   2   0  471.25   24.60
  -4   2   0  508.55   26.00
   4   2   0  455.45   24.90
  -4   2   0  504.85   24.40
   4   2   0  507.45   27.30
   4   2   0  481.65   24.80
   5  -2   0   54.49    7.40
  -5  -2   0   62.69    7.80
  -5  -2   0   52.59    8.00
   5  -2   0   61.79    6.30
   5  -2   0   59.19    7.70
   5  -2   0   61.19    6.30
  -5  -2   0   66.79    6.90
   5   2   0   69.79    6.90
  -5   2   0   74.19    6.10
  -5   2   0   54.89    5.00
   5   2   0   51.99    7.50
   5   2   0   65.59    8.40
  -5   2   0   54.29    7.20
   5   2   0   67.49    7.00
   5   2   0   55.19    5.30
  -5   2   0   54.99    6.90
   5   2   0   67.39    5.20
  -6  -2   0  290.37   17.80
  -6  -2   0  290.37   20.30
   6  -2   0  303.37   17.50
   6  -2   0  257.77   19.10
   6  -2   0  288.77   19.10
  -6  -2   0  265.47   19.00
  -6   2   0  276.07   15.90
   6   2   0  290.27   15.70
   6   2   0  292.07   19.90
  -6   2   0  267.67   16.40
   6   2   0  275.37   17.10
   6   2   0  276.97   19.50
  -6   2   0  286.57   19.30
   6   2   0  264.97   15.60
   7  -2   0  212.38   14.60
   7  -2   0  175.18   14.90
   7  -2   0  205.78   16.90
  -7  -2   0  222.08   14.90
  -7  -2   0  257.37   17.90
  -7  -2   0  222.58   18.20
   7   2   0  208.88   12.60
   7   2   0  208.38   17.30
   7   2   0  215.88   14.90
  -7   2   0  202.48   13.70
   8  -2   0   82.69   10.30
  -8  -2   0   88.29   12.60
  -8  -2   0   75.89    9.00
   8  -2   0  101.59   10.50
   8  -2   0  100.09   12.50
  -8   2   0   89.59    8.90
  -8   2   0   85.79    8.30
   8   2   0   96.09   10.20
   0  -3   0    0.00    0.40
   0  -3   0    1.30    1.20
   0  -3   0    1.10    1.30
   0  -3   0    0.10    0.70
   0  -3   0    0.40    0.70
   0  -3   0    1.10    1.20
   0   3   0    0.70    1.40
   1  -3   0  598.84   27.40
   1  -3   0  558.94   28.20
  -1  -3   0  586.14   28.40
  -1  -3   0  527.25   28.00
  -1  -3   0  572.44   27.20
   1  -3   0  586.54   28.40
   1  -3   0  588.44   26.40
   1  -3   0  634.94   27.50
   1  -3   0  545.15   29.00
  -1  -3   0  599.04   27.30
  -1  -3   0  591.14   28.20
   1  -3   0  576.04   26.30
  -1  -3   0  542.55   27.80
  -1  -3   0  611.74   29.10
   1   3   0  613.84   27.70
   1   3   0  647.34   29.40
   1   3   0  575.54   29.20
   1   3   0  646.64   30.60
  -1   3   0  617.04   29.80
  -1   3   0  599.44   29.80
   1   3   0  590.34   29.20
   2  -3   0   57.99    3.90
  -2  -3   0   55.79    5.20
  -2  -3   0   63.99    5.70
   2  -3   0   67.99    4.80
  -2  -3   0   58.59    5.40
   2  -3   0   47.20    6.00
   2  -3   0   53.59    3.80
  -2  -3   0   61.49    4.50
   2  -3   0   67.89    4.90
  -2  -3   0   67.29    4.60
  -2  -3   0   62.79    4.10
   2  -3   0   65.39    4.90
   2  -3   0   54.39    4.70
   2   3   0   57.79    5.40
  -2   3   0   52.99    4.60
   2   3   0   57.19    4.30
   2   3   0   58.49    4.20
   2   3   0   61.89    5.50
  -2   3   0   61.89    4.30
   2   3   0   57.19    4.10
  -2   3   0   59.39    4.00
   2   3   0   60.19    5.30
   3  -3   0  131.19    7.60
   3  -3   0  129.49    7.10
  -3  -3   0  111.79    9.50
  -3  -3   0  123.29    8.60
   3  -3   0  117.39    8.60
  -3  -3   0  117.09    8.00
   3  -3   0  134.79    8.80
   3  -3   0  118.39    7.30
  -3  -3   0  108.49    7.80
  -3  -3   0  106.29    9.00
   3   3   0  118.39    6.60
   3   3   0  105.79    8.90
  -3   3   0  125.89    6.30
   3   3   0  117.69    7.80
  -3   3   0  107.19    7.60
   3   3   0  111.99    8.50
  -3   3   0  113.39    8.00
  -3   3   0  119.39    7.70
  -3   3   0  112.19    6.10
   3   3   0  119.49    7.60
   4  -3   0  630.54   36.80
   4  -3   0  724.03   35.40
  -4  -3   0  752.22   36.20
  -4  -3   0  815.02   39.10
   4  -3   0  711.53   33.40
   4  -3   0  666.43   36.70
  -4  -3   0  726.03   36.20
  -4  -3   0  717.93   35.80
  -4  -3   0  783.22   38.30
   4   3   0  716.23   36.70
   4   3   0  741.03   38.80
   4   3   0  711.13   37.10
  -4   3   0  760.72   35.20
   4   3   0  741.73   36.60
  -4   3   0  790.52   35.50
  -4   3   0  749.33   37.90
  -4   3   0  742.03   36.70
  -4   3   0  756.32   37.20
   4   3   0  752.02   35.10
   4   3   0  726.43   38.80
   5  -3   0   34.80    5.90
  -5  -3   0   39.90    4.80
   5  -3   0   32.20    4.70
   5  -3   0   33.20    6.00
   5  -3   0   27.20    5.00
  -5  -3   0   44.00    6.90
  -5  -3   0   37.10    6.40
  -5  -3   0   43.20    5.50
   5  -3   0   30.30    4.30
  -5   3   0   31.00    5.50
  -5   3   0   32.10    4.40
  -5   3   0   31.10    3.70
   5   3   0   34.10    4.80
   5   3   0   34.40    3.20
   5   3   0   33.70    4.70
  -5   3   0   33.20    4.00
   5   3   0   46.30    7.20
   5   3   0   35.60    4.80
   5   3   0   29.90    5.80
  -6  -3   0  283.47   18.40
  -6  -3   0  304.97   21.40
   6  -3   0  328.07   21.00
   6  -3   0  353.46   21.10
   6  -3   0  288.07   18.20
   6  -3   0  317.57   20.20
  -6  -3   0  323.37   21.00
   6   3   0  325.37   19.20
   6   3   0  321.47   18.70
  -6   3   0  335.47   18.80
  -6   3   0  302.77   17.60
  -6   3   0  388.96   22.00
   6   3   0  315.97   16.90
   6   3   0  304.27   21.60
  -6   3   0  326.57   17.60
   7  -3   0  249.18   18.10
   7  -3   0  265.07   19.50
  -7  -3   0  238.68   17.10
   7  -3   0  278.77   17.30
  -7  -3   0  270.47   20.30
   7   3   0  276.07   16.10
   7   3   0  249.38   16.60
  -7   3   0  255.57   15.90
  -7   3   0  258.57   15.60
   8  -3   0   10.60    4.70
   8  -3   0   22.90    6.70
  -8  -3   0   21.30    5.30
  -8  -3   0   25.20    7.60
   8  -3   0   31.50    6.00
   8   3   0   16.70    4.60
  -8   3   0   17.00    4.10
   0  -4   0  630.14   31.40
   0  -4   0  647.04   31.70
   0  -4   0  645.94   28.80
   0  -4   0  621.14   29.60
   0  -4   0  573.54   29.50
   0  -4   0  613.44   31.00
   0  -4   0  652.03   28.70
   0   4   0  597.24   30.30
  -1  -4   0  366.66   18.40
   1  -4   0  323.57   16.40
   1  -4   0  315.17   16.40
  -1  -4   0  340.77   18.70
  -1  -4   0  304.07   17.40
   1  -4   0  341.87   18.10
  -1  -4   0  331.77   16.40
  -1  -4   0  360.46   17.60
   1  -4   0  340.17   17.90
  -1  -4   0  348.77   16.50
   1  -4   0  324.57   18.70
   1  -4   0  324.77   15.50
   1  -4   0  344.77   15.50
  -1  -4   0  343.67   17.70
   1   4   0  326.47   16.10
   1   4   0  318.37   18.00
  -1   4   0  311.47   17.10
   1   4   0  295.67   15.90
  -1   4   0  351.76   17.80
  -2  -4   0 1625.64   75.79
   2  -4   0 1437.06   74.29
   2  -4   0 1640.14   76.69
   2  -4   0 1514.15   73.99
   2  -4   0 1606.74   74.09
  -2  -4   0 1590.84   75.39
  -2  -4   0 1593.94   75.49
   2  -4   0 1616.14   74.79
  -2  -4   0 1663.03   73.99
  -2  -4   0 1670.93   73.99
   2  -4   0 1645.54   72.99
  -2  -4   0 1605.04   73.99
   2   4   0 1645.44   71.19
   2   4   0 1434.16   71.89
  -2   4   0 1630.34   72.19
   2   4   0 1508.85   70.09
  -2   4   0 1479.95   71.79
   2   4   0 1540.15   71.99
   2   4   0 1539.25   73.19
  -3  -4   0  310.17   15.60
  -3  -4   0  333.67   18.20
  -3  -4   0  315.57   18.80
   3  -4   0  300.57   17.30
  -3  -4   0  294.37   16.60
   3  -4   0  313.37   16.00
  -3  -4   0  301.57   16.90
   3  -4   0  297.47   18.90
   3  -4   0  282.67   17.00
  -3  -4   0  332.37   18.50
   3  -4   0  323.27   17.10
   3  -4   0  325.97   16.40
   3   4   0  315.97   15.50
  -3   4   0  302.47   16.00
   3   4   0  296.77   15.70
   3   4   0  299.87   15.90
   3   4   0  319.47   18.10
  -3   4   0  315.97   15.80
   3   4   0  307.87   17.80
  -3   4   0  298.77   16.90
   3   4   0  286.47   17.60
   4  -4   0  700.43   37.40
   4  -4   0  761.92   36.10
   4  -4   0  760.52   37.90
  -4  -4   0  699.73   37.40
  -4  -4   0  742.83   38.70
   4  -4   0  755.42   35.00
  -4  -4   0  740.13   39.20
  -4  -4   0  753.62   37.10
   4  -4   0  650.33   38.60
   4  -4   0  770.52   36.10
  -4  -4   0  762.82   36.80
   4   4   0  684.43   37.20
   4   4   0  720.43   36.10
  -4   4   0  736.73   36.60
   4   4   0  749.42   38.80
  -4   4   0  712.13   36.60
   4   4   0  753.32   35.80
   4   4   0  765.22   34.40
   5  -4   0    9.40    4.10
   5  -4   0    8.90    2.40
  -5  -4   0   13.50    3.80
   5  -4   0    7.40    3.20
  -5  -4   0    8.00    3.30
   5  -4   0    4.50    2.40
   5  -4   0    4.70    3.20
  -5  -4   0    6.80    3.80
   5   4   0    7.10    3.10
  -5   4   0    7.10    1.50
  -5   4   0    3.90    2.60
  -5   4   0    4.70    1.40
   5   4   0    5.60    1.20
   5   4   0    5.10    2.20
  -5   4   0    6.00    2.90
   5   4   0    2.90    2.00
   5   4   0    1.50    2.80
  -6  -4   0  186.68   15.30
   6  -4   0  159.88   13.30
  -6  -4   0  183.48   12.80
   6  -4   0  166.08   13.60
   6  -4   0  152.08   14.80
   6  -4   0  145.49   11.50
  -6   4   0  161.18   11.20
   6   4   0  156.88   11.60
   6   4   0  155.58   11.70
   6   4   0  179.18   16.80
   7  -4   0   48.60    8.00
  -7  -4   0   46.10    9.30
   7  -4   0   48.70    8.30
  -7  -4   0   47.80    7.00
   7  -4   0   43.20    6.60
   7   4   0   49.80    6.50
  -7   4   0   38.00    4.60
  -7   4   0   55.29    6.70
   7   4   0   48.90    6.50
   8  -4   0    4.50    4.40
   8  -4   0    2.50    3.60
  -8  -4   0    4.20    4.40
   8  -4   0   -3.10    2.50
  -8  -4   0   -1.00    2.90
  -8   4   0    2.10    3.10
   8   4   0    2.50    2.30
   0  -5   0   -1.10    0.90
   0  -5   0    0.60    0.70
   0  -5   0   -0.30    0.60
   0  -5   0   -0.20    2.10
   0  -5   0    2.30    1.50
   0  -5   0    0.10    0.60
   0  -5   0    0.10    2.00
   0   5   0    0.00    1.50
   1  -5   0  394.46   18.30
  -1  -5   0  421.76   19.30
  -1  -5   0  398.66   21.20
   1  -5   0  364.26   19.00
  -1  -5   0  398.36   20.50
   1  -5   0  374.86   18.30
  -1  -5   0  442.16   20.50
   1  -5   0  386.36   19.10
   1  -5   0  390.86   21.40
  -1  -5   0  393.06   21.90
  -1  -5   0  388.86   20.80
   1  -5   0  398.66   21.10
  -1  -5   0  372.76   19.10
   1  -5   0  357.66   21.70
   1   5   0  391.86   18.10
  -1   5   0  386.26   20.60
   1   5   0  358.36   21.10
  -1   5   0  368.96   20.70
   1   5   0  370.36   18.00
   2  -5   0  352.46   19.80
  -2  -5   0  381.56   19.00
   2  -5   0  366.56   18.70
  -2  -5   0  369.06   20.10
   2  -5   0  351.56   18.60
   2  -5   0  358.86   17.70
   2  -5   0  373.36   20.10
  -2  -5   0  351.66   19.00
   2  -5   0  375.76   21.70
  -2  -5   0  360.76   21.10
  -2  -5   0  400.46   22.60
   2  -5   0  382.16   17.80
  -2  -5   0  359.96   18.70
  -2  -5   0  354.26   20.10
  -2   5   0  371.56   20.30
  -2   5   0  367.06   20.30
   2   5   0  390.76   20.00
   2   5   0  368.36   19.70
   2   5   0  375.56   21.60
   3  -5   0   21.90    2.80
  -3  -5   0   17.20    3.30
  -3  -5   0   15.70    3.70
   3  -5   0   25.30    4.90
  -3  -5   0   24.10    3.70
   3  -5   0   22.60    2.90
  -3  -5   0   12.40    3.70
  -3  -5   0   17.80    2.60
   3  -5   0   19.50    3.40
   3  -5   0   19.60    3.30
   3  -5   0   14.50    3.50
   3  -5   0   14.00    2.90
   3   5   0   14.40    3.40
   3   5   0   11.90    1.80
   3   5   0   12.50    3.70
  -3   5   0   18.90    3.70
   3   5   0   19.10    2.40
   4  -5   0  518.15   27.40
   4  -5   0  492.75   29.60
   4  -5   0  495.25   27.60
   4  -5   0  521.15   25.80
  -4  -5   0  512.25   29.40
  -4  -5   0  525.35   28.90
   4  -5   0  512.55   25.80
  -4  -5   0  542.65   27.30
   4  -5   0  500.55   25.90
   4   5   0  483.45   27.60
  -4   5   0  504.85   26.40
   4   5   0  477.15   27.50
   4   5   0  499.45   23.80
   4   5   0  516.05   25.10
   4   5   0  497.65   24.80
  -5  -5   0  263.77   17.70
   5  -5   0  240.98   17.90
   5  -5   0  265.97   16.60
   5  -5   0  255.27   14.70
  -5  -5   0  244.38   18.10
  -5  -5   0  257.97   15.90
   5  -5   0  214.08   15.90
   5   5   0  271.27   15.50
  -5   5   0  259.77   15.90
   5   5   0  271.47   17.40
   5   5   0  255.87   15.00
  -6  -5   0  135.79   13.50
   6  -5   0  130.99   11.60
   6  -5   0  158.88   13.70
  -6  -5   0  157.28   11.40
   6  -5   0  125.29    9.90
  -6   5   0  170.98   11.50
   6   5   0  126.19   10.90
   6   5   0  144.19   10.70
   7  -5   0  168.08   12.60
  -7  -5   0  166.78   13.40
   7  -5   0  184.98   14.90
   7  -5   0  156.78   14.50
  -7  -5   0  178.78   16.40
  -7   5   0  173.58   12.10
   7   5   0  142.09   12.20
   0  -6   0 1255.57   64.79
   0  -6   0 1356.36   62.39
   0  -6   0 1358.96   61.49
   0  -6   0 1371.26   61.59
   0  -6   0 1363.16   62.39
   0   6   0 1302.67   63.69
  -1  -6   0  370.76   21.00
  -1  -6   0  362.36   20.00
   1  -6   0  378.46   18.90
  -1  -6   0  388.46   20.20
   1  -6   0  369.66   18.20
   1  -6   0  361.96   22.20
   1  -6   0  390.46   18.20
  -1  -6   0  402.56   19.20
   1  -6   0  385.16   18.70
  -1  -6   0  411.56   19.30
   1   6   0  384.66   22.10
  -1   6   0  359.06   21.10
  -2  -6   0  218.48   13.00
   2  -6   0  214.88   13.60
  -2  -6   0  235.28   13.80
   2  -6   0  214.38   11.20
  -2  -6   0  232.28   12.40
  -2  -6   0  226.28   13.90
  -2  -6   0  212.38   12.40
   2  -6   0  226.38   15.60
   2  -6   0  210.88   11.90
   2  -6   0  221.28   12.10
   2  -6   0  204.28   11.10
   2   6   0  197.48   14.20
  -2   6   0  202.58   13.40
   2   6   0  218.98   11.90
   3  -6   0 1638.54   77.29
   3  -6   0 1643.34   76.39
  -3  -6   0 1661.83   78.69
  -3  -6   0 1618.94   78.89
   3  -6   0 1583.34   75.29
   3  -6   0 1644.44   75.39
  -3  -6   0 1620.24   76.49
  -3  -6   0 1688.63   76.89
   3  -6   0 1612.24   80.19
   3  -6   0 1631.74   76.59
  -3   6   0 1552.54   73.79
   3   6   0 1537.45   75.39
   4  -6   0  119.09   11.80
   4  -6   0  143.19    8.70
   4  -6   0  135.79    9.10
  -4  -6   0  125.39    9.80
   4  -6   0  125.59    8.60
  -4  -6   0  142.29   11.60
   4  -6   0  121.79    9.60
   4  -6   0  136.89    9.70
  -4  -6   0  115.99   10.40
   4   6   0  137.09   11.90
  -4   6   0  146.09   10.80
   5  -6   0   96.79    8.90
  -5  -6   0   83.99    9.10
   5  -6   0  100.99    8.80
   5  -6   0   86.99   10.80
   5  -6   0   98.09    7.70
  -5  -6   0   97.29   10.00
  -5   6   0   95.09    9.20
   5   6   0  103.89   10.90
  -6  -6   0  126.79   12.50
   6  -6   0  128.09   13.90
   6  -6   0  136.29   10.10
   6  -6   0  122.59   11.10
  -6  -6   0  116.99   10.70
   6   6   0  113.29   11.00
   6   6   0  136.19    9.10
  -6   6   0   93.29    9.80
   7   6   0   46.70    7.50
  -7   6   0   81.49    8.60
   0  -7   0   -0.60    0.90
   0  -7   0    2.20    2.30
   0  -7   0   -0.70    1.10
   0  -7   0   -1.10    0.80
   0  -7   0   -0.10    1.00
   0   7   0    0.50    2.10
   1  -7   0  152.38    8.30
  -1  -7   0  153.48    9.90
   1  -7   0  163.58    8.70
  -1  -7   0  146.99    9.00
   1  -7   0  150.48    8.40
   1  -7   0  165.58   12.60
  -1  -7   0  148.69    9.80
  -1  -7   0  174.28   11.70
  -1  -7   0  164.28    9.40
   1  -7   0  156.28    8.30
   1   7   0  154.88   12.30
  -1   7   0  167.48   12.40
  -2  -7   0  179.48   11.30
  -2  -7   0  186.58   12.20
   2  -7   0  230.28   11.60
   2  -7   0  184.18   10.30
   2  -7   0  185.58   10.30
  -2  -7   0  195.28   12.80
   2  -7   0  195.98   10.20
  -2  -7   0  199.08   11.40
   2  -7   0  183.48   14.40
  -2  -7   0  197.38   12.60
   2   7   0  197.68   14.70
  -2   7   0  189.38   13.30
  -3  -7   0    3.80    2.80
   3  -7   0    3.10    1.60
  -3  -7   0    1.60    2.10
  -3  -7   0    1.90    1.50
   3  -7   0    1.20    1.40
   3  -7   0    2.00    3.40
   3  -7   0    2.40    1.60
  -3  -7   0    0.30    2.10
  -3   7   0    3.40    2.50
   3   7   0    1.60    3.50
   3   7   0    1.30    1.80
   4  -7   0   97.49    8.10
   4  -7   0  136.29   12.60
  -4  -7   0  111.59   10.60
  -4  -7   0  107.19    9.00
  -4   7   0  101.09    8.80
   4   7   0  103.79   10.00
  -5  -7   0  642.94   33.30
   5  -7   0  592.74   36.10
  -5  -7   0  615.04   35.70
  -5   7   0  589.04   31.40
   5   7   0  569.74   33.10
  -6  -7   0    5.50    3.50
  -6  -7   0    5.20    3.80
   6   7   0    6.30    3.50
  -6   7   0    0.70    3.20
   0  -8   0 1254.07   63.09
   0  -8   0 1274.17   58.99
   0  -8   0 1282.27   59.19
   0   8   0 1249.28   62.89
  -1  -8   0   13.40    2.70
   1  -8   0   18.50    1.50
   1  -8   0   18.30    4.80
  -1  -8   0   19.50    4.00
   1  -8   0   14.50    1.40
  -1  -8   0   17.10    3.10
   1   8   0   27.70    6.00
  -2  -8   0   80.49    7.10
   2  -8   0   72.09    9.60
   2  -8   0   77.19    3.90
   2  -8   0   71.79    3.80
  -2  -8   0   56.29    6.40
  -2  -8   0   71.69    7.00
   2   8   0   63.19    8.40
   3  -8   0   96.99   11.50
   3  -8   0   84.59    5.70
  -3  -8   0   88.69    8.60
   3  -8   0   90.39    5.80
  -3   8   0   83.49    8.80
   3   8   0   75.29    9.40
   4  -8   0  178.78   11.30
   4  -8   0  187.58   11.20
  -4  -8   0  206.38   13.30
   4  -8   0  176.98   15.90
  -4  -8   0  177.08   14.30
   4   8   0  167.58   14.20
  -4   8   0  148.29   12.30
   0  -9   0    0.20    0.70
   0  -9   0    0.30    0.70
   0  -9   0   -0.10    2.90
  -1  -9   0  162.38   10.10
   1  -9   0  177.58   13.80
  -1  -9   0  150.08    9.80
   2  -9   0  124.09   12.20
  -9   0   1    0.20    3.00
   9   0  -1   -5.30    3.50
   8   0  -1   57.79    9.40
   8   0  -1   65.19    8.60
  -8   0   1   66.09    8.20
   7   0  -1    2.90    3.80
   7   0  -1    3.80    3.10
  -7   0   1    7.10    3.40
  -7   0   1    5.10    3.10
   7   0  -1    5.50    1.30
   7   0  -1    8.10    3.70
  -6   0   1  348.57   23.20
   6   0  -1  415.76   24.50
  -6   0   1  377.46   23.40
  -6   0   1  362.96   21.20
   6   0  -1  375.06   24.10
   5   0  -1  443.66   23.10
  -5   0   1  478.75   25.20
   5   0  -1  420.36   20.90
   5   0  -1  404.26   24.90
  -5   0   1  426.26   22.80
  -5   0   1  425.66   25.20
   5   0  -1  422.46   23.00
  -5   0   1  415.26   23.00
   5   0  -1  445.96   25.60
   4   0  -1  154.88    9.90
  -4   0   1  127.19   10.20
  -4   0   1  139.19    9.70
   4   0  -1  169.78   10.00
  -4   0   1  148.69    9.60
   4   0  -1  177.78   12.10
   4   0  -1  149.29   11.30
  -4   0   1  177.68   12.20
   4   0  -1  157.88    8.40
  -3   0   1   82.99    5.80
   3   0  -1   83.49    5.00
   3   0  -1   81.79    6.10
   3   0  -1   85.19    7.30
  -3   0   1   73.39    7.10
   3   0  -1   89.29    6.20
  -3   0   1   72.49    6.30
   3   0  -1   86.19    7.10
  -3   0   1   75.09    6.00
   2   0  -1 1431.36   68.19
  -2   0   1 1526.65   67.39
   2   0  -1 1370.96   67.19
   2   0  -1 1498.25   68.49
  -2   0   1 1471.95   68.29
   2   0  -1 1508.45   67.39
  -2   0   1 1563.34   67.29
  -2   0   1 1359.66   68.19
  -1   0   1  882.11   41.40
  -1   0   1  863.81   41.40
   1   0  -1  937.91   41.50
  -1   0   1  985.00   42.10
  -1   0   1  863.91   42.00
   1   0  -1  939.01   41.50
   1   0  -1  863.21   41.90
   1   0  -1  906.01   42.00
   0   0   1    0.10    0.40
   0   0  -1    0.00    0.50
   0   0   1    0.50    0.60
   0   0   1    0.10    0.60
   0   0  -1    1.20    0.80
   0   0  -1   -0.10    0.50
   0   0  -1    0.30    0.50
   0   0   1   -0.10    0.50
   0   0  -1    0.70    0.60
   0   0   1    0.70    0.80
   1   0   1  698.93   31.90
  -1   0  -1  656.33   31.00
  -1   0  -1  732.73   31.00
   1   0   1  616.64   31.00
   1   0   1  733.63   31.00
   1   0   1  632.24   31.00
  -1   0  -1  635.04   31.00
  -1   0  -1  680.13   31.80
  -1   0  -1  672.53   31.80
   1   0   1  621.64   31.70
   2   0   1 9289.77  435.46
   2   0   1 9457.35  430.56
  -2   0  -1 9250.97  429.86
  -2   0  -1 9373.86  467.15
  -2   0  -1 8647.33  434.96
  -2   0  -1 9851.71  436.96
   2   0   1 9999.00  438.16
   2   0   1 9357.56  430.26
   2   0   1 9131.89  429.56
  -3   0  -1  147.89    9.50
  -3   0  -1  145.89    7.70
   3   0   1  150.58    9.50
   3   0   1  152.28    9.30
  -3   0  -1  149.79   10.40
  -3   0  -1  155.88   10.90
   3   0   1  164.08   10.80
  -3   0  -1  154.78    9.10
   3   0   1  162.28   10.80
   4   0   1   30.60    4.50
  -4   0  -1   37.80    6.10
  -4   0  -1   34.40    5.20
  -4   0  -1   36.30    4.50
   4   0   1   37.60    4.60
  -4   0  -1   39.50    4.40
   4   0   1   35.20    5.50
   4   0   1   41.90    6.10
  -5   0  -1    3.90    2.50
   5   0   1    3.00    2.60
   5   0   1    1.00    3.30
   5   0   1    1.50    1.90
  -5   0  -1    5.00    2.90
  -5   0  -1    2.60    2.20
   5   0   1    2.10    1.90
  -5   0  -1    7.30    2.90
  -6   0  -1  963.20   48.80
   6   0   1  987.20   50.09
   6   0   1  934.81   49.10
  -6   0  -1  908.51   46.20
  -6   0  -1  911.11   49.60
   6   0   1  906.11   45.80
   6   0   1  868.61   46.20
   7   0   1   46.00    6.10
  -7   0  -1   32.10    5.30
  -7   0  -1   61.49    9.10
   7   0   1   46.10    6.80
   7   0   1   45.80    8.30
   7   0   1   49.00    8.60
   8   0   1   67.89    8.50
   8   0   1   59.59    9.70
   8   0   1   50.09    7.10
  -8   0  -1   47.30    7.10
  -9   0  -1   28.00    5.70
  -9  -1   1   47.70    7.20
   9  -1  -1   58.79    8.60
   9  -1  -1   41.20    9.10
   9  -1  -1   51.39    7.60
  -9   1   1   43.80    6.80
   8  -1  -1   13.20    5.80
   8  -1  -1   12.00    3.90
  -8  -1   1   12.00    3.90
   8   1  -1    6.00    3.20
  -8   1   1   12.40    4.10
   8   1  -1   12.70    5.70
  -7  -1   1   76.59   11.10
   7  -1  -1   71.19    8.00
  -7  -1   1   69.99   10.00
   7  -1  -1   78.69   10.60
  -7  -1   1   73.39    8.20
   7  -1  -1   56.59    9.20
   7   1  -1   77.49    8.30
   7   1  -1   69.89    5.80
  -7   1   1   78.69    8.30
  -7   1   1   81.79   10.50
   7   1  -1   76.19   10.30
   7   1  -1   84.39   10.90
   6  -1  -1  148.79   12.80
  -6  -1   1  170.48   11.60
   6  -1  -1  149.59   12.70
  -6  -1   1  133.89   12.60
  -6  -1   1  169.48   13.60
   6   1  -1  136.29   12.40
  -6   1   1  131.99   12.10
   6   1  -1  126.89   10.00
   6   1  -1  140.09    8.50
  -6   1   1  130.99    9.60
  -6   1   1  136.09   10.10
   6   1  -1  141.09   12.10
   5  -1  -1  100.49    5.30
   5  -1  -1  109.49    9.50
   5  -1  -1   90.29    7.70
   5  -1  -1   94.89    9.50
   5  -1  -1   91.29    7.80
  -5  -1   1  119.39    8.60
  -5  -1   1   81.69    9.50
  -5  -1   1   99.29    7.70
  -5  -1   1   92.99    9.40
  -5   1   1   94.99    7.20
   5   1  -1   90.49    7.30
  -5   1   1   89.99    7.40
   5   1  -1   80.19    6.10
  -5   1   1  105.79    8.70
   5   1  -1   97.59    9.50
   5   1  -1   85.49    9.20
   5   1  -1   97.99    7.70
  -5   1   1   88.19    9.10
   4  -1  -1  827.52   40.60
  -4  -1   1  872.61   41.20
   4  -1  -1  811.92   42.40
  -4  -1   1  853.91   42.50
   4  -1  -1  828.52   40.60
  -4  -1   1  810.82   42.80
   4  -1  -1  847.12   42.40
  -4  -1   1  873.61   40.90
   4   1  -1  787.32   37.90
   4   1  -1  742.93   39.70
   4   1  -1  647.44   36.60
  -4   1   1  867.61   37.50
  -4   1   1  793.82   37.50
   4   1  -1  813.72   37.80
   4   1  -1  748.23   39.70
  -4   1   1  794.62   39.50
   3  -1  -1 1870.91   84.59
  -3  -1   1 1915.31   86.29
   3  -1  -1 1957.00   86.19
  -3  -1   1 1911.01   84.79
   3  -1  -1 1586.14   85.49
  -3  -1   1 1674.53   86.09
  -3  -1   1 1859.41   84.89
   3  -1  -1 1914.61   84.49
   3   1  -1 1976.50   90.99
   3   1  -1 2001.30   91.49
   3   1  -1 1802.42   92.69
  -3   1   1 1921.81   92.39
   3   1  -1 2062.49   91.49
  -3   1   1 1921.51   90.99
  -3   1   1 1826.72   91.99
  -3   1   1 2135.99   90.99
   3   1  -1 2232.08   93.59
   2  -1  -1 2678.53  107.49
  -2  -1   1 2269.87  106.49
  -2  -1   1 2128.19  106.39
   2  -1  -1 2288.87  107.09
  -2  -1   1 2250.77  107.49
   2  -1  -1 2337.37  106.19
   2  -1  -1 2381.96  106.09
  -2  -1   1 2360.86  107.89
  -2   1   1 2248.68  104.39
  -2   1   1 2348.67  103.69
  -2   1   1 2509.55  104.69
   2   1  -1 2567.34  104.69
   2   1  -1 2176.38  103.09
   2   1  -1 2156.28  103.09
   2   1  -1 2088.59  104.29
   2   1  -1 2281.97  103.19
   2   1  -1 2170.68  103.09
  -2   1   1 2124.09  102.69
   1  -1  -1  383.86   17.70
  -1  -1   1  388.96   18.90
  -1  -1   1  392.56   18.40
   1  -1  -1  382.76   18.20
  -1  -1   1  375.26   18.20
  -1  -1   1  373.36   18.20
   1  -1  -1  391.16   17.80
  -1  -1   1  359.86   18.90
   1  -1  -1  382.46   17.70
   1  -1  -1  384.56   18.30
   1   1  -1  370.26   18.10
  -1   1   1  367.86   18.00
  -1   1   1  404.86   17.60
   1   1  -1  395.96   18.20
   1   1  -1  386.86   18.50
   1   1  -1  330.77   18.70
  -1   1   1  397.86   17.60
   1   1  -1  411.46   19.00
  -1   1   1  365.76   18.10
  -1   1   1  381.16   17.80
   1   1  -1  379.26   18.30
   0  -1   1 1950.70   86.39
   0  -1   1 1765.32   83.89
   0  -1   1 1674.93   82.09
   0  -1   1 2068.49   84.09
   0  -1  -1 1845.32   85.19
   0  -1   1 1743.33   82.49
   0  -1  -1 1721.83   82.69
   0  -1  -1 1837.92   83.09
   0  -1   1 1731.83   85.89
   0   1  -1 1624.04   76.39
   0   1   1 1725.53   78.69
   0   1  -1 1807.72   77.19
   0   1   1 1679.13   78.29
   0   1  -1 1573.54   78.49
   0   1  -1 1706.93   77.19
  -1  -1  -1 1551.64   72.39
   1  -1   1 1365.46   72.09
  -1  -1  -1 1588.24   71.59
   1  -1   1 1640.54   71.59
   1  -1   1 1665.93   72.59
   1  -1   1 1598.74   71.59
  -1  -1  -1 1514.45   71.79
  -1  -1  -1 1546.05   71.59
  -1  -1  -1 1675.63   72.49
   1  -1   1 1588.54   72.49
  -1   1  -1 1557.24   72.39
  -1   1  -1 1546.65   71.49
  -1   1  -1 1540.75   71.49
   1   1   1 1617.94   71.59
  -1   1  -1 1563.34   71.79
  -1   1  -1 1643.54   72.29
  -1   1  -1 1583.74   72.29
   1   1   1 1515.15   72.29
   1   1   1 1591.94   71.49
  -2  -1  -1 2941.31  143.89
   2  -1   1 3055.79  143.49
  -2  -1  -1 3406.86  142.79
  -2  -1  -1 3287.57  146.69
   2  -1   1 3365.86  142.99
   2  -1   1 3139.79  145.79
   2  -1   1 2703.93  143.79
   2  -1   1 3301.87  144.29
  -2  -1  -1 3266.07  144.49
  -2  -1  -1 3039.20  142.79
   2   1   1 3269.57  145.29
   2   1   1 3076.19  143.99
   2   1   1 2861.11  145.99
   2   1   1 3079.29  143.89
  -2   1  -1 3209.08  145.19
  -2   1  -1 3080.69  143.69
  -2   1  -1 3258.77  144.89
  -2   1  -1 3262.47  143.89
  -2   1  -1 3432.06  144.19
  -3  -1  -1  447.36   22.80
  -3  -1  -1  406.66   21.20
   3  -1   1  433.46   22.80
  -3  -1  -1  420.96   21.00
   3  -1   1  462.05   21.40
   3  -1   1  363.66   21.40
   3  -1   1  417.76   21.20
   3  -1   1  418.66   22.60
  -3  -1  -1  387.16   22.60
  -3  -1  -1  385.36   20.20
  -3   1  -1  390.96   22.50
   3   1   1  420.46   22.90
   3   1   1  427.06   21.30
  -3   1  -1  398.86   22.20
   3   1   1  449.26   23.10
   3   1   1  386.36   20.40
  -3   1  -1  419.96   20.70
  -3   1  -1  438.56   21.20
   3   1   1  409.66   21.10
  -4  -1  -1 1326.57   65.39
  -4  -1  -1 1391.66   62.89
   4  -1   1 1339.27   63.09
  -4  -1  -1 1417.06   61.69
  -4  -1  -1 1385.56   65.09
   4  -1   1 1291.57   62.79
   4  -1   1 1250.47   64.99
  -4  -1  -1 1306.27   63.09
   4  -1   1 1247.88   63.49
   4  -1   1 1327.77   64.99
  -4   1  -1 1281.37   61.09
   4   1   1 1187.58   63.39
   4   1   1 1305.97   61.69
   4   1   1 1339.87   64.19
  -4   1  -1 1363.16   63.39
   4   1   1 1268.57   61.69
  -4   1  -1 1356.16   64.09
  -4   1  -1 1307.77   61.59
   5  -1   1  127.59    9.40
  -5  -1  -1  139.39    9.60
   5  -1   1  112.99    9.20
  -5  -1  -1  152.58   10.00
   5  -1   1  135.29   11.20
  -5  -1  -1  149.88   11.80
   5  -1   1  143.29   12.00
  -5  -1  -1  117.29    7.80
   5  -1   1  123.39    9.60
  -5  -1  -1  146.79   12.00
  -5   1  -1  133.59    9.40
   5   1   1  125.59   11.30
  -5   1  -1  124.89   10.40
   5   1   1  139.19    9.80
  -5   1  -1  139.29   11.50
   5   1   1  145.99   10.00
  -5   1  -1  133.99    9.10
   5   1   1  131.19   11.20
   6  -1   1   59.59    7.40
  -6  -1  -1   53.99    8.40
   6  -1   1   43.80    7.60
  -6  -1  -1   45.90    6.10
   6  -1   1   54.69    6.60
  -6  -1  -1   58.09    8.10
   6  -1   1   58.09    8.50
   6   1   1   47.10    5.50
   6   1   1   47.20    6.20
  -6   1  -1   57.69    6.90
  -6   1  -1   49.40    8.30
   6   1   1   52.59    7.80
   6   1   1   59.69    8.70
  -7  -1  -1  290.97   19.70
  -7  -1  -1  234.88   19.50
  -7  -1  -1  251.17   16.90
   7  -1   1  261.27   19.80
   7  -1   1  254.27   16.60
   7  -1   1  248.78   16.50
  -7   1  -1  327.27   18.30
   7   1   1  279.67   17.90
  -7   1  -1  252.27   19.70
   7   1   1  282.47   21.00
   7   1   1  277.07   20.90
  -8  -1  -1   12.20    3.80
   8  -1   1    7.90    5.30
   8  -1   1   19.30    5.00
   8  -1   1   13.60    4.40
  -8   1  -1   21.80    5.10
   8   1   1   22.30    7.00
   8   1   1   11.70    3.20
   8   1   1   21.50    5.20
  -8  -2   1   81.19    9.10
   8  -2  -1   83.99    9.20
   8  -2  -1   78.89   11.40
  -8  -2   1   60.09   10.00
  -8   2   1   72.39    7.40
  -8   2   1   67.79    7.70
   8   2  -1   77.79    8.70
   7  -2  -1  223.38   15.20
   7  -2  -1  234.68   17.60
  -7  -2   1  236.48   18.30
  -7  -2   1  220.38   17.40
  -7  -2   1  262.47   16.50
  -7   2   1  235.08   14.50
   7   2  -1  234.48   14.20
  -7   2   1  227.58   14.90
   7   2  -1  271.67   16.80
   7   2  -1  244.18   14.90
   7   2  -1  246.08   18.50
  -6  -2   1  237.38   16.60
  -6  -2   1  210.78   16.30
  -6  -2   1  207.68   14.10
   6  -2  -1  216.38   15.90
   6  -2  -1  207.08   15.60
   6   2  -1  216.78   13.10
   6   2  -1  198.88   16.10
  -6   2   1  211.88   15.80
   6   2  -1  213.88   16.50
   6   2  -1  201.98   12.70
   6   2  -1  218.38   14.10
  -6   2   1  218.68   12.90
  -6   2   1  212.68   12.70
  -6   2   1  212.68   13.20
  -5  -2   1  355.26   19.90
   5  -2  -1  348.07   21.60
   5  -2  -1  331.57   19.20
  -5  -2   1  336.97   22.10
  -5  -2   1  418.56   22.80
   5  -2  -1  308.27   20.60
   5  -2  -1  379.36   19.60
  -5   2   1  348.27   18.70
   5   2  -1  385.86   22.40
  -5   2   1  360.76   19.10
   5   2  -1  339.37   21.70
  -5   2   1  384.36   19.20
   5   2  -1  375.26   19.10
   5   2  -1  321.37   18.90
  -5   2   1  329.47   20.40
   5   2  -1  353.76   19.80
   4  -2  -1  350.46   17.90
   4  -2  -1  344.37   17.70
  -4  -2   1  302.47   20.00
  -4  -2   1  318.17   19.70
   4  -2  -1  333.57   19.40
  -4  -2   1  307.07   17.90
   4  -2  -1  347.87   19.50
  -4  -2   1  332.37   18.30
   4  -2  -1  337.87   15.90
  -4   2   1  326.97   17.30
   4   2  -1  332.87   20.00
   4   2  -1  327.87   20.10
  -4   2   1  346.17   19.00
   4   2  -1  315.87   17.80
  -4   2   1  332.07   17.40
   4   2  -1  342.97   18.20
  -4   2   1  327.97   17.00
   4   2  -1  328.77   18.00
   4   2  -1  329.07   17.40
  -4   2   1  335.47   19.40
  -3  -2   1   94.99    6.60
   3  -2  -1   91.49    7.00
  -3  -2   1   98.99    7.00
  -3  -2   1   98.19    6.80
   3  -2  -1   90.89    7.10
   3  -2  -1   96.19    5.50
   3  -2  -1   93.19    6.20
  -3  -2   1   93.89    8.30
  -3  -2   1   84.49    7.90
   3  -2  -1   95.19    6.30
  -3   2   1   89.89    5.80
  -3   2   1   90.19    7.20
  -3   2   1   92.99    5.60
   3   2  -1   94.89    8.10
   3   2  -1  103.29    6.90
   3   2  -1   95.19    6.80
  -3   2   1  106.39    6.40
   3   2  -1   94.09    6.20
   3   2  -1   83.69    7.40
   3   2  -1   81.49    6.30
  -3   2   1   95.09    6.90
   2  -2  -1  318.17   16.70
   2  -2  -1  342.57   16.00
  -2  -2   1  337.97   17.90
  -2  -2   1  322.37   16.70
   2  -2  -1  320.67   16.20
  -2  -2   1  333.37   16.60
  -2  -2   1  339.77   17.20
   2  -2  -1  292.97   16.60
  -2  -2   1  341.37   16.50
  -2  -2   1  308.37   17.80
   2  -2  -1  334.27   16.40
   2  -2  -1  337.37   15.90
   2   2  -1  289.87   16.90
  -2   2   1  301.77   16.10
   2   2  -1  310.07   17.50
  -2   2   1  324.57   15.10
  -2   2   1  309.27   15.10
   2   2  -1  351.26   16.50
   2   2  -1  358.56   16.50
   2   2  -1  320.77   17.60
  -2   2   1  341.67   16.60
   2   2  -1  348.17   16.40
  -2   2   1  313.77   16.10
   1  -2  -1  994.70   42.60
   1  -2  -1  997.20   43.30
   1  -2  -1  882.31   43.10
   1  -2  -1  991.10   43.00
  -1  -2   1  871.51   43.10
  -1  -2   1  856.51   43.10
  -1  -2   1  937.41   42.80
  -1  -2   1  787.52   42.20
  -1  -2   1  893.01   43.40
  -1  -2   1  932.41   42.40
  -1  -2   1  947.81   43.00
   1   2  -1  951.60   42.30
   1   2  -1  916.71   43.10
  -1   2   1  863.31   42.50
   1   2  -1  959.40   43.00
   1   2  -1  929.21   43.40
   1   2  -1  918.81   43.40
   1   2  -1  892.41   42.20
   0  -2  -1  599.94   27.70
   0  -2   1  546.95   27.20
   0  -2  -1  590.74   26.30
   0  -2   1  623.54   27.70
   0  -2  -1  584.14   27.20
   0  -2   1  494.95   27.10
   0  -2   1  574.74   27.20
   0  -2   1  574.54   26.50
   0  -2   1  585.84   26.50
   0  -2   1  539.35   27.70
   0  -2  -1  580.24   26.30
   0   2  -1  607.04   27.50
   0   2  -1  573.24   27.70
   0   2  -1  564.84   28.10
   0   2   1  567.34   28.10
   0   2  -1  577.44   26.60
   0   2  -1  580.64   27.70
   0   2  -1  590.24   28.10
   0   2  -1  597.94   26.60
   1  -2   1 2095.59   96.69
   1  -2   1 2155.38   95.09
   1  -2   1 2177.48   99.39
  -1  -2  -1 2015.70   95.79
   1  -2   1 2063.29   95.99
  -1  -2  -1 2142.59   99.59
  -1  -2  -1 2258.07   95.19
   1  -2   1 2110.09   95.79
  -1  -2  -1 2062.99   96.09
   1  -2   1 2143.59   95.09
  -1  -2  -1 2174.58   95.19
  -1  -2  -1 1764.42   95.69
   1  -2   1 2121.69   95.49
  -1   2  -1 2104.89   91.99
  -1   2  -1 1866.51   91.79
   1   2   1 2070.89   92.39
  -1   2  -1 1916.71   91.69
  -1   2  -1 2199.38   93.69
   1   2   1 1949.60   91.99
  -1   2  -1 1706.13   91.39
   1   2   1 1969.00   91.89
   1   2   1 2050.89   91.99
   1   2   1 2107.59   92.19
  -1   2  -1 2248.18   93.09
  -1   2  -1 2000.70   90.69
   2  -2   1   99.49    7.20
   2  -2   1   90.29    5.90
  -2  -2  -1   97.29    6.70
  -2  -2  -1   89.99    6.20
   2  -2   1  100.99    7.60
   2  -2   1  103.79    7.10
  -2  -2  -1  105.29    6.40
  -2  -2  -1   98.09    7.40
   2  -2   1  103.79    6.20
  -2  -2  -1   92.39    7.10
  -2   2  -1   96.59    5.40
  -2   2  -1  107.49    7.00
  -2   2  -1   95.69    6.30
  -2   2  -1   97.89    5.60
   2   2   1   94.59    7.00
  -2   2  -1   87.09    5.60
  -2   2  -1  103.39    6.90
   2   2   1   87.59    6.40
   2   2   1   94.49    6.00
   2   2   1   97.29    6.30
   3  -2   1 2082.19  108.89
   3  -2   1 2346.17  107.69
  -3  -2  -1 2216.58  109.29
  -3  -2  -1 2316.67  107.99
   3  -2   1 2265.17  109.19
  -3  -2  -1 2510.25  108.09
   3  -2   1 2453.05  107.79
   3  -2   1 2481.95  109.39
  -3  -2  -1 2345.37  109.89
  -3  -2  -1 2446.56  107.89
  -3   2  -1 2341.47  106.99
   3   2   1 2318.47  106.69
  -3   2  -1 2379.36  106.19
   3   2   1 2307.67  106.99
   3   2   1 2330.97  108.59
  -3   2  -1 2366.16  107.89
   3   2   1 2347.47  106.99
  -3   2  -1 2364.96  106.39
  -3   2  -1 2008.20  107.79
   3   2   1 2493.35  109.09
   4  -2   1  182.58   13.10
  -4  -2  -1  193.28   11.20
  -4  -2  -1  200.18   11.70
  -4  -2  -1  149.99   12.30
  -4  -2  -1  179.58   11.80
   4  -2   1  196.78   12.90
   4  -2   1  195.78   11.60
   4  -2   1  185.78   11.70
   4  -2   1  207.38   13.50
  -4  -2  -1  207.88   13.90
  -4   2  -1  173.38   10.00
  -4   2  -1  180.58   11.80
   4   2   1  170.48   12.30
   4   2   1  180.88   12.30
   4   2   1  165.08   10.20
   4   2   1  143.19   10.50
   4   2   1  148.79   10.30
  -4   2  -1  162.68   10.00
   4   2   1  163.98    8.90
  -5  -2  -1  110.19    7.80
  -5  -2  -1  109.19   10.50
   5  -2   1  118.79   10.60
   5  -2   1  107.69   10.10
  -5  -2  -1  111.29   10.70
   5  -2   1  119.99    8.80
   5  -2   1  105.59    9.30
   5  -2   1  127.89    8.90
  -5  -2  -1  123.79    9.50
   5   2   1  100.39    8.80
  -5   2  -1  111.09   10.50
  -5   2  -1  114.39    8.10
   5   2   1  110.29    7.90
   5   2   1  111.89   10.90
  -5   2  -1  116.29    8.50
   5   2   1  142.79    9.20
  -5   2  -1  119.79   10.10
   5   2   1  118.09   10.50
  -6  -2  -1 1060.09   55.09
  -6  -2  -1 1074.79   56.39
   6  -2   1 1033.40   54.89
   6  -2   1 1080.49   55.79
  -6  -2  -1 1089.39   52.99
   6  -2   1 1011.20   52.29
   6  -2   1 1080.09   53.59
   6   2   1 1062.39   53.49
  -6   2  -1 1181.08   52.59
   6   2   1 1086.49   56.49
   6   2   1 1073.99   56.99
   6   2   1 1079.99   51.19
  -6   2  -1 1064.09   52.69
  -6   2  -1 1007.90   55.59
   7  -2   1  196.58   17.00
  -7  -2  -1  210.98   16.50
  -7  -2  -1  188.48   17.00
   7  -2   1  220.38   15.40
  -7  -2  -1  210.88   14.90
   7  -2   1  219.48   14.60
   7   2   1  217.68   15.00
  -7   2  -1  206.98   14.20
   7   2   1  223.68   18.00
   8  -2   1  161.68   13.20
  -8  -2  -1  152.68   12.90
  -8  -2  -1  139.09   16.30
   8  -2   1  179.78   16.30
   8  -2   1  160.88   13.00
  -8   2  -1  151.18   11.80
   8   2   1  151.08   12.60
  -8   2  -1  158.48   11.80
   8  -3  -1   19.70    5.40
  -8  -3   1   21.50    5.40
   8  -3  -1   18.90    5.10
  -8  -3   1   19.20    6.60
   8  -3  -1   22.60    5.70
   8   3  -1   27.20    5.00
  -8   3   1   21.50    4.10
  -8   3   1   15.20    3.90
   8   3  -1   22.50    5.00
  -7  -3   1   24.70    4.90
   7  -3  -1   19.70    4.60
   7  -3  -1   28.40    6.60
  -7  -3   1   33.20    7.40
   7   3  -1   36.60    9.70
  -7   3   1   21.80    4.00
   7   3  -1   29.80    5.20
  -7   3   1   31.90    4.70
   7   3  -1   18.00    3.80
   6  -3  -1  159.88   12.80
   6  -3  -1  164.28   13.30
  -6  -3   1  149.39   13.70
  -6  -3   1  172.08   13.70
  -6  -3   1  153.98   11.60
  -6   3   1  178.18   10.70
  -6   3   1  166.48   13.20
  -6   3   1  182.38   11.00
   6   3  -1  162.68   14.20
  -6   3   1  154.88   11.10
   6   3  -1  171.68   11.80
   6   3  -1  178.78   10.70
   6   3  -1  208.28   13.20
   5  -3  -1 1257.87   54.49
   5  -3  -1 1144.19   59.09
   5  -3  -1 1200.78   57.29
  -5  -3   1 1148.09   58.09
  -5  -3   1 1248.58   61.19
  -5  -3   1 1149.48   60.09
   5  -3  -1 1176.28   59.49
   5  -3  -1 1222.08   57.29
  -5   3   1 1149.78   57.19
   5   3  -1 1144.69   56.09
   5   3  -1 1146.59   56.09
  -5   3   1 1128.49   54.39
   5   3  -1 1153.78   54.59
  -5   3   1 1154.28   55.29
  -5   3   1 1182.48   54.19
   5   3  -1 1179.08   55.89
   5   3  -1 1157.98   58.49
   5   3  -1 1191.58   58.89
  -4  -3   1  195.28   14.20
  -4  -3   1  191.68   12.10
   4  -3  -1  171.48   12.20
  -4  -3   1  203.78   14.00
   4  -3  -1  194.78   11.20
   4  -3  -1  216.98   13.10
   4  -3  -1  197.08   10.30
  -4  -3   1  196.48   12.00
   4  -3  -1  188.68   11.40
  -4  -3   1  189.28   12.10
   4   3  -1  206.28   13.70
   4   3  -1  198.58   11.90
   4   3  -1  209.58   11.10
  -4   3   1  183.88   10.20
   4   3  -1  185.68   13.30
  -4   3   1  193.38   12.10
  -4   3   1  195.78   10.40
  -4   3   1  178.28   12.00
   4   3  -1  207.58   12.00
   4   3  -1  195.38   12.40
  -4   3   1  193.08   11.40
  -3  -3   1  499.05   25.30
  -3  -3   1  527.45   27.20
  -3  -3   1  504.75   25.50
  -3  -3   1  491.35   26.00
   3  -3  -1  494.25   24.50
   3  -3  -1  510.25   24.50
   3  -3  -1  496.45   24.40
  -3  -3   1  472.45   27.10
   3  -3  -1  510.75   25.90
   3  -3  -1  526.35   25.90
   3   3  -1  437.56   26.10
  -3   3   1  508.65   25.10
  -3   3   1  488.55   22.40
   3   3  -1  485.95   25.60
  -3   3   1  505.15   24.70
  -3   3   1  497.35   24.60
   3   3  -1  532.75   27.00
   3   3  -1  510.85   24.40
   3   3  -1  489.05   24.60
   2  -3  -1 1192.08   56.19
  -2  -3   1 1196.28   56.49
  -2  -3   1 1247.38   57.59
   2  -3  -1 1122.69   56.39
  -2  -3   1 1284.87   56.59
   2  -3  -1 1125.89   55.19
   2  -3  -1 1277.97   56.59
  -2  -3   1 1222.28   57.79
   2  -3  -1 1234.98   55.29
   2  -3  -1 1191.78   56.09
  -2  -3   1 1214.08   57.99
  -2  -3   1 1241.18   56.39
  -2   3   1 1277.57   55.59
   2   3  -1 1209.68   57.69
   2   3  -1 1276.67   57.89
   2   3  -1 1318.87   56.69
   2   3  -1 1204.78   56.09
  -2   3   1 1020.80   56.39
  -2   3   1 1153.78   55.39
   2   3  -1 1251.87   57.79
  -1  -3   1 1288.07   62.09
   1  -3  -1 1475.45   61.19
  -1  -3   1 1298.17   61.69
   1  -3  -1 1313.87   61.79
   1  -3  -1 1296.07   61.39
  -1  -3   1 1286.87   60.69
  -1  -3   1 1155.68   61.59
   1  -3  -1 1493.75   61.29
  -1  -3   1 1373.86   60.79
  -1  -3   1 1249.68   61.59
  -1  -3   1 1291.27   61.59
   1   3  -1 1249.97   59.49
   1   3  -1 1403.96   60.99
   1   3  -1 1255.97   61.09
   1   3  -1 1295.07   59.59
   1   3  -1 1329.37   61.09
   1   3  -1 1291.67   61.69
  -1   3   1 1346.67   60.99
   0  -3   1 1603.54   70.49
   0  -3   1 1491.35   68.69
   0  -3  -1 1477.75   70.09
   0  -3  -1 1576.64   70.59
   0  -3  -1 1501.55   69.99
   0  -3   1 1342.97   70.29
   0  -3  -1 1627.34   70.19
   0  -3   1 1439.46   68.69
   0  -3  -1 1630.94   69.69
   0  -3   1 1479.25   69.69
   0  -3   1 1471.35   69.99
   0  -3   1 1495.05   69.59
   0   3  -1 1515.85   66.29
   0   3  -1 1362.56   66.39
   0   3   1 1438.36   67.79
   0   3  -1 1462.95   67.59
   0   3  -1 1467.15   67.79
   1  -3   1 1100.49   48.40
   1  -3   1 1010.10   49.50
   1  -3   1 1006.40   48.20
   1  -3   1 1095.19   48.50
   1  -3   1 1059.59   47.10
  -1  -3  -1 1052.79   47.30
  -1  -3  -1 1060.39   47.20
  -1  -3  -1  847.72   48.50
   1  -3   1 1047.10   47.20
   1  -3   1 1040.70   48.50
  -1  -3  -1 1020.70   48.20
  -1  -3  -1 1008.10   47.60
  -1  -3  -1  990.70   48.10
  -1   3  -1 1073.59   48.60
  -1   3  -1 1088.49   49.60
  -1   3  -1 1138.19   48.70
   1   3   1 1009.60   48.70
   1   3   1 1000.10   50.09
  -1   3  -1 1032.60   49.40
   1   3   1 1006.90   48.80
   2  -3   1   86.79    6.70
  -2  -3  -1   92.89    6.90
  -2  -3  -1   93.89    6.00
  -2  -3  -1   81.69    6.80
   2  -3   1   94.19    5.80
   2  -3   1   93.79    5.80
   2  -3   1   93.59    7.50
  -2  -3  -1   88.49    4.80
   2  -3   1   96.39    6.80
  -2  -3  -1   99.69    7.50
   2  -3   1   81.69    6.60
   2  -3   1   89.29    5.70
   2   3   1   97.29    5.70
  -2   3  -1   93.79    6.40
  -2   3  -1   93.39    4.60
  -2   3  -1   88.99    5.90
   2   3   1   89.89    6.60
   2   3   1   87.69    5.40
   2   3   1   99.39    7.40
  -2   3  -1   85.39    6.30
  -2   3  -1   76.89    5.80
   2   3   1   86.09    6.80
  -2   3  -1   87.09    4.50
   3  -3   1  216.38   13.30
   3  -3   1  206.08   11.80
   3  -3   1  230.88   12.10
  -3  -3  -1  218.98   12.80
  -3  -3  -1  214.28   12.40
  -3  -3  -1  198.38   13.30
   3  -3   1  208.68   13.90
  -3  -3  -1  191.58   13.40
  -3  -3  -1  232.88   12.40
   3  -3   1  195.58   13.10
   3   3   1  211.58   12.00
  -3   3  -1  225.88   11.30
  -3   3  -1  193.58   12.30
   3   3   1  207.18   12.90
  -3   3  -1  240.48   13.10
   3   3   1  227.78   13.80
  -3   3  -1  206.98   13.10
   3   3   1  199.78   12.00
  -3   3  -1  219.58   11.10
   4  -3   1  167.18   10.90
  -4  -3  -1  167.98   11.10
   4  -3   1  159.78   12.50
   4  -3   1  172.68   10.90
  -4  -3  -1  169.48   11.20
   4  -3   1  191.78   12.80
  -4  -3  -1  182.38   13.50
   4  -3   1  179.38   12.40
  -4  -3  -1  191.88   13.40
  -4  -3  -1  191.88   11.60
   4   3   1  176.98   13.40
  -4   3  -1  184.68   10.30
   4   3   1  178.48   11.80
   4   3   1  173.58    8.70
  -4   3  -1  191.88   12.70
   4   3   1  191.58   11.30
   4   3   1  185.08   11.50
  -4   3  -1  177.48   10.50
   4   3   1  201.58   13.60
  -4   3  -1  204.58   12.30
  -4   3  -1  169.98   11.40
  -5  -3  -1   66.29    7.40
  -5  -3  -1   64.39    8.90
  -5  -3  -1   89.39    7.10
   5  -3   1   71.19    8.60
   5  -3   1   68.79    8.40
   5  -3   1   68.59    8.50
  -5  -3  -1   86.99    8.60
   5  -3   1   81.29    7.20
  -5   3  -1   62.99    7.80
   5   3   1   71.19    9.00
  -5   3  -1   74.09    5.90
   5   3   1   67.69    7.00
   5   3   1   73.79    7.20
   5   3   1   66.89    6.20
   5   3   1   65.29    4.10
   5   3   1   69.19    4.20
  -5   3  -1   83.89    6.70
  -5   3  -1   64.39    5.40
  -6  -3  -1   84.99   10.90
  -6  -3  -1  104.99    8.20
  -6  -3  -1  120.29   11.60
  -6  -3  -1  108.09    9.70
   6  -3   1   99.69   10.80
   6  -3   1  130.59   11.70
   6  -3   1  112.69    9.40
   6  -3   1  119.89   10.60
   6   3   1   86.79    8.40
  -6   3  -1  123.79    8.10
  -6   3  -1  105.59   10.40
   6   3   1  107.69    6.50
   6   3   1  119.69    6.60
  -6   3  -1  113.89    8.50
   6   3   1  118.69   11.30
  -6   3  -1  106.49    9.10
  -7  -3  -1   19.20    4.80
   7  -3   1   16.40    5.10
  -7  -3  -1   26.70    7.10
   7  -3   1   16.10    4.60
   7  -3   1   22.70    4.80
   7   3   1   21.40    5.00
  -7   3  -1   26.00    4.60
  -7   3  -1   29.60    4.70
  -8  -3  -1  365.26   26.60
   8  -3   1  354.66   22.90
   8  -3   1  385.36   24.50
  -8  -3  -1  391.46   23.80
   8  -3   1  410.76   26.90
  -8   3  -1  363.06   21.20
  -8   3  -1  389.86   22.30
   8   3   1  372.06   23.00
   8  -4  -1    6.90    3.90
  -8  -4   1   10.80    4.70
   8  -4  -1    8.80    4.20
  -8  -4   1    5.40    4.90
   8  -4  -1   12.40    5.40
  -8   4   1    3.80    2.80
   8   4  -1    7.20    3.90
   8   4  -1    6.10    2.90
   7  -4  -1  344.47   23.20
  -7  -4   1  368.86   24.80
   7  -4  -1  358.06   20.80
   7  -4  -1  348.87   23.20
  -7  -4   1  318.57   21.00
  -7   4   1  333.67   19.20
   7   4  -1  317.07   20.00
   7   4  -1  344.37   20.00
   6  -4  -1   85.39   10.40
   6  -4  -1   82.09    9.70
  -6  -4   1   76.39   10.60
  -6  -4   1   68.79    8.00
   6  -4  -1   81.69    9.50
   6  -4  -1   87.19    7.50
   6   4  -1   86.99    8.30
   6   4  -1   88.39    8.50
   6   4  -1   81.49   10.10
  -6   4   1   82.59    7.90
  -5  -4   1   68.89    9.10
   5  -4  -1   75.29    6.40
   5  -4  -1   71.29    4.90
   5  -4  -1   76.29    6.60
   5  -4  -1   96.09    8.70
  -5  -4   1   82.09    9.70
   5  -4  -1   77.49    7.60
  -5  -4   1   65.69    7.50
   5   4  -1   82.19    7.80
  -5   4   1   85.89    7.00
   5   4  -1   74.69    9.10
   5   4  -1   80.79    7.70
   5   4  -1   73.79    5.60
   5   4  -1   73.19    6.70
  -5   4   1   85.09    7.50
  -5   4   1   76.89    4.50
  -4  -4   1    5.60    3.30
   4  -4  -1    6.70    2.50
   4  -4  -1   10.70    2.30
   4  -4  -1   11.70    3.00
  -4  -4   1    9.20    2.70
  -4  -4   1    6.70    2.80
   4  -4  -1    8.30    2.10
  -4  -4   1   10.10    3.80
  -4  -4   1    9.60    3.00
   4  -4  -1   11.10    2.50
   4   4  -1    6.80    3.10
  -4   4   1    7.20    2.50
   4   4  -1   12.40    3.00
   4   4  -1    5.00    2.10
  -4   4   1   10.40    2.50
   4   4  -1    8.60    1.90
  -3  -4   1   10.80    2.80
  -3  -4   1   13.10    2.60
   3  -4  -1    9.60    1.90
   3  -4  -1   15.00    2.20
   3  -4  -1   15.20    2.70
   3  -4  -1   12.70    2.60
  -3  -4   1   10.50    3.00
  -3  -4   1   12.70    3.40
   3  -4  -1   14.00    2.90
   3  -4  -1   16.70    2.90
  -3  -4   1   15.80    3.70
  -3  -4   1   14.00    2.60
  -3   4   1   10.30    1.80
   3   4  -1   10.80    3.10
   3   4  -1   12.60    2.30
  -3   4   1   10.60    1.60
   3   4  -1   12.20    3.20
  -3   4   1   15.60    2.80
   3   4  -1   15.00    2.40
   3   4  -1   11.90    3.20
   3   4  -1   16.60    2.80
  -2  -4   1  148.19   10.40
   2  -4  -1  167.78   10.20
   2  -4  -1  167.88   10.00
  -2  -4   1  170.58    9.70
  -2  -4   1  155.98   10.90
  -2  -4   1  156.48   11.00
   2  -4  -1  148.89    8.00
   2  -4  -1  165.88    9.00
  -2  -4   1  166.68    9.70
   2  -4  -1  171.98    9.00
  -2  -4   1  170.68   10.50
   2  -4  -1  161.48    8.10
  -2  -4   1  157.78    9.70
  -2   4   1  172.58   10.20
   2   4  -1  157.58    8.60
   2   4  -1  168.28   10.50
   2   4  -1  165.58    8.80
   2   4  -1  164.98    9.90
   2   4  -1  149.19   11.00
   2   4  -1  158.18   10.30
   1  -4  -1  317.57   14.50
  -1  -4   1  304.37   17.50
   1  -4  -1  283.77   17.30
  -1  -4   1  293.87   15.50
   1  -4  -1  324.07   16.80
  -1  -4   1  302.77   15.50
  -1  -4   1  324.77   16.80
   1  -4  -1  318.37   17.20
  -1  -4   1  294.77   16.80
  -1  -4   1  327.17   17.10
  -1  -4   1  355.06   17.40
   1  -4  -1  298.37   14.40
   1   4  -1  308.87   17.40
   1   4  -1  361.36   16.20
   1   4  -1  281.37   16.50
  -1   4   1  273.87   16.30
   1   4  -1  298.47   16.00
   0  -4   1  789.32   37.40
   0  -4   1  779.32   36.70
   0  -4   1  749.62   35.50
   0  -4  -1  674.33   35.20
   0  -4   1  751.22   37.60
   0  -4   1  732.83   36.40
   0  -4   1  765.92   35.50
   0  -4  -1  769.32   35.30
   0  -4  -1  860.91   37.50
   0  -4  -1  724.33   37.20
   0  -4  -1  886.11   38.30
   0  -4   1  747.43   37.80
   0   4  -1  801.92   35.50
   0   4  -1  795.22   35.60
   0   4  -1  725.83   37.60
   0   4   1  740.83   37.80
   0   4  -1  750.22   37.20
   0   4  -1  747.43   37.80
  -1  -4  -1  245.58   14.20
   1  -4   1  240.28   11.90
   1  -4   1  233.28   13.60
   1  -4   1  241.08   13.60
   1  -4   1  249.58   14.90
   1  -4   1  247.88   13.00
   1  -4   1  227.28   12.90
  -1  -4  -1  237.18   13.00
  -1  -4  -1  203.98   12.60
  -1  -4  -1  245.98   13.80
   1  -4   1  243.78   11.90
  -1  -4  -1  234.38   12.90
  -1  -4  -1  254.17   12.10
  -1  -4  -1  222.58   11.90
  -1   4  -1  202.88   10.60
  -1   4  -1  205.48   10.70
  -1   4  -1  217.48   12.70
   1   4   1  235.98   11.30
   1   4   1  213.88   11.10
  -1   4  -1  251.67   13.20
   1   4   1  224.28   13.60
  -2  -4  -1   52.09    4.50
   2  -4   1   51.19    4.50
   2  -4   1   51.59    6.30
   2  -4   1   53.09    4.10
   2  -4   1   51.99    3.90
  -2  -4  -1   50.19    4.10
   2  -4   1   55.29    5.00
  -2  -4  -1   49.80    3.70
   2  -4   1   48.00    4.70
   2  -4   1   61.29    5.80
  -2  -4  -1   43.50    5.20
  -2  -4  -1   61.09    5.70
  -2  -4  -1   48.80    5.90
   2   4   1   44.10    2.90
   2   4   1   54.59    6.00
  -2   4  -1   41.90    4.60
   2   4   1   44.00    4.50
  -2   4  -1   47.70    3.60
   2   4   1   45.30    3.10
   2   4   1   49.00    4.60
  -2   4  -1   41.00    4.80
  -2   4  -1   43.70    3.60
   3  -4   1  987.20   49.60
   3  -4   1 1154.78   49.99
   3  -4   1 1071.19   51.49
   3  -4   1 1070.29   49.70
  -3  -4  -1 1045.10   51.59
  -3  -4  -1 1050.89   50.19
  -3  -4  -1 1064.69   50.49
  -3  -4  -1 1113.49   52.69
  -3  -4  -1 1030.70   51.79
   3  -4   1 1029.80   51.39
   3  -4   1  983.70   52.49
   3   4   1 1036.00   52.29
   3   4   1 1049.99   49.99
   3   4   1 1040.70   52.19
   3   4   1 1085.39   52.19
  -3   4  -1  915.91   50.99
  -3   4  -1 1062.79   50.19
   3   4   1 1058.59   49.80
  -3   4  -1 1147.19   51.19
  -3   4  -1 1176.78   50.69
   4  -4   1  728.93   38.70
   4  -4   1  727.13   36.80
  -4  -4  -1  765.02   38.30
  -4  -4  -1  759.32   40.10
   4  -4   1  824.72   39.40
  -4  -4  -1  712.83   37.60
   4  -4   1  773.02   37.10
   4  -4   1  730.73   39.80
  -4  -4  -1  708.83   39.20
  -4  -4  -1  799.72   37.70
   4   4   1  776.32   39.20
  -4   4  -1  718.13   37.20
   4   4   1  756.92   36.50
  -4   4  -1  745.93   34.50
   4   4   1  688.03   37.60
   4   4   1  740.73   36.30
  -4   4  -1  789.72   37.90
  -4   4  -1  733.03   34.40
   5  -4   1    8.80    3.00
   5  -4   1    7.60    3.50
   5  -4   1    7.40    3.50
   5  -4   1   12.30    4.00
  -5  -4  -1   10.70    3.10
  -5  -4  -1   11.40    3.90
  -5  -4  -1   15.10    4.30
   5   4   1   16.20    3.60
  -5   4  -1   13.60    2.40
  -5   4  -1   11.20    2.90
   5   4   1    9.90    3.20
   5   4   1    9.20    4.10
  -5   4  -1   15.10    4.00
   5   4   1   13.10    3.30
  -5   4  -1   10.60    2.00
   6  -4   1  242.98   16.60
  -6  -4  -1  220.98   15.00
   6  -4   1  195.28   15.80
   6  -4   1  193.28   13.70
  -6  -4  -1  194.08   16.90
   6   4   1  247.98   14.90
  -6   4  -1  217.38   12.60
  -6   4  -1  194.38   13.80
   7  -4   1    7.20    3.50
   7  -4   1    3.00    3.10
   7  -4   1   11.00    3.80
  -7  -4  -1    8.20    4.20
  -7  -4  -1    9.80    4.10
  -7   4  -1    5.80    3.00
   7   4   1    1.90    2.10
  -7   4  -1    3.40    2.00
   8  -4   1    2.10    2.40
  -8  -4  -1    1.30    4.70
   8  -4   1    2.50    3.00
   8  -4   1   -1.60    3.20
  -8  -4  -1   -0.60    3.80
   8   4   1    1.00    3.10
  -8   4  -1    4.30    3.10
   7  -5  -1    3.60    3.30
   7  -5  -1    2.80    3.10
   7  -5  -1    6.70    3.80
  -7  -5   1    6.80    3.40
  -7  -5   1    3.50    3.20
   7   5  -1    3.10    3.30
   7   5  -1    5.20    2.70
  -7   5   1   -0.40    2.30
   6  -5  -1  134.79   10.00
  -6  -5   1  123.89   10.90
  -6  -5   1  144.79   13.30
   6  -5  -1  131.39   11.40
   6  -5  -1  126.29   12.60
   6   5  -1  134.69   10.40
  -6   5   1  143.09   10.00
   6   5  -1  127.19   10.70
   5  -5  -1  225.78   15.40
   5  -5  -1  258.07   17.80
  -5  -5   1  257.97   18.00
   5  -5  -1  253.57   14.20
  -5  -5   1  222.88   16.60
   5  -5  -1  264.87   15.80
  -5  -5   1  222.68   14.80
   5  -5  -1  202.88   13.40
   5   5  -1  239.98   15.90
   5   5  -1  224.48   14.10
   5   5  -1  233.68   16.90
  -5   5   1  225.58   14.30
   5   5  -1  238.28   13.80
   4  -5  -1  352.96   17.90
  -4  -5   1  364.96   21.80
   4  -5  -1  360.76   19.40
   4  -5  -1  352.26   18.30
   4  -5  -1  309.57   21.40
   4  -5  -1  354.76   17.70
  -4  -5   1  329.77   19.10
  -4  -5   1  300.97   20.50
   4  -5  -1  311.87   18.80
   4   5  -1  351.66   18.60
  -4   5   1  352.16   17.30
   4   5  -1  322.97   20.60
   4   5  -1  347.37   20.80
  -4   5   1  339.27   19.20
   4   5  -1  360.86   18.30
   4   5  -1  344.07   18.00
   3  -5  -1   43.10    3.60
   3  -5  -1   58.59    5.80
   3  -5  -1   35.40    6.10
   3  -5  -1   50.29    3.80
  -3  -5   1   40.70    6.00
   3  -5  -1   43.70    4.30
   3  -5  -1   48.60    5.60
  -3  -5   1   51.49    5.60
  -3  -5   1   46.40    4.60
  -3  -5   1   53.09    6.50
  -3  -5   1   62.79    5.90
   3  -5  -1   46.40    4.60
   3   5  -1   37.90    3.80
   3   5  -1   44.70    4.70
   3   5  -1   39.20    3.40
   3   5  -1   49.20    5.90
   3   5  -1   36.90    5.70
  -3   5   1   38.80    4.80
   2  -5  -1  637.74   34.00
   2  -5  -1  625.24   29.60
  -2  -5   1  608.34   32.90
  -2  -5   1  588.04   31.30
  -2  -5   1  718.13   31.70
   2  -5  -1  638.54   30.30
  -2  -5   1  663.73   34.10
  -2  -5   1  609.44   32.00
  -2  -5   1  708.33   33.30
   2  -5  -1  633.34   30.50
   2  -5  -1  658.03   32.60
   2  -5  -1  639.34   32.30
   2  -5  -1  653.73   29.70
   2   5  -1  592.54   30.80
  -2   5   1  575.44   31.00
   2   5  -1  679.53   32.50
   2   5  -1  627.84   31.00
   2   5  -1  603.64   32.30
   1  -5  -1  330.27   17.50
   1  -5  -1  324.17   14.60
   1  -5  -1  339.27   18.30
  -1  -5   1  305.17   16.00
  -1  -5   1  320.97   16.00
  -1  -5   1  306.17   17.20
  -1  -5   1  289.27   16.90
   1  -5  -1  292.67   14.50
  -1  -5   1  327.07   18.40
  -1  -5   1  337.57   18.00
  -1  -5   1  332.57   17.80
   1  -5  -1  301.87   18.30
   1   5  -1  366.06   18.00
   1   5  -1  355.66   18.10
   1   5  -1  354.06   19.60
   1   5  -1  345.67   20.20
   0  -5  -1  137.69    7.70
   0  -5  -1  143.49    9.80
   0  -5  -1  148.99    9.90
   0  -5   1  150.18    9.10
   0  -5  -1  144.29    7.20
   0  -5   1  143.99    8.90
   0  -5   1  152.28    8.10
   0  -5  -1  140.99    7.80
   0  -5   1  150.68   10.00
   0  -5   1  148.69   10.50
   0  -5   1  141.29   10.30
   0  -5  -1  158.38   10.50
   0  -5   1  143.99    7.90
   0  -5  -1  148.99    7.20
   0   5   1  150.48   10.40
   0   5  -1  119.89    9.50
   1  -5   1  459.35   23.90
  -1  -5  -1  496.75   24.60
  -1  -5  -1  461.85   22.90
   1  -5   1  492.25   22.90
   1  -5   1  487.95   25.30
  -1  -5  -1  477.05   23.90
   1  -5   1  495.15   26.30
  -1  -5  -1  475.75   23.00
  -1  -5  -1  487.15   26.00
   1  -5   1  480.45   25.20
   1  -5   1  488.45   22.90
  -1  -5  -1  511.05   25.50
  -1  -5  -1  461.85   24.00
   1  -5   1  446.36   23.80
  -1   5  -1  484.75   25.20
   1   5   1  450.95   25.80
  -1   5  -1  492.65   25.40
   2  -5   1  699.23   32.00
   2  -5   1  714.53   33.50
   2  -5   1  698.33   33.50
   2  -5   1  709.43   33.90
  -2  -5  -1  647.64   32.40
  -2  -5  -1  595.74   33.20
   2  -5   1  654.23   35.60
  -2  -5  -1  695.33   32.70
  -2  -5  -1  627.44   33.90
   2  -5   1  720.13   34.20
   2  -5   1  657.23   31.90
  -2  -5  -1  659.53   32.40
  -2   5  -1  618.94   32.00
   2   5   1  645.54   31.00
  -2   5  -1  611.34   31.70
   2   5   1  641.84   33.10
   2   5   1  622.14   30.80
  -3  -5  -1   62.09    6.60
  -3  -5  -1   59.29    7.20
   3  -5   1   59.99    4.90
  -3  -5  -1   59.09    4.00
   3  -5   1   69.39    5.70
   3  -5   1   53.09    5.80
  -3  -5  -1   61.29    5.20
   3  -5   1   57.89    6.00
   3  -5   1   68.29    5.20
  -3  -5  -1   60.29    5.40
   3  -5   1   54.99    7.50
  -3   5  -1   64.89    5.70
  -3   5  -1   65.99    4.70
   3   5   1   59.19    7.10
   3   5   1   70.09    6.60
   3   5   1   62.89    4.30
  -3   5  -1   67.89    7.00
   4  -5   1  155.68    9.70
  -4  -5  -1  153.08   11.80
   4  -5   1  130.09   10.60
  -4  -5  -1  126.69   10.10
  -4  -5  -1  148.09   12.20
   4  -5   1  128.99   11.70
   4  -5   1  160.28    9.80
   4  -5   1  153.48   11.10
  -4   5  -1  147.89    9.50
   4   5   1  146.29    8.60
   4   5   1  120.69   10.70
   4   5   1  136.29    8.70
   4   5   1  140.09   11.20
  -4   5  -1  131.29    9.90
  -5  -5  -1   65.09    9.50
   5  -5   1   66.39    8.90
   5  -5   1   75.59    8.10
   5  -5   1   63.69    6.90
   5  -5   1   64.79    8.30
  -5  -5  -1   70.09    7.60
  -5  -5  -1   76.09    9.60
   5   5   1   83.49    6.80
  -5   5  -1   73.69    7.10
   5   5   1   69.49    6.20
  -5   5  -1   74.59    8.00
   5   5   1   82.79    9.10
  -6  -5  -1   36.70    6.30
   6  -5   1   36.20    6.80
  -6  -5  -1   37.90    7.60
   6  -5   1   35.60    5.50
   6  -5   1   32.80    6.20
  -6   5  -1   23.40    4.40
   7  -5   1   42.20    7.90
   7  -5   1   45.90    6.70
  -7  -5  -1   58.49    8.00
   7  -5   1   78.89   10.60
   7   5   1   59.19    7.30
  -7   5  -1   79.99    8.50
  -7  -6   1   41.20    8.60
  -7  -6   1   34.40    6.10
   7   6  -1   40.20    6.40
   7   6  -1   33.90    5.30
  -7   6   1   33.60    5.30
  -6  -6   1  124.99   10.60
   6  -6  -1  126.99    9.70
  -6  -6   1  134.69   13.50
   6  -6  -1  111.29   13.30
   6  -6  -1  131.29   11.00
   6   6  -1  115.49    8.90
   6   6  -1  105.69   10.20
  -6   6   1  117.19    9.30
   5  -6  -1   47.10    6.20
   5  -6  -1   47.40    5.30
   5  -6  -1   46.10    6.00
  -5  -6   1   39.60    7.00
  -5  -6   1   36.90    5.80
   5  -6  -1   46.40    7.70
  -5   6   1   39.40    5.70
   5   6  -1   34.20    5.90
   4  -6  -1  115.89    7.50
   4  -6  -1  109.59    7.30
  -4  -6   1  116.19   10.50
  -4  -6   1  103.29    7.50
   4  -6  -1  104.09    8.20
  -4  -6   1  114.39    8.80
  -4  -6   1  130.79   11.20
   4  -6  -1  115.09    8.40
   4  -6  -1  100.19    8.00
   4  -6  -1  107.09   10.70
  -4   6   1  111.29    8.90
   4   6  -1   99.89    9.50
  -3  -6   1   42.70    5.50
   3  -6  -1   39.60    6.40
   3  -6  -1   35.80    3.10
   3  -6  -1   40.00    3.90
   3  -6  -1   33.50    3.70
  -3  -6   1   33.00    4.40
  -3  -6   1   27.20    5.10
  -3  -6   1   33.50    4.70
   3  -6  -1   37.70    3.50
   3  -6  -1   45.10    5.40
  -3  -6   1   36.40    5.80
  -3   6   1   35.20    4.90
   3   6  -1   32.40    4.80
   3   6  -1   37.30    5.90
   3   6  -1   28.20    4.00
   2  -6  -1  105.89    5.50
  -2  -6   1  102.49    8.10
  -2  -6   1  107.69    7.50
   2  -6  -1  103.39    8.30
  -2  -6   1  110.89    8.80
  -2  -6   1  104.99    7.20
   2  -6  -1  102.99    5.50
   2  -6  -1  101.29    5.70
  -2  -6   1   89.99    7.80
   2  -6  -1   86.99    8.80
   2   6  -1   86.79    8.60
   2   6  -1   93.89    6.90
  -2   6   1  118.89    8.70
   1  -6  -1  602.34   27.20
  -1  -6   1  605.24   31.40
  -1  -6   1  579.14   29.10
  -1  -6   1  579.84   30.30
  -1  -6   1  563.54   30.10
   1  -6  -1  636.14   32.60
   1  -6  -1  615.44   27.20
  -1  -6   1  620.14   29.10
   1   6  -1  615.84   28.20
   1   6  -1  588.44   32.50
   0  -6  -1   47.80    6.00
   0  -6   1   48.50    3.60
   0  -6   1   46.60    4.50
   0  -6   1   42.80    3.50
   0  -6   1   45.60    4.30
   0  -6  -1   44.40    3.00
   0  -6  -1   43.50    3.30
   0  -6  -1   41.30    3.20
   0  -6  -1   43.20    2.90
   0  -6   1   43.30    6.00
   0   6   1   43.60    6.40
   0   6  -1   42.80    5.80
  -1  -6  -1   57.09    5.60
  -1  -6  -1   61.69    4.30
  -1  -6  -1   57.39    5.00
   1  -6   1   50.09    4.80
  -1  -6  -1   59.59    4.40
   1  -6   1   56.19    4.80
  -1  -6  -1   57.49    5.20
   1  -6   1   67.19    4.30
   1  -6   1   60.79    7.30
   1  -6   1   53.19    4.10
  -1   6  -1   68.29    7.40
  -1   6  -1   56.59    6.80
   1   6   1   64.09    7.70
   2  -6   1  624.54   34.80
   2  -6   1  642.54   31.90
  -2  -6  -1  639.44   32.30
  -2  -6  -1  623.64   31.00
   2  -6   1  642.14   31.80
  -2  -6  -1  609.24   32.60
   2  -6   1  663.63   30.60
  -2  -6  -1  624.84   31.50
   2  -6   1  647.14   32.80
  -2  -6  -1  632.84   31.20
   2  -6   1  648.74   30.50
  -2   6  -1  573.74   29.20
   2   6   1  540.35   30.20
  -2   6  -1  534.05   28.70
  -3  -6  -1  531.85   25.80
   3  -6   1  502.55   24.90
  -3  -6  -1  494.15   25.90
  -3  -6  -1  494.75   27.70
   3  -6   1  502.05   26.30
   3  -6   1  498.65   24.90
   3  -6   1  506.25   26.40
   3  -6   1  493.05   29.00
  -3  -6  -1  490.55   27.30
  -3  -6  -1  501.05   24.30
   3  -6   1  476.15   26.10
   3   6   1  508.95   28.50
  -3   6  -1  500.85   27.20
   3   6   1  496.65   26.30
   4  -6   1   27.40    4.20
  -4  -6  -1   29.50    5.70
   4  -6   1   30.70    4.10
  -4  -6  -1   22.70    4.80
   4  -6   1   28.70    4.90
   4  -6   1   29.20    6.10
   4  -6   1   30.90    4.90
  -4  -6  -1   39.90    5.20
   4   6   1   35.10    6.30
  -4   6  -1   38.70    5.50
   4   6   1   32.00    3.00
   5  -6   1  212.08   13.20
  -5  -6  -1  195.28   14.10
   5  -6   1  246.98   17.80
  -5  -6  -1  193.08   16.10
   5  -6   1  221.68   15.10
  -5   6  -1  224.38   14.80
   5   6   1  205.68   15.50
  -6  -6  -1  111.89   12.00
   6  -6   1  118.99    9.50
  -6  -6  -1  124.79   10.70
   6  -6   1  130.69   14.20
   6  -6   1  129.99   11.70
  -6   6  -1  127.09   10.60
  -6  -7   1   78.79   10.90
  -6  -7   1   87.69    9.70
   6   7  -1  100.59   11.40
  -6   7   1   87.69    9.40
  -5  -7   1    7.50    2.90
  -5  -7   1    2.10    3.70
   5  -7  -1    2.80    2.20
   5  -7  -1    6.30    4.40
  -5   7   1    8.60    3.60
   5   7  -1    5.50    4.30
   4  -7  -1   18.50    3.20
  -4  -7   1   21.20    5.10
  -4  -7   1   26.50    4.80
   4  -7  -1   28.50    3.80
   4  -7  -1   15.40    5.40
   4   7  -1   14.60    4.90
  -4   7   1   17.10    4.40
  -3  -7   1  973.20   47.50
  -3  -7   1  928.41   47.40
  -3  -7   1 1008.00   49.50
   3  -7  -1  960.20   45.70
   3  -7  -1 1022.20   45.70
   3  -7  -1  934.81   50.89
  -3  -7   1  985.10   49.90
  -3   7   1  913.81   45.90
   3   7  -1  914.81   47.80
   2  -7  -1  168.58   12.90
  -2  -7   1  156.38   10.90
  -2  -7   1  134.69   10.70
   2  -7  -1  149.88    7.80
  -2  -7   1  152.98    9.70
  -2  -7   1  143.59   10.70
  -2  -7   1  151.18    9.80
   2   7  -1  146.19   11.90
   1  -7  -1  165.68    8.30
  -1  -7   1  172.28   11.10
  -1  -7   1  172.28   11.00
  -1  -7   1  165.28    9.90
  -1  -7   1  168.98   12.20
  -1  -7   1  176.88   10.10
   1  -7  -1  157.58   12.50
   1  -7  -1  168.38    8.30
   1   7  -1  166.78   13.10
   0  -7   1    1.70    1.60
   0  -7  -1    0.90    0.80
   0  -7   1    0.30    1.20
   0  -7   1    1.10    1.10
   0  -7  -1    0.90    1.00
   0  -7  -1    0.00    2.20
   0  -7  -1    0.50    0.80
   0  -7  -1    0.80    0.90
   0  -7   1    1.60    1.60
   0  -7   1    2.30    1.90
   0   7  -1    2.20    2.10
  -1  -7  -1    7.70    1.90
   1  -7   1   11.20    4.00
   1  -7   1   10.40    2.40
   1  -7   1   11.50    2.30
  -1  -7  -1    8.90    2.30
  -1  -7  -1   12.20    2.10
   1  -7   1   12.50    2.00
  -1  -7  -1   14.10    3.40
   1  -7   1   10.30    1.90
  -1  -7  -1   10.80    2.40
  -1   7  -1   12.70    4.00
   1   7   1   22.00    5.00
  -2  -7  -1  236.08   13.40
   2  -7   1  237.98   17.00
  -2  -7  -1  245.08   14.40
  -2  -7  -1  224.98   13.20
   2  -7   1  218.88   13.20
   2  -7   1  243.88   13.50
  -2  -7  -1  242.18   14.00
   2  -7   1  240.48   12.70
   2  -7   1  230.48   12.60
  -2  -7  -1  236.68   14.60
  -2   7  -1  199.88   14.00
  -2   7  -1  221.28   14.00
   2   7   1  196.88   14.90
  -3  -7  -1   10.50    3.20
   3  -7   1   13.50    2.80
   3  -7   1   11.60    5.00
  -3  -7  -1   15.40    3.80
  -3  -7  -1   11.60    3.00
   3  -7   1   14.60    3.10
   3  -7   1   11.20    2.40
   3   7   1   18.00    4.80
  -3   7  -1   16.70    4.40
   4  -7   1  236.88   14.90
   4  -7   1  244.18   18.50
  -4  -7  -1  241.68   16.90
   4  -7   1  227.18   14.90
  -4  -7  -1  234.18   15.00
  -4   7  -1  241.48   15.90
   4   7   1  228.38   16.90
   5  -7   1   85.59    8.40
  -5  -7  -1   82.89   10.50
   5  -7   1   95.49   11.70
  -5  -7  -1   77.49    8.50
  -5   7  -1   80.59    8.90
   4  -8  -1    7.90    1.80
  -4  -8   1    9.10    3.60
   4  -8  -1    9.40    4.10
   4  -8  -1   10.20    2.10
  -4  -8   1    6.30    3.70
  -4   8   1    2.10    3.40
   4   8  -1    1.60    3.70
  -3  -8   1   96.09    9.00
   3  -8  -1   66.19    9.70
  -3  -8   1   94.99    7.80
   3   8  -1   76.19    9.60
  -2  -8   1   20.80    4.20
  -2  -8   1   15.30    3.60
  -2  -8   1   13.30    3.40
   2  -8  -1   13.60    4.50
   2   8  -1   13.50    4.30
  -1  -8   1  288.57   15.90
  -1  -8   1  242.58   16.90
   1  -8  -1  276.07   18.20
  -1  -8   1  261.87   15.70
   1   8  -1  243.68   17.40
   0  -8  -1  137.29    7.00
   0  -8   1  135.49   11.80
   0  -8  -1  146.39   11.50
   0  -8   1  142.59    9.30
   0  -8  -1  151.58    7.20
   0  -8   1  134.79    9.10
   0   8  -1  118.19   10.50
   1  -8   1   56.29    4.50
   1  -8   1   57.89    4.70
   1  -8   1   55.39    7.80
  -1  -8  -1   51.09    4.80
  -1  -8  -1   57.69    4.80
  -1  -8  -1   56.09    7.00
  -1   8  -1   54.39    7.60
  -2  -8  -1  587.34   29.20
   2  -8   1  570.34   32.30
   2  -8   1  568.54   27.50
   2  -8   1  525.15   27.10
  -2  -8  -1  520.65   29.00
   3  -8   1   16.80    2.90
   3  -8   1   12.10    5.00
  -3  -8  -1   15.20    3.80
   3  -8   1   11.90    2.70
  -3   8  -1   12.00    3.50
   4  -8   1   41.90    7.90
  -4  -8  -1   46.60    7.10
   4  -8   1   51.39    5.50
  -4   8  -1   41.40    6.70
  -2  -9   1  333.77   20.10
   2  -9  -1  272.07   20.40
  -1  -9   1   72.69    6.40
   1  -9  -1   85.49    9.80
  -1  -9   1   83.39    9.30
   1   9  -1   57.89    8.30
   0  -9  -1  225.18   15.90
   0  -9   1  239.08   12.90
   0  -9   1  228.08   16.60
   0   9  -1  208.88   15.80
  -1  -9  -1  132.69    8.20
   1  -9   1  138.89   12.60
   1  -9   1  135.09    7.70
  -1  -9  -1  142.69    8.30
   1  -9   1  130.69    7.60
   2  -9   1   14.00    4.40
  -2  -9  -1   12.10    3.10
   2  -9   1    8.50    1.40
   9   0  -2   55.99   10.00
  -9   0   2   61.29    8.00
   9   0  -2   43.40    8.00
  -8   0   2    5.90    3.40
   8   0  -2    6.10    2.90
   8   0  -2    3.50    4.20
   7   0  -2    1.50    2.90
   7   0  -2    0.50    1.20
  -7   0   2    0.20    3.50
  -7   0   2    3.80    2.50
   7   0  -2    8.20    3.30
   7   0  -2   -2.40    2.90
   6   0  -2 1585.64   68.49
  -6   0   2 1485.45   72.99
   6   0  -2 1480.45   70.79
   6   0  -2 1247.38   72.39
  -6   0   2 1364.46   70.49
   6   0  -2 1638.54   74.39
  -6   0   2 1514.65   73.69
   5   0  -2    8.30    2.40
  -5   0   2    8.20    3.60
  -5   0   2   12.70    4.10
   5   0  -2    5.80    2.90
  -5   0   2    1.40    2.00
   5   0  -2    3.60    2.00
  -5   0   2    6.50    2.20
   5   0  -2    4.80    1.60
   5   0  -2    7.60    3.70
  -4   0   2 1309.57   65.09
  -4   0   2 1346.07   64.69
   4   0  -2 1336.67   63.19
   4   0  -2 1417.26   63.29
   4   0  -2 1315.97   65.09
   4   0  -2 1326.37   64.89
  -4   0   2 1436.36   63.09
  -4   0   2 1228.08   62.99
  -3   0   2   87.09    6.40
   3   0  -2   90.59    6.50
   3   0  -2   94.69    6.30
  -3   0   2   86.39    6.30
   3   0  -2  109.39    8.10
   3   0  -2   84.59    7.30
  -3   0   2   96.79    7.50
  -3   0   2   71.09    7.10
   2   0  -2  194.08   11.50
   2   0  -2  175.98    9.90
  -2   0   2  183.88   11.30
   2   0  -2  181.78   11.20
  -2   0   2  172.88   10.80
  -2   0   2  187.38   10.20
  -2   0   2  198.08   10.10
   2   0  -2  198.98   10.30
   1   0  -2   30.00    3.30
   1   0  -2   34.20    2.90
   1   0  -2   23.90    2.90
  -1   0   2   33.20    2.80
  -1   0   2   33.50    3.60
   1   0  -2   31.20    2.90
  -1   0   2   26.90    2.70
  -1   0   2   29.70    1.50
  -1   0   2   34.60    3.30
   1   0  -2   30.60    3.50
   0   0   2 1577.14   67.39
   0   0   2 1364.86   68.09
   0   0  -2 1437.36   68.19
   0   0  -2 1552.34   68.29
   0   0  -2 1442.66   67.39
   0   0  -2 1443.66   67.59
   0   0   2 1483.45   68.19
   0   0   2 1543.35   67.49
   0   0   2 1476.65   67.69
   1   0   2 3840.92  183.68
   1   0   2 4215.08  189.98
  -1   0  -2 3750.52  184.88
   1   0   2 3879.71  185.68
  -1   0  -2 4351.66  186.18
  -1   0  -2 4017.90  185.78
   1   0   2 4612.64  196.08
  -1   0  -2 3908.21  185.88
  -1   0  -2 3635.74  188.98
   2   0   2  425.06   20.00
   2   0   2  418.36   21.50
   2   0   2  391.06   21.40
  -2   0  -2  427.76   21.80
   2   0   2  390.26   20.10
  -2   0  -2  401.76   20.20
  -2   0  -2  401.96   20.30
   2   0   2  394.76   20.10
  -2   0  -2  381.86   19.80
  -2   0  -2  391.16   21.40
  -3   0  -2  199.98   13.00
   3   0   2  218.78   11.80
   3   0   2  207.08   12.10
  -3   0  -2  206.18   12.20
  -3   0  -2  199.78   13.60
   3   0   2  213.38   13.70
   3   0   2  195.08   11.80
  -3   0  -2  214.28   10.50
   3   0   2  196.78   13.60
   4   0   2 1052.79   50.79
  -4   0  -2 1109.29   53.19
  -4   0  -2 1044.30   50.89
   4   0   2 1100.09   51.39
   4   0   2 1048.50   51.39
  -4   0  -2 1054.79   48.90
  -4   0  -2 1058.99   51.39
  -4   0  -2 1121.99   54.09
   4   0   2 1002.40   53.29
   5   0   2  189.18   14.20
   5   0   2  152.98   10.60
  -5   0  -2  151.38   10.50
  -5   0  -2  158.08   11.10
  -5   0  -2  152.48   13.30
   5   0   2  171.18   11.40
  -5   0  -2  188.28   13.50
   5   0   2  145.39   12.40
   6   0   2  230.78   18.50
   6   0   2  257.67   16.40
  -6   0  -2  270.17   16.50
  -6   0  -2  250.87   18.00
  -6   0  -2  241.88   18.30
   6   0   2  274.27   19.00
   6   0   2  251.17   15.50
   7   0   2  236.58   15.60
  -7   0  -2  277.07   17.30
   7   0   2  245.28   19.40
   7   0   2  255.67   17.00
  -7   0  -2  282.07   20.30
   7   0   2  257.77   20.00
  -8   0  -2   28.90    5.70
   8   0   2   21.90    4.70
   8   0   2   38.30    6.20
   8   0   2   26.30    6.80
   9  -1  -2  133.49   14.00
  -9  -1   2  141.79   12.30
   9  -1  -2  126.49   12.60
  -9   1   2  161.58   12.70
   8  -1  -2   36.90    7.40
  -8  -1   2   31.60    5.60
   8  -1  -2   33.00    6.00
   8   1  -2   36.00    8.10
   8   1  -2   47.80    7.20
  -8   1   2   40.50    6.20
  -7  -1   2  131.39   11.40
  -7  -1   2  136.89   13.20
   7  -1  -2  150.68    7.50
   7  -1  -2  152.68   11.00
   7  -1  -2  136.09   13.00
   7  -1  -2  151.28   13.70
   7   1  -2  134.39   13.40
  -7   1   2  164.38   11.70
   7   1  -2  147.09    9.60
  -7   1   2  171.98   14.40
   7   1  -2  183.78   15.50
   6  -1  -2  189.78   14.70
  -6  -1   2  187.18   12.80
  -6  -1   2  181.88   14.50
   6  -1  -2  207.78   12.90
   6  -1  -2  183.38    9.70
   6  -1  -2  169.48   14.20
  -6  -1   2  169.28   14.80
  -6   1   2  194.98   14.80
   6   1  -2  178.28   11.20
   6   1  -2  191.38   15.10
   6   1  -2  197.78   12.90
  -6   1   2  178.98   11.90
   6   1  -2  209.08   15.60
  -6   1   2  199.28   12.70
  -5  -1   2    3.70    2.00
  -5  -1   2    3.80    3.50
  -5  -1   2    2.70    2.40
   5  -1  -2    4.30    2.50
   5  -1  -2    3.70    2.50
  -5  -1   2   -1.20    2.70
   5  -1  -2    4.30    2.60
   5  -1  -2    2.50    1.80
  -5   1   2    1.00    1.80
   5   1  -2    0.00    2.30
   5   1  -2    6.20    2.00
  -5   1   2    2.70    1.70
  -5   1   2    7.50    2.70
   5   1  -2    6.40    2.80
  -5   1   2    3.30    2.10
   5   1  -2    3.10    2.80
   5   1  -2    2.80    2.60
  -4  -1   2  698.23   37.80
  -4  -1   2  852.41   36.70
   4  -1  -2  722.73   37.60
   4  -1  -2  791.72   36.00
  -4  -1   2  742.53   37.80
   4  -1  -2  622.84   35.40
   4  -1  -2  681.53   37.30
  -4  -1   2  773.02   36.10
   4   1  -2  782.42   37.30
   4   1  -2  751.22   36.50
  -4   1   2  759.32   38.40
  -4   1   2  745.93   36.90
  -4   1   2  728.93   36.50
   4   1  -2  713.03   38.70
   4   1  -2  824.12   39.80
   4   1  -2  767.02   37.30
  -3  -1   2 1530.55   73.09
  -3  -1   2 1598.54   73.29
   3  -1  -2 1567.04   72.89
   3  -1  -2 1469.05   72.79
  -3  -1   2 1752.02   75.29
   3  -1  -2 1580.34   74.49
   3  -1  -2 1604.94   74.39
  -3  -1   2 1522.55   75.09
  -3   1   2 1480.25   69.69
   3   1  -2 1539.05   70.39
   3   1  -2 1413.06   68.49
  -3   1   2 1519.15   68.19
  -3   1   2 1400.16   69.19
   3   1  -2 1573.14   68.99
   3   1  -2 1508.05   68.39
   3   1  -2 1471.15   70.19
   3   1  -2 1390.86   68.49
  -3   1   2 1438.96   67.89
  -2  -1   2 1499.05   69.89
   2  -1  -2 1587.24   69.59
   2  -1  -2 1526.25   69.49
   2  -1  -2 1461.95   70.49
  -2  -1   2 1434.16   69.89
  -2  -1   2 1413.86   70.89
  -2  -1   2 1637.24   71.69
   2  -1  -2 1580.84   70.69
   2   1  -2 1433.76   67.39
  -2   1   2 1489.85   66.19
   2   1  -2 1392.16   68.39
   2   1  -2 1494.15   67.29
   2   1  -2 1576.34   68.89
   2   1  -2 1511.75   67.79
  -2   1   2 1446.56   66.79
  -2   1   2 1439.16   66.69
  -2   1   2 1359.16   67.59
   1  -1  -2 3769.42  202.78
  -1  -1   2 5001.40  202.98
  -1  -1   2 4931.91  204.58
  -1  -1   2 4396.16  202.78
  -1  -1   2 4356.16  206.68
   1  -1  -2 4697.33  200.98
   1  -1  -2 4029.60  201.68
  -1  -1   2 4205.98  205.68
  -1  -1   2 4361.06  202.88
  -1   1   2 4071.29  196.98
   1   1  -2 3864.41  200.08
  -1   1   2 4601.24  196.78
  -1   1   2 4614.74  196.48
   1   1  -2 4463.55  198.68
   1   1  -2 4081.29  198.38
   0  -1  -2  318.77   15.30
   0  -1   2  301.57   15.70
   0  -1   2  333.67   15.00
   0  -1   2  294.07   15.80
   0  -1  -2  299.37   14.60
   0  -1   2  285.67   15.80
   0  -1   2  296.57   15.50
   0  -1   2  295.97   14.80
   0  -1   2  294.87   14.90
   0  -1  -2  314.87   14.50
   0  -1  -2  308.67   15.40
   0   1   2  304.37   14.80
   0   1  -2  304.17   16.20
   0   1   2  323.97   15.70
   0   1  -2  289.67   16.00
   0   1  -2  310.87   15.30
   0   1   2  308.57   15.70
   0   1   2  329.27   15.00
   0   1  -2  330.07   15.40
   0   1   2  342.17   15.80
   0   1  -2  299.37   15.90
   0   1  -2  320.67   15.30
  -1  -1  -2  866.51   39.90
   1  -1   2  867.71   41.10
   1  -1   2  892.21   41.30
  -1  -1  -2  840.22   40.80
   1  -1   2  823.32   40.50
   1  -1   2  815.12   39.90
   1  -1   2  907.31   40.00
  -1  -1  -2  892.31   39.90
  -1  -1  -2  798.42   40.80
  -1  -1  -2  861.21   39.10
   1   1   2  747.23   36.80
   1   1   2  759.12   36.80
  -1   1  -2  785.42   37.00
  -1   1  -2  859.11   37.10
  -1   1  -2  852.21   37.90
   1   1   2  788.22   38.00
   1   1   2  741.73   37.90
   1   1   2  718.03   36.20
  -1   1  -2  845.72   38.30
  -1   1  -2  844.52   38.30
  -2  -1  -2 1195.68   55.39
   2  -1   2 1115.89   53.79
   2  -1   2 1151.58   53.89
   2  -1   2 1179.48   55.39
  -2  -1  -2 1230.38   55.69
  -2  -1  -2 1113.79   53.59
   2  -1   2 1097.29   55.39
  -2  -1  -2 1096.49   53.89
  -2  -1  -2 1213.88   53.99
   2  -1   2 1163.48   54.49
   2   1   2 1036.50   53.09
   2   1   2 1234.08   55.79
  -2   1  -2 1163.18   54.29
  -2   1  -2 1135.19   54.19
   2   1   2 1184.98   55.89
   2   1   2 1166.08   54.29
  -2   1  -2 1285.27   55.19
  -2   1  -2 1203.38   55.89
   2   1   2 1103.99   54.19
  -2   1  -2 1159.98   55.59
   3  -1   2 3115.29  150.88
   3  -1   2 3330.17  149.49
  -3  -1  -2 3070.09  147.99
  -3  -1  -2 3223.58  150.88
   3  -1   2 3455.35  151.28
   3  -1   2 3225.28  148.89
  -3  -1  -2 3282.77  148.99
  -3  -1  -2 3269.27  151.38
  -3  -1  -2 3310.77  149.19
   3  -1   2 3343.77  149.09
  -3   1  -2 3290.37  149.59
  -3   1  -2 3792.62  151.68
  -3   1  -2 3213.88  149.19
   3   1   2 3368.26  151.68
   3   1   2 2867.81  150.98
  -3   1  -2 3180.38  151.58
   3   1   2 3286.87  149.79
   3   1   2 3208.08  149.49
  -4  -1  -2 1353.06   65.89
  -4  -1  -2 1411.96   67.89
   4  -1   2 1390.46   65.89
   4  -1   2 1359.96   67.79
   4  -1   2 1471.45   65.99
  -4  -1  -2 1455.45   64.39
   4  -1   2 1406.16   66.19
  -4  -1  -2 1339.17   65.49
  -4  -1  -2 1382.86   68.59
   4  -1   2 1287.47   67.69
   4   1   2 1482.35   64.79
   4   1   2 1393.76   67.19
  -4   1  -2 1369.06   64.39
  -4   1  -2 1300.07   66.59
  -4   1  -2 1315.27   63.89
   4   1   2 1295.77   62.99
   4   1   2 1377.46   64.49
   4   1   2 1376.16   66.69
  -4   1  -2 1333.07   65.99
   5  -1   2  625.64   33.20
  -5  -1  -2  652.73   33.30
   5  -1   2  646.94   35.40
  -5  -1  -2  641.64   36.00
  -5  -1  -2  639.34   30.80
   5  -1   2  602.14   35.30
  -5  -1  -2  684.73   35.70
   5  -1   2  630.64   33.10
   5   1   2  655.33   34.10
   5   1   2  606.74   35.10
   5   1   2  669.93   31.50
   5   1   2  608.84   32.70
  -5   1  -2  623.94   34.70
   5   1   2  637.44   35.70
  -5   1  -2  655.83   35.60
  -5   1  -2  642.44   32.20
  -5   1  -2  628.64   32.70
  -6  -1  -2  650.83   36.90
   6  -1   2  685.53   37.90
   6  -1   2  733.03   38.80
   6  -1   2  655.13   35.20
  -6  -1  -2  663.53   38.20
   6  -1   2  696.23   35.40
  -6  -1  -2  612.74   34.90
   6   1   2  776.32   42.20
   6   1   2  808.12   41.70
   6   1   2  681.23   38.10
  -6   1  -2  751.82   41.50
   6   1   2  742.33   36.80
  -6   1  -2  720.73   38.20
  -7  -1  -2    4.70    2.70
  -7  -1  -2    0.30    2.70
   7  -1   2   -0.40    2.40
  -7  -1  -2    3.30    3.40
   7  -1   2    4.00    3.00
   7  -1   2    7.40    3.10
  -7   1  -2    4.30    3.20
  -7   1  -2   -5.20    2.70
   7   1   2    1.80    2.90
   7   1   2    4.20    2.50
   7   1   2    5.80    2.70
   8  -1   2   40.30    6.30
   8  -1   2   45.60    6.70
  -8  -1  -2   34.70    6.50
   8  -1   2   35.00    8.00
   8   1   2   41.50   12.80
   8   1   2   46.90    7.00
  -8   1  -2   33.10    6.10
  -8  -2   2  114.09   13.60
   8  -2  -2  104.79   10.60
   8  -2  -2  113.99   12.10
  -8  -2   2  109.79   10.90
  -8   2   2  104.59    8.30
   8   2  -2  102.09   10.70
  -8   2   2  112.79    9.40
   7  -2  -2  208.68   16.50
   7  -2  -2  218.88   14.40
  -7  -2   2  221.78   17.60
  -7  -2   2  242.38   18.50
  -7  -2   2  232.28   15.60
   7   2  -2  249.78   14.70
   7   2  -2  246.18   16.20
   7   2  -2  255.47   19.60
   7   2  -2  254.47   15.70
  -7   2   2  231.68   14.90
  -7   2   2  251.17   14.80
   6  -2  -2   55.99    6.50
   6  -2  -2   53.19    7.90
  -6  -2   2   55.19    7.90
   6  -2  -2   44.00    6.90
  -6  -2   2   42.20    7.40
   6  -2  -2   45.90    3.00
  -6  -2   2   52.19    6.70
   6   2  -2   52.79    5.50
  -6   2   2   47.50    5.60
   6   2  -2   51.59    6.00
  -6   2   2   44.80    5.10
   6   2  -2   57.49    6.60
  -6   2   2   53.49    5.50
   6   2  -2   37.90    6.70
   6   2  -2   55.39    8.00
   5  -2  -2  851.61   43.50
   5  -2  -2  967.30   46.40
  -5  -2   2  894.91   47.00
  -5  -2   2  852.71   44.20
  -5  -2   2  851.91   46.00
   5  -2  -2  828.42   45.60
   5  -2  -2 1023.30   44.30
   5   2  -2  855.41   45.60
   5   2  -2  965.40   48.90
   5   2  -2  936.51   46.00
  -5   2   2  972.40   44.80
   5   2  -2 1021.90   49.00
  -5   2   2  915.61   44.90
  -5   2   2  959.00   47.20
   5   2  -2  934.01   45.50
  -5   2   2  859.11   44.50
  -5   2   2  978.10   47.80
   5   2  -2  893.91   45.50
   4  -2  -2  133.59    9.90
  -4  -2   2  122.69    8.90
   4  -2  -2  125.89    8.60
   4  -2  -2  126.19    8.30
   4  -2  -2  134.59   10.20
  -4  -2   2  151.88   11.50
  -4  -2   2  130.69   10.70
  -4  -2   2  127.59    9.20
  -4   2   2  122.09    8.00
  -4   2   2  145.99    9.90
  -4   2   2  141.39    8.40
   4   2  -2  137.49   11.10
   4   2  -2  130.49    9.20
  -4   2   2  139.59    8.10
   4   2  -2  123.39    8.80
   4   2  -2  130.59    8.90
  -4   2   2  132.49    9.70
   4   2  -2  155.48   11.30
   4   2  -2  127.99    8.90
  -3  -2   2 2145.99   94.49
  -3  -2   2 1768.72   93.89
   3  -2  -2 1984.50   93.29
  -3  -2   2 2091.69   92.49
   3  -2  -2 1930.81   92.99
  -3  -2   2 1961.50   92.39
   3  -2  -2 2196.38   91.99
   3  -2  -2 1934.11   91.69
   3   2  -2 2047.00   97.49
  -3   2   2 2207.88   94.79
   3   2  -2 2025.80   95.49
   3   2  -2 1844.52   95.39
  -3   2   2 2020.50   94.29
  -3   2   2 2117.99   94.49
   3   2  -2 1962.10   97.09
   3   2  -2 2175.08   96.09
  -3   2   2 2053.99   95.99
   3   2  -2 1998.00   95.49
  -3   2   2 2354.66   96.29
   2  -2  -2  242.68   13.10
   2  -2  -2  238.18   12.20
  -2  -2   2  236.08   13.20
  -2  -2   2  260.17   13.60
   2  -2  -2  252.87   12.50
   2  -2  -2  271.57   13.50
  -2  -2   2  235.78   14.30
  -2  -2   2  246.18   14.40
  -2  -2   2  254.17   13.20
   2  -2  -2  224.08   12.20
  -2   2   2  236.48   13.10
  -2   2   2  263.97   11.90
   2   2  -2  246.38   13.20
  -2   2   2  250.87   12.60
   2   2  -2  261.17   14.70
  -2   2   2  245.88   11.90
  -2   2   2  248.28   13.00
   2   2  -2  252.37   13.50
   2   2  -2  260.77   14.60
   2   2  -2  241.18   13.30
   2   2  -2  257.27   14.10
   1  -2  -2  726.43   32.30
   1  -2  -2  721.83   33.00
   1  -2  -2  684.23   33.00
   1  -2  -2  709.03   32.30
  -1  -2   2  698.73   33.40
  -1  -2   2  692.73   34.00
  -1  -2   2  759.52   34.50
   1  -2  -2  689.73   33.00
  -1  -2   2  711.23   33.30
  -1  -2   2  703.63   33.40
  -1  -2   2  690.03   34.60
   1   2  -2  740.43   33.90
   1   2  -2  746.73   32.90
  -1   2   2  707.73   32.20
   1   2  -2  695.53   33.70
  -1   2   2  664.23   32.20
   1   2  -2  680.63   32.80
   1   2  -2  671.33   34.10
   0  -2  -2  282.97   14.10
   0  -2   2  287.77   15.10
   0  -2   2  275.47   15.10
   0  -2  -2  284.17   14.10
   0  -2   2  296.77   14.50
   0  -2   2  282.77   14.10
   0  -2  -2  282.67   13.30
   0  -2   2  281.27   14.00
   0  -2  -2  278.97   13.30
   0  -2   2  269.97   15.20
   0   2  -2  278.87   14.50
   0   2  -2  274.57   14.80
   0   2  -2  289.87   15.20
   0   2  -2  288.67   13.90
   0   2  -2  262.97   15.10
   0   2  -2  299.57   14.10
   0   2  -2  284.37   14.90
   0   2   2  298.47   13.80
   0   2   2  275.27   13.70
  -1  -2  -2  898.41   43.30
  -1  -2  -2  941.41   42.30
   1  -2   2  918.91   43.60
  -1  -2  -2  901.51   42.20
   1  -2   2  936.61   42.50
   1  -2   2  964.30   44.00
  -1  -2  -2  895.51   43.20
  -1  -2  -2  774.82   42.90
   1  -2   2  939.51   43.80
   1  -2   2  934.21   42.90
   1  -2   2  921.01   42.50
  -1   2  -2  955.50   43.40
  -1   2  -2  960.50   42.10
  -1   2  -2  891.61   42.60
   1   2   2  905.51   41.70
   1   2   2  864.31   42.90
  -1   2  -2  750.32   42.80
  -1   2  -2  883.51   42.30
   1   2   2  941.91   41.70
  -1   2  -2  966.20   42.10
   1   2   2  900.01   42.80
  -1   2  -2  956.00   43.70
   2  -2   2  285.47   14.70
  -2  -2  -2  269.67   14.70
   2  -2   2  284.87   15.90
  -2  -2  -2  309.67   15.30
  -2  -2  -2  269.57   14.70
   2  -2   2  298.37   16.40
   2  -2   2  258.07   15.90
   2  -2   2  271.27   14.60
  -2  -2  -2  264.47   15.60
  -2  -2  -2  281.57   16.30
   2   2   2  258.97   13.80
  -2   2  -2  267.87   13.70
   2   2   2  262.17   13.70
   2   2   2  293.47   15.40
  -2   2  -2  273.77   15.00
  -2   2  -2  247.88   13.10
  -2   2  -2  261.97   15.00
  -2   2  -2  258.77   14.30
  -2   2  -2  269.77   15.10
  -2   2  -2  248.68   13.40
   3  -2   2   78.89    7.60
   3  -2   2   93.59    6.60
  -3  -2  -2   83.39    8.30
   3  -2   2   92.59    7.70
  -3  -2  -2   94.99    6.50
  -3  -2  -2   72.29    7.10
   3  -2   2   99.19    8.30
  -3  -2  -2   85.99    6.50
   3  -2   2   79.39    6.30
  -3  -2  -2   73.79    6.00
   3   2   2   80.49    6.50
   3   2   2   92.59    6.40
  -3   2  -2   94.89    6.20
  -3   2  -2   93.49    6.70
   3   2   2   85.49    7.60
  -3   2  -2   87.29    6.30
  -3   2  -2   83.39    7.10
   3   2   2   82.99    7.80
  -3   2  -2   86.19    4.70
   4  -2   2  271.27   16.40
  -4  -2  -2  265.27   15.50
   4  -2   2  254.67   15.30
  -4  -2  -2  264.07   15.10
  -4  -2  -2  251.87   16.70
   4  -2   2  267.27   15.20
  -4  -2  -2  276.37   14.80
  -4  -2  -2  243.18   17.20
   4  -2   2  243.28   16.50
   4  -2   2  279.67   17.50
   4   2   2  269.97   13.10
  -4   2  -2  284.57   14.80
   4   2   2  244.98   17.10
   4   2   2  295.07   17.80
   4   2   2  288.07   15.40
  -4   2  -2  234.48   16.00
  -4   2  -2  277.67   17.30
   4   2   2  270.77   15.70
  -4   2  -2  258.27   14.90
  -5  -2  -2  795.92   41.40
   5  -2   2  789.02   42.10
  -5  -2  -2  805.92   44.50
  -5  -2  -2  839.02   40.10
   5  -2   2  842.32   41.50
  -5  -2  -2  863.31   44.00
   5  -2   2  787.52   43.80
   5  -2   2  877.21   44.10
   5   2   2  811.92   38.50
  -5   2  -2  827.22   40.10
   5   2   2  771.92   43.00
   5   2   2  816.62   41.10
   5   2   2  804.42   40.70
  -5   2  -2  870.71   44.00
   5   2   2  805.42   43.80
  -5   2  -2  782.52   40.40
  -5   2  -2  886.01   45.20
   6  -2   2  168.08   12.60
   6  -2   2  157.98   14.10
  -6  -2  -2  181.08   12.90
   6  -2   2  181.98   13.50
  -6  -2  -2  189.78   11.00
   6  -2   2  175.38   14.60
  -6  -2  -2  164.08   15.30
  -6  -2  -2  173.98   14.20
  -6   2  -2  161.58   13.90
   6   2   2  164.68   12.40
   6   2   2  190.18   15.40
  -6   2  -2  167.28   11.90
   6   2   2  172.28   10.00
   7  -2   2   28.10    5.10
   7  -2   2   31.20    5.70
  -7  -2  -2   34.30    5.60
   7  -2   2   31.80    6.90
  -7  -2  -2   29.40    7.40
   7   2   2   31.20    6.80
   7   2   2   20.10    4.70
  -7   2  -2   30.10    5.20
   8  -2   2  276.47   19.20
  -8  -2  -2  309.67   20.20
   8  -2   2  327.17   20.70
  -8  -2  -2  310.97   23.40
   8  -2   2  300.17   22.80
  -8   2  -2  303.97   18.90
   8   2   2  292.67   19.60
  -8  -3   2   42.20    6.80
   8  -3  -2   34.50    7.50
   8  -3  -2   24.80    5.00
  -8  -3   2   28.70    7.50
   8   3  -2   32.40    6.20
   8   3  -2   24.00    4.40
  -8   3   2   28.40    4.50
  -7  -3   2  130.69   13.40
   7  -3  -2  146.99   11.00
   7  -3  -2  129.19   12.80
  -7  -3   2  155.48   12.10
   7   3  -2  161.68   15.00
   7   3  -2  155.98   12.40
   7   3  -2  163.38   11.60
  -7   3   2  169.08   10.90
  -7   3   2  163.78   11.00
   6  -3  -2  304.77   14.60
  -6  -3   2  324.57   21.00
   6  -3  -2  283.77   19.70
  -6  -3   2  298.97   21.30
   6  -3  -2  324.37   20.30
  -6  -3   2  329.97   19.30
   6  -3  -2  294.07   17.70
  -6   3   2  296.37   19.50
  -6   3   2  305.17   16.80
  -6   3   2  298.27   17.10
   6   3  -2  309.27   18.30
   6   3  -2  319.17   18.20
   6   3  -2  314.87   21.20
   6   3  -2  312.97   17.40
   5  -3  -2   29.50    5.10
   5  -3  -2   20.80    4.60
  -5  -3   2   30.80    4.60
   5  -3  -2   34.60    4.60
  -5  -3   2   24.80    5.30
   5  -3  -2   28.80    3.00
   5  -3  -2   32.90    4.40
  -5  -3   2   24.10    5.90
   5   3  -2   31.90    5.90
   5   3  -2   22.60    3.80
  -5   3   2   26.00    4.80
   5   3  -2   21.70    4.20
  -5   3   2   23.50    2.90
   5   3  -2   24.50    5.60
  -5   3   2   25.30    3.60
   5   3  -2   27.60    3.90
  -5   3   2   27.30    3.30
   5   3  -2   23.80    4.20
   4  -3  -2   42.70    4.30
  -4  -3   2   39.30    4.70
   4  -3  -2   37.70    5.20
   4  -3  -2   36.10    5.00
  -4  -3   2   39.50    5.10
  -4  -3   2   34.60    5.80
   4  -3  -2   39.60    4.30
  -4  -3   2   32.20    5.80
   4  -3  -2   37.50    3.80
  -4   3   2   36.40    4.80
   4   3  -2   33.20    5.90
  -4   3   2   39.60    4.00
   4   3  -2   39.70    5.10
   4   3  -2   38.60    4.50
  -4   3   2   35.20    3.00
   4   3  -2   37.10    5.90
  -4   3   2   39.60    4.70
   4   3  -2   33.00    4.60
   4   3  -2   36.60    4.30
   3  -3  -2 2585.34  116.59
  -3  -3   2 2356.26  119.09
  -3  -3   2 2573.64  117.09
   3  -3  -2 2810.32  117.59
   3  -3  -2 2437.86  115.99
  -3  -3   2 2503.15  117.19
  -3  -3   2 2618.74  119.09
   3  -3  -2 2600.24  117.49
  -3  -3   2 2587.54  117.19
   3  -3  -2 2409.06  115.99
   3  -3  -2 2534.95  116.39
   3   3  -2 2454.05  111.29
  -3   3   2 2395.36  111.39
   3   3  -2 2535.25  111.59
   3   3  -2 2246.08  113.09
   3   3  -2 2257.07  111.19
   3   3  -2 2571.44  113.69
  -3   3   2 2447.16  111.09
  -3   3   2 2495.05  110.99
  -2  -3   2   63.99    6.10
   2  -3  -2   73.99    5.10
  -2  -3   2   79.99    6.60
   2  -3  -2   74.89    5.70
   2  -3  -2   77.49    4.30
   2  -3  -2   74.99    5.00
   2  -3  -2   72.49    5.00
   2  -3  -2   71.59    4.30
  -2  -3   2   78.69    5.80
  -2  -3   2   72.49    5.80
  -2  -3   2   74.99    5.50
  -2  -3   2   58.69    5.20
  -2   3   2   73.39    4.30
   2   3  -2   69.79    5.50
   2   3  -2   74.99    6.20
   2   3  -2   75.19    5.10
  -2   3   2   80.09    4.30
   2   3  -2   74.39    6.40
   2   3  -2   72.49    5.20
   2   3  -2   65.69    6.40
  -2   3   2   69.19    5.10
  -1  -3   2  559.44   27.70
  -1  -3   2  567.04   26.90
  -1  -3   2  513.05   27.40
  -1  -3   2  571.34   27.60
  -1  -3   2  538.15   26.20
  -1  -3   2  574.94   27.50
   1  -3  -2  572.54   26.50
   1  -3  -2  539.45   25.30
   1  -3  -2  558.64   27.20
  -1  -3   2  553.94   26.30
   1  -3  -2  471.85   25.10
   1   3  -2  510.05   24.70
   1   3  -2  487.85   26.10
   1   3  -2  536.75   26.60
   1   3  -2  518.05   24.70
   1   3  -2  509.05   26.40
   1   3  -2  567.74   26.20
   0  -3  -2 3707.53  151.88
   0  -3   2 3093.09  148.79
   0  -3   2 3324.27  146.39
   0  -3  -2 3151.48  150.88
   0  -3  -2 3724.83  147.59
   0  -3   2 3184.88  147.29
   0  -3   2 3069.49  147.59
   0  -3  -2 3225.28  147.99
   0  -3  -2 3200.38  147.09
   0  -3  -2 2945.41  146.89
   0  -3   2 3102.39  148.09
   0  -3   2 3104.59  147.69
   0   3  -2 3029.90  138.89
   0   3  -2 3091.19  139.29
   0   3  -2 3209.78  139.69
   0   3  -2 3335.67  141.59
   0   3  -2 2706.63  138.49
   0   3  -2 3035.20  139.09
   0   3  -2 2959.20  139.69
  -1  -3  -2 1416.06   64.89
  -1  -3  -2 1345.57   63.79
   1  -3   2 1339.27   63.99
  -1  -3  -2 1426.96   63.79
  -1  -3  -2 1427.06   65.69
   1  -3   2 1453.45   65.49
  -1  -3  -2 1458.05   63.89
  -1  -3  -2 1409.06   64.99
   1  -3   2 1408.96   64.99
   1  -3   2 1372.66   63.99
   1  -3   2 1267.57   65.79
   1  -3   2 1365.26   65.39
  -1   3  -2 1481.95   62.09
  -1   3  -2 1434.86   62.09
  -1   3  -2 1344.97   63.79
  -1   3  -2 1389.26   63.69
  -1   3  -2 1139.09   63.39
   1   3   2 1402.76   63.39
   1   3   2 1236.88   62.89
  -1   3  -2 1479.25   63.89
  -1   3  -2 1370.96   64.99
   2  -3   2  304.87   16.30
  -2  -3  -2  305.97   17.50
  -2  -3  -2  297.67   17.70
  -2  -3  -2  333.87   17.70
   2  -3   2  345.77   18.80
   2  -3   2  341.77   18.20
  -2  -3  -2  299.57   16.30
   2  -3   2  297.07   17.60
   2  -3   2  348.17   16.60
  -2  -3  -2  300.27   16.30
   2   3   2  315.67   15.90
  -2   3  -2  304.17   17.00
  -2   3  -2  327.17   16.30
  -2   3  -2  312.47   15.60
   2   3   2  321.37   15.80
  -2   3  -2  314.37   15.50
  -2   3  -2  330.37   17.40
   2   3   2  327.07   17.40
   2   3   2  305.97   17.50
  -2   3  -2  306.67   17.30
   3  -3   2  581.54   29.00
  -3  -3  -2  540.05   30.60
  -3  -3  -2  590.14   29.20
   3  -3   2  581.74   30.70
  -3  -3  -2  563.24   29.60
   3  -3   2  598.04   29.10
   3  -3   2  561.54   31.00
  -3  -3  -2  582.64   31.20
   3  -3   2  660.23   31.40
   3   3   2  604.84   32.30
  -3   3  -2  590.14   31.60
  -3   3  -2  632.24   29.70
  -3   3  -2  591.34   31.80
  -3   3  -2  615.04   29.30
   3   3   2  673.33   30.40
  -3   3  -2  629.64   31.30
   3   3   2  648.44   32.30
   3   3   2  639.24   30.40
  -3   3  -2  577.14   29.70
  -4  -3  -2   24.80    5.00
   4  -3   2   32.40    5.50
   4  -3   2   16.80    4.40
   4  -3   2   35.30    5.70
  -4  -3  -2   26.90    4.40
  -4  -3  -2   28.50    4.30
  -4  -3  -2   31.20    5.20
   4  -3   2   24.30    3.80
   4  -3   2   27.00    4.10
  -4  -3  -2   29.90    4.30
   4   3   2   28.30    5.00
  -4   3  -2   24.50    3.30
  -4   3  -2   22.90    4.20
   4   3   2   35.00    4.30
   4   3   2   28.80    4.20
  -4   3  -2   18.90    4.40
  -4   3  -2   31.70    5.00
   4   3   2   32.50    5.40
  -4   3  -2   30.60    3.70
  -5  -3  -2    2.40    3.50
   5  -3   2    4.30    2.50
  -5  -3  -2    6.30    3.00
   5  -3   2    8.00    3.60
  -5  -3  -2    2.80    2.80
   5  -3   2    2.90    2.60
   5  -3   2    5.40    2.80
  -5  -3  -2    4.20    2.10
   5   3   2    2.60    2.40
  -5   3  -2    1.10    1.30
  -5   3  -2    4.10    2.20
   5   3   2    3.00    2.50
  -5   3  -2    1.50    2.00
  -5   3  -2    3.20    3.20
   5   3   2    3.20    3.50
  -6  -3  -2  203.38   13.10
   6  -3   2  217.78   16.60
   6  -3   2  192.58   14.80
  -6  -3  -2  206.48   14.40
  -6  -3  -2  204.98   17.10
  -6  -3  -2  198.68   15.80
   6  -3   2  214.58   15.90
   6  -3   2  207.48   13.70
  -6   3  -2  194.78   12.50
  -6   3  -2  196.58   13.40
   6   3   2  193.68   13.40
   6   3   2  194.38   15.70
  -6   3  -2  192.98   12.00
   7  -3   2   19.60    4.70
   7  -3   2   24.10    5.90
  -7  -3  -2   22.00    4.60
  -7  -3  -2   21.90    6.10
   7  -3   2   25.80    6.80
   7   3   2   19.60    4.70
  -7   3  -2   17.80    4.10
  -7   3  -2   16.30    4.40
  -8  -3  -2   30.80    8.10
   8  -3   2   35.90    7.00
   8  -3   2   21.60    5.50
  -8  -3  -2   20.20    5.00
   8  -3   2   33.50    8.10
  -8   3  -2   37.60    5.70
   8   3   2   29.70    5.80
   8  -4  -2  571.54   33.60
   8  -4  -2  541.25   33.10
   8  -4  -2  498.85   29.40
  -8  -4   2  538.25   34.50
  -8  -4   2  553.94   31.00
   8   4  -2  559.94   29.90
   8   4  -2  542.05   30.30
  -8   4   2  526.55   28.70
   7  -4  -2   13.70    4.80
  -7  -4   2   11.90    5.80
  -7  -4   2   19.50    4.90
   7   4  -2   17.60    4.30
  -7   4   2   13.40    3.40
   7   4  -2   21.10    4.90
  -6  -4   2   49.30    8.20
   6  -4  -2   53.39    7.60
   6  -4  -2   63.89    6.50
  -6  -4   2   58.29    7.50
   6  -4  -2   57.39    7.90
   6   4  -2   60.59    5.80
  -6   4   2   64.69    6.40
   6   4  -2   56.39    7.10
   6   4  -2   74.59    7.70
   6   4  -2   62.09    8.70
   5  -4  -2  288.67   14.90
   5  -4  -2  297.57   18.00
   5  -4  -2  285.57   17.70
  -5  -4   2  295.87   19.40
  -5  -4   2  284.77   17.10
  -5  -4   2  278.07   19.40
   5  -4  -2  265.37   15.80
   5  -4  -2  271.87   15.90
  -5   4   2  292.27   17.10
   5   4  -2  278.97   16.50
   5   4  -2  287.77   17.70
   5   4  -2  290.67   16.00
   5   4  -2  305.47   19.50
  -5   4   2  273.97   16.00
   5   4  -2  281.07   16.80
  -4  -4   2  149.59   12.50
   4  -4  -2  154.98    9.60
   4  -4  -2  160.38    9.70
   4  -4  -2  198.28   11.60
  -4  -4   2  167.58   11.00
  -4  -4   2  152.88   12.20
   4  -4  -2  155.28    9.50
   4  -4  -2  138.79   10.60
  -4   4   2  151.78    9.90
   4   4  -2  157.98    9.70
   4   4  -2  145.79    9.80
  -4   4   2  152.68    9.80
   4   4  -2  147.89   10.90
   4   4  -2  181.78   12.70
  -3  -4   2  668.23   33.80
   3  -4  -2  626.94   29.70
   3  -4  -2  625.44   31.00
   3  -4  -2  599.54   30.90
  -3  -4   2  611.64   31.10
   3  -4  -2  621.44   29.80
  -3  -4   2  628.64   31.10
  -3  -4   2  639.04   31.60
  -3  -4   2  587.34   31.20
   3  -4  -2  685.33   31.10
   3  -4  -2  591.04   30.70
  -3  -4   2  615.24   32.90
  -3   4   2  619.94   28.50
   3   4  -2  630.14   29.80
   3   4  -2  606.54   31.90
   3   4  -2  603.84   31.70
   3   4  -2  676.53   32.40
  -3   4   2  550.74   28.20
   3   4  -2  594.04   30.20
  -3   4   2  592.34   30.00
  -2  -4   2  630.14   29.70
  -2  -4   2  607.84   29.50
  -2  -4   2  559.84   30.10
   2  -4  -2  586.24   29.40
   2  -4  -2  573.74   27.80
   2  -4  -2  581.64   27.70
   2  -4  -2  630.34   29.00
  -2  -4   2  564.54   28.50
   2  -4  -2  563.54   26.80
  -2  -4   2  562.64   28.70
  -2  -4   2  559.44   30.00
  -2  -4   2  577.34   30.40
   2  -4  -2  586.44   26.90
   2   4  -2  532.65   29.50
  -2   4   2  592.74   28.50
   2   4  -2  561.94   28.70
   2   4  -2  580.44   27.30
   2   4  -2  559.24   27.30
   2   4  -2  574.64   29.20
   2   4  -2  580.94   29.40
  -1  -4   2  283.07   15.80
   1  -4  -2  261.97   12.70
  -1  -4   2  277.07   14.40
   1  -4  -2  271.87   12.90
  -1  -4   2  266.77   15.70
   1  -4  -2  267.77   15.60
  -1  -4   2  270.87   16.10
   1  -4  -2  300.57   15.30
  -1  -4   2  294.17   15.90
  -1  -4   2  268.87   15.40
  -1  -4   2  275.67   14.40
   1   4  -2  273.67   13.30
   1   4  -2  236.48   14.50
   1   4  -2  307.27   15.80
   1   4  -2  291.07   15.50
   1   4  -2  263.57   16.00
   1   4  -2  279.17   15.80
   0  -4  -2   41.90    3.00
   0  -4   2   35.80    4.40
   0  -4   2   35.50    4.80
   0  -4  -2   41.00    5.20
   0  -4  -2   37.90    4.30
   0  -4  -2   44.50    2.30
   0  -4   2   41.00    3.40
   0  -4   2   45.30    5.00
   0  -4  -2   37.40    2.90
   0  -4   2   41.40    4.70
   0  -4  -2   43.60    2.30
   0  -4   2   45.00    5.20
   0  -4   2   36.30    3.40
   0  -4  -2   48.50    5.00
   0   4  -2   40.70    3.90
   0   4  -2   34.20    3.40
   0   4  -2   43.70    5.30
   0   4  -2   42.80    4.70
   0   4  -2   38.60    4.80
  -1  -4  -2  356.26   18.10
  -1  -4  -2  314.57   17.30
   1  -4   2  334.67   18.50
   1  -4   2  343.77   17.30
   1  -4   2  353.66   18.60
  -1  -4  -2  333.47   19.00
  -1  -4  -2  344.97   17.80
   1  -4   2  354.06   18.60
   1  -4   2  334.47   18.50
  -1  -4  -2  339.37   16.80
   1  -4   2  342.57   17.20
   1  -4   2  398.86   20.40
  -1  -4  -2  324.57   16.80
   1   4   2  330.47   16.70
  -1   4  -2  357.26   17.40
  -1   4  -2  316.97   17.40
   1   4   2  345.27   16.60
  -1   4  -2  357.16   19.70
  -1   4  -2  321.17   18.10
  -1   4  -2  343.87   18.40
   2  -4   2 1035.20   50.49
   2  -4   2 1026.20   48.70
  -2  -4  -2 1020.10   48.90
   2  -4   2 1062.39   50.19
  -2  -4  -2 1081.59   47.70
   2  -4   2 1014.60   50.29
  -2  -4  -2 1016.90   50.59
  -2  -4  -2 1074.99   50.49
   2  -4   2 1081.39   48.90
   2  -4   2  907.71   51.09
  -2  -4  -2 1025.80   50.49
  -2  -4  -2 1090.49   49.10
   2   4   2 1098.09   51.09
  -2   4  -2 1034.40   50.39
  -2   4  -2 1096.19   50.59
   2   4   2 1037.30   48.50
  -2   4  -2 1051.49   51.09
   2   4   2 1057.29   48.50
   2   4   2 1054.39   50.59
  -2   4  -2 1078.29   50.49
   3  -4   2  136.99   10.90
   3  -4   2  150.88   12.00
   3  -4   2  169.18   10.00
  -3  -4  -2  165.78   12.00
   3  -4   2  147.79    9.60
  -3  -4  -2  170.08   11.60
  -3  -4  -2  163.68   11.20
  -3  -4  -2  151.78    9.90
  -3  -4  -2  163.18   10.00
   3  -4   2  161.98   11.50
  -3   4  -2  147.39    7.50
  -3   4  -2  145.89   10.00
  -3   4  -2  128.49    9.60
  -3   4  -2  157.88    9.80
  -3   4  -2  140.89    8.70
  -3   4  -2  147.69    7.50
   3   4   2  145.49   10.10
   3   4   2  145.19    8.50
   3   4   2  137.29   10.30
   3   4   2  137.09    8.50
   4  -4   2    7.20    2.50
  -4  -4  -2    3.30    2.90
  -4  -4  -2    2.20    2.90
  -4  -4  -2    6.30    2.40
   4  -4   2    5.50    2.30
   4  -4   2    1.80    3.10
   4  -4   2    7.50    2.80
   4  -4   2    6.90    3.30
  -4  -4  -2    4.90    2.60
  -4   4  -2    7.30    3.10
  -4   4  -2    5.80    1.40
   4   4   2    5.40    2.20
  -4   4  -2    7.20    1.80
   4   4   2    6.90    2.10
  -4   4  -2    8.40    2.90
   4   4   2    7.70    3.50
  -5  -4  -2  627.54   35.30
   5  -4   2  698.33   35.90
   5  -4   2  606.64   32.50
  -5  -4  -2  632.24   36.20
   5  -4   2  627.14   35.20
  -5  -4  -2  589.84   33.00
   5  -4   2  644.34   34.90
  -5   4  -2  636.14   34.60
  -5   4  -2  613.34   31.20
   5   4   2  644.74   35.90
   5   4   2  660.83   32.60
   5   4   2  673.53   33.00
  -5   4  -2  610.84   33.30
  -5   4  -2  666.83   31.20
   6  -4   2  188.08   13.10
   6  -4   2  187.08   14.80
  -6  -4  -2  176.08   13.10
  -6  -4  -2  205.38   16.80
   6  -4   2  175.08   15.00
  -6   4  -2  193.68   13.30
  -6   4  -2  190.68   11.70
   6   4   2  198.98   13.30
   7  -4   2   20.20    5.80
   7  -4   2   10.90    5.40
   7  -4   2   18.50    4.60
  -7  -4  -2   27.20    7.00
  -7  -4  -2   18.30    4.60
  -7   4  -2   14.70    3.20
   7   4   2   19.30    4.70
  -7   4  -2   27.10    5.20
   7  -5  -2   22.10    5.80
  -7  -5   2   24.20    5.00
   7  -5  -2   28.70    4.80
   7  -5  -2   35.20    6.70
  -7  -5   2   30.70    7.20
  -7   5   2   34.10    4.90
   7   5  -2   31.60    5.40
   7   5  -2   36.60    6.00
  -6  -5   2  154.78   11.70
   6  -5  -2  152.28   12.40
  -6  -5   2  143.29   14.00
  -6   5   2  146.29   10.50
   6   5  -2  147.99   10.70
   6   5  -2  150.68   11.80
  -5  -5   2   42.00    7.10
   5  -5  -2   65.39    6.00
   5  -5  -2   56.79    5.70
   5  -5  -2   49.40    4.80
   5  -5  -2   63.99    6.70
   5  -5  -2   57.29    6.90
  -5  -5   2   59.99    8.80
  -5  -5   2   49.40    6.70
   5   5  -2   58.09    7.50
  -5   5   2   51.89    4.90
  -5   5   2   44.70    5.50
   5   5  -2   61.89    6.40
   5   5  -2   60.09    6.10
   5   5  -2   47.00    4.70
   4  -5  -2  223.18   13.70
   4  -5  -2  224.68   12.40
   4  -5  -2  237.78   12.60
  -4  -5   2  234.98   16.40
  -4  -5   2  229.68   15.90
  -4  -5   2  215.38   13.20
   4  -5  -2  238.08   13.40
  -4  -5   2  220.98   14.00
   4  -5  -2  205.28   13.40
   4   5  -2  228.78   12.70
   4   5  -2  223.78   15.00
   4   5  -2  215.08   13.00
   4   5  -2  234.08   13.20
   4   5  -2  210.98   15.00
  -4   5   2  224.08   13.50
  -3  -5   2  568.34   29.80
   3  -5  -2  576.14   29.80
  -3  -5   2  598.04   29.60
  -3  -5   2  609.54   31.70
   3  -5  -2  619.84   29.80
  -3  -5   2  560.44   31.70
   3  -5  -2  563.94   28.70
   3  -5  -2  605.54   28.90
   3  -5  -2  573.04   27.80
  -3  -5   2  594.64   30.00
   3  -5  -2  577.24   27.70
   3   5  -2  556.84   26.90
   3   5  -2  517.45   29.20
   3   5  -2  555.04   27.00
  -3   5   2  583.24   28.40
   3   5  -2  544.95   28.10
   3   5  -2  554.54   29.90
  -2  -5   2  276.77   15.10
  -2  -5   2  289.57   15.10
  -2  -5   2  284.97   16.90
  -2  -5   2  279.27   16.00
   2  -5  -2  276.17   13.50
   2  -5  -2  261.77   12.90
  -2  -5   2  271.57   16.90
   2  -5  -2  257.77   13.40
   2  -5  -2  279.37   16.10
   2  -5  -2  280.97   15.50
  -2  -5   2  268.17   16.60
   2  -5  -2  275.97   12.80
   2   5  -2  244.38   11.80
   2   5  -2  219.88   13.90
   2   5  -2  227.18   14.90
   2   5  -2  250.17   14.20
  -1  -5   2  379.36   19.00
   1  -5  -2  374.66   20.90
  -1  -5   2  380.66   20.50
  -1  -5   2  377.96   19.10
  -1  -5   2  356.56   20.30
  -1  -5   2  385.06   21.30
  -1  -5   2  356.86   20.30
   1  -5  -2  382.86   20.10
   1  -5  -2  403.66   21.50
  -1  -5   2  345.87   20.60
   1   5  -2  371.56   21.20
   1   5  -2  359.76   21.50
   1   5  -2  444.46   20.40
   1   5  -2  359.06   20.10
   0  -5  -2 1313.67   59.09
   0  -5   2 1274.77   63.19
   0  -5   2 1308.47   60.39
   0  -5   2 1344.27   62.09
   0  -5  -2 1307.17   59.69
   0  -5  -2 1343.27   59.09
   0  -5   2 1273.67   62.19
   0  -5   2 1264.77   61.79
   0  -5  -2 1354.76   62.39
   0  -5  -2 1258.97   59.69
   0  -5  -2 1310.27   62.09
   0  -5   2 1298.37   62.79
   0  -5   2 1245.78   60.39
   0  -5  -2 1367.26   63.19
   0   5  -2 1182.58   55.89
   0   5  -2 1253.57   55.29
   0   5  -2 1013.10   52.99
   0   5  -2  960.40   54.79
   0   5  -2 1294.57   53.09
   1  -5   2  931.71   45.80
  -1  -5  -2  917.21   44.20
   1  -5   2  874.11   43.70
   1  -5   2  885.61   43.80
  -1  -5  -2  941.01   45.20
  -1  -5  -2  904.51   42.00
  -1  -5  -2  898.41   43.20
   1  -5   2  989.30   44.60
   1  -5   2  944.01   42.50
  -1  -5  -2  848.82   42.80
   1  -5   2  854.21   44.20
  -1  -5  -2  916.31   42.00
  -1  -5  -2  856.51   43.20
   1  -5   2  880.51   42.30
  -1   5  -2  912.51   46.70
  -1   5  -2 1017.90   44.70
  -1   5  -2  922.51   46.80
   2  -5   2  373.66   18.10
  -2  -5  -2  339.87   19.50
   2  -5   2  345.27   19.30
   2  -5   2  332.07   19.40
  -2  -5  -2  349.77   18.20
   2  -5   2  344.67   17.90
  -2  -5  -2  324.37   17.30
   2  -5   2  353.66   21.20
  -2  -5  -2  376.86   19.60
   2   5   2  378.56   19.90
  -2   5  -2  391.76   19.70
  -2   5  -2  371.56   20.50
  -2   5  -2  359.66   20.90
  -2   5  -2  381.56   19.10
  -3  -5  -2 1606.44   70.49
   3  -5   2 1498.45   71.99
  -3  -5  -2 1620.24   73.09
   3  -5   2 1400.26   73.39
  -3  -5  -2 1517.15   72.29
   3  -5   2 1492.15   69.99
  -3  -5  -2 1467.95   70.49
   3  -5   2 1517.45   72.19
   3  -5   2 1352.76   69.79
  -3   5  -2 1353.56   67.49
  -3   5  -2 1405.06   66.39
   3   5   2 1458.95   67.99
  -4  -5  -2  218.78   13.70
  -4  -5  -2  204.18   15.40
   4  -5   2  221.58   15.80
   4  -5   2  206.88   14.40
   4  -5   2  220.08   13.10
   4  -5   2  210.98   14.60
   4  -5   2  230.48   13.20
  -4  -5  -2  188.28   14.50
   4   5   2  206.78   14.50
  -4   5  -2  214.58   13.50
   4   5   2  199.18   11.80
  -4   5  -2  203.98   13.40
   5  -5   2  422.76   21.80
  -5  -5  -2  397.16   22.50
   5  -5   2  390.16   24.00
   5  -5   2  338.77   23.80
  -5  -5  -2  380.66   24.80
   5  -5   2  373.36   23.30
   5   5   2  389.76   20.90
  -5   5  -2  400.16   22.80
   5   5   2  400.76   21.30
  -6  -5  -2   74.89    8.50
   6  -5   2   60.09    8.80
   6  -5   2   64.09    9.60
  -6  -5  -2   67.69   10.10
   6  -5   2   68.89    7.60
   6   5   2   71.29    7.50
  -6   5  -2   81.79    8.40
  -7  -5  -2   25.50    5.50
   7  -5   2   19.30    4.90
   7  -5   2   21.60    6.20
  -7  -5  -2   26.60    7.50
   7  -5   2   18.20    5.80
   7   5   2   22.60    4.90
  -7   5  -2   18.30    4.70
  -7  -6   2  135.39   11.80
  -7  -6   2  113.89   14.00
  -7   6   2  117.49    9.90
   7   6  -2  138.89   12.10
   7   6  -2  135.39   10.30
  -6  -6   2  152.58   13.90
   6  -6  -2  126.59   10.30
  -6  -6   2  143.49   12.00
   6  -6  -2  167.48   14.80
   6  -6  -2  153.18   11.90
  -6   6   2  171.88   11.20
   6   6  -2  135.89   12.30
   6   6  -2  148.59   10.70
  -5  -6   2  223.98   14.70
  -5  -6   2  241.38   17.70
   5  -6  -2  233.08   17.40
   5  -6  -2  223.78   14.40
   5  -6  -2  204.08   14.10
   5   6  -2  236.88   16.40
  -5   6   2  213.58   14.10
   4  -6  -2   91.89    6.10
   4  -6  -2   78.59    6.60
   4  -6  -2   83.29    6.80
  -4  -6   2   80.09    6.90
   4  -6  -2   87.29    6.00
  -4  -6   2   86.39    9.20
  -4  -6   2   75.69    9.20
   4  -6  -2   72.79    7.10
   4  -6  -2   92.29   10.50
  -4  -6   2   81.09    8.00
   4   6  -2   73.09    5.60
   4   6  -2   74.89    6.40
  -4   6   2   70.59    7.10
   4   6  -2   73.39    8.70
   3  -6  -2  398.96   21.50
  -3  -6   2  359.26   22.10
  -3  -6   2  386.06   21.00
   3  -6  -2  360.46   19.00
  -3  -6   2  398.76   23.10
   3  -6  -2  394.56   23.80
   3  -6  -2  378.46   18.60
   3  -6  -2  392.76   18.50
   3  -6  -2  377.16   19.20
  -3  -6   2  369.86   21.00
   3   6  -2  404.46   22.20
   3   6  -2  404.36   21.60
  -3   6   2  379.46   21.60
   3   6  -2  386.56   18.90
   3   6  -2  399.56   23.50
  -2  -6   2  208.78   12.20
  -2  -6   2  194.48   12.10
  -2  -6   2  196.88   13.50
  -2  -6   2  199.28   13.50
  -2  -6   2  222.08   13.60
   2  -6  -2  207.28    9.70
   2  -6  -2  202.08    9.60
   2  -6  -2  191.08   14.20
   2   6  -2  209.18   12.40
   2   6  -2  198.78   13.20
   2   6  -2  199.88   14.40
   1  -6  -2  429.06   24.20
  -1  -6   2  457.35   21.80
  -1  -6   2  408.56   21.60
  -1  -6   2  402.56   23.10
  -1  -6   2  424.56   23.90
  -1  -6   2  435.96   23.20
   1   6  -2  465.25   25.20
   1   6  -2  426.26   21.80
   1   6  -2  426.06   24.20
   0  -6  -2  151.98    7.30
   0  -6  -2  144.89   10.30
   0  -6   2  140.99   10.80
   0  -6   2  138.69    9.60
   0  -6   2  130.59    9.50
   0  -6  -2  131.19    7.40
   0  -6  -2  136.79    7.40
   0  -6   2  149.39    8.60
   0  -6   2  131.69    8.30
   0  -6  -2  143.29    7.20
   0   6  -2  127.29   10.20
   0   6  -2  140.79    7.00
  -1  -6  -2  541.15   26.70
  -1  -6  -2  537.45   27.60
   1  -6   2  592.04   30.40
   1  -6   2  497.75   27.40
   1  -6   2  539.45   26.30
   1  -6   2  540.85   27.80
  -1  -6  -2  523.95   25.90
   1  -6   2  541.25   26.20
  -1  -6  -2  540.15   27.10
  -1   6  -2  542.45   29.50
  -1   6  -2  568.84   29.80
  -2  -6  -2   54.09    5.10
   2  -6   2   48.80    4.50
  -2  -6  -2   47.60    5.20
  -2  -6  -2   51.49    6.00
   2  -6   2   48.10    5.60
   2  -6   2   50.59    4.60
  -2  -6  -2   60.09    4.80
   2  -6   2   49.20    5.90
   2  -6   2   50.69    7.20
  -2  -6  -2   54.39    4.50
  -2   6  -2   54.09    6.30
  -2   6  -2   54.19    6.60
   3  -6   2   13.40    2.80
  -3  -6  -2   12.40    3.50
  -3  -6  -2    9.90    1.20
  -3  -6  -2   10.80    2.90
  -3  -6  -2   10.90    2.90
   3  -6   2    5.20    4.10
   3  -6   2    9.30    2.50
   3  -6   2   12.80    3.30
  -3  -6  -2   10.90    3.50
   3  -6   2    9.30    3.00
  -3   6  -2    9.00    1.60
   3   6   2   12.10    2.90
  -3   6  -2    7.80    2.80
  -3   6  -2   10.80    2.90
   4  -6   2   99.59    9.10
  -4  -6  -2   91.39    9.80
  -4  -6  -2  106.79    8.60
   4  -6   2   96.79    7.60
   4  -6   2   88.59    8.70
  -4  -6  -2  104.19   11.20
   4  -6   2  102.99   11.80
  -4   6  -2   88.79    8.90
   5  -6   2  118.89   11.10
  -5  -6  -2  117.19    9.90
   5  -6   2  106.89   12.30
  -5  -6  -2  124.29   12.50
   5  -6   2  138.09    9.80
  -5   6  -2  121.09   10.20
  -6  -6  -2  132.39   10.70
   6  -6   2  129.29   14.00
  -6  -6  -2  108.19   13.10
   6  -6   2  118.09   11.30
   6  -6   2  126.29   10.20
  -6   6  -2  104.99   10.00
  -6  -7   2  111.39   12.20
  -6  -7   2  134.39   11.00
  -6   7   2  108.79    9.70
   6   7  -2  133.49   12.20
   5  -7  -2   39.90    7.90
   5  -7  -2   44.30    5.40
  -5  -7   2   39.70    6.30
  -5  -7   2   48.70    8.20
  -5   7   2   33.90    5.70
   5   7  -2   46.40    7.20
   4  -7  -2  287.27   19.70
  -4  -7   2  264.17   15.80
  -4  -7   2  273.17   18.60
   4  -7  -2  253.37   14.40
  -4  -7   2  250.47   16.10
   4  -7  -2  259.87   14.40
   4   7  -2  268.97   18.60
  -4   7   2  262.47   16.50
   3  -7  -2   19.00    4.70
  -3  -7   2   23.30    4.20
   3  -7  -2   17.30    1.70
   3  -7  -2   17.60    1.70
  -3  -7   2   18.80    4.60
  -3  -7   2   14.90    3.60
   3   7  -2   17.20    4.90
  -2  -7   2  152.08   11.20
  -2  -7   2  147.59    9.70
   2  -7  -2  150.38   12.10
  -2  -7   2  122.39   10.20
  -2  -7   2  132.69   10.60
   2   7  -2  139.89   11.90
   2   7  -2  139.29   10.70
  -1  -7   2  744.73   37.90
  -1  -7   2  784.92   39.60
   1  -7  -2  809.52   41.20
  -1  -7   2  782.82   37.90
  -1  -7   2  802.32   40.80
  -1  -7   2  796.72   39.60
   1  -7  -2  773.62   35.40
   1   7  -2  778.12   41.10
   0  -7  -2   69.89    4.20
   0  -7  -2   67.99    4.20
   0  -7  -2   67.29    3.80
   0  -7   2   61.49    8.00
   0  -7   2   80.39    5.50
   0  -7   2   71.49    6.70
   0  -7  -2   63.89    3.80
   0  -7  -2   79.59    7.50
   0  -7   2   59.59    5.10
   0  -7   2   69.39    6.20
   0   7  -2   71.59    8.20
   1  -7   2  301.07   17.60
  -1  -7  -2  322.17   16.80
   1  -7   2  333.57   18.10
  -1  -7  -2  322.47   16.40
  -1  -7  -2  345.97   16.40
   1  -7   2  324.67   16.70
   1  -7   2  330.37   16.80
  -1  -7  -2  299.27   17.90
  -1  -7  -2  306.37   17.00
   1  -7   2  303.17   20.10
  -1   7  -2  292.17   18.40
  -1   7  -2  303.57   18.50
  -2  -7  -2  196.78   12.20
   2  -7   2  191.38   11.20
  -2  -7  -2  184.58   12.50
   2  -7   2  189.38   12.40
   2  -7   2  246.48   16.30
   2  -7   2  189.48   12.40
   2  -7   2  178.48   11.00
  -2  -7  -2  182.18   11.10
  -2  -7  -2  181.28   11.40
  -2  -7  -2  200.08   11.60
  -2   7  -2  187.08   13.30
  -2   7  -2  219.28   14.50
  -3  -7  -2   55.29    6.00
   3  -7   2   56.79    5.50
   3  -7   2   56.89    6.10
  -3  -7  -2   58.09    7.00
   3  -7   2   48.20    6.20
  -3  -7  -2   50.89    7.00
   3  -7   2   60.49    8.50
  -3   7  -2   56.09    6.90
  -3   7  -2   44.70    6.00
   4  -7   2  344.57   19.80
   4  -7   2  320.47   22.20
  -4  -7  -2  339.47   19.30
   4  -7   2  313.27   19.70
  -4  -7  -2  336.07   21.50
  -4   7  -2  332.97   20.30
  -5  -7  -2  128.09   10.60
  -5  -7  -2  134.49   12.90
   5  -7   2  128.09   14.20
   5  -7   2  133.59   11.20
  -5   7  -2  118.59   11.50
  -4  -8   2  360.66   21.20
   4  -8  -2  333.17   23.50
  -4  -8   2  386.16   23.70
   4  -8  -2  370.26   17.60
   4   8  -2  331.47   21.90
  -3  -8   2   24.50    4.50
  -3  -8   2   14.20    4.10
   3  -8  -2   15.60    4.60
   3   8  -2    9.20    3.70
  -2  -8   2   27.40    4.30
  -2  -8   2   21.80    4.50
  -2  -8   2   27.00    4.80
   2  -8  -2   16.30    4.90
   2   8  -2   23.70    5.70
  -1  -8   2   54.19    5.90
  -1  -8   2   59.39    6.20
   1  -8  -2   61.79    8.10
  -1  -8   2   55.89    7.50
   1   8  -2   44.70    6.90
   0  -8   2   76.39    9.20
   0  -8   2   76.09    6.50
   0  -8  -2   86.39    8.20
   0  -8   2   77.99    7.00
   0   8  -2   72.19    8.60
  -1  -8  -2  148.59   10.40
   1  -8   2  138.69    9.50
  -1  -8  -2  125.29    8.30
   1  -8   2  165.08   13.10
   1  -8   2  125.29    9.00
  -1  -8  -2  136.39    8.40
  -1   8  -2  132.69   11.10
   2  -8   2  161.08   10.40
   2  -8   2  157.78   10.30
  -2  -8  -2  135.69   10.30
   2  -8   2  152.38   13.00
  -2   8  -2  160.48   12.10
  -2   8  -2  151.38   11.90
  -3  -8  -2   39.60    6.20
   3  -8   2   46.50    5.50
   3  -8   2   39.20    7.60
  -3   8  -2   42.20    6.60
   4  -8   2  231.98   16.20
  -4  -8  -2  300.57   26.10
   4  -8   2  298.77   20.80
  -4   8  -2  256.87   17.10
   2  -9  -2   54.59    7.90
  -1  -9   2    4.40    2.20
  -1  -9   2    6.50    3.40
   1  -9  -2    4.20    3.30
   1   9  -2    3.80    2.80
   0  -9   2  225.18   13.00
   0  -9  -2  201.98   14.90
   0  -9   2  202.88   15.70
   0   9  -2  186.78   14.50
   1  -9   2  124.29   11.90
  -1  -9  -2  128.49    7.30
  -1  -9  -2  122.59    7.20
  -1   9  -2   92.89   10.30
   2  -9   2  131.19    8.80
   2  -9   2  152.08   13.20
   9   0  -3   63.29   10.50
  -9   0   3   68.89    8.30
   8   0  -3  114.59   10.80
  -8   0   3   86.99    9.50
   8   0  -3   95.99   12.10
   7   0  -3    1.20    1.30
   7   0  -3    1.70    3.50
  -7   0   3    2.60    2.70
   7   0  -3    1.40    2.10
  -7   0   3   -1.20    2.00
   7   0  -3    2.80    2.90
  -6   0   3  349.17   23.80
  -6   0   3  437.16   24.20
   6   0  -3  392.86   21.70
   6   0  -3  386.36   24.40
   6   0  -3  380.66   24.40
   6   0  -3  392.16   19.90
  -6   0   3  357.86   21.30
   5   0  -3  487.05   24.50
  -5   0   3  450.45   26.20
  -5   0   3  447.56   23.90
   5   0  -3  431.26   23.90
  -5   0   3  403.46   23.70
  -5   0   3  463.75   26.00
   5   0  -3  478.95   26.40
   5   0  -3  449.66   26.20
  -4   0   3  793.02   39.10
   4   0  -3  723.73   40.80
   4   0  -3  808.02   39.30
  -4   0   3  826.92   41.40
  -4   0   3  776.02   39.10
   4   0  -3  790.42   39.30
  -4   0   3  833.62   41.10
   4   0  -3  890.71   41.90
  -3   0   3  409.76   20.40
   3   0  -3  386.16   20.50
  -3   0   3  416.66   22.00
   3   0  -3  392.06   22.00
  -3   0   3  402.16   22.10
  -3   0   3  405.76   20.50
   3   0  -3  415.96   22.30
   3   0  -3  376.96   20.30
  -2   0   3 2630.74  116.69
  -2   0   3 2637.14  116.79
  -2   0   3 2614.94  118.19
   2   0  -3 2437.76  117.99
   2   0  -3 2563.84  116.79
   2   0  -3 2814.02  116.89
   2   0  -3 2439.16  117.89
  -2   0   3 2351.76  117.69
   1   0  -3  889.21   38.00
   1   0  -3  782.32   35.00
  -1   0   3  758.42   37.30
   1   0  -3  767.22   37.00
  -1   0   3  708.33   36.10
  -1   0   3  743.43   36.20
  -1   0   3  806.32   37.50
   1   0  -3  795.92   37.30
   1   0  -3  705.03   36.20
   1   0  -3  778.42   36.30
   0   0   3 5410.46  253.57
   0   0  -3 5839.42  254.87
   0   0   3 5195.48  255.97
   0   0  -3 6320.87  253.27
   0   0   3 5584.14  254.67
   0   0  -3 5746.02  262.57
   0   0   3 5067.19  253.47
   0   0  -3 5444.56  255.37
   0   0   3 5006.10  255.57
   1   0   3 2675.43  122.69
   1   0   3 2454.05  123.79
   1   0   3 2608.44  122.59
   1   0   3 2739.93  122.69
  -1   0  -3 2583.94  122.59
  -1   0  -3 2964.80  124.49
   1   0   3 2840.42  124.29
  -1   0  -3 2620.54  122.69
  -1   0  -3 2782.52  124.19
  -1   0  -3 2673.03  122.69
   2   0   3   46.00    5.90
   2   0   3   49.00    4.70
   2   0   3   50.39    5.40
  -2   0  -3   59.69    5.70
  -2   0  -3   32.20    4.90
  -2   0  -3   46.50    4.60
  -2   0  -3   48.50    4.90
   2   0   3   54.59    4.80
   2   0   3   56.39    4.50
  -2   0  -3   50.99    4.20
  -3   0  -3  788.42   39.30
   3   0   3  736.73   39.20
   3   0   3  750.52   36.90
   3   0   3  772.82   36.50
  -3   0  -3  759.42   37.00
   3   0   3  757.12   36.80
  -3   0  -3  770.52   38.70
   3   0   3  676.83   38.50
  -3   0  -3  762.42   37.10
   4   0   3  142.59   10.30
  -4   0  -3  200.98   13.40
  -4   0  -3  161.88    8.80
   4   0   3  146.69   12.40
   4   0   3  159.38   12.30
  -4   0  -3  151.88   10.80
  -4   0  -3  167.18   12.80
   4   0   3  165.98   10.30
   4   0   3  154.78   10.60
  -5   0  -3  679.33   36.50
   5   0   3  679.63   32.60
   5   0   3  685.23   36.40
   5   0   3  667.63   36.10
  -5   0  -3  651.13   35.20
  -5   0  -3  562.24   32.60
   5   0   3  556.54   32.60
  -5   0  -3  629.14   30.00
  -6   0  -3   39.40    7.10
  -6   0  -3   46.40    8.30
   6   0   3   34.40    6.80
  -6   0  -3   38.90    5.90
   6   0   3   43.20    8.00
   6   0   3   40.60    5.90
   6   0   3   41.70    5.60
   7   0   3   15.60    4.00
  -7   0  -3    8.60    4.10
  -7   0  -3    7.70    3.30
   7   0   3   14.60    4.00
   7   0   3   11.00    4.70
  -8   0  -3  284.47   18.60
   8   0   3  284.87   19.10
   9  -1  -3   56.99    9.60
  -9  -1   3   59.69    8.20
   9  -1  -3   60.89    8.20
  -9   1   3   57.69    7.50
  -8  -1   3  110.39   11.00
   8  -1  -3  121.09   10.00
  -8   1   3   92.49    9.40
   8   1  -3  111.19   13.20
  -7  -1   3  628.14   34.20
   7  -1  -3  654.93   34.30
  -7  -1   3  707.63   38.70
   7  -1  -3  611.64   36.80
   7   1  -3  606.84   37.10
  -7   1   3  602.24   36.30
   7   1  -3  626.24   37.00
  -7   1   3  641.14   33.70
   7   1  -3  688.43   34.70
   7   1  -3  693.33   32.50
   6  -1  -3    7.00    2.00
  -6  -1   3   11.00    3.90
   6  -1  -3    4.80    3.90
  -6  -1   3    3.20    3.80
   6  -1  -3    6.20    3.00
  -6  -1   3    9.20    2.90
   6  -1  -3    6.90    4.20
   6   1  -3    5.80    3.20
  -6   1   3    8.50    3.00
   6   1  -3    8.30    2.80
   6   1  -3    4.80    3.20
   6   1  -3    4.60    1.90
  -6   1   3    5.10    3.50
  -6   1   3   14.10    3.30
  -5  -1   3   63.29    8.30
   5  -1  -3   58.79    7.60
  -5  -1   3   65.49    8.20
  -5  -1   3   62.69    6.80
   5  -1  -3   52.79    6.20
  -5  -1   3   72.49    6.90
   5  -1  -3   73.79    7.90
   5  -1  -3   72.69    6.30
   5   1  -3   64.49    7.00
   5   1  -3   71.99    8.80
   5   1  -3   71.69    7.10
   5   1  -3   66.69    5.90
  -5   1   3   63.99    5.80
   5   1  -3   80.29    7.30
  -5   1   3   69.39    6.10
   5   1  -3   72.59    8.80
  -5   1   3   64.59    8.00
  -5   1   3   80.09    7.90
   4  -1  -3  266.47   16.10
   4  -1  -3  238.48   15.80
  -4  -1   3  237.88   14.50
   4  -1  -3  268.47   14.50
  -4  -1   3  262.17   14.90
  -4  -1   3  229.58   16.20
  -4  -1   3  284.47   16.90
   4  -1  -3  270.67   14.70
  -4   1   3  225.68   14.90
  -4   1   3  253.07   15.70
   4   1  -3  239.98   14.30
   4   1  -3  241.88   14.20
  -4   1   3  245.78   13.60
   4   1  -3  246.08   14.00
  -4   1   3  242.08   13.70
   4   1  -3  264.67   16.20
   4   1  -3  262.97   14.80
   4   1  -3  232.48   16.00
  -3  -1   3    8.90    2.60
  -3  -1   3    9.70    3.00
   3  -1  -3   12.20    3.00
   3  -1  -3    9.80    2.40
   3  -1  -3    9.80    3.20
  -3  -1   3   11.50    2.40
  -3  -1   3   11.40    3.00
   3  -1  -3    7.90    2.20
   3   1  -3    8.20    2.50
  -3   1   3    5.40    2.40
  -3   1   3    7.80    2.00
  -3   1   3    9.50    1.30
   3   1  -3    6.80    2.50
   3   1  -3    5.60    2.50
  -3   1   3   16.00    2.60
   3   1  -3    7.40    2.40
  -3   1   3    6.90    2.30
   3   1  -3    9.90    2.90
   2  -1  -3  766.12   36.70
  -2  -1   3  743.93   37.60
  -2  -1   3  788.02   36.10
  -2  -1   3  731.43   36.00
  -2  -1   3  757.32   34.90
  -2  -1   3  733.23   36.50
   2  -1  -3  734.13   36.70
  -2  -1   3  732.43   37.20
   2  -1  -3  800.72   35.60
   2  -1  -3  731.33   35.50
   2   1  -3  734.83   34.00
  -2   1   3  716.43   33.40
   2   1  -3  734.73   35.60
   2   1  -3  697.23   33.90
   2   1  -3  675.13   34.50
  -2   1   3  706.03   34.60
   2   1  -3  690.33   35.10
  -2   1   3  674.23   32.20
  -2   1   3  754.52   33.40
   1  -1  -3  827.32   40.30
  -1  -1   3  840.52   41.00
  -1  -1   3  853.11   39.00
   1  -1  -3  888.71   39.50
  -1  -1   3  823.72   39.70
   1  -1  -3  896.71   39.40
   1  -1  -3  775.62   40.30
  -1  -1   3  881.01   41.20
  -1  -1   3  842.62   39.80
  -1  -1   3  838.22   40.60
   1   1  -3  720.63   41.10
   1   1  -3  867.51   41.90
   1   1  -3  873.41   40.40
  -1   1   3  826.82   39.80
  -1   1   3  869.21   39.90
   1   1  -3  855.21   41.10
  -1   1   3  921.61   41.10
   1   1  -3  848.82   39.60
  -1   1   3  938.91   41.10
   1   1  -3  891.11   40.50
   0  -1  -3 2205.88   98.79
   0  -1   3 2222.38  100.69
   0  -1   3 2176.88  100.29
   0  -1   3 2087.49   98.89
   0  -1  -3 2250.37   98.69
   0  -1  -3 2222.48   99.89
   0  -1   3 1987.70   99.59
   0  -1   3 2159.28  100.39
   0  -1  -3 2088.79   99.69
   0  -1   3 2325.77   99.19
   0  -1  -3 2137.99   99.09
   0   1  -3 2124.99   98.89
   0   1  -3 2186.68   98.19
   0   1   3 2237.98   97.89
   0   1  -3 2138.19   97.79
   0   1   3 2254.27   97.79
   0   1  -3 2204.18   98.19
   0   1   3 2260.77   98.99
   0   1  -3 2050.79   99.39
   0   1  -3 1909.51   99.19
   1  -1   3 1003.10   41.70
   1  -1   3  866.61   40.80
  -1  -1  -3  807.72   41.80
  -1  -1  -3  855.41   40.60
  -1  -1  -3  857.41   40.40
  -1  -1  -3  865.71   40.00
   1  -1   3  743.13   41.70
  -1  -1  -3  850.71   41.80
   1  -1   3  850.91   40.60
   1  -1   3  921.71   42.40
  -1   1  -3  820.82   42.20
  -1   1  -3  884.71   40.80
   1   1   3  869.41   40.60
   1   1   3  920.11   42.10
   1   1   3  807.12   41.90
  -1   1  -3  890.41   41.50
  -1   1  -3  816.02   42.10
   1   1   3  890.61   40.60
  -1   1  -3  821.02   40.70
   1   1   3  926.41   40.30
   2  -1   3   65.29    5.40
  -2  -1  -3   57.79    6.30
   2  -1   3   62.29    6.60
   2  -1   3   66.39    6.40
  -2  -1  -3   56.49    4.10
  -2  -1  -3   60.69    5.40
   2  -1   3   62.29    5.40
   2  -1   3   79.09    6.00
  -2  -1  -3   55.39    6.70
  -2  -1  -3   61.09    5.30
   2   1   3   51.29    6.20
  -2   1  -3   57.39    5.00
  -2   1  -3   64.79    5.50
   2   1   3   50.59    3.90
   2   1   3   63.39    5.00
  -2   1  -3   47.90    5.80
   2   1   3   57.09    5.20
  -2   1  -3   62.29    5.20
  -2   1  -3   50.69    6.20
   2   1   3   56.89    5.80
  -3  -1  -3  941.41   51.29
  -3  -1  -3 1087.19   51.59
  -3  -1  -3 1067.99   48.70
   3  -1   3 1138.49   52.19
   3  -1   3 1027.00   51.49
   3  -1   3 1111.99   49.70
  -3  -1  -3 1006.70   49.40
   3  -1   3  992.00   49.40
  -3  -1  -3  951.70   49.30
   3  -1   3 1007.30   49.70
   3   1   3 1069.89   50.89
   3   1   3  969.40   50.79
   3   1   3 1104.99   47.60
  -3   1  -3 1093.89   51.29
  -3   1  -3 1012.60   50.59
   3   1   3  969.80   48.40
  -3   1  -3  980.20   48.50
   3   1   3  971.20   48.60
  -3   1  -3  978.10   48.60
  -4  -1  -3  378.46   19.00
  -4  -1  -3  421.06   23.10
   4  -1   3  344.37   20.40
   4  -1   3  365.46   20.20
  -4  -1  -3  378.66   22.70
   4  -1   3  341.47   22.10
   4  -1   3  375.46   20.50
  -4  -1  -3  378.16   20.60
   4  -1   3  361.56   22.60
   4   1   3  365.36   19.70
   4   1   3  339.27   21.80
  -4   1  -3  369.46   22.50
   4   1   3  356.86   19.80
   4   1   3  383.26   18.60
   4   1   3  361.26   21.90
  -4   1  -3  346.17   19.20
  -4   1  -3  355.66   17.00
  -4   1  -3  339.47   19.60
  -4   1  -3  378.86   21.80
  -5  -1  -3  810.72   44.80
   5  -1   3  885.21   43.00
  -5  -1  -3  884.91   40.70
   5  -1   3  893.61   45.60
   5  -1   3  812.02   42.60
  -5  -1  -3  783.42   42.60
  -5  -1  -3  874.91   45.90
   5  -1   3  860.71   45.50
   5   1   3  797.62   42.00
  -5   1  -3  777.42   43.70
   5   1   3  874.61   40.70
  -5   1  -3  843.72   45.30
   5   1   3  849.61   44.90
  -5   1  -3  886.01   41.90
  -5   1  -3  822.82   42.00
   5   1   3  883.51   45.80
  -6  -1  -3  380.56   23.00
   6  -1   3  388.96   25.80
  -6  -1  -3  402.36   25.30
  -6  -1  -3  377.56   25.50
   6  -1   3  423.16   23.40
   6  -1   3  421.16   23.10
  -6  -1  -3  416.56   20.20
   6  -1   3  357.56   25.00
  -6   1  -3  386.16   25.50
  -6   1  -3  406.76   22.80
   6   1   3  416.96   23.10
   6   1   3  418.06   26.60
   6   1   3  378.66   25.10
   6   1   3  381.46   21.00
   7  -1   3   67.09   10.40
  -7  -1  -3   58.79    7.90
   7  -1   3   56.89    7.50
  -7  -1  -3   74.69   11.00
   7  -1   3   65.09    8.00
   7   1   3   64.89    6.10
   7   1   3   62.09   10.20
  -7   1  -3   67.09    7.80
   7   1   3   51.39    7.10
   8  -1   3   28.20    5.90
   8  -1   3   32.20    5.90
  -8  -1  -3   29.80    6.30
   8  -1   3   25.80    7.30
   8   1   3   20.80    5.60
  -8   1  -3   29.50    5.80
  -8  -2   3   16.80    4.20
   8  -2  -3   14.20    5.40
  -8  -2   3   19.80    5.90
   8  -2  -3   17.60    4.00
  -8   2   3   12.40    3.60
  -8   2   3   15.80    3.40
   8   2  -3   13.10    3.20
   8   2  -3   13.80    4.30
  -7  -2   3  211.58   15.10
  -7  -2   3  231.78   17.80
   7  -2  -3  242.08   15.30
   7  -2  -3  236.18   17.70
  -7  -2   3  218.68   18.20
  -7   2   3  218.38   14.20
   7   2  -3  223.78   17.60
  -7   2   3  238.88   13.60
   7   2  -3  236.48   14.20
   7   2  -3  224.08   14.90
  -6  -2   3   93.79   11.40
   6  -2  -3  115.79   10.80
  -6  -2   3   98.29   10.10
  -6  -2   3  110.59    9.00
   6  -2  -3  100.29   10.10
   6  -2  -3   99.39    8.20
   6   2  -3  103.59    9.20
   6   2  -3  113.79   11.30
  -6   2   3  119.89    7.80
   6   2  -3  112.69    9.30
   6   2  -3  119.69    8.90
  -6   2   3  118.59    8.20
   6   2  -3  112.39   11.30
  -6   2   3   98.19    8.30
  -5  -2   3  483.05   27.60
   5  -2  -3  449.46   26.20
   5  -2  -3  477.85   24.40
  -5  -2   3  467.95   27.10
   5  -2  -3  466.65   26.60
   5  -2  -3  464.75   24.40
  -5  -2   3  426.56   24.60
   5   2  -3  468.45   24.70
   5   2  -3  468.35   24.90
   5   2  -3  477.45   25.10
  -5   2   3  482.55   23.30
   5   2  -3  452.05   27.50
  -5   2   3  461.25   23.90
  -5   2   3  476.35   23.80
  -5   2   3  458.35   26.20
   5   2  -3  463.25   27.10
  -4  -2   3  128.19   10.70
   4  -2  -3  126.19    8.40
   4  -2  -3  122.89    9.60
   4  -2  -3  120.39    9.60
  -4  -2   3  124.99   10.20
  -4  -2   3  126.29    8.80
   4  -2  -3  115.29    8.20
  -4  -2   3  125.99    9.00
   4   2  -3  126.99   10.80
  -4   2   3  130.69    8.20
   4   2  -3  149.99   11.60
  -4   2   3  158.28   10.50
  -4   2   3  132.59    8.40
   4   2  -3  138.39    9.60
   4   2  -3  122.39    8.90
   4   2  -3  134.79    9.50
   4   2  -3  137.19    9.50
  -4   2   3  146.79    9.80
  -4   2   3  133.59    7.90
  -3  -2   3  856.71   44.80
  -3  -2   3 1014.40   45.10
  -3  -2   3  954.50   46.60
   3  -2  -3  915.51   43.90
   3  -2  -3  885.11   45.30
  -3  -2   3  962.40   47.00
   3  -2  -3  885.41   45.20
   3  -2  -3  996.70   44.10
  -3   2   3  955.80   41.70
   3   2  -3  922.91   42.80
  -3   2   3  906.71   41.30
   3   2  -3  828.42   42.50
  -3   2   3  831.32   43.00
  -3   2   3  899.91   41.60
   3   2  -3  859.11   43.20
   3   2  -3  882.11   43.10
  -3   2   3  861.41   42.90
   3   2  -3  948.51   45.00
   3   2  -3  896.91   44.60
  -2  -2   3  968.10   47.50
  -2  -2   3  960.30   46.80
   2  -2  -3 1073.69   48.00
   2  -2  -3 1077.29   46.70
  -2  -2   3 1009.20   48.20
  -2  -2   3  950.10   48.90
  -2  -2   3  907.81   49.00
   2  -2  -3 1007.50   46.70
  -2  -2   3 1019.30   47.60
   2  -2  -3 1071.49   46.30
  -2   2   3  947.01   46.50
  -2   2   3  988.10   46.50
   2   2  -3  998.80   47.20
   2   2  -3  941.61   47.90
   2   2  -3 1034.60   48.30
   2   2  -3 1002.50   47.40
   2   2  -3  950.20   46.50
  -2   2   3 1023.60   45.20
  -2   2   3 1007.40   45.10
   2   2  -3  944.51   46.40
  -2   2   3 1002.60   45.40
  -1  -2   3 2441.66  123.59
   1  -2  -3 3132.59  127.09
  -1  -2   3 2671.53  124.69
  -1  -2   3 2666.13  125.09
   1  -2  -3 2659.23  126.89
   1  -2  -3 2667.93  124.09
   1  -2  -3 2569.04  122.89
  -1  -2   3 2670.03  123.39
  -1  -2   3 2763.82  125.09
   1  -2  -3 2733.73  125.99
  -1  -2   3 2917.31  123.79
   1   2  -3 2721.53  122.59
  -1   2   3 2999.80  122.69
   1   2  -3 2984.60  123.99
   1   2  -3 2640.74  123.89
  -1   2   3 2786.32  124.99
   1   2  -3 2698.63  122.69
  -1   2   3 2586.94  122.49
   1   2  -3 2522.05  124.19
   1   2  -3 2332.17  122.39
   0  -2   3 1354.86   63.69
   0  -2   3 1301.67   64.99
   0  -2   3 1299.17   64.79
   0  -2  -3 1387.46   63.09
   0  -2   3 1322.77   63.69
   0  -2  -3 1479.55   63.09
   0  -2   3 1354.36   65.09
   0  -2   3 1428.76   63.89
   0  -2  -3 1422.26   64.19
   0  -2  -3 1424.96   64.19
   0   2  -3 1402.06   65.09
   0   2  -3 1509.45   65.49
   0   2   3 1402.66   65.39
   0   2   3 1511.65   64.19
   0   2  -3 1375.76   66.39
   0   2  -3 1340.37   66.69
   0   2  -3 1350.16   65.19
   0   2   3 1400.26   65.39
   0   2   3 1441.56   64.09
  -1  -2  -3   53.69    5.00
  -1  -2  -3   55.79    3.80
   1  -2   3   60.69    5.60
   1  -2   3   59.49    5.80
  -1  -2  -3   59.49    4.50
   1  -2   3   56.39    4.50
   1  -2   3   53.99    5.40
  -1  -2  -3   58.29    4.40
   1  -2   3   57.19    4.80
  -1  -2  -3   60.79    5.60
  -1   2  -3   62.99    4.60
  -1   2  -3   51.29    4.20
   1   2   3   60.39    5.10
   1   2   3   55.79    4.00
   1   2   3   53.59    5.10
   1   2   3   56.79    4.00
  -1   2  -3   58.69    5.50
  -1   2  -3   60.79    4.80
  -1   2  -3   65.39    5.70
  -2  -2  -3  247.78   15.20
   2  -2   3  251.67   14.70
  -2  -2  -3  246.78   13.60
   2  -2   3  239.68   15.30
   2  -2   3  266.17   13.90
   2  -2   3  222.28   13.50
  -2  -2  -3  250.37   11.70
  -2  -2  -3  249.38   14.00
  -2  -2  -3  240.38   14.70
  -2  -2  -3  251.17   13.60
   2  -2   3  245.78   15.30
  -2   2  -3  245.48   15.30
   2   2   3  249.78   13.90
  -2   2  -3  263.17   14.20
  -2   2  -3  271.17   15.80
   2   2   3  288.27   15.70
  -2   2  -3  280.47   14.20
  -2   2  -3  247.58   14.50
  -2   2  -3  249.58   15.40
   2   2   3  259.27   13.90
  -3  -2  -3  607.64   32.60
   3  -2   3  608.74   32.40
   3  -2   3  587.84   32.20
   3  -2   3  572.64   30.30
  -3  -2  -3  609.94   32.20
  -3  -2  -3  617.34   30.60
  -3  -2  -3  668.53   30.80
  -3  -2  -3  592.24   30.20
   3  -2   3  581.54   31.30
   3  -2   3  629.74   30.60
   3   2   3  615.04   31.70
   3   2   3  601.34   29.40
  -3   2  -3  563.14   29.40
   3   2   3  598.44   26.60
  -3   2  -3  594.54   28.90
  -3   2  -3  527.05   30.90
  -3   2  -3  575.74   27.50
   3   2   3  562.24   31.00
   3   2   3  637.54   29.40
  -3   2  -3  586.34   29.10
  -3   2  -3  565.44   30.80
   4  -2   3  115.59    9.00
   4  -2   3  127.29   10.80
  -4  -2  -3  123.99   10.40
  -4  -2  -3  129.69   11.10
   4  -2   3  146.19   10.50
   4  -2   3  120.39   11.00
   4  -2   3  119.69    8.90
  -4  -2  -3  109.79    9.10
  -4  -2  -3  130.19    8.40
  -4   2  -3  123.29    6.20
   4   2   3  123.29    6.60
   4   2   3  125.09   11.00
  -4   2  -3  127.39    9.00
  -4   2  -3  123.19   10.70
   4   2   3  122.59    8.70
   4   2   3  149.88   11.40
   4   2   3  137.89    9.40
  -4   2  -3  119.69    8.60
  -4   2  -3  142.69   11.10
   5  -2   3   22.40    4.50
   5  -2   3   16.10    4.60
  -5  -2  -3   18.40    4.70
  -5  -2  -3   17.80    3.70
  -5  -2  -3   13.10    4.40
   5  -2   3   16.50    4.60
   5  -2   3   14.90    3.50
  -5  -2  -3   12.70    2.70
   5   2   3   20.40    5.50
  -5   2  -3   19.40    3.50
   5   2   3   16.00    2.10
   5   2   3   15.50    3.80
  -5   2  -3   14.90    4.80
   5   2   3   17.00    5.00
  -5   2  -3   22.10    4.10
  -6  -2  -3   34.10    7.40
  -6  -2  -3   36.70    4.40
   6  -2   3   33.80    5.70
   6  -2   3   28.90    6.60
  -6  -2  -3   28.20    5.00
   6  -2   3   40.80    7.80
   6  -2   3   38.80    5.90
  -6  -2  -3   32.50    6.90
   6   2   3   34.30    3.30
  -6   2  -3   35.10    7.20
   6   2   3   32.80    5.50
  -6   2  -3   38.20    5.20
   6   2   3   41.50    8.00
  -7  -2  -3  270.37   20.90
   7  -2   3  261.17   18.00
   7  -2   3  251.77   17.10
  -7  -2  -3  252.17   17.50
   7  -2   3  282.37   20.90
  -7   2  -3  272.67   17.10
   7   2   3  263.87   17.40
   8  -2   3  335.27   25.70
   8  -2   3  345.17   21.90
  -8  -2  -3  348.97   22.20
  -8  -2  -3  374.56   28.70
   8  -2   3  329.07   22.20
  -8   2  -3  327.67   20.30
   8   2   3  343.37   21.60
  -8  -3   3  164.28   16.00
   8  -3  -3  120.09   12.70
  -8  -3   3  154.98   12.80
   8  -3  -3  162.78   12.00
   8   3  -3  120.49   11.20
  -8   3   3  149.99   10.40
   8   3  -3  173.38   11.50
   7  -3  -3   11.90    3.80
  -7  -3   3    8.80    4.20
   7  -3  -3    7.80    3.60
  -7  -3   3    9.20    4.10
  -7   3   3    6.40    2.50
   7   3  -3   11.90    3.40
  -7   3   3   12.90    3.10
   7   3  -3   10.40    5.50
  -6  -3   3  139.39   12.90
  -6  -3   3  169.68   11.90
  -6  -3   3  147.99   13.70
   6  -3  -3  165.68    9.20
   6  -3  -3  164.38   11.20
   6  -3  -3  156.28   13.20
   6  -3  -3  167.28   13.10
  -6   3   3  137.59    9.20
  -6   3   3  146.09    9.00
  -6   3   3  149.79   12.10
   6   3  -3  137.59   10.60
  -6   3   3  138.79    9.10
   6   3  -3  159.18   11.10
   6   3  -3  137.89   12.50
   6   3  -3  145.19   10.40
   5  -3  -3  407.96   23.80
  -5  -3   3  407.86   24.80
   5  -3  -3  391.06   23.40
  -5  -3   3  361.66   22.30
   5  -3  -3  428.76   21.70
  -5  -3   3  407.86   25.30
   5  -3  -3  424.86   21.70
  -5   3   3  382.36   22.50
   5   3  -3  386.76   24.20
   5   3  -3  404.96   22.40
  -5   3   3  441.06   20.70
   5   3  -3  397.06   24.30
   5   3  -3  384.06   21.70
   5   3  -3  410.56   21.90
  -5   3   3  388.76   20.00
  -5   3   3  398.86   20.00
  -4  -3   3  149.59   11.80
  -4  -3   3  162.48   12.60
   4  -3  -3  145.89   10.30
  -4  -3   3  142.69   10.00
   4  -3  -3  137.79   10.40
   4  -3  -3  135.89    9.00
   4  -3  -3  138.29    8.90
  -4  -3   3  139.49   10.00
   4   3  -3  142.49   10.20
   4   3  -3  176.78   11.40
  -4   3   3  152.38    9.30
   4   3  -3  160.08   12.20
  -4   3   3  156.08    8.60
  -4   3   3  181.38   11.00
   4   3  -3  135.19   11.60
  -4   3   3  169.28   10.60
   4   3  -3  162.18   10.60
   4   3  -3  153.48   10.30
  -3  -3   3   27.30    3.70
  -3  -3   3   25.40    4.00
   3  -3  -3   27.80    3.10
  -3  -3   3   22.00    3.40
   3  -3  -3   30.80    3.20
   3  -3  -3   20.50    3.40
   3  -3  -3   25.10    3.00
  -3  -3   3   29.20    5.30
  -3  -3   3   27.10    4.70
  -3  -3   3   28.10    4.00
   3  -3  -3   23.30    3.60
   3   3  -3   31.40    3.90
  -3   3   3   29.40    3.70
  -3   3   3   26.30    3.30
   3   3  -3   35.40    4.30
   3   3  -3   23.40    4.50
   3   3  -3   32.10    4.90
   3   3  -3   33.10    4.10
  -3   3   3   25.20    3.00
   3   3  -3   25.60    4.30
  -2  -3   3  184.38   12.90
  -2  -3   3  191.08   11.50
   2  -3  -3  194.18   11.30
  -2  -3   3  194.78   11.70
   2  -3  -3  211.38   10.50
   2  -3  -3  228.78   11.20
   2  -3  -3  195.18   10.40
  -2  -3   3  212.28   13.50
   2  -3  -3  214.48   11.30
  -2  -3   3  210.98   12.50
  -2  -3   3  205.18   11.70
  -2   3   3  207.18   10.30
   2   3  -3  195.28   11.90
   2   3  -3  190.98   11.00
   2   3  -3  202.88   12.80
   2   3  -3  190.08   11.10
  -2   3   3  197.08   10.20
   2   3  -3  182.78   12.00
  -1  -3   3 1250.57   57.69
   1  -3  -3 1254.17   56.19
  -1  -3   3 1170.58   58.69
   1  -3  -3 1354.96   57.29
   1  -3  -3 1095.79   56.79
   1  -3  -3 1278.57   57.39
  -1  -3   3 1193.68   58.89
  -1  -3   3 1266.17   57.99
   1  -3  -3 1239.98   56.09
  -1  -3   3 1269.77   57.59
  -1  -3   3 1206.28   59.29
   1   3  -3 1124.79   55.89
   1   3  -3 1056.19   55.89
   1   3  -3 1216.48   54.49
   1   3  -3 1214.18   55.99
   1   3  -3 1157.98   55.89
  -1   3   3 1284.57   53.19
   1   3  -3 1116.29   54.89
   1   3  -3 1178.18   54.39
   0  -3  -3  630.14   31.20
   0  -3   3  596.94   29.90
   0  -3  -3  651.03   28.90
   0  -3   3  609.44   31.60
   0  -3  -3  635.24   29.00
   0  -3   3  633.84   30.40
   0  -3   3  658.23   31.50
   0  -3   3  586.54   31.50
   0  -3   3  643.64   30.00
   0  -3  -3  585.84   29.80
   0  -3  -3  597.74   29.90
   0   3  -3  588.64   31.00
   0   3   3  660.23   29.50
   0   3  -3  630.94   31.80
   0   3  -3  604.44   29.80
   0   3  -3  631.64   29.80
   0   3  -3  590.14   31.10
   0   3   3  622.64   29.30
   0   3  -3  693.13   31.10
   0   3  -3  639.54   31.70
   1  -3   3  146.29   10.40
   1  -3   3  170.08    9.80
   1  -3   3  170.68    9.40
   1  -3   3  157.18   10.60
  -1  -3  -3  157.28    8.70
  -1  -3  -3  154.48    8.70
  -1  -3  -3  162.88   10.50
   1  -3   3  148.79   10.50
   1  -3   3  147.09    9.00
  -1  -3  -3  142.49    9.50
  -1  -3  -3  153.88    9.90
   1   3   3  150.08    9.00
  -1   3  -3  149.39    9.30
   1   3   3  156.88    7.40
   1   3   3  145.69    7.40
   1   3   3  151.28    9.20
  -1   3  -3  150.18    8.40
  -1   3  -3  140.19    9.40
  -1   3  -3  147.19    9.80
  -1   3  -3  152.88   10.10
  -1   3  -3  145.49   10.30
  -1   3  -3  145.89    8.30
   2  -3   3  791.42   38.10
  -2  -3  -3  761.12   39.50
   2  -3   3  756.32   39.70
   2  -3   3  800.52   40.10
  -2  -3  -3  856.61   39.80
  -2  -3  -3  738.13   37.90
   2  -3   3  805.02   38.10
  -2  -3  -3  777.92   39.00
   2  -3   3  840.42   40.30
  -2  -3  -3  778.82   37.90
  -2   3  -3  797.12   40.60
  -2   3  -3  848.92   38.30
  -2   3  -3  865.41   38.40
  -2   3  -3  814.02   40.20
   2   3   3  804.92   40.30
  -2   3  -3  815.12   39.50
   2   3   3  853.61   38.10
   2   3   3  829.72   38.10
  -2   3  -3  776.72   40.10
  -2   3  -3  733.13   38.30
   2   3   3  755.72   39.60
  -3  -3  -3  244.88   13.50
  -3  -3  -3  211.88   13.00
   3  -3   3  234.68   15.30
   3  -3   3  251.27   15.10
  -3  -3  -3  220.28   13.40
   3  -3   3  224.98   13.20
  -3  -3  -3  212.58   14.60
  -3  -3  -3  204.18   14.60
   3  -3   3  220.08   13.00
   3  -3   3  219.78   14.80
   3   3   3  225.98   12.60
   3   3   3  221.48   14.50
  -3   3  -3  232.68   12.10
   3   3   3  244.98   14.70
   3   3   3  223.08   12.30
  -3   3  -3  207.78   11.60
  -3   3  -3  191.38   13.70
  -3   3  -3  226.58   13.50
  -3   3  -3  205.78   13.70
  -3   3  -3  217.48   12.30
  -4  -3  -3  166.98   13.40
   4  -3   3  191.68   13.70
   4  -3   3  176.28   11.30
   4  -3   3  148.59   12.70
   4  -3   3  187.38   11.50
  -4  -3  -3  172.58   11.30
   4  -3   3  160.08   12.40
  -4  -3  -3  163.78   11.10
  -4  -3  -3  162.78   12.70
  -4   3  -3  179.38    9.20
   4   3   3  175.48   11.30
  -4   3  -3  178.08   10.50
  -4   3  -3  192.98   11.30
  -4   3  -3  189.58   13.40
  -4   3  -3  177.18   12.00
   4   3   3  173.28   11.10
   4   3   3  168.88   13.00
   4   3   3  175.08   12.80
   5  -3   3  262.17   15.60
   5  -3   3  231.28   16.90
  -5  -3  -3  231.48   17.50
  -5  -3  -3  242.38   15.50
   5  -3   3  236.68   16.70
   5  -3   3  259.37   17.70
  -5  -3  -3  252.07   17.80
  -5   3  -3  221.98   13.50
   5   3   3  239.78   14.40
  -5   3  -3  246.58   15.20
   5   3   3  207.28   14.30
  -5   3  -3  234.78   14.00
   5   3   3  252.47   17.40
   6  -3   3  124.69   11.30
   6  -3   3  136.49   10.80
   6  -3   3  145.39   13.60
  -6  -3  -3  136.79    9.70
  -6  -3  -3  124.29   10.70
  -6  -3  -3  115.59   12.80
  -6   3  -3  131.19    9.20
  -6   3  -3  144.09   10.60
  -6   3  -3  119.79    9.50
   6   3   3  140.29   10.80
   6   3   3  129.29   12.50
   7  -3   3  208.48   15.20
  -7  -3  -3  193.98   15.20
  -7  -3  -3  233.28   19.20
   7  -3   3  213.78   18.40
   7  -3   3  247.38   17.20
   7   3   3  209.38   15.10
  -7   3  -3  235.98   14.50
  -7   3  -3  199.78   14.80
  -8  -3  -3   76.79   12.00
   8  -3   3   54.19    8.00
   8  -3   3   50.49    9.60
   8  -3   3   68.69    9.70
  -8  -3  -3   52.29    8.60
  -8   3  -3   51.89    7.30
   8   3   3   51.89    7.50
  -8   3  -3   59.79    7.10
  -8  -4   3   27.10    6.10
   8  -4  -3   32.70    6.60
  -8  -4   3   29.80    7.60
   8   4  -3   42.80    6.40
   8   4  -3   31.00    6.10
   7  -4  -3    8.80    3.50
  -7  -4   3    8.90    4.10
   7  -4  -3    7.00    3.20
  -7  -4   3   12.50    5.80
  -7   4   3    9.20    2.70
   7   4  -3   11.00    3.40
   7   4  -3    7.90    3.40
   6  -4  -3  337.47   21.90
  -6  -4   3  327.87   20.60
   6  -4  -3  367.16   22.50
  -6  -4   3  362.56   24.20
   6  -4  -3  355.56   19.80
  -6   4   3  342.87   16.90
   6   4  -3  349.47   23.40
   6   4  -3  338.17   20.70
   6   4  -3  348.07   19.80
  -6   4   3  377.06   19.30
  -5  -4   3   34.80    6.80
   5  -4  -3   30.60    5.40
   5  -4  -3   29.00    4.10
  -5  -4   3   36.80    6.60
  -5  -4   3   30.70    5.20
   5  -4  -3   28.20    3.80
   5  -4  -3   28.30    4.90
   5  -4  -3   37.00    4.50
   5   4  -3   27.70    5.20
   5   4  -3   33.20    4.60
  -5   4   3   29.50    4.40
  -5   4   3   25.60    3.70
   5   4  -3   31.90    6.40
   5   4  -3   35.20    4.80
   4  -4  -3  212.48   13.60
  -4  -4   3  191.08   13.20
  -4  -4   3  242.78   16.30
   4  -4  -3  188.98   11.80
  -4  -4   3  231.38   13.30
   4  -4  -3  228.38   12.30
  -4  -4   3  186.98   14.60
   4  -4  -3  233.48   13.90
   4  -4  -3  220.98   12.70
  -4   4   3  195.68   11.40
   4   4  -3  186.28   12.10
   4   4  -3  211.98   13.80
  -4   4   3  208.18   11.50
   4   4  -3  179.28   13.60
   4   4  -3  180.58   11.60
   4   4  -3  201.58   12.00
   3  -4  -3  320.87   16.80
   3  -4  -3  318.47   17.60
   3  -4  -3  299.17   16.00
  -3  -4   3  312.67   17.50
  -3  -4   3  310.97   17.90
   3  -4  -3  325.67   16.00
   3  -4  -3  330.17   17.10
   3  -4  -3  320.67   17.40
  -3  -4   3  307.37   17.60
  -3  -4   3  311.87   19.30
  -3  -4   3  329.87   19.70
  -3  -4   3  320.97   17.60
  -3   4   3  313.47   15.40
   3   4  -3  362.76   19.70
   3   4  -3  304.87   16.90
   3   4  -3  342.07   18.20
   3   4  -3  301.87   16.80
  -3   4   3  334.57   17.10
  -3   4   3  307.57   15.50
   3   4  -3  301.17   18.70
  -2  -4   3  647.94   32.90
  -2  -4   3  646.74   32.50
  -2  -4   3  659.23   33.70
   2  -4  -3  657.93   30.80
   2  -4  -3  673.03   30.90
   2  -4  -3  681.63   31.80
   2  -4  -3  708.83   33.70
  -2  -4   3  639.14   34.60
  -2  -4   3  646.84   32.70
  -2  -4   3  714.93   34.80
   2  -4  -3  695.33   32.50
   2  -4  -3  621.14   31.50
   2   4  -3  635.94   31.00
   2   4  -3  636.44   31.00
   2   4  -3  637.64   33.30
   2   4  -3  674.03   33.10
   2   4  -3  631.14   33.30
   2   4  -3  651.13   32.60
  -1  -4   3  849.22   43.60
  -1  -4   3  862.71   43.70
   1  -4  -3  862.71   40.90
  -1  -4   3  860.31   42.20
  -1  -4   3  907.51   43.00
   1  -4  -3  875.01   41.10
   1  -4  -3  918.21   40.30
   1  -4  -3  909.01   40.20
  -1  -4   3  840.52   43.70
   1  -4  -3  926.31   43.70
   1  -4  -3  889.31   42.40
  -1  -4   3  917.31   42.20
   1   4  -3  889.71   40.60
   1   4  -3  873.41   43.10
   1   4  -3  863.81   42.40
   1   4  -3  878.61   40.60
   1   4  -3  798.82   42.60
   1   4  -3  915.71   43.20
   0  -4  -3  234.68   11.70
   0  -4   3  243.98   12.90
   0  -4   3  243.18   14.40
   0  -4   3  226.28   12.80
   0  -4   3  248.58   14.60
   0  -4   3  234.68   14.80
   0  -4  -3  223.28   13.40
   0  -4   3  257.77   14.10
   0  -4  -3  248.48   14.70
   0  -4  -3  242.48   12.70
   0  -4  -3  225.68   12.50
   0  -4  -3  241.18   11.70
   0   4  -3  238.78   14.10
   0   4  -3  259.07   12.10
   0   4  -3  234.48   14.20
   0   4  -3  234.28   13.60
   0   4  -3  243.28   14.80
   0   4  -3  223.88   13.70
   1  -4   3  819.72   38.80
  -1  -4  -3  727.13   37.00
  -1  -4  -3  745.23   37.00
  -1  -4  -3  787.82   38.40
  -1  -4  -3  790.02   39.50
   1  -4   3  770.52   37.60
  -1  -4  -3  737.73   38.00
   1  -4   3  790.92   37.70
   1  -4   3  839.02   39.90
   1  -4   3  764.32   39.90
  -1  -4  -3  808.02   37.40
   1  -4   3  883.11   39.80
  -1   4  -3  717.93   39.90
  -1   4  -3  850.91   36.60
   1   4   3  790.62   37.30
  -1   4  -3  789.82   38.70
  -1   4  -3  819.82   39.10
   1   4   3  804.92   37.60
  -1   4  -3  850.41   36.70
  -1   4  -3  737.73   38.70
  -1   4  -3  734.43   38.80
  -2  -4  -3  171.48   11.50
  -2  -4  -3  160.78    8.30
  -2  -4  -3  176.08   10.10
  -2  -4  -3  176.98   10.10
   2  -4   3  152.08   11.20
  -2  -4  -3  163.58    8.30
   2  -4   3  195.18   11.20
   2  -4   3  158.78   11.90
  -2  -4  -3  160.28   11.20
   2  -4   3  166.78   10.10
   2  -4   3  155.08   11.60
   2  -4   3  183.58   10.40
  -2  -4  -3  173.08   11.40
   2   4   3  164.38    8.60
  -2   4  -3  171.08   12.10
  -2   4  -3  163.28    8.80
  -2   4  -3  165.98   10.90
   2   4   3  156.68   10.50
  -2   4  -3  185.58   11.30
   2   4   3  167.58   10.90
  -2   4  -3  172.88   11.00
  -2   4  -3  179.18   10.60
  -2   4  -3  168.08    8.80
   3  -4   3  307.77   20.50
  -3  -4  -3  334.07   20.90
   3  -4   3  364.36   21.00
  -3  -4  -3  368.86   19.00
  -3  -4  -3  345.87   18.90
   3  -4   3  355.36   20.80
   3  -4   3  358.46   18.90
   3  -4   3  350.66   18.90
  -3  -4  -3  329.37   20.30
  -3  -4  -3  357.96   20.10
  -3   4  -3  342.37   20.20
   3   4   3  361.26   18.30
  -3   4  -3  374.26   18.50
  -3   4  -3  338.57   19.80
   3   4   3  326.67   20.30
   3   4   3  357.96   18.00
  -3   4  -3  362.16   17.60
   4  -4   3   96.29   10.50
   4  -4   3  106.69    9.50
  -4  -4  -3  101.69    9.90
  -4  -4  -3  109.39   10.20
   4  -4   3   95.89    9.60
  -4  -4  -3   95.79    8.40
   4  -4   3  105.39   10.10
   4  -4   3  104.59    8.00
  -4   4  -3  101.49    6.40
   4   4   3  117.29   10.30
  -4   4  -3  103.89    7.00
  -4   4  -3  112.19    9.00
  -4   4  -3  107.49    9.40
   4   4   3   94.29    7.50
   4   4   3  104.09    7.40
  -4   4  -3   98.59    6.70
   5  -4   3  150.88   12.40
   5  -4   3  128.59   12.20
   5  -4   3  124.19    9.70
  -5  -4  -3  145.99   12.50
   5  -4   3  116.69   11.30
  -5  -4  -3  136.49   12.90
  -5  -4  -3  122.09   10.40
  -5   4  -3  130.69   10.00
   5   4   3   89.59   10.20
  -5   4  -3  124.89    8.50
   5   4   3  123.29    9.20
  -5   4  -3  153.18   11.70
   5   4   3  139.49    9.60
  -5   4  -3  136.59    8.30
  -6  -4  -3   21.40    4.60
   6  -4   3   19.00    5.70
  -6  -4  -3   20.70    5.40
   6  -4   3   16.30    4.50
   6  -4   3   28.00    5.90
  -6   4  -3   24.80    4.00
  -6   4  -3   16.30    4.70
   6   4   3   24.90    4.50
   7  -4   3  419.86   28.20
   7  -4   3  434.96   25.20
   7  -4   3  423.56   26.80
  -7  -4  -3  402.46   28.40
  -7  -4  -3  448.46   25.80
  -7   4  -3  449.56   25.70
  -7   4  -3  430.26   23.70
   7   4   3  457.75   25.50
  -7  -5   3   78.29   11.20
   7  -5  -3   67.79    8.90
   7  -5  -3   70.79    7.40
  -7  -5   3   75.79    9.00
   7   5  -3   65.49    8.00
   7   5  -3   96.19   10.00
  -7   5   3   69.09    7.20
   6  -5  -3   67.59    6.70
  -6  -5   3   61.69    7.90
  -6  -5   3   55.19    9.00
   6  -5  -3   65.29    8.00
   6   5  -3   65.49    7.20
  -6   5   3   56.59    6.10
   6   5  -3   75.69    8.80
   5  -5  -3   14.20    3.00
   5  -5  -3   18.40    3.20
  -5  -5   3   16.10    5.20
   5  -5  -3   13.60    3.50
   5  -5  -3   16.70    4.00
   5  -5  -3   17.30    3.30
  -5  -5   3    9.60    3.20
  -5   5   3   12.60    3.10
   5   5  -3   17.50    3.60
  -5   5   3   18.20    2.90
   5   5  -3   16.70    3.70
   5   5  -3   17.30    3.40
   5   5  -3   12.90    4.20
  -4  -5   3  433.36   24.30
  -4  -5   3  439.36   24.10
  -4  -5   3  458.15   26.50
   4  -5  -3  437.26   22.40
   4  -5  -3  464.85   23.80
   4  -5  -3  408.16   23.50
   4  -5  -3  464.35   23.90
  -4  -5   3  475.65   27.20
   4  -5  -3  456.85   22.60
   4   5  -3  426.26   25.00
  -4   5   3  448.36   23.00
   4   5  -3  424.96   25.00
   4   5  -3  423.76   22.50
   4   5  -3  454.95   23.50
   3  -5  -3  445.66   22.80
   3  -5  -3  446.96   21.20
   3  -5  -3  427.16   21.00
   3  -5  -3  410.26   22.00
  -3  -5   3  449.95   23.40
   3  -5  -3  411.36   21.90
  -3  -5   3  455.45   23.50
  -3  -5   3  415.66   25.20
   3  -5  -3  431.76   23.40
  -3  -5   3  472.05   25.80
  -3  -5   3  459.65   24.00
   3   5  -3  436.36   21.80
   3   5  -3  426.86   24.60
   3   5  -3  419.96   23.10
   3   5  -3  450.15   24.40
  -3   5   3  420.56   22.50
   2  -5  -3   54.59    5.50
   2  -5  -3   44.60    3.40
  -2  -5   3   56.89    5.50
   2  -5  -3   49.10    2.90
   2  -5  -3   52.79    5.90
   2  -5  -3   50.89    3.00
   2  -5  -3   36.30    3.10
  -2  -5   3   43.00    6.30
  -2  -5   3   51.79    5.90
  -2  -5   3   51.89    6.40
  -2  -5   3   44.00    4.90
   2   5  -3   39.90    3.70
   2   5  -3   47.20    5.60
   2   5  -3   42.90    5.80
   2   5  -3   35.00    5.10
   1  -5  -3  352.76   18.30
  -1  -5   3  360.96   19.50
   1  -5  -3  329.27   15.20
  -1  -5   3  315.67   17.40
  -1  -5   3  313.67   19.00
   1  -5  -3  320.47   15.70
   1  -5  -3  322.47   15.60
   1  -5  -3  363.76   19.60
  -1  -5   3  331.87   19.50
  -1  -5   3  328.17   17.50
  -1  -5   3  328.57   18.60
   1  -5  -3  342.37   15.20
   1   5  -3  360.66   20.00
   1   5  -3  335.67   16.30
   1   5  -3  358.46   18.90
   1   5  -3  327.67   20.00
   0  -5  -3  172.08    9.50
   0  -5  -3  163.38    9.20
   0  -5   3  188.08   12.40
   0  -5   3  158.28   11.20
   0  -5  -3  173.08   11.10
   0  -5  -3  173.78    8.70
   0  -5  -3  173.28    8.70
   0  -5   3  158.28   10.00
   0  -5  -3  180.58   12.30
   0  -5   3  181.98   10.20
   0  -5   3  182.98   11.80
   0  -5   3  160.28   11.00
   0  -5  -3  165.58   11.00
   0   5  -3  181.28   12.50
   0   5  -3  174.08   10.40
   0   5  -3  159.48   11.40
   0   5  -3  173.68   10.90
   0   5  -3  167.88   11.30
   1  -5   3  127.79    9.40
  -1  -5  -3  127.59    7.50
   1  -5   3  114.59    9.20
   1  -5   3  125.89    8.10
  -1  -5  -3  131.59    8.20
   1  -5   3  120.09    8.00
  -1  -5  -3  142.59    8.60
   1  -5   3  106.19   10.10
  -1  -5  -3  123.89    8.50
  -1  -5  -3  132.29    7.60
  -1   5  -3  146.99   10.10
  -1   5  -3  144.49   11.20
  -1   5  -3  130.89    8.70
  -1   5  -3  126.29    9.80
   2  -5   3  416.66   22.20
  -2  -5  -3  465.55   24.00
   2  -5   3  436.26   24.20
   2  -5   3  415.36   23.90
  -2  -5  -3  443.86   22.20
  -2  -5  -3  417.06   22.00
   2  -5   3  435.16   25.50
   2  -5   3  428.66   22.30
  -2  -5  -3  446.06   21.00
  -2  -5  -3  424.06   23.40
  -2   5  -3  393.16   23.00
  -2   5  -3  453.15   22.90
  -3  -5  -3  940.61   46.90
   3  -5   3  845.82   47.80
   3  -5   3  966.90   45.30
  -3  -5  -3  930.31   47.60
   3  -5   3  903.31   44.90
   3  -5   3  994.20   47.50
   3  -5   3  914.01   47.10
  -3  -5  -3  922.21   45.30
  -3   5  -3  920.01   43.90
   3   5   3  887.41   41.70
  -3   5  -3  846.12   44.80
  -3   5  -3  961.00   44.80
  -4  -5  -3  146.19   10.60
   4  -5   3  172.88   13.60
   4  -5   3  140.99   10.30
   4  -5   3  159.58   12.50
  -4  -5  -3  151.68   11.90
   4  -5   3  142.09   11.80
  -4  -5  -3  152.98   12.70
  -4   5  -3  137.39   11.00
   4   5   3  143.29   11.90
  -4   5  -3  153.98   11.20
   4   5   3  164.48    9.60
  -4   5  -3  170.58    9.70
   5  -5   3  261.77   19.00
   5  -5   3  275.17   19.20
  -5  -5  -3  273.37   20.00
   5  -5   3  284.77   17.00
  -5  -5  -3  283.77   17.60
  -5   5  -3  220.88   15.50
   5   5   3  247.58   14.10
  -6  -5  -3   92.49    9.80
   6  -5   3  117.79    9.40
  -6  -5  -3  109.39   11.50
   6  -5   3   89.99   11.40
   6  -5   3  104.49   11.80
  -6   5  -3   91.09    9.60
   6   5   3   87.89    7.80
   7  -5   3  252.47   16.30
   7  -5   3  257.47   19.60
  -7  -5  -3  202.08   16.10
   7  -5   3  232.08   18.00
  -7  -5  -3  221.18   19.10
   7   5   3  238.48   15.60
  -7   5  -3  243.48   16.40
   6  -6  -3  125.59   13.80
  -6  -6   3  126.99   14.20
  -6  -6   3  103.29   10.80
   6  -6  -3  104.49    9.50
   6   6  -3  102.19   11.10
   6   6  -3  112.39    8.90
  -6   6   3  106.19    8.70
   5  -6  -3  351.86   20.40
   5  -6  -3  347.27   19.00
   5  -6  -3  375.06   20.80
  -5  -6   3  351.66   21.20
  -5  -6   3  363.16   23.80
   5   6  -3  336.87   21.30
  -5   6   3  331.67   19.10
   5   6  -3  340.67   18.80
  -4  -6   3   29.20    5.00
  -4  -6   3   23.40    4.50
   4  -6  -3   31.30    3.40
   4  -6  -3   23.00    3.70
  -4  -6   3   17.70    5.20
   4  -6  -3   28.40    3.40
   4  -6  -3   25.30    3.70
   4  -6  -3   35.30    5.40
   4   6  -3   24.70    3.40
   4   6  -3   26.30    4.40
   4   6  -3   28.50    5.30
  -4   6   3   16.60    3.60
   3  -6  -3  309.57   16.10
   3  -6  -3  312.97   15.70
  -3  -6   3  332.07   20.20
  -3  -6   3  339.97   18.50
   3  -6  -3  326.77   16.30
  -3  -6   3  299.37   18.60
   3  -6  -3  309.97   15.70
  -3  -6   3  324.97   20.30
   3   6  -3  318.87   18.50
   3   6  -3  325.77   19.10
   3   6  -3  299.87   19.50
   3   6  -3  306.57   15.80
   2  -6  -3  310.17   15.00
  -2  -6   3  314.37   17.60
  -2  -6   3  341.37   18.00
   2  -6  -3  314.57   19.70
   2  -6  -3  329.97   15.10
  -2  -6   3  317.97   19.50
  -2  -6   3  310.97   19.30
  -2  -6   3  333.17   19.20
   2   6  -3  282.27   17.10
   2   6  -3  306.27   19.10
   2   6  -3  330.37   18.60
  -1  -6   3  106.29    7.40
  -1  -6   3   93.39    8.50
  -1  -6   3  112.79    7.50
  -1  -6   3   88.19    8.30
   1  -6  -3  105.29    4.90
   1  -6  -3  106.59    4.90
  -1  -6   3   82.79    8.70
   1  -6  -3   98.09    8.80
   1   6  -3   86.09    6.80
   1   6  -3  119.89    9.20
   1   6  -3   98.69    8.80
   0  -6  -3  267.67   12.80
   0  -6   3  239.98   13.90
   0  -6  -3  264.57   12.50
   0  -6  -3  261.27   15.50
   0  -6   3  249.88   16.70
   0  -6   3  247.98   15.40
   0  -6   3  247.58   15.50
   0  -6  -3  243.38   12.80
   0  -6   3  235.28   13.80
   0  -6  -3  255.27   12.50
   0   6  -3  225.98   14.90
   0   6  -3  235.98   15.70
   0   6  -3  254.97   13.20
   1  -6   3  708.13   35.50
  -1  -6  -3  721.73   35.90
   1  -6   3  721.73   37.40
  -1  -6  -3  738.33   35.70
   1  -6   3  753.22   35.60
   1  -6   3  725.13   38.90
  -1  -6  -3  790.02   34.90
  -1  -6  -3  739.73   34.80
  -1  -6  -3  687.93   36.00
   1  -6   3  712.33   37.30
  -1   6  -3  758.72   37.30
  -1   6  -3  724.83   34.40
  -1   6  -3  681.23   36.90
  -2  -6  -3   47.90    5.90
  -2  -6  -3   43.60    5.50
  -2  -6  -3   55.29    5.20
   2  -6   3   49.20    5.10
   2  -6   3   51.19    5.00
   2  -6   3   53.89    7.70
  -2  -6  -3   47.90    4.20
   2  -6   3   43.80    6.00
   2  -6   3   44.20    5.90
  -2  -6  -3   50.29    4.90
  -2   6  -3   49.60    6.10
  -2   6  -3   49.60    6.50
  -3  -6  -3   87.09    7.00
   3  -6   3   66.09    8.60
   3  -6   3   62.29    6.30
   3  -6   3   85.79    6.80
   3  -6   3   61.39    7.60
  -3  -6  -3   68.49    7.30
  -3  -6  -3   68.49    7.30
   3  -6   3   77.29    7.40
  -3   6  -3   80.19    6.90
  -3   6  -3   72.39    8.10
  -3   6  -3   68.69    5.90
   4  -6   3   44.70    6.50
   4  -6   3   59.09    8.70
   4  -6   3   46.40    5.70
  -4  -6  -3   59.99    6.90
  -4  -6  -3   46.60    7.50
   4  -6   3   45.90    7.00
  -4   6  -3   59.29    5.50
  -4   6  -3   50.79    7.00
   5  -6   3  111.99    8.90
  -5  -6  -3  103.89    9.10
  -5  -6  -3  101.89   10.70
   5  -6   3  106.69   10.60
   5  -6   3  102.19   11.80
  -5   6  -3   97.49    9.60
  -6  -6  -3    1.60    3.10
   6  -6   3    1.50    2.90
   6  -6   3   -2.50    3.10
   6  -6   3    1.30    2.70
  -6  -6  -3   -1.40    3.40
  -6   6  -3   -2.50    1.60
  -5  -7   3   52.19    7.20
  -5  -7   3   49.40    8.60
   5  -7  -3   57.19    5.50
   5  -7  -3   63.49    9.60
  -5   7   3   53.69    6.30
   5   7  -3   51.59    7.80
   4  -7  -3  149.59   13.30
  -4  -7   3  145.99   10.90
   4  -7  -3  150.18    9.00
  -4  -7   3  139.29   11.00
   4  -7  -3  147.99    8.90
  -4  -7   3  132.79   12.50
   4   7  -3  151.28   12.50
  -3  -7   3   20.00    4.10
  -3  -7   3   14.60    3.90
   3  -7  -3   11.40    3.70
  -3  -7   3   14.60    3.50
   3   7  -3   20.20    5.30
  -2  -7   3  131.59   10.90
   2  -7  -3  128.89   11.50
  -2  -7   3  136.69   11.00
  -2  -7   3  122.39   10.20
  -2  -7   3  151.48    9.90
   2   7  -3  142.59    9.40
   2   7  -3  127.59   11.60
  -1  -7   3   12.50    3.60
  -1  -7   3   16.40    3.90
   1  -7  -3   11.60    3.30
  -1  -7   3   10.00    3.30
  -1  -7   3   16.50    3.10
  -1  -7   3    9.70    2.60
   1   7  -3   15.60    4.50
   0  -7  -3  279.17   13.30
   0  -7  -3  258.17   16.80
   0  -7   3  308.87   17.50
   0  -7   3  280.47   15.40
   0  -7  -3  269.57   13.30
   0  -7   3  273.57   16.70
   0  -7   3  266.17   18.10
   0  -7  -3  279.47   13.80
   0  -7   3  304.47   15.70
   0   7  -3  276.67   17.70
  -1  -7  -3  245.28   13.60
   1  -7   3  240.18   17.10
  -1  -7  -3  262.27   15.00
   1  -7   3  242.38   15.60
  -1  -7  -3  247.68   14.00
   1  -7   3  246.78   13.90
   1  -7   3  247.68   15.40
  -1  -7  -3  251.97   13.30
   1  -7   3  240.48   14.00
  -1   7  -3  239.18   15.50
  -1   7  -3  240.18   16.00
   2  -7   3    2.00    2.40
  -2  -7  -3    0.50    1.60
  -2  -7  -3   -0.90    1.40
  -2  -7  -3    1.30    1.20
   2  -7   3    0.10    1.70
   2  -7   3    0.40    1.50
   2  -7   3    1.50    1.80
  -2  -7  -3    0.50    2.00
   2  -7   3    0.50    2.00
  -2  -7  -3    0.50    1.60
  -2   7  -3    0.40    2.40
  -2   7  -3    1.40    2.70
  -3  -7  -3  357.36   20.20
  -3  -7  -3  346.17   21.70
   3  -7   3  363.16   19.70
   3  -7   3  336.97   23.40
   3  -7   3  367.56   21.70
   3  -7   3  390.36   21.70
  -3   7  -3  347.77   21.10
  -3   7  -3  355.86   20.40
   4  -7   3  170.68   15.00
  -4  -7  -3  184.88   14.70
   4  -7   3  201.68   14.20
  -4  -7  -3  187.38   13.00
   4  -7   3  195.88   12.40
  -4   7  -3  217.18   15.00
  -5  -7  -3   16.10    4.40
   5  -7   3   20.10    4.90
  -5  -7  -3   18.40    5.60
   5  -7   3   16.40    5.60
  -5   7  -3   16.40    5.10
   4  -8  -3  273.77   19.80
  -4  -8   3  264.47   16.90
  -4  -8   3  259.47   18.60
   4   8  -3  264.07   19.30
  -3  -8   3   35.30    5.20
   3  -8  -3   41.40    7.10
  -3  -8   3   45.50    6.90
  -3  -8   3   45.10    6.30
   3   8  -3   37.50    6.60
  -2  -8   3  405.36   23.30
   2  -8  -3  365.96   23.80
  -2  -8   3  387.86   21.50
  -2  -8   3  397.46   23.30
   2   8  -3  377.86   24.00
  -1  -8   3    4.80    2.80
  -1  -8   3   10.10    2.80
   1  -8  -3   11.30    4.00
  -1  -8   3    9.30    3.10
   1   8  -3   11.70    3.90
   0  -8   3  190.08   15.00
   0  -8   3  182.68   13.00
   0  -8   3  201.28   13.00
   0   8  -3  159.68   13.00
  -1  -8  -3   55.29    6.20
  -1  -8  -3   55.79    4.90
   1  -8   3   53.69    8.40
  -1  -8  -3   52.09    4.50
   1  -8   3   64.29    6.60
   1  -8   3   62.49    6.10
  -1   8  -3   40.70    6.40
  -2  -8  -3  126.89    9.30
  -2  -8  -3  122.29    9.00
   2  -8   3   95.79   11.60
   2  -8   3  116.69    9.20
  -2   8  -3  123.89   10.20
  -2   8  -3  104.39   10.00
   3  -8   3   55.59    9.00
  -3  -8  -3   47.10    6.60
   3  -8   3   59.89    6.90
  -3   8  -3   77.59    8.40
  -3   8  -3   61.29    7.80
  -1  -9   3   59.89    8.30
   1  -9  -3   63.09    8.30
   1   9  -3   41.20    7.40
   0  -9   3   49.10    8.00
   0  -9   3   43.30    5.50
   0   9  -3   43.80    7.10
   1  -9   3   41.50    7.60
   1  -9   3   36.30    5.60
  -1  -9  -3   40.00    2.90
  -1  -9  -3   37.70    2.80
  -1   9  -3   50.99    7.70
   9   0  -4    1.80    4.70
  -9   0   4    0.90    2.70
  -8   0   4   39.00    6.30
   8   0  -4   19.10    5.80
   8   0  -4   46.10    6.60
  -7   0   4   39.10    7.70
   7   0  -4   53.39    5.00
   7   0  -4   58.19    9.50
   7   0  -4   43.20    6.40
  -7   0   4   57.39    6.90
   7   0  -4   57.59    9.50
   6   0  -4    1.10    2.60
  -6   0   4    7.80    3.20
  -6   0   4    0.70    3.20
   6   0  -4    8.10    2.50
   6   0  -4    2.30    2.90
   6   0  -4    5.70    2.50
   5   0  -4   63.39    8.40
  -5   0   4   66.19    6.70
   5   0  -4   81.69    9.20
  -5   0   4   71.49    6.20
  -5   0   4   80.29    8.20
   5   0  -4   75.29    7.30
  -5   0   4   73.99    8.60
  -4   0   4   95.09    9.30
   4   0  -4  113.09    8.00
   4   0  -4  103.79    9.10
   4   0  -4  109.49    8.10
  -4   0   4  112.39    8.10
  -4   0   4  107.69    7.90
   4   0  -4  112.69    9.90
  -4   0   4  106.59    9.30
  -3   0   4 1467.35   68.69
   3   0  -4 1415.86   68.69
   3   0  -4 1534.75   70.09
   3   0  -4 1555.14   70.89
   3   0  -4 1312.07   70.09
  -3   0   4 1481.45   68.69
  -3   0   4 1437.86   70.69
  -3   0   4 1657.23   70.89
   3   0  -4 1397.46   68.59
  -2   0   4  417.46   22.60
  -2   0   4  425.36   21.20
   2   0  -4  389.46   22.70
   2   0  -4  431.46   21.40
   2   0  -4  410.66   21.20
   2   0  -4  462.65   22.70
   2   0  -4  441.76   22.80
  -2   0   4  418.06   22.80
  -2   0   4  408.96   21.20
  -1   0   4  914.31   41.90
   1   0  -4  859.11   43.40
  -1   0   4  878.71   43.30
   1   0  -4  941.61   40.50
  -1   0   4  868.61   41.90
   1   0  -4  869.41   41.80
  -1   0   4  836.12   42.70
   1   0  -4  858.41   42.70
  -1   0   4  854.91   43.30
   1   0  -4 1009.10   43.70
   1   0  -4  870.91   41.90
   0   0  -4 4928.71  239.38
   0   0  -4 5596.84  233.28
   0   0   4 4831.72  234.38
   0   0  -4 5046.20  235.88
   0   0  -4 5920.01  246.58
   0   0   4 4888.91  235.88
   0   0   4 4919.61  240.18
   1   0   4  554.84   27.20
  -1   0  -4  537.05   28.90
  -1   0  -4  570.44   27.40
   1   0   4  566.54   27.50
   1   0   4  525.95   28.90
   1   0   4  605.74   29.40
  -1   0  -4  533.05   27.30
   1   0   4  563.94   27.30
  -1   0  -4  541.95   28.90
  -1   0  -4  546.95   27.30
   2   0   4  545.05   28.10
   2   0   4  559.94   30.20
  -2   0  -4  558.64   28.10
   2   0   4  621.44   28.50
  -2   0  -4  520.95   29.90
  -2   0  -4  554.84   29.80
  -2   0  -4  570.54   28.00
   2   0   4  529.35   30.10
   2   0   4  581.84   28.10
  -2   0  -4  604.44   28.60
  -3   0  -4  471.25   26.00
   3   0   4  412.86   25.80
   3   0   4  466.35   24.10
  -3   0  -4  484.75   24.10
   3   0   4  466.45   24.00
   3   0   4  471.65   26.50
  -3   0  -4  423.06   23.80
   3   0   4  444.56   23.50
  -3   0  -4  465.15   26.40
  -3   0  -4  468.65   23.40
  -4   0  -4    2.80    2.40
  -4   0  -4    3.90    2.70
   4   0   4    3.10    2.00
  -4   0  -4    1.00    2.20
   4   0   4    1.20    2.20
   4   0   4    2.10    3.10
   4   0   4    1.90    1.40
  -4   0  -4    4.80    3.60
   4   0   4    5.20    2.10
  -4   0  -4    3.50    1.40
   5   0   4  188.08   12.10
   5   0   4  178.78   15.00
   5   0   4  189.78   15.10
  -5   0  -4  188.98   10.20
   5   0   4  202.58   13.20
  -5   0  -4  190.28   14.60
  -5   0  -4  173.68   12.50
  -5   0  -4  175.68   15.20
  -6   0  -4  676.83   39.90
  -6   0  -4  674.53   36.10
   6   0   4  690.73   36.30
   6   0   4  701.23   35.30
   6   0   4  628.74   38.70
   6   0   4  693.13   40.20
  -6   0  -4  730.63   39.30
   7   0   4    5.60    3.10
   7   0   4   14.70    3.60
  -7   0  -4   16.60    4.60
  -7   0  -4    9.50    5.40
   7   0   4    6.80    5.10
   8   0   4   20.30    5.50
  -8   0  -4   34.90    5.90
  -9  -1   4   55.99    8.90
   9  -1  -4   73.19   11.00
  -9   1   4   61.39    7.70
  -8  -1   4  259.27   16.50
   8  -1  -4  247.88   19.50
   8  -1  -4  230.68   16.50
   8   1  -4  245.58   16.40
   8   1  -4  234.68   18.90
  -7  -1   4  185.78   13.40
   7  -1  -4  186.88   11.30
   7  -1  -4  209.98   16.20
   7  -1  -4  192.98   13.50
  -7  -1   4  192.98   16.40
   7   1  -4  193.68   13.60
  -7   1   4  177.88   12.50
   7   1  -4  204.58   12.30
   7   1  -4  184.28   16.00
   7   1  -4  178.38   15.70
  -6  -1   4    2.50    2.70
   6  -1  -4   -0.80    2.40
  -6  -1   4    2.70    2.90
   6  -1  -4    0.90    3.30
   6  -1  -4    4.00    2.90
  -6  -1   4    2.50    2.60
   6   1  -4    4.60    2.90
   6   1  -4    4.00    1.90
  -6   1   4    6.20    2.70
   6   1  -4    5.80    3.50
  -6   1   4    0.30    2.10
  -6   1   4    4.60    2.90
   6   1  -4    4.60    3.00
   5  -1  -4  977.20   49.99
   5  -1  -4 1077.79   49.10
   5  -1  -4  908.61   50.39
   5  -1  -4 1074.29   52.09
  -5  -1   4  997.30   49.20
  -5  -1   4  952.90   51.09
  -5  -1   4 1036.90   51.99
  -5  -1   4 1005.90   50.29
   5   1  -4  943.41   50.49
   5   1  -4  902.21   48.00
   5   1  -4  936.01   50.69
  -5   1   4 1051.99   50.19
  -5   1   4 1076.09   50.79
   5   1  -4  970.50   49.00
  -5   1   4  959.30   47.60
  -5   1   4 1021.00   47.70
   5   1  -4 1006.60   47.90
  -5   1   4  980.20   45.90
   4  -1  -4  139.69    9.30
  -4  -1   4  155.48   11.80
   4  -1  -4  159.38   11.80
  -4  -1   4  143.49   11.40
   4  -1  -4  131.89   10.80
   4  -1  -4  143.99    9.50
  -4  -1   4  158.58   10.10
  -4  -1   4  151.68    9.90
  -4   1   4  136.99   10.70
  -4   1   4  137.99    9.00
   4   1  -4  128.19    9.20
  -4   1   4  142.09    7.50
  -4   1   4  156.98    9.50
   4   1  -4  137.69   11.20
   4   1  -4  148.19   10.60
  -4   1   4  147.39   11.00
   4   1  -4  150.98    9.80
   4   1  -4  132.79   11.00
   3  -1  -4  371.06   20.70
  -3  -1   4  377.36   17.70
  -3  -1   4  361.16   21.20
   3  -1  -4  361.56   19.10
   3  -1  -4  403.76   20.80
   3  -1  -4  357.86   18.90
  -3  -1   4  366.76   21.00
  -3  -1   4  346.07   19.10
  -3  -1   4  339.37   19.20
  -3   1   4  374.86   19.20
   3   1  -4  401.36   22.00
   3   1  -4  360.56   20.40
   3   1  -4  390.86   19.90
   3   1  -4  373.66   21.40
  -3   1   4  364.46   19.20
  -3   1   4  396.96   20.90
   3   1  -4  353.76   19.70
  -3   1   4  373.56   17.30
  -3   1   4  375.86   20.80
  -2  -1   4  561.54   27.40
   2  -1  -4  517.45   28.10
  -2  -1   4  544.45   27.20
   2  -1  -4  611.64   27.20
  -2  -1   4  564.24   28.40
  -2  -1   4  526.05   28.80
   2  -1  -4  518.75   28.10
  -2  -1   4  572.34   25.90
  -2  -1   4  545.85   28.70
   2  -1  -4  558.04   26.90
   2   1  -4  599.04   29.90
   2   1  -4  632.64   28.20
   2   1  -4  554.64   28.70
  -2   1   4  538.15   27.20
  -2   1   4  581.84   28.80
   2   1  -4  555.34   27.80
  -2   1   4  568.24   27.30
   2   1  -4  508.25   28.90
  -1  -1   4 1032.00   51.19
   1  -1  -4 1093.79   50.79
   1  -1  -4 1074.69   49.30
  -1  -1   4 1153.98   49.99
   1  -1  -4 1050.39   49.40
  -1  -1   4 1061.89   51.49
   1  -1  -4  982.60   50.39
   1  -1  -4 1163.88   50.69
  -1  -1   4  978.00   50.49
  -1  -1   4 1034.70   48.70
  -1  -1   4 1027.10   49.70
   1   1  -4  944.21   48.30
   1   1  -4 1110.09   47.80
   1   1  -4 1006.40   49.00
   1   1  -4 1075.79   49.50
  -1   1   4 1035.60   47.00
  -1   1   4 1004.70   47.20
  -1   1   4  904.01   48.10
   1   1  -4  966.30   47.50
   1   1  -4 1061.49   46.60
   0  -1   4  176.58   11.90
   0  -1  -4  178.18   10.10
   0  -1  -4  176.88   10.20
   0  -1   4  185.68   10.70
   0  -1  -4  179.78   11.30
   0  -1   4  188.98   10.60
   0  -1   4  166.48   11.00
   0  -1  -4  216.68   11.10
   0  -1  -4  183.48   11.60
   0  -1   4  209.88   12.50
   0   1  -4  183.78   10.60
   0   1  -4  199.78   12.30
   0   1  -4  177.38   11.90
   0   1  -4  174.58   11.10
   0   1  -4  189.78   10.60
   0   1   4  191.38   10.20
   0   1  -4  179.68   10.10
   0   1   4  196.38   10.30
   0   1   4  193.78   11.70
   1  -1   4 1379.46   62.79
  -1  -1  -4 1257.07   63.89
   1  -1   4 1325.67   64.49
   1  -1   4 1356.36   62.69
  -1  -1  -4 1284.47   62.39
  -1  -1  -4 1368.76   62.59
  -1  -1  -4 1265.47   64.09
   1  -1   4 1363.66   63.49
   1  -1   4 1360.56   64.59
  -1  -1  -4 1445.16   62.29
  -1   1  -4 1406.36   63.89
   1   1   4 1433.26   62.99
   1   1   4 1253.47   62.59
   1   1   4 1311.17   62.79
  -1   1  -4 1424.56   65.19
  -1   1  -4 1295.07   63.09
   1   1   4 1275.17   64.49
  -1   1  -4 1478.45   65.39
   1   1   4 1338.57   64.49
  -1   1  -4 1331.27   63.09
  -2  -1  -4  648.14   31.90
   2  -1   4  632.24   31.90
   2  -1   4  607.14   32.20
   2  -1   4  666.53   32.10
  -2  -1  -4  600.84   33.50
   2  -1   4  628.54   34.00
   2  -1   4  623.24   33.80
  -2  -1  -4  666.63   31.00
  -2  -1  -4  638.34   32.00
  -2  -1  -4  756.02   34.50
  -2   1  -4  730.03   33.50
  -2   1  -4  615.84   34.40
   2   1   4  681.33   32.60
   2   1   4  693.33   34.60
  -2   1  -4  622.24   32.60
   2   1   4  631.84   34.50
  -2   1  -4  632.94   34.50
   2   1   4  654.53   32.60
   2   1   4  693.33   31.80
  -2   1  -4  680.93   32.70
   3  -1   4  308.77   18.80
   3  -1   4  355.56   21.40
   3  -1   4  310.27   20.60
  -3  -1  -4  374.26   21.30
  -3  -1  -4  361.66   19.30
  -3  -1  -4  344.27   17.60
  -3  -1  -4  339.47   21.10
  -3  -1  -4  378.26   19.10
   3  -1   4  350.46   19.00
   3  -1   4  354.06   19.10
  -3   1  -4  384.56   22.20
  -3   1  -4  383.26   20.00
   3   1   4  390.26   20.00
  -3   1  -4  347.87   19.80
  -3   1  -4  373.76   20.10
   3   1   4  353.16   18.60
  -3   1  -4  370.96   22.20
   3   1   4  336.17   21.60
   3   1   4  428.86   20.40
   3   1   4  345.57   21.60
   4  -1   4   -2.30    1.80
  -4  -1  -4    0.60    3.10
  -4  -1  -4    2.40    1.50
   4  -1   4    3.90    2.50
  -4  -1  -4   -1.80    1.50
   4  -1   4   -0.10    2.90
   4  -1   4    0.20    2.20
  -4  -1  -4    2.40    1.90
  -4  -1  -4    0.30    1.50
   4  -1   4    0.60    2.80
   4   1   4    4.60    2.10
   4   1   4    2.30    2.60
   4   1   4    2.80    1.40
  -4   1  -4    1.00    2.20
   4   1   4    3.40    3.10
  -4   1  -4    1.80    3.20
  -4   1  -4    0.30    1.50
  -4   1  -4   -1.50    2.50
   4   1   4    1.00    2.10
  -5  -1  -4  120.29    7.80
  -5  -1  -4  120.39   11.50
   5  -1   4  109.09    9.20
  -5  -1  -4  117.09   12.10
   5  -1   4  133.19    9.90
   5  -1   4  131.99   12.00
   5  -1   4   95.99   10.70
  -5  -1  -4  115.99    9.80
  -5   1  -4  102.99   10.60
  -5   1  -4  139.39   11.90
   5   1   4  118.59   11.50
   5   1   4   94.69    9.50
   5   1   4   96.59   11.70
  -5   1  -4  109.89    5.80
   5   1   4  103.99    7.50
  -5   1  -4  121.39    9.50
  -6  -1  -4  400.06   27.10
   6  -1   4  425.36   24.00
  -6  -1  -4  386.76   23.40
  -6  -1  -4  414.26   20.90
   6  -1   4  403.26   23.30
  -6  -1  -4  399.26   26.10
   6  -1   4  441.46   26.90
   6  -1   4  392.46   26.80
  -6   1  -4  379.76   22.90
   6   1   4  367.66   23.00
   6   1   4  421.86   21.40
   6   1   4  378.36   26.60
  -6   1  -4  422.56   26.80
   6   1   4  424.56   26.60
  -7  -1  -4  286.37   19.30
  -7  -1  -4  296.37   22.60
   7  -1   4  317.57   23.30
   7  -1   4  289.47   19.20
   7  -1   4  301.57   19.00
  -7   1  -4  292.57   18.60
   7   1   4  297.77   22.70
   7   1   4  264.77   18.40
   8  -1   4   89.19    8.70
  -8  -1  -4   75.29    9.50
   8  -1   4   99.69   13.30
   8  -1   4   96.59   10.40
   8   1   4   79.99    9.20
  -8   1  -4   71.29    8.60
   8  -2  -4   75.69   10.70
  -8  -2   4   59.29    7.90
   8  -2  -4   51.79    7.40
  -8   2   4   49.50    6.40
   8   2  -4   59.79    7.50
   7  -2  -4  612.04   34.40
   7  -2  -4  682.93   38.10
  -7  -2   4  659.73   38.90
  -7  -2   4  703.63   38.80
  -7  -2   4  653.43   35.30
  -7   2   4  684.63   34.40
   7   2  -4  648.54   35.50
   7   2  -4  667.03   34.60
   7   2  -4  726.93   39.90
  -7   2   4  645.94   32.80
   6  -2  -4  347.87   21.40
  -6  -2   4  335.07   22.10
  -6  -2   4  355.26   19.90
   6  -2  -4  306.57   18.60
   6  -2  -4  306.97   21.10
  -6  -2   4  309.37   21.60
   6   2  -4  301.47   18.00
   6   2  -4  315.67   21.30
  -6   2   4  322.07   17.40
   6   2  -4  343.77   21.90
  -6   2   4  317.97   17.60
  -6   2   4  304.07   16.30
   6   2  -4  317.17   18.50
   6   2  -4  326.87   19.20
  -6   2   4  271.67   19.20
   5  -2  -4  165.08   12.90
   5  -2  -4  165.08   11.00
  -5  -2   4  160.78   12.80
   5  -2  -4  144.19   11.90
  -5  -2   4  155.58   13.50
  -5  -2   4  162.68   11.50
   5  -2  -4  170.38   10.90
   5   2  -4  159.28   10.70
  -5   2   4  161.48   11.70
   5   2  -4  150.88   10.80
   5   2  -4  138.09   12.20
  -5   2   4  157.68    9.90
   5   2  -4  170.48   13.20
  -5   2   4  148.49    9.40
  -5   2   4  156.98    8.70
   5   2  -4  139.79   10.90
   4  -2  -4  285.07   18.00
  -4  -2   4  299.27   17.40
  -4  -2   4  301.87   17.70
   4  -2  -4  350.36   17.50
   4  -2  -4  317.57   19.00
  -4  -2   4  334.97   19.80
  -4  -2   4  310.97   19.60
   4  -2  -4  314.67   17.00
   4   2  -4  371.46   18.90
   4   2  -4  310.77   18.10
  -4   2   4  337.37   17.00
  -4   2   4  343.77   19.30
   4   2  -4  340.67   18.20
   4   2  -4  300.67   19.80
   4   2  -4  305.77   18.60
  -4   2   4  335.17   16.00
  -4   2   4  311.57   18.50
   4   2  -4  297.57   19.80
  -4   2   4  337.17   17.00
  -3  -2   4  492.95   27.30
  -3  -2   4  492.05   24.10
  -3  -2   4  498.95   25.40
   3  -2  -4  488.25   24.60
   3  -2  -4  491.55   24.50
  -3  -2   4  459.05   25.30
   3  -2  -4  507.45   26.00
  -3  -2   4  507.85   27.50
   3  -2  -4  504.05   26.30
   3   2  -4  510.85   26.70
  -3   2   4  440.66   22.40
   3   2  -4  466.55   25.10
   3   2  -4  483.05   24.50
   3   2  -4  515.95   27.00
   3   2  -4  467.65   24.50
  -3   2   4  459.45   24.80
  -3   2   4  523.25   23.40
  -3   2   4  471.65   24.90
  -3   2   4  459.95   23.10
  -2  -2   4   70.49    7.00
   2  -2  -4   67.19    5.90
   2  -2  -4   58.99    4.60
  -2  -2   4   72.89    5.80
  -2  -2   4   59.89    4.70
   2  -2  -4   65.49    3.90
   2  -2  -4   62.89    4.80
  -2  -2   4   69.09    6.10
  -2  -2   4   66.69    5.40
  -2  -2   4   69.19    7.20
   2  -2  -4   78.69    6.10
   2   2  -4   71.99    7.00
  -2   2   4   70.79    4.50
  -2   2   4   72.39    5.90
   2   2  -4   75.99    7.00
  -2   2   4   65.09    4.40
   2   2  -4   82.09    5.90
   2   2  -4   70.29    6.10
  -2   2   4   73.99    5.80
   2   2  -4   67.19    5.40
  -1  -2   4 2532.25  110.79
  -1  -2   4 2445.76  109.99
   1  -2  -4 2611.84  111.39
  -1  -2   4 2540.15  112.79
  -1  -2   4 2329.87  112.29
   1  -2  -4 2472.15  109.79
  -1  -2   4 2408.46  111.79
   1  -2  -4 2078.19  110.59
   1  -2  -4 2332.27  109.79
  -1  -2   4 2384.76  110.59
   1   2  -4 2349.76  108.89
   1   2  -4 2411.26  109.29
   1   2  -4 2338.17  110.49
   1   2  -4 2290.57  109.29
  -1   2   4 2376.76  109.59
  -1   2   4 2451.65  108.19
  -1   2   4 2362.96  108.09
   1   2  -4 2352.06  110.89
  -1   2   4 2530.85  109.69
   1   2  -4 2406.36  111.29
   0  -2   4 1192.78   54.29
   0  -2   4 1262.27   56.39
   0  -2  -4 1110.59   54.89
   0  -2  -4 1086.29   53.49
   0  -2   4 1105.19   55.39
   0  -2   4 1191.48   55.99
   0  -2   4 1201.28   53.99
   0  -2  -4 1124.69   54.09
   0  -2  -4 1108.79   54.79
   0  -2  -4 1171.48   53.69
   0  -2   4 1160.08   54.19
   0   2  -4 1139.19   53.69
   0   2  -4 1175.58   55.09
   0   2  -4 1206.38   55.89
   0   2   4 1141.29   52.69
   0   2   4 1205.38   52.79
   0   2  -4 1061.49   53.49
   0   2  -4 1160.98   55.39
   0   2   4 1139.49   54.29
   0   2  -4 1103.19   53.49
   0   2   4 1146.79   54.29
  -1  -2  -4 2086.79   93.09
  -1  -2  -4 1838.62   94.29
   1  -2   4 2130.49   94.89
   1  -2   4 1961.00   93.29
   1  -2   4 2086.89   95.69
   1  -2   4 2136.69   93.49
  -1  -2  -4 2111.39   92.59
  -1  -2  -4 1942.11   92.99
  -1  -2  -4 1982.30   94.69
   1  -2   4 1966.70   95.19
  -1   2  -4 2070.79   91.89
  -1   2  -4 1856.81   93.49
  -1   2  -4 1950.40   91.79
  -1   2  -4 1918.31   91.69
   1   2   4 1971.40   91.19
   1   2   4 2048.70   92.99
  -1   2  -4 2049.09   93.29
  -1   2  -4 1895.01   93.49
   1   2   4 2053.49   91.19
   1   2   4 2112.39   93.29
   2  -2   4 1620.44   73.59
  -2  -2  -4 1548.15   73.29
   2  -2   4 1642.84   74.79
  -2  -2  -4 1558.24   71.59
   2  -2   4 1550.84   75.49
   2  -2   4 1658.83   75.99
  -2  -2  -4 1498.25   75.19
  -2  -2  -4 1616.64   73.29
   2  -2   4 1501.55   73.29
  -2  -2  -4 1510.25   74.99
  -2   2  -4 1655.43   73.89
   2   2   4 1543.85   73.39
  -2   2  -4 1548.84   74.09
   2   2   4 1577.64   73.39
  -2   2  -4 1689.43   76.49
  -2   2  -4 1596.04   75.29
  -2   2  -4 1528.65   73.79
  -2   2  -4 1515.45   75.79
   2   2   4 1608.34   75.49
  -3  -2  -4  651.13   31.70
   3  -2   4  629.44   31.80
  -3  -2  -4  672.63   32.10
  -3  -2  -4  650.73   31.80
   3  -2   4  572.54   33.50
  -3  -2  -4  601.54   33.40
   3  -2   4  643.84   33.00
  -3  -2  -4  599.54   33.90
   3  -2   4  651.63   34.40
   3  -2   4  617.04   31.70
  -3   2  -4  623.94   31.10
  -3   2  -4  620.44   31.50
  -3   2  -4  605.24   32.30
  -3   2  -4  586.54   33.30
   3   2   4  630.14   29.00
   3   2   4  615.04   31.00
   3   2   4  636.34   33.30
   3   2   4  622.54   33.60
  -3   2  -4  610.64   30.90
  -3   2  -4  579.14   32.90
   3   2   4  704.13   31.60
  -4  -2  -4   39.60    7.00
   4  -2   4   39.90    5.50
  -4  -2  -4   57.89    5.40
  -4  -2  -4   47.60    7.10
   4  -2   4   57.89    7.70
   4  -2   4   51.39    7.50
  -4  -2  -4   46.80    5.80
   4  -2   4   49.10    6.50
  -4   2  -4   42.10    6.80
   4   2   4   44.90    3.20
   4   2   4   45.60    7.00
   4   2   4   43.10    6.80
   4   2   4   52.79    5.80
   4   2   4   56.79    6.20
  -4   2  -4   43.20    3.30
  -4   2  -4   45.50    6.70
  -4   2  -4   39.00    5.30
  -5  -2  -4  208.08   15.90
   5  -2   4  175.18   15.30
  -5  -2  -4  191.98   11.80
   5  -2   4  177.98   13.40
  -5  -2  -4  192.08   15.10
   5  -2   4  183.98   13.10
   5  -2   4  191.58   15.10
  -5  -2  -4  199.98   13.50
  -5   2  -4  189.08   12.10
  -5   2  -4  191.88   12.30
   5   2   4  174.28    9.60
   5   2   4  173.58   12.40
  -5   2  -4  184.88   14.70
   5   2   4  187.98   15.20
   6  -2   4   20.90    5.00
   6  -2   4   20.20    6.90
  -6  -2  -4   19.20    6.20
   6  -2   4   29.80    5.30
  -6  -2  -4   22.10    6.20
  -6  -2  -4   21.50    3.70
   6  -2   4   21.80    6.30
  -6  -2  -4   20.00    4.40
  -6   2  -4   16.20    5.00
   6   2   4   23.90    4.50
  -6   2  -4   20.40    4.10
   6   2   4   20.70    2.60
   6   2   4   23.00    6.70
   7  -2   4  139.19   14.90
  -7  -2  -4  158.18   13.00
   7  -2   4  155.58   12.90
  -7  -2  -4  169.48   15.60
   7  -2   4  161.78   12.50
   7   2   4  134.09   11.70
  -7   2  -4  167.58   12.20
   8  -2   4   50.99   10.00
   8  -2   4   41.90    7.20
  -8  -2  -4   44.80    7.90
   8  -2   4   42.80    7.40
   8   2   4   54.19    7.30
  -8   2  -4   33.50    5.70
   8  -3  -4    0.60    2.60
  -8  -3   4    3.10    2.90
  -8  -3   4    1.50    4.50
   8  -3  -4    1.00    2.20
   8   3  -4    0.30    2.20
   7  -3  -4   68.89    9.20
   7  -3  -4   75.19    7.80
  -7  -3   4   84.19    9.30
  -7  -3   4   68.29   10.50
   7   3  -4   79.69    7.50
  -7   3   4   77.29    6.10
  -7   3   4   75.29    6.50
   7   3  -4   66.29    8.10
   6  -3  -4  503.25   30.30
   6  -3  -4  533.95   30.70
   6  -3  -4  549.74   28.20
  -6  -3   4  530.65   32.10
  -6  -3   4  605.24   32.40
  -6  -3   4  474.15   28.60
   6   3  -4  508.05   28.40
  -6   3   4  540.15   29.60
   6   3  -4  512.35   31.20
  -6   3   4  522.75   26.30
   6   3  -4  502.85   28.00
   6   3  -4  514.35   28.30
  -6   3   4  548.95   26.30
  -6   3   4  527.85   26.00
   5  -3  -4   94.29    7.60
  -5  -3   4   84.89    7.70
   5  -3  -4   91.29    7.40
   5  -3  -4  110.89    9.80
  -5  -3   4   77.79    9.80
  -5  -3   4   89.09   10.60
   5  -3  -4   95.99    8.90
   5   3  -4  108.79   10.60
   5   3  -4   83.89    7.60
  -5   3   4   99.69    6.50
  -5   3   4   95.29    8.50
  -5   3   4  112.49    6.70
   5   3  -4   86.09    9.30
   5   3  -4   94.59    8.60
  -5   3   4   96.99    6.50
   5   3  -4  100.79    8.50
   4  -3  -4  693.43   34.30
   4  -3  -4  681.23   35.70
  -4  -3   4  759.62   38.20
   4  -3  -4  694.03   34.20
  -4  -3   4  727.53   34.40
  -4  -3   4  660.23   35.30
   4  -3  -4  694.03   36.30
  -4  -3   4  705.83   38.00
   4   3  -4  684.43   37.20
   4   3  -4  713.33   35.30
  -4   3   4  698.43   32.40
  -4   3   4  721.13   33.00
   4   3  -4  666.93   34.50
   4   3  -4  643.94   36.50
  -4   3   4  667.73   34.80
   4   3  -4  686.13   35.50
   4   3  -4  723.43   34.70
   3  -3  -4  405.26   24.20
  -3  -3   4  487.45   26.40
   3  -3  -4  482.25   23.20
   3  -3  -4  468.95   24.40
   3  -3  -4  473.35   23.10
  -3  -3   4  494.35   24.50
  -3  -3   4  447.36   24.90
  -3  -3   4  481.85   24.60
  -3  -3   4  443.56   23.50
  -3  -3   4  520.95   27.10
   3  -3  -4  453.05   22.70
  -3   3   4  465.65   23.10
  -3   3   4  440.66   24.00
   3   3  -4  488.05   24.60
  -3   3   4  443.86   24.10
   3   3  -4  506.35   25.80
   3   3  -4  512.95   24.70
   3   3  -4  500.55   27.00
   3   3  -4  474.75   26.50
   3   3  -4  486.25   25.50
   2  -3  -4  574.54   27.70
   2  -3  -4  572.94   26.70
  -2  -3   4  536.35   29.60
  -2  -3   4  574.24   27.50
   2  -3  -4  541.95   26.60
  -2  -3   4  559.24   27.90
  -2  -3   4  529.95   29.60
  -2  -3   4  534.35   28.80
   2  -3  -4  604.34   26.70
   2  -3  -4  544.75   27.90
  -2  -3   4  524.35   27.80
  -2   3   4  489.35   26.00
   2   3  -4  518.25   27.90
   2   3  -4  577.94   28.80
  -2   3   4  549.54   26.40
   2   3  -4  540.25   28.30
   2   3  -4  539.95   26.80
   2   3  -4  600.24   29.70
   2   3  -4  528.25   26.80
   1  -3  -4  404.16   20.70
   1  -3  -4  401.06   19.70
  -1  -3   4  408.86   21.00
   1  -3  -4  419.26   21.10
  -1  -3   4  443.96   21.20
   1  -3  -4  401.06   19.80
  -1  -3   4  368.66   22.40
  -1  -3   4  393.26   22.20
  -1  -3   4  403.66   20.80
  -1  -3   4  415.06   22.70
   1  -3  -4  428.66   20.40
  -1   3   4  434.66   21.20
   1   3  -4  477.95   23.80
   1   3  -4  397.96   21.60
   1   3  -4  451.75   22.20
   1   3  -4  420.56   21.60
   1   3  -4  432.16   23.90
   1   3  -4  429.16   23.70
  -1   3   4  436.06   21.20
   1   3  -4  429.26   23.10
   0  -3   4 1173.98   51.89
   0  -3  -4 1119.59   50.69
   0  -3   4  974.60   53.09
   0  -3   4 1055.59   53.29
   0  -3   4 1032.20   51.49
   0  -3  -4 1103.59   50.79
   0  -3   4 1095.79   51.69
   0  -3  -4 1072.19   51.89
   0  -3  -4 1118.09   52.19
   0  -3   4 1190.88   53.99
   0   3  -4 1052.39   48.50
   0   3  -4 1047.00   49.80
   0   3  -4 1140.39   49.40
   0   3  -4 1032.70   50.59
   0   3   4 1021.50   48.40
   0   3   4  981.10   48.40
   0   3  -4  996.70   50.29
   0   3  -4  998.00   48.40
  -1  -3  -4   92.89    7.40
  -1  -3  -4   80.19    5.60
   1  -3   4   96.79    6.80
   1  -3   4   92.99    6.60
   1  -3   4   77.19    7.30
   1  -3   4   81.79    6.40
   1  -3   4   80.79    7.70
   1  -3   4   92.99    8.00
  -1  -3  -4   88.29    6.90
  -1  -3  -4   86.59    7.30
  -1  -3  -4   85.29    6.00
  -1  -3  -4   84.89    5.90
  -1   3  -4   90.19    6.10
   1   3   4   85.79    6.40
  -1   3  -4   77.69    7.60
   1   3   4   83.89    6.80
  -1   3  -4   84.39    7.50
  -1   3  -4   78.69    6.30
   1   3   4   82.49    5.00
  -1   3  -4   81.69    5.80
  -1   3  -4   87.99    7.70
   1   3   4   84.09    4.90
  -1   3  -4   87.49    6.70
   2  -3   4   20.40    3.20
  -2  -3  -4   21.40    3.30
   2  -3   4   22.70    4.50
   2  -3   4   20.60    3.20
  -2  -3  -4   22.00    4.10
  -2  -3  -4   20.20    1.80
  -2  -3  -4   21.10    3.90
   2  -3   4   24.40    4.80
   2  -3   4   20.20    4.30
  -2  -3  -4   15.80    3.00
  -2  -3  -4   17.70    3.90
   2   3   4   22.10    3.90
  -2   3  -4   18.80    3.30
   2   3   4   16.70    2.60
   2   3   4   19.70    2.70
  -2   3  -4   25.90    3.40
  -2   3  -4   20.50    3.00
  -2   3  -4   29.40    4.80
   2   3   4   16.60    3.40
  -2   3  -4   18.10    3.90
  -2   3  -4   18.60    3.00
  -2   3  -4   18.60    4.20
   3  -3   4  437.56   24.90
   3  -3   4  431.16   23.20
   3  -3   4  398.06   25.00
  -3  -3  -4  501.85   25.70
   3  -3   4  444.06   25.60
  -3  -3  -4  442.66   23.10
   3  -3   4  432.76   23.20
  -3  -3  -4  428.96   23.50
  -3  -3  -4  418.66   23.20
  -3  -3  -4  443.76   25.50
   3   3   4  437.76   22.70
  -3   3  -4  431.26   25.00
  -3   3  -4  455.85   22.90
  -3   3  -4  467.75   25.20
   3   3   4  467.75   25.80
  -3   3  -4  423.96   23.70
   3   3   4  471.15   23.20
  -3   3  -4  471.25   23.20
   3   3   4  411.16   24.60
  -3   3  -4  437.76   22.20
  -4  -3  -4  658.73   34.80
   4  -3   4  664.13   37.30
  -4  -3  -4  727.33   38.00
  -4  -3  -4  697.43   37.00
   4  -3   4  651.13   34.50
   4  -3   4  723.43   36.70
   4  -3   4  645.74   37.20
  -4  -3  -4  675.63   34.60
   4   3   4  590.14   36.50
   4   3   4  685.73   34.40
  -4   3  -4  722.13   34.00
   4   3   4  717.53   34.20
  -4   3  -4  684.93   34.20
  -4   3  -4  682.83   32.20
  -4   3  -4  694.83   35.30
  -5  -3  -4  220.98   16.50
   5  -3   4  233.68   14.60
   5  -3   4  219.28   15.80
  -5  -3  -4  219.08   13.90
   5  -3   4  245.28   17.00
   5  -3   4  208.58   16.70
  -5  -3  -4  202.58   16.80
  -5  -3  -4  218.18   14.80
   5   3   4  243.38   17.40
  -5   3  -4  200.38   13.30
   5   3   4  203.88   14.00
  -5   3  -4  246.18   16.90
  -5   3  -4  224.18   14.70
  -5   3  -4  208.58   13.00
   6  -3   4  148.09   12.80
   6  -3   4  160.58   12.00
  -6  -3  -4  117.49   10.70
   6  -3   4  151.78   13.80
  -6  -3  -4  172.68   15.20
  -6   3  -4  135.79   10.40
   6   3   4  136.49   11.10
  -6   3  -4  158.38   11.50
  -7  -3  -4  124.49   13.80
  -7  -3  -4  140.89   11.80
   7  -3   4  160.08   12.40
   7  -3   4  136.69   13.90
   7  -3   4  146.49   13.00
  -7   3  -4  147.29   10.70
  -7   3  -4  136.09   11.20
   7   3   4  133.89   11.60
   8  -4  -4   25.80    4.90
  -8  -4   4   38.40    8.80
   8  -4  -4   21.10    5.70
   8   4  -4   22.10    4.80
   8   4  -4   30.90    5.80
  -7  -4   4   16.80    4.80
   7  -4  -4   16.90    4.80
   7  -4  -4   13.60    4.00
  -7  -4   4   22.60    6.80
  -7   4   4   21.80    3.60
   7   4  -4   18.20    4.10
  -6  -4   4   45.90    6.60
   6  -4  -4   62.29    7.90
   6  -4  -4   51.29    5.90
  -6  -4   4   57.89    9.30
   6   4  -4   58.39    7.10
   6   4  -4   59.29    6.90
  -6   4   4   57.09    5.50
   6   4  -4   59.29    7.50
   5  -4  -4    1.50    2.00
   5  -4  -4   -1.90    1.30
   5  -4  -4    1.40    1.90
  -5  -4   4    1.60    2.20
   5  -4  -4    0.70    1.80
  -5  -4   4    1.40    3.10
   5  -4  -4    0.40    2.10
  -5  -4   4    3.10    3.10
  -5   4   4   -0.80    1.50
   5   4  -4    2.60    1.90
   5   4  -4    2.10    1.70
   5   4  -4    0.30    2.10
  -5   4   4    3.00    1.60
   5   4  -4   -1.80    2.60
  -4  -4   4 1104.99   53.39
   4  -4  -4 1001.50   52.89
  -4  -4   4 1146.59   55.99
  -4  -4   4  989.40   55.09
   4  -4  -4 1080.09   52.99
  -4  -4   4 1115.49   52.49
   4  -4  -4 1152.68   51.69
   4  -4  -4 1083.39   51.39
  -4  -4   4 1127.79   53.49
   4   4  -4 1049.89   53.79
   4   4  -4 1072.09   53.19
  -4   4   4 1126.89   51.99
   4   4  -4 1049.49   52.19
  -4   4   4 1021.50   51.19
   4   4  -4 1175.58   55.49
   4   4  -4 1117.19   52.39
   3  -4  -4  185.08    9.90
   3  -4  -4  198.08   11.10
   3  -4  -4  161.48    9.60
  -3  -4   4  174.48   11.50
   3  -4  -4  182.68   10.20
  -3  -4   4  166.78   12.80
   3  -4  -4  157.48   10.80
  -3  -4   4  174.68   12.80
  -3  -4   4  184.98   11.20
  -3  -4   4  153.68   11.60
  -3  -4   4  170.68   11.20
   3   4  -4  190.18   11.20
   3   4  -4  183.48   11.00
   3   4  -4  176.48   12.90
  -3   4   4  172.38    9.60
   3   4  -4  177.38   12.60
  -3   4   4  191.08    9.70
   3   4  -4  189.38   12.80
   3   4  -4  160.38   11.70
  -2  -4   4  405.56   21.40
   2  -4  -4  402.76   19.60
   2  -4  -4  400.56   20.70
  -2  -4   4  402.36   23.30
   2  -4  -4  389.26   20.30
   2  -4  -4  414.76   22.00
  -2  -4   4  369.96   22.20
  -2  -4   4  393.66   21.30
   2  -4  -4  413.16   20.50
  -2  -4   4  473.65   23.90
  -2  -4   4  406.26   21.30
   2  -4  -4  394.96   19.50
   2   4  -4  396.26   22.40
   2   4  -4  345.97   21.70
   2   4  -4  493.05   23.80
   2   4  -4  382.76   22.00
   2   4  -4  396.66   20.40
   2   4  -4  395.96   20.30
   1  -4  -4  641.14   30.90
  -1  -4   4  655.23   33.40
  -1  -4   4  610.44   31.20
   1  -4  -4  616.04   29.60
  -1  -4   4  616.34   33.20
  -1  -4   4  640.64   33.00
   1  -4  -4  667.73   29.60
   1  -4  -4  591.44   30.40
  -1  -4   4  598.44   31.20
  -1  -4   4  683.33   31.80
   1  -4  -4  646.04   31.00
   1  -4  -4  626.14   32.50
   1   4  -4  627.84   29.50
   1   4  -4  591.24   31.60
   1   4  -4  603.64   31.50
   1   4  -4  602.14   31.80
   1   4  -4  595.24   30.40
   1   4  -4  605.74   29.50
   1   4  -4  628.84   31.50
   0  -4   4  112.89    7.80
   0  -4  -4  117.89    6.90
   0  -4  -4  125.49    9.10
   0  -4  -4  124.49    7.90
   0  -4  -4  114.99    6.90
   0  -4   4  132.59    9.80
   0  -4  -4  121.59    7.80
   0  -4   4  117.39    8.50
   0  -4   4  118.49    9.40
   0  -4   4  104.69    9.10
   0  -4   4  115.09    7.80
   0   4  -4  125.59    9.30
   0   4  -4  120.49    9.70
   0   4  -4  114.89    8.70
   0   4   4  122.59    6.20
   0   4  -4  119.79    7.30
   0   4  -4  108.09    8.40
   0   4  -4  111.89    8.60
   0   4  -4  114.99    7.10
   0   4   4  121.39    6.20
   1  -4   4  341.67   20.40
  -1  -4  -4  322.27   18.60
  -1  -4  -4  320.77   18.60
  -1  -4  -4  337.77   19.50
   1  -4   4  335.57   18.00
   1  -4   4  322.17   18.00
   1  -4   4  358.46   19.00
  -1  -4  -4  356.56   17.50
  -1  -4  -4  347.27   17.50
   1  -4   4  337.97   20.00
   1  -4   4  354.76   20.00
  -1   4  -4  339.27   19.40
  -1   4  -4  347.67   19.20
  -1   4  -4  354.76   19.00
  -1   4  -4  341.47   17.10
   1   4   4  348.27   17.90
  -1   4  -4  331.27   20.00
  -1   4  -4  344.87   17.00
  -1   4  -4  311.47   18.40
   1   4   4  325.57   17.50
  -2  -4  -4  998.10   48.90
  -2  -4  -4 1090.99   50.89
   2  -4   4  994.40   51.49
   2  -4   4 1022.70   49.40
  -2  -4  -4 1034.70   48.90
  -2  -4  -4 1000.30   50.89
   2  -4   4 1012.00   51.49
   2  -4   4 1078.39   49.50
  -2  -4  -4 1028.90   46.90
  -2  -4  -4 1036.90   46.90
  -2  -4  -4 1052.79   50.69
   2  -4   4  945.21   51.29
  -2   4  -4 1078.99   50.39
  -2   4  -4  913.41   50.49
  -2   4  -4 1065.39   48.70
   2   4   4 1006.10   46.60
   2   4   4 1053.69   49.20
  -2   4  -4 1023.00   47.40
   2   4   4 1013.60   49.50
   2   4   4  985.30   46.60
  -2   4  -4 1010.20   49.80
  -2   4  -4 1012.40   49.40
  -2   4  -4  956.60   47.20
   3  -4   4  130.49    9.10
   3  -4   4  137.89   11.30
  -3  -4  -4  131.19    9.40
  -3  -4  -4  123.79   10.60
  -3  -4  -4  125.89   10.60
   3  -4   4  139.49   11.20
  -3  -4  -4  129.39    9.20
   3  -4   4  141.49    9.50
   3  -4   4  115.89   10.80
  -3   4  -4  141.29    8.70
   3   4   4  130.89   10.50
  -3   4  -4  145.29    9.00
  -3   4  -4  133.79    8.40
   3   4   4  139.79    8.50
   3   4   4  128.59    8.50
  -3   4  -4  164.28   11.50
  -3   4  -4  141.39   10.10
  -4  -4  -4  397.06   25.50
  -4  -4  -4  441.26   23.80
   4  -4   4  391.76   25.30
   4  -4   4  437.56   23.70
  -4  -4  -4  467.45   26.10
   4  -4   4  492.85   27.20
   4  -4   4  403.56   25.50
  -4   4  -4  465.45   22.00
  -4   4  -4  438.86   24.30
  -4   4  -4  430.56   25.60
  -4   4  -4  426.96   22.30
   4   4   4  437.16   25.80
   4   4   4  429.76   22.70
  -4   4  -4  428.66   22.60
   4   4   4  452.25   23.20
   5  -4   4  410.76   24.90
  -5  -4  -4  392.76   25.70
   5  -4   4  420.46   28.60
  -5  -4  -4  416.46   23.40
   5  -4   4  398.06   22.80
   5  -4   4  382.16   25.40
  -5   4  -4  381.56   21.90
   5   4   4  421.36   22.90
  -5   4  -4  444.66   24.30
   5   4   4  437.56   22.60
   6  -4   4  201.68   14.00
  -6  -4  -4  192.68   14.20
   6  -4   4  184.08   15.40
   6  -4   4  174.68   16.00
  -6  -4  -4  205.78   16.70
   6   4   4  178.98   12.70
  -6   4  -4  200.58   13.90
  -6   4  -4  207.18   12.60
  -7  -4  -4   58.59   10.20
   7  -4   4   57.79    9.10
   7  -4   4   64.99   10.40
   7  -4   4   67.29    8.60
  -7  -4  -4   61.19    7.90
  -7   4  -4   41.10    6.20
  -7   4  -4   63.39    6.70
   7   4   4   44.60    6.50
  -7  -5   4   55.79    9.60
   7  -5  -4   29.10    5.60
   7  -5  -4   43.70    6.00
  -7  -5   4   45.20    6.70
   7   5  -4   41.20    6.50
   7   5  -4   47.90    6.30
  -6  -5   4  241.28   16.30
   6  -5  -4  223.48   16.10
  -6  -5   4  237.18   18.70
   6  -5  -4  242.08   14.50
  -6   5   4  220.08   12.80
   6   5  -4  201.18   14.60
  -5  -5   4  262.27   16.70
   5  -5  -4  251.97   14.80
   5  -5  -4  250.97   16.00
   5  -5  -4  231.98   15.00
   5  -5  -4  284.87   16.90
  -5  -5   4  257.57   19.30
   5  -5  -4  287.87   16.20
   5   5  -4  247.28   15.10
   5   5  -4  221.58   14.20
  -5   5   4  239.18   13.80
   5   5  -4  230.78   16.20
  -4  -5   4  426.06   23.70
  -4  -5   4  458.35   26.60
  -4  -5   4  447.66   26.00
   4  -5  -4  434.26   23.00
   4  -5  -4  430.06   23.20
   4  -5  -4  437.76   23.10
   4  -5  -4  413.26   21.50
   4  -5  -4  418.16   22.10
   4  -5  -4  398.26   21.50
  -4  -5   4  407.86   23.80
   4   5  -4  403.06   22.10
   4   5  -4  401.56   24.40
   4   5  -4  447.76   23.60
  -4   5   4  404.56   21.90
   4   5  -4  431.16   22.40
   4   5  -4  437.16   25.00
  -3  -5   4  244.98   15.10
  -3  -5   4  231.88   16.70
   3  -5  -4  235.38   13.80
   3  -5  -4  235.58   13.90
   3  -5  -4  247.88   12.80
  -3  -5   4  269.57   17.30
   3  -5  -4  251.67   15.20
   3  -5  -4  252.27   13.70
  -3  -5   4  257.67   16.00
   3  -5  -4  251.97   13.00
   3   5  -4  223.28   14.50
   3   5  -4  238.88   15.70
   3   5  -4  234.38   15.50
   3   5  -4  230.68   13.30
   3   5  -4  247.88   13.50
   2  -5  -4  198.78   12.80
   2  -5  -4  181.28   11.30
   2  -5  -4  187.78    9.80
  -2  -5   4  193.38   12.10
   2  -5  -4  193.38    9.90
   2  -5  -4  185.38   10.60
   2  -5  -4  188.98   10.30
  -2  -5   4  201.48   11.90
  -2  -5   4  197.68   14.00
  -2  -5   4  222.28   13.90
  -2  -5   4  174.88   13.10
   2   5  -4  196.38   10.80
   2   5  -4  201.78   13.50
   2   5  -4  188.08   10.70
   2   5  -4  189.08   12.80
   2   5  -4  179.68   12.60
   1  -5  -4  247.28   14.20
  -1  -5   4  246.18   14.10
   1  -5  -4  244.78   12.20
   1  -5  -4  240.88   12.80
  -1  -5   4  247.88   14.10
  -1  -5   4  236.58   15.70
  -1  -5   4  254.37   16.10
   1  -5  -4  251.27   12.10
  -1  -5   4  215.58   15.30
   1  -5  -4  263.77   12.80
   1   5  -4  251.47   15.80
   1   5  -4  235.88   14.70
   1   5  -4  254.67   12.70
   1   5  -4  241.58   15.70
   0  -5   4   57.19    7.20
   0  -5  -4   47.40    3.50
   0  -5  -4   55.49    3.70
   0  -5   4   47.50    5.10
   0  -5  -4   42.30    4.20
   0  -5  -4   49.90    4.30
   0  -5  -4   44.40    5.40
   0  -5   4   44.30    4.80
   0  -5   4   46.40    6.10
   0  -5   4   48.70    6.20
   0   5  -4   45.40    5.30
   0   5  -4   51.49    3.50
   0   5  -4   44.30    6.30
   0   5  -4   50.59    6.30
   0   5  -4   45.10    3.30
   0   5  -4   44.20    5.60
   1  -5   4  152.08    9.50
  -1  -5  -4  135.09    9.60
   1  -5   4  144.09    9.30
  -1  -5  -4  140.59    9.60
   1  -5   4  140.39   10.90
   1  -5   4  159.78   11.20
   1  -5   4  141.59   11.60
  -1  -5  -4  134.59    8.60
  -1  -5  -4  136.99    8.90
  -1  -5  -4  153.78    8.70
  -1   5  -4  165.18    8.10
   1   5   4  162.58    8.30
   1   5   4  158.38    8.30
  -1   5  -4  132.99   10.70
  -1   5  -4  155.08   10.50
  -1   5  -4  149.19   10.60
   2  -5   4   72.39    6.20
  -2  -5  -4   74.89    6.70
   2  -5   4   80.29    7.70
  -2  -5  -4   73.89    4.50
  -2  -5  -4   70.19    4.50
   2  -5   4   74.29    8.00
   2  -5   4   63.49    5.70
  -2  -5  -4   72.69    6.00
  -2  -5  -4   59.79    6.50
  -2  -5  -4   68.59    5.90
   2  -5   4   63.19    8.30
  -2   5  -4   69.69    4.30
   2   5   4   69.89    6.20
  -2   5  -4   80.09    6.90
  -2   5  -4   71.99    7.50
  -2   5  -4   70.49    4.20
  -2   5  -4   71.89    6.30
   3  -5   4  195.48   12.40
  -3  -5  -4  192.98   13.60
   3  -5   4  213.28   15.30
   3  -5   4  230.48   15.20
  -3  -5  -4  194.48   12.50
   3  -5   4  177.88   13.80
  -3  -5  -4  180.78   13.90
  -3   5  -4  180.58    9.50
  -3   5  -4  193.38   12.70
  -3   5  -4  185.18   11.40
  -3   5  -4  178.68    9.40
   3   5   4  167.38    9.30
  -3   5  -4  184.08   12.40
   3   5   4  195.58   13.00
   4  -5   4  311.27   18.00
  -4  -5  -4  292.47   18.00
   4  -5   4  344.07   21.00
   4  -5   4  311.47   20.20
   4  -5   4  301.77   20.40
  -4  -5  -4  289.97   19.90
  -4  -5  -4  305.47   20.30
  -4   5  -4  320.37   18.90
   4   5   4  299.47   16.40
  -4   5  -4  308.77   19.80
  -4   5  -4  321.27   16.90
   4   5   4  325.87   26.70
   4   5   4  310.07   16.50
  -5  -5  -4  377.16   22.60
   5  -5   4  397.86   22.40
   5  -5   4  456.35   26.10
   5  -5   4  374.76   24.70
  -5  -5  -4  361.96   24.90
   5   5   4  384.86   21.40
  -5   5  -4  424.06   23.70
  -6  -5  -4  152.28   12.00
   6  -5   4  160.78   12.00
   6  -5   4  146.89   14.10
   6  -5   4  168.18   15.20
  -6  -5  -4  133.49   13.60
   6   5   4  156.78   11.00
  -6   5  -4  156.28   12.10
  -6  -6   4   45.50    6.90
  -6  -6   4   46.20    8.70
   6  -6  -4   41.60    6.00
  -6   6   4   50.29    6.00
   6   6  -4   60.29    8.30
   6   6  -4   61.69    7.10
   5  -6  -4   34.50    5.10
  -5  -6   4   47.30    8.20
   5  -6  -4   44.10    4.80
   5  -6  -4   41.10    5.30
  -5  -6   4   37.80    6.20
   5   6  -4   52.89    5.90
   5   6  -4   53.09    7.60
  -5   6   4   53.39    5.90
   4  -6  -4   34.90    3.90
  -4  -6   4   37.00    6.90
  -4  -6   4   44.00    6.10
   4  -6  -4   46.30    4.60
   4  -6  -4   44.10    5.00
  -4  -6   4   38.80    5.90
   4   6  -4   44.90    4.80
   4   6  -4   49.00    7.00
   4   6  -4   28.10    5.90
   3  -6  -4  735.13   36.70
   3  -6  -4  807.02   36.30
  -3  -6   4  823.42   41.80
  -3  -6   4  768.12   41.10
  -3  -6   4  783.22   40.00
  -3  -6   4  773.92   39.00
   3  -6  -4  752.72   36.10
   3  -6  -4  736.63   36.40
   3   6  -4  778.22   38.60
   3   6  -4  712.43   35.00
   3   6  -4  711.13   38.80
   3   6  -4  717.83   35.00
   2  -6  -4    6.60    1.20
   2  -6  -4    6.30    1.00
  -2  -6   4    5.80    3.10
   2  -6  -4    7.70    1.30
  -2  -6   4   11.50    3.10
  -2  -6   4    8.30    3.50
   2  -6  -4    5.10    1.10
  -2  -6   4    3.20    2.70
   2   6  -4    4.80    1.40
   2   6  -4   -4.10    2.50
   2   6  -4    4.40    2.50
   2   6  -4    3.60    1.20
  -1  -6   4   53.09    5.70
  -1  -6   4   51.49    6.70
  -1  -6   4   40.70    6.60
   1  -6  -4   45.10    3.00
   1  -6  -4   46.30    2.90
  -1  -6   4   46.30    6.60
  -1  -6   4   46.50    5.40
   1  -6  -4   50.49    3.10
   1  -6  -4   43.40    3.10
   1   6  -4   42.30    5.20
   1   6  -4   41.80    6.40
   0  -6  -4  451.85   22.20
   0  -6   4  443.06   23.20
   0  -6   4  471.45   25.60
   0  -6   4  464.35   23.40
   0  -6  -4  419.26   21.90
   0  -6   4  415.06   25.70
   0  -6  -4  444.86   24.10
   0  -6   4  432.86   25.00
   0  -6  -4  452.55   21.50
   0  -6  -4  456.35   21.60
   0   6  -4  442.86   23.20
   0   6  -4  429.56   24.20
   0   6  -4  455.15   25.10
  -1  -6  -4  179.58   10.10
   1  -6   4  151.58   10.60
   1  -6   4  168.48   10.70
  -1  -6  -4  165.78    9.90
  -1  -6  -4  182.88   10.90
   1  -6   4  171.78   12.60
  -1  -6  -4  169.08   10.70
   1  -6   4  175.48   12.60
  -1  -6  -4  172.78   11.20
   1  -6   4  194.08   14.30
  -1   6  -4  154.98   11.30
  -1   6  -4  169.68   10.30
  -1   6  -4  145.59   11.00
  -2  -6  -4  191.98   10.60
  -2  -6  -4  195.78   13.30
   2  -6   4  220.58   14.60
   2  -6   4  185.78   12.20
  -2  -6  -4  195.58   11.80
  -2  -6  -4  188.88   12.90
   2  -6   4  202.38   12.30
   2  -6   4  204.98   14.10
   2  -6   4  206.48   14.30
   2  -6   4  199.48   14.90
  -2  -6  -4  189.08   11.70
  -2   6  -4  169.58   12.50
  -2   6  -4  218.38   12.30
  -2   6  -4  185.38   13.00
  -3  -6  -4  759.92   37.30
   3  -6   4  776.22   39.80
   3  -6   4  767.62   40.80
   3  -6   4  736.93   37.30
  -3  -6  -4  727.93   39.30
   3  -6   4  764.62   39.80
  -3  -6  -4  669.23   38.30
  -3   6  -4  726.23   38.00
   4  -6   4   21.30    3.80
   4  -6   4   17.50    5.00
   4  -6   4   15.70    4.10
  -4  -6  -4   15.60    3.90
  -4  -6  -4   16.70    4.70
  -4   6  -4   20.90    3.60
  -4   6  -4   15.00    4.10
  -5  -6  -4    4.70    3.40
   5  -6   4    4.50    2.20
   5  -6   4    4.40    4.50
  -5  -6  -4    6.20    3.40
   5  -6   4    1.00    2.90
  -5   6  -4    6.50    3.50
   6  -6   4   58.19    7.30
  -6  -6  -4   59.59    9.70
   6  -6   4   45.90    8.30
  -6  -6  -4   53.89    7.80
   6  -6   4   59.19   10.30
  -6   6  -4   40.90    7.00
   5  -7  -4  414.06   26.40
  -5  -7   4  397.36   26.60
  -5  -7   4  417.86   24.20
   5   7  -4  371.66   23.60
   4  -7  -4    4.60    1.60
   4  -7  -4    3.40    3.00
  -4  -7   4    1.80    2.60
   4  -7  -4    4.90    1.70
  -4  -7   4    4.50    3.10
  -4  -7   4    5.00    3.20
   4   7  -4    2.00    2.60
  -3  -7   4    4.00    3.00
  -3  -7   4   -1.50    2.40
   3  -7  -4   -1.00    1.90
  -3  -7   4   -1.00    2.50
   3   7  -4    1.40    3.30
   2  -7  -4  364.56   23.70
  -2  -7   4  401.66   23.80
  -2  -7   4  424.46   22.10
  -2  -7   4  412.76   24.00
   2   7  -4  405.66   24.60
   1  -7  -4   53.39    6.90
  -1  -7   4   54.19    5.80
  -1  -7   4   51.49    6.90
  -1  -7   4   59.69    7.60
  -1  -7   4   53.09    7.40
   1   7  -4   52.89    5.40
   1   7  -4   56.99    7.80
   0  -7  -4  128.09    7.50
   0  -7  -4  104.49    6.40
   0  -7   4  116.39    8.30
   0  -7  -4  125.49    9.50
   0  -7  -4  112.39    6.60
   0  -7   4  102.09    9.40
   0  -7   4  119.89   10.60
   0  -7   4  138.59   10.70
   0   7  -4  113.89   10.00
  -1  -7  -4   52.59    4.60
   1  -7   4   36.00    6.40
  -1  -7  -4   39.50    4.10
   1  -7   4   52.69    5.60
   1  -7   4   49.30    6.60
  -1  -7  -4   40.70    4.80
   1  -7   4   39.90    5.80
  -1  -7  -4   43.20    5.10
  -1   7  -4   50.69    6.70
  -1   7  -4   61.49    7.30
   2  -7   4  273.07   17.60
   2  -7   4  262.87   15.60
  -2  -7  -4  263.17   16.60
   2  -7   4  288.57   17.70
  -2  -7  -4  269.67   15.30
   2  -7   4  264.87   18.80
  -2  -7  -4  268.97   16.10
  -2   7  -4  243.38   16.00
  -2   7  -4  240.78   15.60
   3  -7   4   11.70    5.30
  -3  -7  -4   30.10    4.60
   3  -7   4   28.40    4.50
   3  -7   4   27.50    5.30
  -3  -7  -4   28.50    5.40
  -3   7  -4   27.10    4.70
  -3   7  -4   26.70    5.10
  -4  -7  -4   28.40    5.80
  -4  -7  -4   27.40    4.90
   4  -7   4   22.30    4.30
   4  -7   4   27.70    6.10
   4  -7   4   23.10    5.30
  -4   7  -4   34.90    6.00
  -5  -7  -4  122.29   10.60
  -5   7  -4  101.39   10.50
  -4  -8   4  130.79   13.90
   4  -8  -4  167.98   14.40
  -4  -8   4  158.98   12.00
  -3  -8   4  224.88   14.80
   3  -8  -4  202.08   16.60
  -3  -8   4  241.88   16.10
  -3  -8   4  227.48   16.70
   3   8  -4  214.78   16.10
  -2  -8   4  133.49   11.80
  -2  -8   4  134.09   10.20
  -2  -8   4  135.39   11.60
   2  -8  -4  148.09   12.40
   2   8  -4  131.49   11.70
  -1  -8   4  132.29    9.60
  -1  -8   4  126.09   11.90
  -1  -8   4  137.69   11.20
   1  -8  -4  138.59   11.40
   1   8  -4  120.19   10.90
   0  -8   4  779.62   40.40
   0  -8   4  723.33   42.10
   0  -8   4  849.91   41.60
   0   8  -4  739.03   39.90
  -1  -8  -4   88.89    6.20
   1  -8   4   99.19   11.50
   1  -8   4   81.69    8.10
  -1  -8  -4   84.89    6.40
  -1   8  -4   62.09    8.00
  -1   8  -4   84.09    9.10
   2  -8   4  232.58   15.40
  -2  -8  -4  215.98   14.00
   2  -8   4  222.48   17.50
  -2   8  -4  233.18   16.20
   3  -8   4   78.19    8.10
   3  -8   4   76.89   10.90
  -3  -8  -4   86.89    8.50
  -3   8  -4   75.99    8.40
  -3   8  -4   95.79    9.70
   8   0  -5  226.68   15.50
  -8   0   5  226.98   15.70
   8   0  -5  218.18   18.00
  -7   0   5   95.99   11.70
   7   0  -5   99.19    8.90
  -7   0   5  107.29    9.90
   7   0  -5   94.09    7.80
   7   0  -5  105.09   11.00
  -6   0   5  120.79    9.80
   6   0  -5  117.29   11.80
   6   0  -5  130.59   10.20
   6   0  -5  136.89   12.20
  -6   0   5  123.79   11.80
   5   0  -5  248.88   15.60
   5   0  -5  245.48   17.50
  -5   0   5  266.57   17.70
  -5   0   5  279.87   18.10
  -5   0   5  255.77   15.30
  -5   0   5  256.37   15.50
   5   0  -5  254.37   17.90
   4   0  -5   54.09    5.70
   4   0  -5   40.60    6.50
   4   0  -5   43.80    6.30
  -4   0   5   45.80    5.30
  -4   0   5   44.90    6.30
  -4   0   5   45.90    6.50
  -4   0   5   43.70    5.00
   4   0  -5   45.80    5.40
   4   0  -5   52.39    6.90
  -3   0   5  550.64   29.10
   3   0  -5  496.05   28.70
   3   0  -5  531.65   29.50
   3   0  -5  536.15   28.70
   3   0  -5  649.24   27.90
   3   0  -5  544.75   27.50
  -3   0   5  547.35   27.30
  -3   0   5  515.85   27.30
  -3   0   5  514.15   28.80
  -2   0   5   31.70    3.90
   2   0  -5   27.60    3.80
   2   0  -5   33.60    5.10
   2   0  -5   39.50    5.20
   2   0  -5   33.10    4.80
  -2   0   5   30.80    5.10
   2   0  -5   31.60    3.90
  -2   0   5   38.30    5.20
  -2   0   5   32.10    3.80
   1   0  -5 5831.62  272.57
   1   0  -5 5900.41  283.77
  -1   0   5 5965.60  275.37
   1   0  -5 6577.44  274.37
  -1   0   5 5663.43  273.17
   1   0  -5 6265.07  275.87
   1   0  -5 6263.77  273.97
  -1   0   5 5078.49  271.27
  -1   0   5 6231.48  273.77
  -1   0   5 6356.36  279.17
   1   0  -5 6015.40  274.87
   0   0   5   28.60    3.70
   0   0  -5   28.70    4.70
   0   0   5   35.30    4.90
   0   0   5   31.40    5.00
   0   0  -5   34.50    4.10
   0   0   5   32.60    4.10
   0   0  -5   29.90    5.00
   0   0   5   24.70    3.70
   0   0  -5   30.70    4.00
   0   0  -5   30.50    3.90
   1   0   5  491.65   26.00
  -1   0  -5  499.95   27.90
   1   0   5  523.75   28.30
   1   0   5  503.55   26.10
   1   0   5  516.55   27.90
  -1   0  -5  576.34   26.40
  -1   0  -5  497.65   27.70
  -1   0  -5  501.55   25.90
   1   0   5  502.05   25.80
  -1   0  -5  538.15   26.30
   2   0   5 1367.46   64.09
   2   0   5 1395.56   63.99
  -2   0  -5 1421.16   64.29
   2   0   5 1319.77   63.89
   2   0   5 1409.26   66.69
  -2   0  -5 1418.26   66.69
   2   0   5 1298.97   66.29
  -2   0  -5 1286.97   63.89
  -2   0  -5 1334.27   63.79
  -2   0  -5 1285.77   66.19
   3   0   5   76.79    8.30
  -3   0  -5   86.29    6.70
  -3   0  -5   83.49    7.80
   3   0   5   76.39    6.40
   3   0   5   72.49    6.60
  -3   0  -5   88.49    8.60
  -3   0  -5   84.19    6.80
  -3   0  -5   72.29    8.90
   3   0   5   82.39    6.80
   3   0   5   81.89    8.80
   4   0   5  243.28   17.40
   4   0   5  204.98   14.70
  -4   0  -5  275.47   18.70
   4   0   5  236.78   14.30
  -4   0  -5  268.87   15.80
  -4   0  -5  257.67   17.40
   4   0   5  242.78   17.90
   5   0   5  628.24   38.20
   5   0   5  631.84   37.90
  -5   0  -5  682.73   32.80
  -5   0  -5  709.03   38.10
  -5   0  -5  747.43   39.60
   5   0   5  650.03   34.60
   5   0   5  686.53   35.70
  -5   0  -5  713.93   36.00
   6   0   5   14.90    4.00
   6   0   5   20.70    5.70
  -6   0  -5   13.30    4.20
   6   0   5   13.40    3.50
  -6   0  -5   21.60    5.80
   6   0   5   25.40    6.70
   7   0   5   30.20    4.90
   7   0   5   28.20    7.60
   7   0   5   22.00    5.40
  -7   0  -5   27.50    5.90
  -8   0  -5  422.96   25.80
   8  -1  -5   66.89   10.40
  -8  -1   5   41.60    6.80
   8  -1  -5   55.49    7.50
   8   1  -5   40.70    8.10
  -8   1   5   51.49    6.50
   8   1  -5   44.60    5.60
   8   1  -5   50.19    6.80
  -7  -1   5   11.70    3.50
   7  -1  -5   15.20    4.20
  -7  -1   5   17.10    5.80
   7  -1  -5   18.70    5.80
  -7   1   5   15.10    2.50
   7   1  -5   19.40    3.50
  -7   1   5   20.50    4.10
   7   1  -5   14.80    4.90
   7   1  -5   17.10    4.10
   6  -1  -5  457.55   27.10
  -6  -1   5  455.65   27.10
   6  -1  -5  413.06   26.10
  -6  -1   5  386.06   25.80
   6  -1  -5  437.76   24.10
  -6  -1   5  441.56   24.30
  -6   1   5  453.05   21.70
   6   1  -5  434.96   27.30
  -6   1   5  436.16   26.80
   6   1  -5  436.06   23.90
  -6   1   5  439.76   24.90
  -6   1   5  421.76   23.70
   6   1  -5  466.25   27.90
   6   1  -5  451.65   24.80
  -5  -1   5  232.58   17.30
  -5  -1   5  276.87   18.10
   5  -1  -5  227.88   17.00
  -5  -1   5  268.27   15.60
   5  -1  -5  248.38   15.20
   5  -1  -5  240.18   16.80
  -5   1   5  224.78   16.10
   5   1  -5  272.57   17.80
  -5   1   5  254.57   14.50
   5   1  -5  219.48   14.40
  -5   1   5  245.78   14.10
   5   1  -5  245.98   17.00
   5   1  -5  236.78   15.60
  -5   1   5  218.88   11.70
   4  -1  -5   78.29    6.40
  -4  -1   5   68.99    7.20
  -4  -1   5   79.29    8.50
  -4  -1   5   98.19    7.40
  -4  -1   5   81.89    5.00
   4  -1  -5   74.79    6.70
   4  -1  -5   85.09    8.10
   4  -1  -5   79.29    7.80
  -4  -1   5   73.89    9.10
   4   1  -5   72.19    7.90
  -4   1   5   79.69    7.50
   4   1  -5   76.29    7.30
   4   1  -5   78.29    8.50
   4   1  -5   69.69    7.00
  -4   1   5   87.39    7.90
   4   1  -5   77.89    8.30
  -4   1   5   76.49    6.10
  -4   1   5   78.49    4.00
  -4   1   5   85.69    6.50
   3  -1  -5 1142.09   55.49
  -3  -1   5 1178.78   56.39
  -3  -1   5 1083.19   51.39
   3  -1  -5 1159.58   53.29
  -3  -1   5 1155.88   53.59
   3  -1  -5 1109.89   53.19
  -3  -1   5 1102.89   53.69
   3  -1  -5 1039.30   54.69
  -3  -1   5 1136.19   55.89
   3   1  -5 1097.89   53.99
   3   1  -5 1098.09   55.89
  -3   1   5 1132.69   53.39
  -3   1   5 1223.38   55.59
   3   1  -5 1285.37   57.19
  -3   1   5 1128.49   53.39
   3   1  -5 1112.69   53.99
  -3   1   5 1027.10   55.09
   3   1  -5 1105.19   55.19
  -2  -1   5  685.53   36.00
   2  -1  -5  779.82   36.40
  -2  -1   5  680.13   36.60
   2  -1  -5  700.33   36.00
   2  -1  -5  738.43   34.70
  -2  -1   5  735.23   35.20
   2  -1  -5  747.43   36.80
   2  -1  -5  680.53   34.50
  -2  -1   5  685.63   34.90
  -2  -1   5  731.93   33.20
  -2  -1   5  698.33   36.90
   2   1  -5  725.63   35.60
   2   1  -5  684.13   34.10
   2   1  -5  706.73   36.40
  -2   1   5  649.74   35.40
  -2   1   5  723.53   33.80
   2   1  -5  689.23   34.20
  -2   1   5  723.43   33.90
   1  -1  -5  519.65   28.30
   1  -1  -5  542.75   26.90
  -1  -1   5  574.84   27.40
   1  -1  -5  532.25   28.70
  -1  -1   5  517.75   28.80
  -1  -1   5  530.15   27.20
   1  -1  -5  553.54   28.00
  -1  -1   5  575.94   29.40
   1  -1  -5  528.75   26.80
  -1  -1   5  562.74   28.40
   1  -1  -5  573.04   29.30
  -1   1   5  461.05   27.60
  -1   1   5  538.45   26.50
   1   1  -5  626.74   28.50
   1   1  -5  525.55   29.00
   1   1  -5  560.14   29.60
   1   1  -5  547.65   27.00
  -1   1   5  526.15   28.10
   1   1  -5  564.14   28.90
  -1   1   5  527.05   26.40
   1   1  -5  515.85   25.70
   1   1  -5  606.54   27.40
   0  -1   5  272.37   15.60
   0  -1   5  266.97   16.40
   0  -1  -5  273.67   15.00
   0  -1  -5  272.67   16.10
   0  -1  -5  267.87   14.50
   0  -1   5  244.58   14.50
   0  -1   5  254.47   16.20
   0  -1   5  289.97   15.10
   0  -1  -5  227.58   15.50
   0  -1  -5  304.77   14.90
   0   1  -5  252.97   13.70
   0   1  -5  256.57   14.40
   0   1   5  261.57   13.90
   0   1   5  262.57   15.70
   0   1  -5  237.18   15.80
   0   1   5  251.67   15.40
   0   1  -5  258.67   15.40
   0   1  -5  285.77   14.60
   0   1   5  284.27   14.30
   0   1  -5  268.17   16.40
  -1  -1  -5  230.98   13.70
   1  -1   5  222.78   15.20
   1  -1   5  257.37   14.00
   1  -1   5  242.88   14.00
  -1  -1  -5  272.67   15.80
   1  -1   5  237.98   14.50
  -1  -1  -5  253.47   13.70
   1  -1   5  211.88   15.20
  -1  -1  -5  255.67   13.70
  -1  -1  -5  257.77   15.50
  -1   1  -5  255.87   14.50
  -1   1  -5  273.07   15.30
  -1   1  -5  254.07   14.50
  -1   1  -5  253.07   16.40
   1   1   5  267.37   14.40
  -1   1  -5  244.38   16.30
   1   1   5  255.57   14.10
   1   1   5  298.77   14.60
   1   1   5  237.68   16.00
   1   1   5  249.48   15.80
   2  -1   5  490.55   24.70
   2  -1   5  492.25   25.20
   2  -1   5  458.35   24.50
  -2  -1  -5  449.46   26.40
  -2  -1  -5  489.75   26.80
   2  -1   5  484.75   27.00
  -2  -1  -5  453.05   24.30
  -2  -1  -5  486.65   23.70
   2  -1   5  453.15   26.50
  -2  -1  -5  455.85   24.40
   2   1   5  518.95   27.00
  -2   1  -5  479.25   27.20
   2   1   5  512.65   24.30
   2   1   5  460.65   26.70
  -2   1  -5  467.85   24.80
   2   1   5  465.25   24.50
  -2   1  -5  458.25   24.90
  -2   1  -5  536.25   25.70
  -2   1  -5  426.76   26.60
   2   1   5  488.75   24.80
   3  -1   5  263.97   18.30
  -3  -1  -5  269.87   18.40
   3  -1   5  276.97   16.60
   3  -1   5  273.67   19.10
   3  -1   5  294.57   16.90
  -3  -1  -5  318.27   19.70
  -3  -1  -5  299.67   17.00
   3  -1   5  284.17   17.00
  -3  -1  -5  330.67   15.80
  -3  -1  -5  279.57   16.50
   3   1   5  321.07   17.80
  -3   1  -5  296.17   17.50
   3   1   5  284.07   19.40
  -3   1  -5  304.17   17.90
   3   1   5  346.47   20.40
   3   1   5  322.27   17.70
   3   1   5  303.37   16.50
  -3   1  -5  283.87   19.70
  -3   1  -5  366.26   18.60
  -3   1  -5  319.57   20.00
  -4  -1  -5  485.55   29.70
   4  -1   5  479.05   29.20
   4  -1   5  501.15   26.90
   4  -1   5  559.44   30.70
  -4  -1  -5  500.35   29.20
  -4  -1  -5  474.35   26.80
  -4  -1  -5  516.15   25.70
   4  -1   5  499.65   26.90
   4   1   5  506.65   27.30
  -4   1  -5  499.65   27.20
   4   1   5  522.75   30.00
   4   1   5  462.35   26.90
  -4   1  -5  513.85   27.40
   4   1   5  516.75   25.80
  -4   1  -5  614.54   31.10
  -4   1  -5  466.15   29.70
   4   1   5  525.75   30.60
  -5  -1  -5   26.00    6.30
   5  -1   5   16.00    5.10
  -5  -1  -5   18.50    4.50
   5  -1   5   19.60    4.60
  -5  -1  -5   18.30    5.90
   5  -1   5   22.00    5.60
  -5  -1  -5   21.80    3.40
   5  -1   5   26.20    4.70
   5   1   5   28.80    5.90
   5   1   5   22.10    3.40
  -5   1  -5   16.30    3.90
  -5   1  -5   14.70    5.30
   5   1   5   17.70    4.30
  -5   1  -5   18.70    2.30
  -5   1  -5   25.20    5.90
   6  -1   5   65.69    9.80
   6  -1   5   48.90    6.70
   6  -1   5   50.49    7.10
   6  -1   5   49.50    9.00
  -6  -1  -5   46.10    7.80
  -6  -1  -5   50.39    7.10
  -6  -1  -5   44.80    8.90
   6   1   5   52.59    8.70
  -6   1  -5   52.09    9.00
   6   1   5   54.99    5.30
  -6   1  -5   50.59    7.00
   6   1   5   46.70    6.90
  -7  -1  -5  189.48   17.30
  -7  -1  -5  141.69   12.50
   7  -1   5  159.68   13.20
   7  -1   5  172.78   15.90
   7  -1   5  169.08   12.70
   7   1   5  162.78   13.10
  -7   1  -5  163.78   12.90
   8  -1   5   25.20    6.80
  -8   1  -5   51.49    7.40
   8  -2  -5  128.09   13.20
  -8  -2   5  112.69   11.40
   8  -2  -5  125.29   10.80
  -8   2   5  104.59    8.80
   8   2  -5  115.59   10.20
   8   2  -5  118.99    9.50
   7  -2  -5  208.78   16.50
  -7  -2   5  214.48   14.80
   7  -2  -5  189.48   13.40
  -7  -2   5  186.88   16.90
  -7   2   5  202.48   12.90
  -7   2   5  190.28   11.00
   7   2  -5  188.68   13.90
   7   2  -5  197.28   16.80
   7   2  -5  192.98   13.20
   6  -2  -5  211.38   13.50
   6  -2  -5  217.48   15.70
  -6  -2   5  229.78   16.90
  -6  -2   5  189.38   15.50
   6  -2  -5  177.58   14.60
  -6  -2   5  191.48   13.80
   6   2  -5  221.88   14.20
  -6   2   5  188.38   15.10
  -6   2   5  228.88   13.40
  -6   2   5  228.88   13.20
   6   2  -5  207.08   17.00
   6   2  -5  203.68   14.20
   6   2  -5  216.08   17.00
  -6   2   5  222.58   11.50
   5  -2  -5  131.49    9.80
   5  -2  -5  144.99   11.90
   5  -2  -5  128.09   10.80
  -5  -2   5  142.49   10.50
  -5  -2   5  145.39   12.70
  -5  -2   5  125.39   11.80
  -5   2   5  125.29    7.00
   5   2  -5  105.99   11.20
   5   2  -5  129.29   11.70
  -5   2   5  127.79    8.60
   5   2  -5  120.89    9.40
   5   2  -5  138.29   10.10
  -5   2   5  136.99   10.60
   5   2  -5  130.29   10.20
  -5   2   5  119.49    8.20
  -4  -2   5  513.25   25.90
  -4  -2   5  579.14   31.00
  -4  -2   5  572.24   30.50
   4  -2  -5  508.85   26.90
   4  -2  -5  505.45   27.00
  -4  -2   5  561.14   28.20
   4  -2  -5  526.85   28.80
   4  -2  -5  482.45   28.70
  -4  -2   5  555.14   27.90
   4   2  -5  522.95   30.80
  -4   2   5  550.84   27.20
   4   2  -5  560.44   29.40
   4   2  -5  525.55   28.20
   4   2  -5  557.34   28.50
  -4   2   5  548.55   25.50
  -4   2   5  599.84   29.50
  -4   2   5  535.45   27.00
  -4   2   5  502.45   28.90
   4   2  -5  573.74   31.00
  -3  -2   5   68.19    7.90
   3  -2  -5   61.79    5.30
  -3  -2   5   77.79    7.30
  -3  -2   5   65.19    7.90
   3  -2  -5   62.19    6.00
  -3  -2   5   52.99    5.80
   3  -2  -5   49.50    4.70
  -3  -2   5   63.59    4.60
   3  -2  -5   56.29    6.70
  -3  -2   5   53.69    6.00
   3   2  -5   70.69    8.00
   3   2  -5   62.09    6.20
  -3   2   5   69.39    6.00
   3   2  -5   51.89    5.70
   3   2  -5   68.29    6.50
  -3   2   5   64.79    6.20
  -3   2   5   70.69    5.00
   3   2  -5   54.99    7.20
  -3   2   5   58.89    4.80
  -2  -2   5  313.17   15.80
   2  -2  -5  340.47   18.30
  -2  -2   5  289.67   16.80
   2  -2  -5  303.57   14.80
  -2  -2   5  335.57   19.40
   2  -2  -5  312.07   17.60
   2  -2  -5  320.37   16.30
   2  -2  -5  291.37   16.10
  -2  -2   5  334.67   18.50
  -2  -2   5  302.47   18.80
  -2  -2   5  291.57   17.00
  -2   2   5  329.37   17.70
   2   2  -5  314.17   18.70
   2   2  -5  327.07   18.40
  -2   2   5  320.97   17.60
   2   2  -5  291.97   16.80
  -2   2   5  327.67   15.90
   2   2  -5  292.97   16.80
  -2   2   5  303.17   15.70
   2   2  -5  307.07   19.20
  -1  -2   5  189.98   12.80
   1  -2  -5  194.58   11.80
  -1  -2   5  184.68   12.50
  -1  -2   5  195.68   11.40
  -1  -2   5  191.18   11.50
   1  -2  -5  185.78   12.20
  -1  -2   5  182.48   10.30
   1  -2  -5  183.08   10.70
   1  -2  -5  182.58   10.50
  -1  -2   5  193.18   13.20
  -1   2   5  199.28   12.30
   1   2  -5  191.68   11.70
   1   2  -5  186.38   11.00
   1   2  -5  211.28   13.20
  -1   2   5  210.68   10.80
  -1   2   5  203.08   12.20
   1   2  -5  199.48   11.90
   1   2  -5  214.88   13.90
  -1   2   5  210.28   10.70
   1   2  -5  195.98   13.80
   1   2  -5  208.08   13.50
   0  -2  -5   46.70    4.40
   0  -2   5   45.00    4.80
   0  -2  -5   34.90    4.80
   0  -2  -5   47.70    4.50
   0  -2   5   42.80    5.80
   0  -2   5   46.50    6.10
   0  -2  -5   45.30    5.50
   0  -2  -5   50.79    4.10
   0  -2   5   39.70    4.50
   0  -2   5   38.10    5.10
   0   2   5   41.20    3.60
   0   2  -5   49.50    5.90
   0   2  -5   43.20    6.00
   0   2   5   39.60    4.80
   0   2   5   40.90    3.70
   0   2  -5   36.90    4.30
   0   2  -5   42.00    4.10
   0   2  -5   48.00    4.70
   0   2   5   38.00    4.70
   0   2  -5   42.60    5.60
   1  -2   5  275.37   16.70
   1  -2   5  293.47   15.90
  -1  -2  -5  287.07   17.20
  -1  -2  -5  265.57   16.70
  -1  -2  -5  271.77   14.90
   1  -2   5  274.87   17.40
   1  -2   5  326.17   18.60
  -1  -2  -5  268.87   15.20
  -1  -2  -5  279.17   15.40
   1  -2   5  273.57   15.70
  -1   2  -5  319.67   17.50
   1   2   5  282.07   15.10
  -1   2  -5  335.37   18.70
  -1   2  -5  277.87   17.60
  -1   2  -5  278.77   15.90
   1   2   5  278.27   17.00
  -1   2  -5  290.97   15.90
  -1   2  -5  261.77   15.50
   1   2   5  300.67   15.30
   1   2   5  285.17   17.00
   2  -2   5  681.43   32.80
   2  -2   5  544.25   33.20
  -2  -2  -5  623.34   29.80
  -2  -2  -5  614.74   31.20
   2  -2   5  651.43   33.90
   2  -2   5  625.64   31.50
  -2  -2  -5  679.33   31.60
   2  -2   5  625.34   31.50
  -2  -2  -5  599.54   33.30
  -2  -2  -5  581.64   33.00
  -2   2  -5  645.14   34.20
  -2   2  -5  606.24   32.80
  -2   2  -5  644.94   31.60
  -2   2  -5  631.04   31.90
   2   2   5  646.24   31.30
   2   2   5  624.24   33.60
   2   2   5  654.73   31.40
   2   2   5  605.54   33.10
  -2   2  -5  642.04   34.20
  -2   2  -5  635.54   31.70
  -3  -2  -5  551.64   30.80
  -3  -2  -5  577.24   28.20
  -3  -2  -5  580.54   26.00
  -3  -2  -5  496.15   29.80
   3  -2   5  541.95   31.00
  -3  -2  -5  516.15   28.20
  -3  -2  -5  548.25   28.10
   3  -2   5  540.95   28.30
   3  -2   5  501.65   28.80
   3  -2   5  531.75   28.20
   3  -2   5  545.45   30.80
   3   2   5  510.95   29.60
   3   2   5  537.05   25.50
  -3   2  -5  528.05   27.50
  -3   2  -5  504.75   29.50
  -3   2  -5  570.24   27.90
   3   2   5  533.75   29.50
  -3   2  -5  509.55   27.10
  -3   2  -5  535.25   29.90
  -3   2  -5  529.15   28.60
   3   2   5  509.25   27.00
   3   2   5  552.54   27.50
  -4  -2  -5  306.57   17.60
  -4  -2  -5  263.77   18.80
   4  -2   5  280.67   19.40
   4  -2   5  292.37   19.70
  -4  -2  -5  273.07   19.40
  -4  -2  -5  285.17   16.40
   4  -2   5  301.17   18.00
   4  -2   5  254.67   16.60
  -4   2  -5  274.97   18.90
   4   2   5  295.87   19.70
   4   2   5  252.77   16.10
  -4   2  -5  277.37   16.20
  -4   2  -5  270.57   16.30
   4   2   5  297.67   16.70
   4   2   5  316.37   19.30
   4   2   5  269.17   14.10
  -4   2  -5  273.37   19.10
  -5  -2  -5  226.08   13.40
  -5  -2  -5  248.08   17.70
   5  -2   5  189.58   14.20
   5  -2   5  260.07   18.20
  -5  -2  -5  194.98   14.50
   5  -2   5  189.68   16.50
   5  -2   5  231.78   15.00
  -5  -2  -5  211.88   17.50
   5   2   5  220.58   14.30
  -5   2  -5  231.08   11.20
  -5   2  -5  206.38   14.20
   5   2   5  197.68   16.50
  -5   2  -5  251.87   18.00
  -6  -2  -5   57.89    7.80
   6  -2   5   49.80    7.20
   6  -2   5   46.80    9.00
   6  -2   5   48.10    6.70
  -6  -2  -5   49.60    8.90
   6   2   5   48.50    8.90
   6   2   5   46.00    6.50
  -6   2  -5   51.69    6.60
  -7  -2  -5   48.00    9.50
   7  -2   5   46.10    8.80
   7  -2   5   36.90    6.80
   7  -2   5   48.40    7.20
  -7  -2  -5   38.80    6.60
   7   2   5   51.79    7.50
  -7   2  -5   42.00    6.60
   8  -3  -5   57.99    7.30
   8  -3  -5   49.20    8.50
  -8  -3   5   71.29    9.10
   8   3  -5   46.70    6.90
   8   3  -5   53.09    7.00
  -7  -3   5   19.10    5.80
   7  -3  -5   29.00    5.40
  -7  -3   5   27.40    5.10
   7  -3  -5   27.40    6.30
   7   3  -5   28.40    5.10
   7   3  -5   22.00    4.90
  -7   3   5   14.50    3.10
   6  -3  -5   55.39    6.30
  -6  -3   5   42.20    8.10
   6  -3  -5   30.20    6.20
  -6  -3   5   50.39    8.40
  -6  -3   5   44.00    6.30
   6  -3  -5   51.39    7.60
   6   3  -5   50.89    8.20
  -6   3   5   46.70    3.90
   6   3  -5   36.40    5.90
  -6   3   5   37.60    5.00
   6   3  -5   41.40    6.10
  -5  -3   5  487.25   31.00
  -5  -3   5  583.64   27.30
  -5  -3   5  497.75   31.50
  -5  -3   5  520.75   28.70
   5  -3  -5  582.84   30.60
   5  -3  -5  545.45   27.90
   5  -3  -5  523.75   29.60
   5   3  -5  507.35   27.90
   5   3  -5  600.84   34.20
   5   3  -5  512.75   28.50
  -5   3   5  521.35   25.80
  -5   3   5  516.95   25.80
   5   3  -5  519.15   28.40
   5   3  -5  539.45   30.80
  -5   3   5  531.05   28.80
  -5   3   5  517.85   25.40
   4  -3  -5  319.07   16.00
  -4  -3   5  271.87   15.10
  -4  -3   5  287.87   18.60
   4  -3  -5  256.27   16.80
   4  -3  -5  292.07   15.60
  -4  -3   5  281.27   19.40
   4  -3  -5  251.87   16.70
  -4  -3   5  274.07   16.60
   4   3  -5  289.77   19.10
  -4   3   5  308.47   17.00
   4   3  -5  266.17   18.30
   4   3  -5  287.37   16.50
   4   3  -5  299.27   17.30
   4   3  -5  267.07   16.20
  -4   3   5  285.67   14.30
   4   3  -5  261.97   16.90
   3  -3  -5  172.58   10.90
  -3  -3   5  171.68    9.90
  -3  -3   5  144.59   12.30
  -3  -3   5  147.49   12.10
  -3  -3   5  173.38   11.00
   3  -3  -5  167.88    8.70
  -3  -3   5  143.39   11.20
   3  -3  -5  150.28    9.50
  -3  -3   5  161.28   10.90
   3  -3  -5  169.08    9.70
   3  -3  -5  154.18   11.00
   3   3  -5  188.48   12.90
   3   3  -5  146.19   10.20
   3   3  -5  177.48   10.60
   3   3  -5  162.78   11.60
  -3   3   5  171.08    8.20
  -3   3   5  149.39   10.20
  -3   3   5  162.48    8.10
   3   3  -5  159.98   12.40
   3   3  -5  167.18   11.50
  -3   3   5  142.29   10.00
  -2  -3   5  961.30   42.20
   2  -3  -5  847.02   40.40
  -2  -3   5  824.32   43.80
  -2  -3   5  855.91   43.90
   2  -3  -5  845.52   40.00
   2  -3  -5  913.71   42.60
  -2  -3   5  868.21   41.00
  -2  -3   5  911.81   42.00
   2  -3  -5  798.62   41.50
  -2  -3   5  794.42   42.90
   2  -3  -5  810.12   40.50
  -2   3   5  851.31   41.50
   2   3  -5  935.51   43.80
   2   3  -5  872.71   41.80
   2   3  -5  871.01   44.60
   2   3  -5  891.41   43.50
   2   3  -5  824.32   43.70
   2   3  -5  828.12   41.80
  -2   3   5  862.21   41.70
   1  -3  -5   11.70    2.20
   1  -3  -5    9.80    2.50
  -1  -3   5   12.80    3.50
   1  -3  -5   11.00    2.20
  -1  -3   5   11.60    2.50
  -1  -3   5   17.50    3.20
  -1  -3   5    9.90    2.40
  -1  -3   5   12.20    3.30
  -1  -3   5   13.90    3.50
   1  -3  -5   12.30    2.80
   1  -3  -5   18.00    2.50
   1   3  -5   14.30    2.80
  -1   3   5   13.30    2.40
   1   3  -5   12.70    2.80
   1   3  -5   11.60    3.40
  -1   3   5   12.60    2.50
   1   3  -5    9.60    3.10
   1   3  -5   12.40    2.70
   1   3  -5   18.30    3.70
   0  -3   5   28.00    3.70
   0  -3   5   18.20    3.90
   0  -3  -5   34.90    4.60
   0  -3   5   32.10    4.20
   0  -3   5   32.20    5.50
   0  -3  -5   27.30    4.20
   0  -3   5   28.30    5.30
   0  -3  -5   25.50    3.20
   0  -3   5   37.40    4.50
   0  -3  -5   28.20    3.20
   0   3  -5   24.90    4.20
   0   3   5   25.90    3.60
   0   3   5   30.30    3.90
   0   3  -5   21.40    4.60
   0   3   5   30.60    2.20
   0   3  -5   29.90    3.80
   0   3  -5   30.20    4.70
   0   3  -5   26.10    3.60
   0   3   5   25.90    2.10
   0   3  -5   31.90    3.90
   1  -3   5  860.61   46.90
  -1  -3  -5  875.71   45.70
   1  -3   5  919.21   47.00
   1  -3   5  955.90   46.60
  -1  -3  -5  889.51   43.70
  -1  -3  -5  954.90   46.10
   1  -3   5  908.01   44.80
  -1  -3  -5 1023.80   44.40
   1  -3   5  940.21   44.80
  -1  -3  -5  903.71   44.10
  -1   3  -5  845.32   45.20
  -1   3  -5  872.81   43.80
  -1   3  -5 1057.49   46.70
  -1   3  -5  916.41   43.40
  -1   3  -5  890.91   43.30
   1   3   5  871.81   44.70
   1   3   5  899.61   42.20
   1   3   5  935.11   44.60
  -1   3  -5  912.61   45.80
   1   3   5  867.91   42.20
   2  -3   5  361.96   19.40
  -2  -3  -5  362.46   21.10
  -2  -3  -5  361.16   20.80
  -2  -3  -5  390.26   19.50
   2  -3   5  369.56   19.50
  -2  -3  -5  341.97   17.30
  -2  -3  -5  354.46   19.10
   2  -3   5  345.57   21.60
   2  -3   5  356.96   21.50
   2  -3   5  293.67   20.20
  -2  -3  -5  342.57   19.90
   2   3   5  339.37   20.10
  -2   3  -5  328.47   18.70
   2   3   5  351.56   18.20
  -2   3  -5  355.96   18.80
   2   3   5  363.16   18.30
  -2   3  -5  347.37   19.40
   2   3   5  363.06   20.80
  -2   3  -5  372.06   21.60
  -2   3  -5  369.96   21.10
  -2   3  -5  343.07   21.00
   3  -3   5    1.30    2.10
   3  -3   5    6.30    2.60
  -3  -3  -5    4.50    3.30
   3  -3   5   -0.60    2.00
  -3  -3  -5    3.80    2.40
   3  -3   5    3.40    2.30
  -3  -3  -5    4.50    2.20
  -3  -3  -5    4.40    2.10
   3  -3   5    1.90    3.10
  -3  -3  -5    7.20    2.80
  -3   3  -5    0.80    2.10
  -3   3  -5    0.80    2.20
   3   3   5   -1.10    1.50
  -3   3  -5    3.00    2.20
   3   3   5    3.20    2.00
  -3   3  -5    7.20    3.40
  -3   3  -5    2.20    2.20
   3   3   5    0.40    1.50
  -3   3  -5    0.80    1.40
   4  -3   5   79.99    6.80
   4  -3   5   55.09    7.60
  -4  -3  -5   57.49    8.40
   4  -3   5   59.29    8.60
   4  -3   5   63.09    9.00
  -4  -3  -5   58.29    7.90
  -4  -3  -5   51.19    6.70
  -4  -3  -5   68.59    6.40
  -4   3  -5   71.39    5.10
  -4   3  -5   68.79    8.70
   4   3   5   57.19    6.30
   4   3   5   57.19    8.30
   4   3   5   76.19    7.40
  -4   3  -5   73.19    7.60
  -4   3  -5   64.59    6.70
  -5  -3  -5  374.16   22.70
  -5  -3  -5  387.76   26.00
   5  -3   5  390.66   22.60
   5  -3   5  392.76   23.80
   5  -3   5  390.26   25.70
   5  -3   5  389.86   25.50
  -5  -3  -5  411.46   25.10
   5   3   5  395.96   25.70
  -5   3  -5  380.96   21.90
  -5   3  -5  420.06   25.60
  -5   3  -5  417.86   23.20
  -5   3  -5  387.16   18.60
   5   3   5  374.86   21.90
  -6  -3  -5   59.69    7.70
   6  -3   5   47.30    7.80
  -6  -3  -5   56.29    9.30
   6  -3   5   47.30    8.70
   6  -3   5   62.09    7.80
  -6   3  -5   75.39    7.90
   6   3   5   71.19    8.00
  -6   3  -5   65.29    7.70
   7  -3   5   30.60    5.70
  -7  -3  -5   23.10    5.70
  -7  -3  -5   39.70    9.20
   7  -3   5   29.20    8.00
   7  -3   5   38.10    7.30
  -7   3  -5   34.60    5.70
  -7   3  -5   27.20    5.10
   7   3   5   23.00    4.70
  -7  -4   5  299.37   22.30
   7  -4  -5  282.77   19.70
   7  -4  -5  284.37   17.60
  -7  -4   5  274.97   18.40
   7   4  -5  273.27   17.90
   7   4  -5  292.97   18.60
   6  -4  -5   79.19    9.50
   6  -4  -5   93.09    7.70
  -6  -4   5  101.29   10.10
  -6  -4   5   96.39   11.80
   6   4  -5   96.09    9.20
   6   4  -5   85.59    9.40
  -6   4   5   87.89    6.30
   5  -4  -5   20.30    4.40
   5  -4  -5   14.20    3.80
  -5  -4   5   16.60    4.80
  -5  -4   5   14.00    4.00
  -5  -4   5   19.30    5.70
   5  -4  -5   11.00    3.00
   5   4  -5   12.10    4.60
  -5   4   5   13.10    3.10
   5   4  -5   13.40    4.20
  -5   4   5   12.20    2.20
   5   4  -5    8.90    3.00
  -4  -4   5  153.68   10.30
  -4  -4   5  157.88   13.70
   4  -4  -5  157.58    9.90
  -4  -4   5  179.88   11.80
   4  -4  -5  161.88    9.90
  -4  -4   5  154.18   13.10
  -4  -4   5  130.49   11.00
   4  -4  -5  147.89   10.90
   4  -4  -5  177.48   11.80
   4   4  -5  168.18   11.80
  -4   4   5  130.89    9.00
   4   4  -5  151.98   11.10
   4   4  -5  129.59    9.60
   4   4  -5  139.59   11.70
   4   4  -5  134.09    9.90
   3  -4  -5   59.69    4.80
   3  -4  -5   62.29    4.90
   3  -4  -5   68.89    4.90
   3  -4  -5   60.49    5.70
  -3  -4   5   66.19    6.20
  -3  -4   5   57.89    8.20
  -3  -4   5   63.19    7.40
  -3  -4   5   58.59    8.00
  -3  -4   5   56.59    6.40
   3  -4  -5   57.49    5.90
   3   4  -5   63.09    5.60
   3   4  -5   61.89    7.30
  -3   4   5   64.89    4.80
   3   4  -5   69.19    7.60
   3   4  -5   63.39    6.30
   3   4  -5   60.79    7.80
  -2  -4   5  239.18   13.60
   2  -4  -5  238.58   12.30
  -2  -4   5  222.98   15.00
  -2  -4   5  236.88   13.90
  -2  -4   5  207.98   15.10
   2  -4  -5  220.08   13.20
   2  -4  -5  246.78   12.80
   2  -4  -5  229.08   13.50
  -2  -4   5  217.88   15.50
  -2  -4   5  240.18   13.80
   2  -4  -5  227.98   12.20
  -2   4   5  232.48   11.20
   2   4  -5  214.98   14.30
   2   4  -5  232.88   14.70
   2   4  -5  207.58   12.60
  -2   4   5  210.68   11.10
   2   4  -5  204.98   14.60
   2   4  -5  227.48   12.90
  -1  -4   5  401.46   21.20
  -1  -4   5  389.76   20.90
  -1  -4   5  356.46   22.20
   1  -4  -5  412.16   21.00
  -1  -4   5  413.46   21.10
   1  -4  -5  359.86   20.30
   1  -4  -5  398.46   19.60
   1  -4  -5  413.46   20.40
   1  -4  -5  389.26   19.50
  -1  -4   5  387.46   23.00
  -1  -4   5  410.36   23.40
   1   4  -5  394.86   20.80
   1   4  -5  376.86   22.60
   1   4  -5  397.06   20.00
   1   4  -5  374.46   21.70
   1   4  -5  349.77   21.50
  -1   4   5  391.56   18.50
   1   4  -5  387.66   19.80
   1   4  -5  413.16   22.10
  -1   4   5  375.86   18.50
   0  -4   5  500.85   28.50
   0  -4  -5  492.15   25.00
   0  -4  -5  547.95   27.80
   0  -4   5  535.85   26.40
   0  -4  -5  504.35   25.10
   0  -4   5  498.85   28.40
   0  -4  -5  545.45   26.90
   0  -4  -5  473.75   26.20
   0  -4   5  516.85   26.30
   0  -4   5  517.25   28.40
   0  -4   5  511.45   26.50
   0   4  -5  478.15   26.10
   0   4   5  508.55   24.80
   0   4  -5  527.35   28.10
   0   4  -5  511.45   27.00
   0   4  -5  517.25   27.50
   0   4   5  543.65   25.00
   0   4  -5  506.75   27.90
   0   4  -5  484.35   25.30
   0   4  -5  494.85   25.20
   1  -4   5  289.47   18.20
   1  -4   5  286.77   16.20
   1  -4   5  282.17   18.30
  -1  -4  -5  286.87   17.00
   1  -4   5  272.27   16.00
  -1  -4  -5  273.87   15.30
  -1  -4  -5  314.57   15.60
   1  -4   5  274.37   18.00
  -1  -4  -5  281.97   16.90
  -1  -4  -5  289.17   15.30
  -1  -4  -5  299.17   17.60
   1  -4   5  274.07   16.20
   1  -4   5  275.77   18.10
  -1   4  -5  285.27   16.70
  -1   4  -5  291.67   18.10
   1   4   5  301.17   16.10
  -1   4  -5  294.47   18.30
   1   4   5  294.67   16.40
  -1   4  -5  287.87   15.50
  -1   4  -5  289.87   15.50
  -1   4  -5  288.47   17.50
  -1   4  -5  278.47   16.70
  -2  -4  -5  331.57   18.80
  -2  -4  -5  271.57   16.30
   2  -4   5  290.37   16.80
  -2  -4  -5  284.27   14.40
  -2  -4  -5  342.27   18.70
  -2  -4  -5  288.67   16.30
   2  -4   5  300.87   19.30
   2  -4   5  273.87   18.60
   2  -4   5  284.37   19.00
   2  -4   5  275.87   16.70
  -2   4  -5  267.87   16.60
  -2   4  -5  284.37   17.90
  -2   4  -5  280.27   15.50
  -2   4  -5  330.07   15.90
   2   4   5  279.27   17.20
   2   4   5  286.57   14.40
  -2   4  -5  291.57   16.20
   2   4   5  283.27   14.50
   3  -4   5  386.86   24.10
  -3  -4  -5  399.16   23.90
   3  -4   5  406.66   23.80
  -3  -4  -5  393.06   21.50
   3  -4   5  433.96   24.80
  -3  -4  -5  349.27   22.70
   3  -4   5  381.26   21.60
  -3   4  -5  409.46   23.80
  -3   4  -5  405.06   20.90
   3   4   5  405.56   23.70
   3   4   5  397.76   20.60
  -3   4  -5  401.06   22.60
  -3   4  -5  388.36   20.90
   3   4   5  403.56   20.50
  -3   4  -5  400.46   21.00
   4  -4   5  285.27   20.60
  -4  -4  -5  331.67   20.80
  -4  -4  -5  312.47   18.80
  -4  -4  -5  336.77   21.80
   4  -4   5  308.57   21.10
   4  -4   5  324.87   20.70
   4  -4   5  314.67   18.60
  -4   4  -5  331.87   17.60
  -4   4  -5  330.27   17.00
   4   4   5  323.87   17.90
  -4   4  -5  316.27   20.60
  -4   4  -5  304.37   17.60
  -4   4  -5  346.57   19.70
   4   4   5  322.47   20.90
   4   4   5  304.67   17.50
   5  -4   5   34.00    5.70
   5  -4   5   45.20    7.60
   5  -4   5   44.10    7.40
  -5  -4  -5   37.20    5.80
  -5  -4  -5   39.60    7.50
   5   4   5   37.70    5.30
  -5   4  -5   41.40    5.10
  -5   4  -5   33.60    5.90
  -5   4  -5   39.70    4.80
   6  -4   5  222.38   18.90
   6  -4   5  211.38   17.10
  -6  -4  -5  253.27   16.60
  -6  -4  -5  216.98   18.40
   6  -4   5  222.78   15.80
   6   4   5  217.38   14.20
  -6   4  -5  217.38   15.00
   7  -4   5   49.80    8.60
   7  -4   5   50.99    7.40
  -7  -4  -5   69.79   11.00
  -7  -4  -5   61.99    8.60
   7  -4   5   49.30    9.00
  -7   4  -5   44.40    6.60
   7   4   5   50.59    6.60
   7  -5  -5   36.30    6.60
  -7  -5   5   33.10    6.50
   7  -5  -5   30.70    5.20
  -7  -5   5   29.30    7.00
   7   5  -5   36.20    6.00
  -6  -5   5   86.69   11.60
  -6  -5   5  104.89   10.30
   6  -5  -5  100.19    8.10
   6  -5  -5   89.29    9.00
   6   5  -5   83.19    9.30
   5  -5  -5  164.88   12.40
  -5  -5   5  196.68   15.90
   5  -5  -5  161.08   12.70
   5  -5  -5  202.58   11.60
   5  -5  -5  182.18   12.50
  -5  -5   5  157.58   12.20
   5   5  -5  191.88   14.30
   5   5  -5  177.38   12.20
   4  -5  -5   70.39    6.60
  -4  -5   5   63.49    9.20
   4  -5  -5   67.39    6.90
   4  -5  -5   81.89    5.90
  -4  -5   5   86.39    9.10
   4  -5  -5   81.69    6.10
  -4  -5   5   64.29    7.60
   4  -5  -5   75.09    6.00
  -4  -5   5   72.39    8.20
   4   5  -5   63.49    6.40
   4   5  -5   69.39    8.10
   4   5  -5   60.79    7.90
   4   5  -5   72.29    6.10
   3  -5  -5  256.87   13.50
   3  -5  -5  247.78   13.40
   3  -5  -5  231.68   14.10
  -3  -5   5  260.37   16.50
  -3  -5   5  240.88   15.20
   3  -5  -5  263.87   14.20
   3  -5  -5  250.97   14.60
  -3  -5   5  259.97   17.80
  -3  -5   5  270.97   17.70
   3   5  -5  242.98   16.60
   3   5  -5  257.67   14.70
   3   5  -5  239.98   16.80
   3   5  -5  286.07   15.00
   2  -5  -5  518.15   24.70
  -2  -5   5  477.55   26.50
  -2  -5   5  480.95   28.70
   2  -5  -5  507.15   25.40
  -2  -5   5  529.05   29.40
   2  -5  -5  522.45   25.90
   2  -5  -5  536.15   26.10
  -2  -5   5  501.65   28.40
   2  -5  -5  514.45   24.70
   2   5  -5  479.15   28.20
   2   5  -5  546.35   28.50
   2   5  -5  523.05   25.90
   2   5  -5  511.85   25.90
   1  -5  -5  172.18   10.20
  -1  -5   5  164.28   12.90
  -1  -5   5  199.48   11.70
   1  -5  -5  171.08    9.50
   1  -5  -5  174.68   10.60
  -1  -5   5  155.18   12.60
  -1  -5   5  167.58   11.20
   1  -5  -5  177.08   11.00
  -1  -5   5  173.58   13.10
   1  -5  -5  174.38    9.40
   1   5  -5  157.28   11.00
   1   5  -5  163.88    9.50
   1   5  -5  150.38   11.70
   1   5  -5  150.28   11.20
   1   5  -5  168.08    9.50
   0  -5  -5  250.77   14.60
   0  -5   5  252.37   14.90
   0  -5  -5  232.18   13.30
   0  -5  -5  267.37   13.50
   0  -5   5  263.07   14.90
   0  -5   5  246.28   16.90
   0  -5   5  266.27   17.20
   0  -5  -5  264.17   14.60
   0  -5  -5  259.77   15.00
   0  -5   5  255.07   17.10
   0   5  -5  252.97   15.90
   0   5  -5  256.97   15.20
   0   5  -5  245.98   13.10
   0   5  -5  251.87   13.20
   0   5  -5  238.38   15.20
  -1  -5  -5  300.67   16.60
   1  -5   5  338.07   20.10
  -1  -5  -5  310.17   18.00
   1  -5   5  320.27   20.30
  -1  -5  -5  291.17   17.60
  -1  -5  -5  315.67   16.60
   1  -5   5  319.47   17.80
   1  -5   5  312.97   17.50
   1  -5   5  317.37   19.50
  -1   5  -5  303.87   18.30
  -1   5  -5  294.77   15.70
  -1   5  -5  306.47   15.60
  -1   5  -5  332.17   18.40
  -1   5  -5  300.57   17.90
   1   5   5  310.57   15.90
   2  -5   5  276.17   18.60
  -2  -5  -5  292.07   17.40
  -2  -5  -5  280.97   15.80
  -2  -5  -5  301.37   17.80
   2  -5   5  296.67   16.40
   2  -5   5  246.48   18.10
  -2  -5  -5  275.57   13.90
   2  -5   5  262.77   18.60
  -2  -5  -5  281.07   15.60
  -2  -5  -5  274.17   13.90
  -2   5  -5  296.37   17.40
  -2   5  -5  277.87   17.00
  -2   5  -5  260.17   16.20
  -2   5  -5  266.97   14.30
   2   5   5  289.87   16.30
   3  -5   5   21.50    5.10
   3  -5   5   23.30    5.20
   3  -5   5   26.50    6.00
  -3  -5  -5   31.10    4.70
  -3  -5  -5   20.00    4.90
  -3  -5  -5   31.20    5.30
   3  -5   5   33.00    5.00
  -3   5  -5   24.10    3.20
  -3   5  -5   28.40    5.20
   3   5   5   29.50    2.80
  -3   5  -5   32.40    4.40
  -3   5  -5   24.10    4.90
   3   5   5   30.10    5.10
  -4  -5  -5  239.88   15.20
   4  -5   5  243.18   15.10
   4  -5   5  223.08   16.70
  -4  -5  -5  241.48   17.70
   4  -5   5  213.78   17.00
  -4   5  -5  236.88   15.80
  -4   5  -5  234.58   13.50
   4   5   5  236.98   13.20
   5  -5   5   29.20    6.60
  -5  -5  -5   37.00    5.60
   5  -5   5   20.60    5.10
   5  -5   5   32.40    5.50
  -5  -5  -5   25.90    6.60
   5   5   5   27.10    4.00
  -5   5  -5   23.40    5.10
  -5   5  -5   26.90    3.90
   6  -5   5  101.59   12.70
   6  -5   5  114.59   12.90
  -6  -5  -5  118.99   11.70
   6  -5   5  135.59   11.10
  -6  -5  -5  131.29   14.00
   6   5   5  108.09    8.70
  -6   5  -5  113.69   11.00
  -6  -6   5   25.90    7.10
   6  -6  -5   27.40    5.00
  -6  -6   5   17.60    4.40
   6   6  -5   30.00    5.00
   6   6  -5   13.80    4.80
  -5  -6   5  122.49   12.50
  -5  -6   5  115.79   10.10
   5  -6  -5  129.39    9.80
   5   6  -5  112.59   10.60
   4  -6  -5  259.77   15.90
   4  -6  -5  280.97   15.90
  -4  -6   5  294.87   18.30
  -4  -6   5  307.77   20.40
  -4  -6   5  281.07   17.70
   4  -6  -5  271.97   15.00
   4   6  -5  275.67   18.80
  -3  -6   5   63.49    7.90
  -3  -6   5   69.69    9.00
   3  -6  -5   74.49    5.20
  -3  -6   5   56.09    7.10
   3  -6  -5   75.69    5.50
   3  -6  -5   67.89    4.90
   3  -6  -5   65.19    5.50
   3   6  -5   55.19    7.80
   3   6  -5   71.09    5.60
  -2  -6   5   77.79    8.90
  -2  -6   5   83.89    7.20
   2  -6  -5   84.49    5.20
   2  -6  -5   82.09    5.40
  -2  -6   5   83.39    9.70
  -2  -6   5   89.59    9.30
   2  -6  -5   81.19    5.70
   2  -6  -5   78.99    5.20
   2   6  -5   85.69    9.60
   2   6  -5   84.39    7.90
   2   6  -5   85.69    6.00
  -1  -6   5  428.16   25.90
  -1  -6   5  410.06   23.40
   1  -6  -5  432.26   22.00
   1  -6  -5  450.05   21.70
  -1  -6   5  490.95   26.80
   1  -6  -5  444.36   21.90
   1  -6  -5  465.25   21.70
  -1  -6   5  450.25   26.10
   1   6  -5  352.36   20.50
   1   6  -5  382.36   22.20
   0  -6  -5   41.90    3.60
   0  -6  -5   36.30    4.30
   0  -6   5   41.30    6.80
   0  -6   5   39.40    6.30
   0  -6  -5   33.70    3.70
   0  -6  -5   40.70    4.10
   0  -6   5   38.10    6.30
   0  -6   5   45.50    5.40
   0   6  -5   38.30    6.00
   0   6  -5   28.50    4.60
   0   6  -5   31.20    2.20
   0   6  -5   42.20    6.10
   0   6  -5   35.90    2.30
   1  -6   5    3.40    2.80
   1  -6   5    0.40    2.50
  -1  -6  -5    6.20    2.10
   1  -6   5    2.20    2.20
  -1  -6  -5    3.80    1.70
  -1  -6  -5    1.70    1.80
  -1  -6  -5    2.80    2.10
  -1  -6  -5    7.70    2.40
   1  -6   5    4.40    3.80
  -1   6  -5    2.70    2.90
  -1   6  -5    3.50    2.40
  -1   6  -5    1.40    2.10
  -2  -6  -5  737.93   35.60
  -2  -6  -5  820.42   39.10
   2  -6   5  717.23   40.50
   2  -6   5  781.62   38.20
   2  -6   5  741.83   41.50
   2  -6   5  751.62   40.50
  -2  -6  -5  749.33   37.30
  -2  -6  -5  769.62   37.40
  -2  -6  -5  744.83   39.20
  -2   6  -5  751.32   39.40
  -2   6  -5  756.82   40.00
  -2   6  -5  812.42   39.80
   3  -6   5  202.48   15.60
   3  -6   5  215.78   16.40
  -3  -6  -5  218.28   20.00
  -3  -6  -5  218.58   15.40
  -3  -6  -5  203.78   13.00
   3  -6   5  183.38   13.10
  -3   6  -5  195.78   14.00
  -3   6  -5  209.28   13.20
  -4  -6  -5   76.99   10.00
  -4  -6  -5   76.49    8.00
   4  -6   5   77.69    9.90
   4  -6   5   96.99   11.30
   4  -6   5   93.09    9.00
  -4   6  -5   90.89    9.40
  -5  -6  -5  306.17   18.50
  -5  -6  -5  278.77   20.80
   5  -6   5  270.17   20.40
   5  -6   5  250.67   17.40
   5  -6   5  311.77   21.10
  -5   6  -5  273.57   17.90
  -5  -7   5   27.10    6.70
   5  -7  -5   22.10    3.70
  -5  -7   5   30.90    5.90
   5   7  -5   25.40    6.10
  -4  -7   5   20.70    5.00
   4  -7  -5   22.50    3.10
  -4  -7   5   33.80    5.80
  -4  -7   5   18.90    5.20
   4  -7  -5   21.20    2.80
   4   7  -5   21.60    5.70
  -3  -7   5  318.27   20.40
   3  -7  -5  311.67   15.40
  -3  -7   5  326.87   19.30
   3  -7  -5  322.37   15.60
  -3  -7   5  325.07   21.50
   3   7  -5  327.97   21.40
  -2  -7   5   65.49    8.50
  -2  -7   5   55.19    8.00
  -2  -7   5   55.79    6.60
   2   7  -5   43.60    7.20
  -1  -7   5  244.48   17.00
   1  -7  -5  256.97   11.90
   1  -7  -5  245.38   11.90
  -1  -7   5  250.37   15.30
  -1  -7   5  277.77   18.30
   1   7  -5  236.18   16.60
   0  -7  -5  219.38   12.50
   0  -7   5  232.18   17.00
   0  -7  -5  248.48   15.10
   0  -7   5  218.88   14.00
   0  -7   5  240.48   16.30
   0  -7  -5  243.38   12.70
   0   7  -5  227.78   15.00
   0   7  -5  217.68   15.10
  -1  -7  -5   25.10    3.90
   1  -7   5   24.80    4.00
  -1  -7  -5   25.50    4.00
  -1  -7  -5   26.70    3.80
  -1  -7  -5   23.90    4.00
   1  -7   5   33.50    6.80
   1  -7   5   22.20    4.90
  -1   7  -5   18.50    4.30
  -1   7  -5   21.90    4.50
   2  -7   5   43.60    6.90
   2  -7   5   57.19    8.30
  -2  -7  -5   51.49    5.50
  -2  -7  -5   49.10    6.10
   2  -7   5   53.39    6.20
  -2  -7  -5   51.39    6.40
  -2   7  -5   54.69    7.50
  -2   7  -5   49.60    6.50
  -3  -7  -5   81.99    7.20
   3  -7   5   96.69   11.80
   3  -7   5   87.69   10.20
  -3  -7  -5   77.99    8.50
   3  -7   5   79.39    9.50
   3  -7   5   79.69    8.00
  -3   7  -5   78.19    8.90
  -3   7  -5   89.39    8.00
   4  -7   5   88.89    8.70
   4  -7   5   67.99   10.20
   4  -7   5   96.59   10.20
  -4  -7  -5   75.49    9.80
  -4  -7  -5   74.39    8.00
  -4   7  -5   91.69   10.20
  -3  -8   5   -1.10    2.90
  -3  -8   5    6.00    3.20
  -3  -8   5    2.70    3.20
   3  -8  -5    2.50    3.40
   3   8  -5    3.40    3.50
  -2  -8   5   47.00    7.30
  -2  -8   5   64.09    7.10
  -2  -8   5   58.89    8.20
   2  -8  -5   52.09    7.80
   2   8  -5   62.29    8.40
  -1  -8   5  283.67   16.90
  -1  -8   5  306.07   19.20
  -1  -8   5  250.87   18.80
   1   8  -5  267.07   18.70
   0  -8  -5    3.60    2.60
   0  -8   5   10.80    4.70
   0  -8   5    4.20    2.60
   0  -8  -5    5.90    0.80
   0  -8  -5    5.60    0.80
   0  -8   5    7.80    2.90
   0   8  -5    5.20    3.00
   1  -8   5   40.90    7.20
  -1  -8  -5   35.70    4.00
   1  -8   5   42.60    6.30
  -1  -8  -5   32.50    4.10
  -1   8  -5   30.80    5.60
  -1   8  -5   31.50    6.10
   2  -8   5   89.59    9.10
  -2  -8  -5   83.79    7.60
   2  -8   5   70.39    9.80
  -2   8  -5  100.29   10.20
  -2   8  -5   91.49    9.70
   8   0  -6   36.60    6.00
   8   0  -6   42.40    8.00
  -8   0   6   24.60    5.40
  -7   0   6   41.80    6.00
   7   0  -6   38.20    5.80
   7   0  -6   34.20    6.80
   6   0  -6  624.94   35.00
  -6   0   6  566.24   31.50
   6   0  -6  611.94   32.00
  -6   0   6  594.34   34.70
   6   0  -6  618.14   34.90
  -5   0   6   20.90    3.70
   5   0  -6   13.00    4.50
  -5   0   6   21.20    5.20
  -5   0   6   17.00    4.50
   5   0  -6   18.30    5.10
  -5   0   6   13.30    1.30
   5   0  -6   16.10    3.40
  -4   0   6  777.42   44.50
   4   0  -6  890.11   44.80
  -4   0   6  830.92   42.60
   4   0  -6  941.61   45.80
  -4   0   6  870.01   45.50
  -4   0   6  849.12   42.70
   4   0  -6  989.00   43.50
   4   0  -6  807.32   42.70
   4   0  -6  909.51   46.00
   3   0  -6   82.89    8.20
  -3   0   6   84.59    7.10
  -3   0   6   86.89    7.00
   3   0  -6   81.89    8.00
  -3   0   6  101.19    8.60
   3   0  -6   84.89    7.10
   3   0  -6   86.19    7.10
  -3   0   6   80.89    8.60
   3   0  -6   87.49    8.40
  -2   0   6  102.09    7.60
  -2   0   6  111.09    9.20
   2   0  -6  102.49    8.80
   2   0  -6  111.09    8.70
  -2   0   6  106.09    9.10
   2   0  -6  100.79    7.50
  -2   0   6  110.49    7.80
   2   0  -6   96.19    9.30
   2   0  -6  106.49    5.20
   2   0  -6  109.29    7.80
  -1   0   6   47.70    5.70
   1   0  -6   50.49    5.30
   1   0  -6   47.00    3.30
  -1   0   6   56.89    6.70
   1   0  -6   49.50    6.60
  -1   0   6   50.19    6.40
   1   0  -6   36.80    5.60
   1   0  -6   46.20    5.60
  -1   0   6   44.70    4.90
   1   0  -6   44.40    4.90
  -1   0   6   43.00    4.70
   0   0  -6  740.03   36.50
   0   0   6  796.82   36.60
   0   0   6  736.43   36.60
   0   0   6  735.03   38.50
   0   0   6  807.92   39.10
   0   0  -6  689.43   38.20
   0   0  -6  679.03   38.40
   0   0  -6  827.22   37.00
   0   0  -6  752.92   37.40
   0   0   6  701.43   37.10
  -1   0  -6  353.76   21.80
  -1   0  -6  404.86   19.70
   1   0   6  341.87   19.20
   1   0   6  332.17   19.50
   1   0   6  347.87   19.20
  -1   0  -6  351.86   19.60
   1   0   6  333.17   21.10
   1   0   6  407.76   22.50
  -1   0  -6  356.66   21.40
  -1   0  -6  358.36   19.50
   2   0   6  102.19    7.80
   2   0   6   87.99    7.30
  -2   0  -6   97.19    7.60
   2   0   6   77.59    8.50
   2   0   6  113.99    8.00
  -2   0  -6   79.69    8.50
  -2   0  -6   83.99    7.30
  -2   0  -6  103.59    9.30
  -2   0  -6  103.69    7.80
   2   0   6   92.29    9.20
  -3   0  -6    6.10    3.80
  -3   0  -6    6.80    3.10
   3   0   6    5.90    3.70
   3   0   6    3.90    2.60
   3   0   6    3.00    2.00
   3   0   6    5.60    2.10
  -3   0  -6    6.50    3.70
  -3   0  -6    4.70    2.30
  -3   0  -6    5.30    2.40
   3   0   6    4.00    2.70
   4   0   6  396.96   26.70
  -4   0  -6  412.96   22.90
  -4   0  -6  452.05   27.50
  -4   0  -6  431.06   26.20
  -4   0  -6  434.66   23.90
   4   0   6  429.06   23.80
   4   0   6  407.16   23.00
   4   0   6  448.56   27.00
   5   0   6  318.97   18.60
   5   0   6  322.57   22.20
  -5   0  -6  317.47   22.50
   5   0   6  300.37   19.20
  -5   0  -6  303.47   19.30
   5   0   6  332.77   22.70
  -5   0  -6  353.96   17.40
  -5   0  -6  301.07   21.60
  -6   0  -6  119.69   10.70
   6   0   6  119.19    9.60
  -6   0  -6  119.89   14.30
   6   0   6  128.29   10.90
   6   0   6  128.19   13.30
   7   0   6  114.69   16.70
  -7   0  -6  115.79   11.50
   7   0   6  116.09   11.70
   8  -1  -6   79.89   11.20
   8  -1  -6   78.59    8.90
  -8  -1   6   92.99    9.60
   8   1  -6   71.39   10.70
   8   1  -6   84.69    7.70
   8   1  -6   75.99    8.80
  -8   1   6   83.29    8.70
   7  -1  -6   52.19    8.60
  -7  -1   6   35.40    7.70
   7  -1  -6   56.29    7.10
  -7  -1   6   56.09    7.30
  -7   1   6   47.40    6.40
   7   1  -6   47.70    6.10
   7   1  -6   38.90    5.90
   7   1  -6   40.50    7.80
  -6  -1   6   10.30    3.80
   6  -1  -6    9.00    4.40
   6  -1  -6    4.60    3.90
  -6  -1   6    7.50    3.60
   6  -1  -6    8.80    3.50
  -6   1   6    7.00    3.10
  -6   1   6    5.40    1.00
   6   1  -6    5.50    3.50
   6   1  -6   12.70    5.00
   6   1  -6    9.80    3.70
  -6   1   6    7.50    3.80
  -5  -1   6   66.09    8.70
   5  -1  -6   66.39    8.60
  -5  -1   6   69.99    7.30
   5  -1  -6   51.59    6.10
  -5  -1   6   64.59    4.20
  -5  -1   6   44.20    7.40
   5  -1  -6   66.99    8.70
  -5   1   6   65.49    6.60
  -5   1   6   64.99    8.20
   5   1  -6   63.39    7.20
   5   1  -6   61.29    8.80
   5   1  -6   57.79    8.70
  -5   1   6   55.49    6.00
  -4  -1   6  695.93   36.90
   4  -1  -6  823.62   37.10
   4  -1  -6  727.93   38.80
   4  -1  -6  691.73   39.00
   4  -1  -6  758.62   36.80
  -4  -1   6  697.63   36.70
  -4  -1   6  734.43   39.50
  -4  -1   6  751.82   34.10
  -4  -1   6  720.93   39.50
  -4   1   6  726.73   38.10
   4   1  -6  714.53   38.00
   4   1  -6  703.53   39.00
  -4   1   6  716.73   35.90
   4   1  -6  714.23   38.80
  -4   1   6  777.52   38.60
   4   1  -6  727.83   36.50
  -4   1   6  732.03   36.00
  -3  -1   6  397.56   19.20
   3  -1  -6  386.66   23.10
   3  -1  -6  388.16   21.40
   3  -1  -6  424.66   23.80
   3  -1  -6  391.26   23.00
  -3  -1   6  379.26   23.60
  -3  -1   6  466.25   22.30
  -3  -1   6  396.16   21.70
  -3  -1   6  448.66   24.80
   3  -1  -6  401.06   21.40
  -3   1   6  408.16   21.00
  -3   1   6  413.86   23.10
   3   1  -6  371.46   23.10
   3   1  -6  376.36   21.40
   3   1  -6  417.36   23.10
   3   1  -6  412.16   21.70
  -3   1   6  386.86   20.90
  -3   1   6  384.86   22.70
   3   1  -6  451.45   24.50
  -2  -1   6  169.18   12.10
  -2  -1   6  180.58   11.20
  -2  -1   6  196.58   13.40
   2  -1  -6  182.28   10.80
   2  -1  -6  164.28   11.90
   2  -1  -6  186.28   13.00
  -2  -1   6  182.68   12.90
   2  -1  -6  175.38   10.90
   2  -1  -6  165.18   11.80
  -2  -1   6  182.68   11.20
  -2   1   6  151.48   10.00
   2   1  -6  173.08   10.60
  -2   1   6  165.68   11.60
   2   1  -6  153.18   12.30
  -2   1   6  182.78   10.40
   2   1  -6  159.58   12.20
   2   1  -6  180.08   10.70
  -2   1   6  177.08   12.00
   2   1  -6  156.88   11.40
   2   1  -6  173.18    8.80
  -1  -1   6  160.78   12.70
   1  -1  -6  177.08   11.10
  -1  -1   6  199.08   11.70
  -1  -1   6  211.98   12.00
   1  -1  -6  209.48   13.50
   1  -1  -6  198.58   12.30
   1  -1  -6  173.38   12.50
  -1  -1   6  200.78   13.80
   1  -1  -6  202.08   11.50
  -1  -1   6  170.18   12.20
   1   1  -6  176.98   13.30
  -1   1   6  189.28   11.00
   1   1  -6  188.28   12.80
  -1   1   6  189.18   10.60
  -1   1   6  213.68   13.00
   1   1  -6  168.18    9.70
   1   1  -6  183.68   11.30
   1   1  -6  186.08   12.40
  -1   1   6  170.08   12.10
   1   1  -6  168.18   11.10
   0  -1  -6  710.83   40.30
   0  -1   6  797.12   38.90
   0  -1   6  751.52   39.60
   0  -1  -6  830.02   39.30
   0  -1   6  795.12   38.70
   0  -1   6  774.02   40.90
   0  -1   6  763.12   41.00
   0  -1  -6  836.72   38.80
   0  -1  -6  791.42   38.50
   0  -1  -6  867.41   41.00
   0   1  -6  754.82   37.90
   0   1   6  769.02   38.20
   0   1   6  806.22   40.50
   0   1  -6  757.92   38.90
   0   1  -6  800.92   38.90
   0   1  -6  863.51   40.30
   0   1   6  863.21   41.00
   0   1  -6  817.02   41.50
   0   1  -6  734.03   40.90
   0   1   6  811.12   38.70
  -1  -1  -6  763.02   36.90
  -1  -1  -6  750.92   36.70
  -1  -1  -6  755.22   39.20
   1  -1   6  763.82   37.00
   1  -1   6  766.32   39.50
   1  -1   6  706.23   36.90
  -1  -1  -6  753.42   39.20
   1  -1   6  756.82   37.80
   1  -1   6  759.42   39.80
  -1  -1  -6  694.63   36.70
   1   1   6  816.22   40.20
  -1   1  -6  744.13   38.20
  -1   1  -6  726.43   40.00
   1   1   6  739.03   39.30
   1   1   6  860.71   37.70
  -1   1  -6  739.43   37.50
  -1   1  -6  720.93   37.40
   1   1   6  753.22   37.50
  -1   1  -6  772.32   39.70
   1   1   6  738.83   37.00
  -2  -1  -6  756.42   41.30
   2  -1   6  781.52   39.00
   2  -1   6  798.22   39.20
   2  -1   6  880.21   42.40
  -2  -1  -6  844.52   38.50
   2  -1   6  688.63   41.10
   2  -1   6  738.43   39.50
  -2  -1  -6  780.82   39.10
  -2  -1  -6  767.02   41.50
  -2  -1  -6  821.92   39.00
   2   1   6  730.53   40.60
   2   1   6  776.72   41.30
  -2   1  -6  766.62   39.30
  -2   1  -6  824.72   41.70
   2   1   6  763.72   38.40
   2   1   6  774.62   38.50
   2   1   6  742.13   38.00
  -2   1  -6  873.11   42.00
  -2   1  -6  820.42   39.00
  -2   1  -6  753.22   38.80
  -3  -1  -6  479.25   24.20
   3  -1   6  447.66   27.80
   3  -1   6  450.25   25.30
  -3  -1  -6  506.95   28.20
   3  -1   6  433.26   25.40
   3  -1   6  464.55   27.90
  -3  -1  -6  452.25   28.00
  -3  -1  -6  523.05   27.00
  -3  -1  -6  502.45   25.80
   3   1   6  475.95   29.10
  -3   1  -6  475.05   26.50
  -3   1  -6  461.45   26.40
   3   1   6  534.55   25.80
   3   1   6  461.15   26.20
  -3   1  -6  529.05   29.70
  -3   1  -6  518.75   29.50
   3   1   6  519.55   26.60
   3   1   6  502.75   29.30
  -3   1  -6  559.94   27.60
   4  -1   6  425.46   26.10
  -4  -1  -6  433.56   20.90
   4  -1   6  387.96   25.10
  -4  -1  -6  378.56   24.70
   4  -1   6  334.87   21.50
   4  -1   6  371.26   22.20
  -4  -1  -6  369.96   22.10
  -4  -1  -6  407.66   25.70
   4   1   6  364.06   19.40
   4   1   6  368.66   23.30
  -4   1  -6  355.76   21.00
   4   1   6  392.76   24.50
  -4   1  -6  358.56   21.10
  -4   1  -6  361.56   23.60
   4   1   6  377.36   21.00
  -4   1  -6  336.27   22.70
   5  -1   6  262.17   16.30
  -5  -1  -6  215.68   15.80
   5  -1   6  272.57   19.80
   5  -1   6  230.08   15.60
  -5  -1  -6  258.97   18.40
  -5  -1  -6  242.98   14.20
   5  -1   6  245.68   18.90
  -5  -1  -6  230.08   18.80
   5   1   6  211.88   17.50
   5   1   6  241.38   15.50
   5   1   6  221.08   13.40
  -5   1  -6  239.28   15.50
  -5   1  -6  241.38   18.30
   6  -1   6   69.59    8.50
   6  -1   6   60.59   10.20
  -6  -1  -6   73.59    8.60
   6  -1   6   82.69    8.80
  -6  -1  -6   70.19   10.40
  -6   1  -6   52.49    9.60
   6   1   6   66.89    6.10
   6   1   6   73.99   10.70
  -6   1  -6   63.99    8.00
   6   1   6   63.29    8.10
   7  -1   6    3.60    4.90
   7  -1   6    3.80    2.90
   7  -1   6    3.30    3.10
  -7  -1  -6    6.30    3.60
  -7  -1  -6    1.30    4.50
  -7   1  -6    5.10    3.60
   7   1   6    2.10    2.40
  -8  -2   6  212.48   15.80
   8  -2  -6  227.18   18.70
   8  -2  -6  246.38   16.20
  -8   2   6  216.58   14.20
   8   2  -6  226.78   15.90
   8   2  -6  220.98   14.80
  -7  -2   6  590.94   34.90
  -7  -2   6  513.15   30.60
   7  -2  -6  603.24   33.40
   7  -2  -6  540.45   30.20
  -7   2   6  592.54   29.60
   7   2  -6  546.85   30.20
   7   2  -6  546.15   34.00
   7   2  -6  556.74   30.80
  -6  -2   6  349.57   18.40
  -6  -2   6  381.86   24.10
  -6  -2   6  326.77   20.80
   6  -2  -6  359.36   20.40
   6  -2  -6  353.36   25.80
   6  -2  -6  364.76   23.00
  -6  -2   6  367.46   24.30
  -6   2   6  325.57   18.30
   6   2  -6  338.87   22.70
  -6   2   6  330.97   18.40
  -6   2   6  335.77   15.90
   6   2  -6  312.67   19.40
   6   2  -6  342.87   19.80
   6   2  -6  315.07   22.10
  -5  -2   6  342.77   20.60
  -5  -2   6  356.36   18.20
   5  -2  -6  321.77   21.60
  -5  -2   6  399.06   23.90
   5  -2  -6  371.16   22.70
   5  -2  -6  348.37   19.80
  -5  -2   6  380.56   23.50
  -5   2   6  370.06   19.80
   5   2  -6  372.86   24.10
   5   2  -6  388.36   21.40
   5   2  -6  377.56   23.70
  -5   2   6  360.16   19.80
  -5   2   6  367.06   22.20
   4  -2  -6  367.86   20.20
  -4  -2   6  399.16   24.10
  -4  -2   6  398.36   18.90
  -4  -2   6  386.36   21.40
  -4  -2   6  359.06   23.20
   4  -2  -6  387.66   22.20
   4  -2  -6  369.26   20.50
   4  -2  -6  341.27   22.30
  -4   2   6  412.96   23.00
   4   2  -6  358.16   22.40
   4   2  -6  427.86   25.10
  -4   2   6  390.46   20.50
  -4   2   6  373.46   20.30
   4   2  -6  395.36   23.90
   4   2  -6  416.56   21.90
   3  -2  -6  506.35   26.60
  -3  -2   6  505.55   29.70
  -3  -2   6  549.05   28.90
  -3  -2   6  510.55   25.40
   3  -2  -6  546.45   28.50
  -3  -2   6  507.75   27.40
  -3  -2   6  541.45   27.70
  -3  -2   6  535.95   29.70
   3  -2  -6  516.95   28.60
   3  -2  -6  560.04   26.80
  -3   2   6  474.45   27.00
   3   2  -6  511.35   28.50
   3   2  -6  461.55   27.10
  -3   2   6  533.05   27.50
  -3   2   6  506.65   25.00
  -3   2   6  536.15   25.30
   3   2  -6  510.15   26.30
   3   2  -6  510.05   26.30
   3   2  -6  486.25   28.80
  -2  -2   6  345.37   18.00
   2  -2  -6  343.87   17.20
  -2  -2   6  315.57   19.00
   2  -2  -6  328.87   18.70
  -2  -2   6  325.17   20.00
   2  -2  -6  314.47   19.00
  -2  -2   6  262.17   18.90
  -2  -2   6  326.87   16.20
  -2  -2   6  312.17   17.80
   2  -2  -6  320.77   15.10
   2  -2  -6  292.87   16.80
  -2   2   6  307.47   18.50
  -2   2   6  336.07   16.70
   2   2  -6  332.87   17.90
  -2   2   6  334.37   16.80
   2   2  -6  337.57   20.10
   2   2  -6  315.87   17.90
   2   2  -6  279.77   19.30
   2   2  -6  327.47   16.50
   2   2  -6  358.36   19.50
  -2   2   6  309.57   18.40
   1  -2  -6  376.36   19.20
  -1  -2   6  388.36   19.90
  -1  -2   6  352.36   19.70
   1  -2  -6  400.36   19.30
   1  -2  -6  354.06   20.20
   1  -2  -6  346.57   20.80
  -1  -2   6  356.36   20.90
   1  -2  -6  376.76   20.70
  -1  -2   6  383.36   18.70
  -1  -2   6  314.87   21.20
  -1  -2   6  360.86   21.90
   1   2  -6  402.16   21.70
   1   2  -6  332.87   19.50
   1   2  -6  384.66   22.70
   1   2  -6  365.06   19.80
  -1   2   6  365.86   18.70
   1   2  -6  388.36   19.00
   1   2  -6  369.96   21.90
  -1   2   6  357.06   20.50
  -1   2   6  359.86   20.70
  -1   2   6  399.56   19.10
   0  -2  -6  267.77   14.10
   0  -2  -6  224.58   15.40
   0  -2   6  249.68   15.60
   0  -2  -6  258.87   15.70
   0  -2   6  247.78   14.50
   0  -2   6  234.78   16.10
   0  -2  -6  273.87   14.80
   0  -2   6  228.58   14.30
   0  -2  -6  229.28   13.80
   0  -2   6  245.38   16.40
   0   2  -6  251.47   15.90
   0   2   6  236.78   14.70
   0   2   6  245.58   12.60
   0   2  -6  202.78   13.10
   0   2   6  233.88   12.60
   0   2  -6  236.88   13.50
   0   2  -6  202.18   14.70
   0   2  -6  221.08   12.70
   0   2  -6  210.08   14.20
   0   2   6  245.88   14.70
  -1  -2  -6  350.06   21.40
  -1  -2  -6  380.96   19.40
   1  -2   6  334.77   19.40
  -1  -2  -6  363.36   19.10
   1  -2   6  352.16   22.10
  -1  -2  -6  358.86   19.40
   1  -2   6  352.26   20.70
   1  -2   6  365.56   20.00
  -1  -2  -6  331.67   20.80
   1  -2   6  422.56   22.90
   1   2   6  383.36   21.70
  -1   2  -6  365.96   19.80
  -1   2  -6  405.16   21.70
  -1   2  -6  374.76   20.20
  -1   2  -6  368.46   22.10
  -1   2  -6  368.06   20.20
  -1   2  -6  382.86   22.80
   1   2   6  382.06   19.60
   1   2   6  353.66   19.40
  -2  -2  -6  308.87   17.80
  -2  -2  -6  332.07   16.90
   2  -2   6  331.07   20.60
   2  -2   6  292.47   20.10
  -2  -2  -6  302.67   19.70
  -2  -2  -6  322.87   20.10
   2  -2   6  327.27   19.50
   2  -2   6  318.97   18.20
   2  -2   6  321.87   18.30
  -2  -2  -6  339.37   18.20
  -2   2  -6  306.57   20.40
   2   2   6  392.46   21.50
  -2   2  -6  326.67   18.40
  -2   2  -6  325.37   20.80
  -2   2  -6  330.27   18.60
   2   2   6  314.77   17.90
   2   2   6  311.57   19.80
  -2   2  -6  332.97   18.50
  -2   2  -6  339.67   19.90
   2   2   6  353.36   18.20
  -3  -2  -6   82.69    7.40
  -3  -2  -6   87.49    5.90
   3  -2   6   99.19    9.00
   3  -2   6   86.39   10.30
   3  -2   6   86.19    7.60
  -3  -2  -6   85.09    8.90
  -3  -2  -6   69.69    9.10
   3  -2   6   94.59   10.90
   3   2   6   86.19    7.50
  -3   2  -6  101.39    7.80
  -3   2  -6  102.59    8.30
   3   2   6   90.89    7.40
   3   2   6   76.19    9.30
  -3   2  -6   90.69    9.20
  -3   2  -6   94.29    7.60
  -3   2  -6   94.39    8.40
   3   2   6   80.39    9.80
  -3   2  -6   76.09    9.80
   3   2   6   97.89    6.50
   4  -2   6   36.10    5.50
   4  -2   6   43.90    7.50
   4  -2   6   30.80    5.70
  -4  -2  -6   30.40    5.50
  -4  -2  -6   31.10    4.50
   4  -2   6   33.70    6.90
  -4  -2  -6   39.60    7.00
  -4  -2  -6   22.40    5.60
   4   2   6   35.80    6.90
   4   2   6   27.60    4.60
  -4   2  -6   36.30    6.90
  -4   2  -6   27.10    4.90
   4   2   6   31.60    3.30
  -5  -2  -6  442.36   28.50
  -5  -2  -6  466.65   25.80
   5  -2   6  440.96   29.00
   5  -2   6  491.95   26.70
   5  -2   6  455.05   25.70
  -5  -2  -6  425.66   27.40
   5  -2   6  446.86   28.90
  -5  -2  -6  426.26   24.00
   5   2   6  439.56   24.60
  -5   2  -6  439.26   28.10
   5   2   6  418.76   27.70
  -5   2  -6  455.35   24.70
   5   2   6  444.66   21.80
   6  -2   6  192.28   14.20
   6  -2   6  201.18   14.30
  -6  -2  -6  194.68   14.20
   6  -2   6  202.38   17.50
  -6  -2  -6  166.78   16.60
   6   2   6  210.78   14.50
  -6   2  -6  185.78   13.60
   7  -2   6   90.79   12.80
  -7  -2  -6  115.09   14.50
  -7  -2  -6  117.99   11.90
   7  -2   6  101.29    9.80
   7  -2   6   97.29   10.50
  -7   2  -6   93.39   10.00
   7   2   6  106.79   10.60
   8  -3  -6   80.39   11.00
   8  -3  -6  106.89   10.20
   8   3  -6   98.19   10.00
   8   3  -6   97.99   10.60
  -7  -3   6  237.48   18.40
   7  -3  -6  206.98   14.10
   7  -3  -6  205.08   16.30
  -7  -3   6  198.48   15.10
   7   3  -6  197.08   14.10
   7   3  -6  209.38   14.20
  -6  -3   6  364.46   25.90
  -6  -3   6  407.86   20.30
   6  -3  -6  369.16   23.50
   6  -3  -6  356.46   21.10
  -6  -3   6  423.36   26.70
  -6  -3   6  361.86   22.30
   6   3  -6  351.96   20.90
   6   3  -6  338.67   23.40
   6   3  -6  382.26   21.80
  -6   3   6  362.76   18.90
   5  -3  -6   23.40    5.00
  -5  -3   6   21.00    4.60
   5  -3  -6   26.40    4.10
  -5  -3   6   25.20    5.90
  -5  -3   6   32.40    4.00
   5  -3  -6   34.50    6.00
  -5  -3   6   26.10    5.90
   5   3  -6   25.70    4.40
  -5   3   6   22.30    4.60
   5   3  -6   23.50    4.50
  -5   3   6   20.10    2.80
   5   3  -6   26.60    5.80
   4  -3  -6 1049.09   54.29
   4  -3  -6 1153.78   54.79
   4  -3  -6 1141.29   56.39
  -4  -3   6 1150.68   58.89
  -4  -3   6 1147.39   55.99
   4  -3  -6 1222.08   57.39
  -4  -3   6 1152.38   58.89
  -4  -3   6 1125.59   53.89
  -4   3   6 1126.49   51.89
   4   3  -6 1101.29   56.99
   4   3  -6 1072.29   54.19
  -4   3   6 1134.69   54.59
   4   3  -6 1160.08   57.59
   4   3  -6 1099.59   55.39
  -3  -3   6  954.90   44.40
   3  -3  -6  894.01   43.00
  -3  -3   6  941.41   47.40
   3  -3  -6  936.51   44.70
   3  -3  -6  936.31   46.90
   3  -3  -6  924.31   46.30
  -3  -3   6  948.91   46.00
  -3  -3   6  977.30   49.10
  -3  -3   6  899.91   48.10
   3  -3  -6  917.61   44.70
   3   3  -6  811.42   47.90
   3   3  -6  891.91   46.20
   3   3  -6  979.10   49.90
   3   3  -6  973.00   48.20
  -3   3   6 1019.30   46.80
   3   3  -6 1040.90   46.80
   2  -3  -6  909.31   42.30
  -2  -3   6  880.91   46.10
   2  -3  -6  815.62   43.30
  -2  -3   6  869.91   42.20
   2  -3  -6  820.02   43.80
   2  -3  -6  930.41   42.30
  -2  -3   6  896.11   43.40
   2  -3  -6  902.91   41.20
  -2  -3   6  861.81   43.20
  -2  -3   6  906.91   45.10
  -2  -3   6  913.61   46.20
   2   3  -6  905.71   44.60
  -2   3   6  829.82   40.20
   2   3  -6  897.11   42.90
   2   3  -6  947.61   46.00
  -2   3   6  861.81   42.80
  -2   3   6  853.51   42.50
   2   3  -6  895.41   42.80
  -2   3   6  864.81   40.30
   2   3  -6  862.51   44.80
  -1  -3   6  966.10   45.60
   1  -3  -6  935.01   47.10
  -1  -3   6  925.71   48.60
  -1  -3   6  997.60   49.10
   1  -3  -6  912.61   45.20
  -1  -3   6  964.90   46.40
   1  -3  -6  938.41   45.20
  -1  -3   6  950.40   48.00
   1  -3  -6  979.20   46.90
  -1  -3   6  941.11   46.20
   1   3  -6  900.21   48.00
   1   3  -6  900.41   46.70
   1   3  -6  935.11   45.10
  -1   3   6  994.20   45.50
  -1   3   6  932.21   43.00
   1   3  -6  941.11   44.80
   1   3  -6  880.71   47.20
   1   3  -6  903.31   45.10
  -1   3   6  936.31   42.90
  -1   3   6  994.60   45.80
   0  -3   6 1157.68   57.39
   0  -3   6 1171.18   54.89
   0  -3  -6 1138.19   53.79
   0  -3   6 1117.69   54.69
   0  -3  -6 1162.58   54.69
   0  -3  -6 1081.69   55.59
   0  -3   6 1259.87   57.09
   0  -3  -6 1115.39   53.89
   0  -3  -6 1144.69   55.99
   0  -3   6 1044.80   56.99
   0   3  -6 1125.69   55.29
   0   3  -6 1162.38   55.49
   0   3  -6 1183.28   57.49
   0   3   6 1146.69   53.79
   0   3  -6 1162.38   55.69
   0   3   6 1142.89   56.29
   0   3  -6 1247.78   58.79
   0   3   6 1164.18   56.29
   0   3  -6 1176.68   57.89
  -1  -3  -6  256.07   16.60
  -1  -3  -6  260.47   14.90
   1  -3   6  267.07   17.10
   1  -3   6  269.27   15.60
   1  -3   6  268.17   15.50
  -1  -3  -6  245.58   16.30
   1  -3   6  254.47   17.60
  -1  -3  -6  263.07   14.80
  -1  -3  -6  288.57   14.80
   1  -3   6  250.57   17.40
  -1   3  -6  261.37   15.40
   1   3   6  279.37   14.00
   1   3   6  293.27   16.60
  -1   3  -6  264.67   17.00
  -1   3  -6  268.67   17.40
  -1   3  -6  268.47   15.30
   1   3   6  269.17   16.60
   1   3   6  270.37   14.00
  -1   3  -6  222.88   16.70
  -1   3  -6  261.77   15.10
   2  -3   6   42.30    5.40
   2  -3   6   40.10    6.90
  -2  -3  -6   44.70    3.80
  -2  -3  -6   32.20    5.70
  -2  -3  -6   45.10    6.50
  -2  -3  -6   47.20    5.50
   2  -3   6   31.50    6.00
   2  -3   6   28.30    5.60
  -2  -3  -6   46.60    5.50
   2  -3   6   65.19    7.40
  -2   3  -6   44.80    6.90
  -2   3  -6   40.00    5.20
   2   3   6   36.50    5.70
   2   3   6   42.80    4.40
  -2   3  -6   35.70    4.90
   2   3   6   44.10    4.60
  -2   3  -6   41.90    5.10
  -2   3  -6   44.00    6.70
  -3  -3  -6  811.12   37.50
  -3  -3  -6  827.62   43.70
  -3  -3  -6  759.52   42.40
   3  -3   6  875.11   41.20
   3  -3   6  739.23   43.30
   3  -3   6  807.52   43.80
  -3  -3  -6  811.52   40.70
   3  -3   6  831.22   42.50
  -3   3  -6  838.02   42.50
  -3   3  -6  833.92   39.20
  -3   3  -6  712.03   39.30
   3   3   6  785.52   38.60
   3   3   6  769.62   38.40
  -3   3  -6  758.32   38.80
  -4  -3  -6  128.89   12.20
   4  -3   6  148.99   13.60
   4  -3   6  152.78   12.50
   4  -3   6  138.39   10.50
  -4  -3  -6  155.58   11.40
  -4  -3  -6  126.49   12.30
   4  -3   6  149.79   13.00
  -4   3  -6  159.28   10.90
   4   3   6  153.08   10.50
  -4   3  -6  138.29   11.00
   4   3   6  145.39   10.30
  -4   3  -6  172.78   13.90
  -4   3  -6  151.68   11.10
   4   3   6  131.19   12.80
  -4   3  -6  142.29    9.10
  -5  -3  -6  107.39   13.00
   5  -3   6   97.39   12.60
   5  -3   6   95.49   10.80
   5  -3   6  124.69    9.90
  -5  -3  -6  121.09   10.40
   5   3   6  112.39    9.30
  -5   3  -6  123.89   10.40
  -5   3  -6  110.19    9.50
   6  -3   6  152.28   12.10
   6  -3   6  167.48   15.70
  -6  -3  -6  183.08   15.90
   6  -3   6  137.69   13.00
  -6  -3  -6  160.38   13.00
  -6   3  -6  177.18   13.10
   6   3   6  188.18   13.20
  -6   3  -6  160.18   12.10
  -7  -3  -6    3.90    3.50
   7  -3   6    2.00    3.40
   7  -3   6    1.60    3.70
   7  -3   6    3.40    4.70
  -7  -3  -6    3.90    2.80
  -7   3  -6    5.40    3.90
   7   3   6   -0.40    3.00
  -7   3  -6   -1.00    2.60
  -7  -4   6  320.07   19.70
  -7  -4   6  269.47   21.40
   7  -4  -6  295.37   17.90
   7  -4  -6  269.47   19.80
   7   4  -6  276.47   17.90
   7   4  -6  297.07   19.10
  -6  -4   6   64.89   10.20
   6  -4  -6   52.19    7.50
  -6  -4   6   53.59    7.00
   6  -4  -6   65.19    7.00
   6   4  -6   69.19    8.50
   6   4  -6   64.89    7.70
   5  -4  -6   62.19    6.30
  -5  -4   6   71.09   11.20
  -5  -4   6   61.99    6.90
   5  -4  -6   70.79    8.30
  -5  -4   6   59.49    7.50
   5  -4  -6   56.39    7.30
  -5  -4   6   43.80    7.80
  -5   4   6   64.99    6.30
   5   4  -6   57.59    8.40
   5   4  -6   51.19    7.40
   5   4  -6   51.79    6.60
   4  -4  -6  255.47   15.60
   4  -4  -6  278.17   16.30
  -4  -4   6  250.47   14.30
   4  -4  -6  241.08   14.00
  -4  -4   6  238.08   15.40
  -4  -4   6  226.68   17.80
  -4  -4   6  220.88   16.10
  -4  -4   6  216.88   17.30
   4  -4  -6  248.48   14.20
   4   4  -6  246.48   16.70
   4   4  -6  251.07   17.80
   4   4  -6  256.27   15.40
   3  -4  -6   40.70    5.70
   3  -4  -6   37.60    5.00
  -3  -4   6   39.70    6.90
   3  -4  -6   41.60    4.50
  -3  -4   6   59.79    6.60
   3  -4  -6   51.39    4.00
  -3  -4   6   39.40    6.80
   3  -4  -6   48.80    4.90
  -3  -4   6   42.30    6.60
  -3  -4   6   38.30    4.60
   3   4  -6   45.80    5.20
   3   4  -6   29.10    4.30
   3   4  -6   39.00    6.40
   3   4  -6   38.60    5.90
   2  -4  -6  565.04   28.60
   2  -4  -6  570.24   29.10
   2  -4  -6  558.24   27.30
   2  -4  -6  531.95   29.10
  -2  -4   6  547.25   28.10
   2  -4  -6  555.64   27.30
  -2  -4   6  550.64   31.30
   2  -4  -6  556.14   27.10
  -2  -4   6  597.84   31.00
  -2  -4   6  523.05   28.60
  -2  -4   6  533.45   31.20
   2   4  -6  501.85   28.90
  -2   4   6  542.55   26.20
   2   4  -6  515.45   29.50
   2   4  -6  533.95   27.20
   2   4  -6  564.24   27.50
   1  -4  -6   65.59    5.30
   1  -4  -6   59.39    5.10
  -1  -4   6   63.09    8.10
  -1  -4   6   72.69    7.70
  -1  -4   6   70.89    5.90
  -1  -4   6   74.69    6.40
   1  -4  -6   78.89    6.80
  -1  -4   6   73.29    7.00
   1  -4  -6   60.69    5.70
   1  -4  -6   63.79    5.40
  -1  -4   6   60.09    7.60
   1   4  -6   55.99    5.70
   1   4  -6   64.59    5.80
   1   4  -6   61.79    7.50
   1   4  -6   64.79    6.30
  -1   4   6   69.89    5.30
   1   4  -6   69.79    9.20
   1   4  -6   69.39    7.40
   0  -4   6  178.28   11.30
   0  -4  -6  179.38   11.60
   0  -4   6  163.38   13.20
   0  -4  -6  147.79    9.80
   0  -4   6  164.48   12.50
   0  -4  -6  165.38    9.90
   0  -4   6  152.98   12.80
   0  -4   6  169.98   10.90
   0  -4  -6  171.48   11.60
   0  -4   6  155.68   10.90
   0   4   6  161.88    9.90
   0   4  -6  160.58   10.60
   0   4  -6  140.49   10.90
   0   4  -6  160.28   10.00
   0   4  -6  163.68   10.10
  -1  -4  -6  115.09    9.30
  -1  -4  -6  116.59    7.80
   1  -4   6  105.99   10.20
  -1  -4  -6  102.89    7.30
   1  -4   6  108.29    8.60
   1  -4   6  100.59    9.80
   1  -4   6   94.59    9.60
   1  -4   6  106.99    9.50
  -1  -4  -6  108.19    9.20
  -1  -4  -6  114.39    8.00
  -1   4  -6  115.89    9.10
  -1   4  -6  125.59    9.00
   1   4   6  127.19    9.00
  -1   4  -6   96.19    7.80
  -1   4  -6  121.59    8.10
  -1   4  -6  112.29    9.80
   1   4   6  112.29    6.00
   1   4   6  115.19    6.00
   2  -4   6  459.75   27.50
  -2  -4  -6  476.35   25.10
  -2  -4  -6  488.65   27.50
   2  -4   6  458.15   28.20
   2  -4   6  459.95   25.50
  -2  -4  -6  477.45   23.20
   2  -4   6  509.55   28.60
  -2  -4  -6  496.55   27.40
  -2  -4  -6  466.15   25.10
   2   4   6  479.15   24.00
  -2   4  -6  495.05   25.40
  -2   4  -6  486.85   26.50
   2   4   6  458.25   26.90
  -2   4  -6  500.75   28.40
  -2   4  -6  528.85   26.30
  -2   4  -6  510.65   25.50
   3  -4   6  102.49    8.30
   3  -4   6   87.69   10.10
  -3  -4  -6   72.69    9.00
   3  -4   6   85.39   10.40
  -3  -4  -6   95.69    9.90
   3  -4   6   91.79   10.80
  -3  -4  -6   89.29    8.00
   3   4   6   93.89    6.80
  -3   4  -6   79.29    8.30
  -3   4  -6   88.09    7.20
  -3   4  -6   93.99    7.50
  -3   4  -6  101.29    7.60
   3   4   6   94.89    9.30
   3   4   6   89.39    6.80
  -3   4  -6   94.79    9.60
   4  -4   6    2.00    3.70
  -4  -4  -6    2.20    3.50
  -4  -4  -6    4.90    2.60
   4  -4   6    5.40    4.00
   4  -4   6    4.40    2.40
   4   4   6    8.20    2.60
  -4   4  -6    1.90    1.60
   4   4   6    4.70    2.30
  -4   4  -6    4.70    3.20
  -4   4  -6    5.20    2.20
   5  -4   6   63.29    9.00
  -5  -4  -6   54.59    8.90
  -5  -4  -6   54.29    7.20
   5  -4   6   63.39    7.60
   5  -4   6   59.09    9.50
  -5   4  -6   66.59    6.80
  -5   4  -6   54.89    7.40
   5   4   6   63.19    6.80
  -6  -4  -6  205.08   17.90
   6  -4   6  203.18   14.40
   6  -4   6  187.98   15.30
  -6  -4  -6  188.08   14.60
   6  -4   6  182.78   16.70
  -6   4  -6  174.78   12.30
  -6   4  -6  190.68   13.80
   6   4   6  202.08   13.30
  -7  -5   6  168.48   16.10
   7  -5  -6  138.59   10.70
  -7  -5   6  143.19   14.50
   7   5  -6  153.08   12.60
   6  -5  -6  106.39    8.80
   6  -5  -6  113.09   10.50
  -6  -5   6  131.69   13.20
  -6  -5   6  112.39   11.20
   6   5  -6  115.89   10.70
   6   5  -6  116.19    9.80
  -5  -5   6   44.10    8.30
  -5  -5   6   21.50    5.10
   5  -5  -6   19.40    4.30
   5  -5  -6   25.70    4.00
   5   5  -6   23.30    4.50
   5   5  -6   17.30    4.90
   4  -5  -6   17.70    3.10
   4  -5  -6   19.30    2.90
  -4  -5   6   10.00    3.30
  -4  -5   6   12.90    5.20
   4  -5  -6   18.60    3.30
   4  -5  -6   18.20    3.80
  -4  -5   6   11.00    3.70
   4  -5  -6   21.40    3.80
   4   5  -6   20.00    3.90
   4   5  -6   15.60    4.30
  -3  -5   6  185.58   14.60
   3  -5  -6  167.98   11.60
  -3  -5   6  182.88   13.80
   3  -5  -6  177.18   11.40
  -3  -5   6  192.18   14.90
   3  -5  -6  170.38   10.50
   3  -5  -6  209.38   10.80
  -3  -5   6  177.98   12.20
   3  -5  -6  166.38   10.30
   3   5  -6  202.08   14.10
   3   5  -6  195.58   12.30
   3   5  -6  194.18   12.30
   2  -5  -6  180.78   11.60
   2  -5  -6  181.98   10.90
  -2  -5   6  189.88   14.20
   2  -5  -6  147.19   10.70
  -2  -5   6  190.28   12.20
  -2  -5   6  204.38   14.70
  -2  -5   6  163.18   12.90
   2  -5  -6  185.18   10.30
   2  -5  -6  176.98   10.20
   2   5  -6  165.58   10.80
   2   5  -6  177.98   13.00
   2   5  -6  178.98   10.80
   2   5  -6  180.28   13.00
   1  -5  -6  337.97   18.00
   1  -5  -6  357.36   19.50
  -1  -5   6  356.16   19.80
   1  -5  -6  354.26   19.00
  -1  -5   6  322.37   21.30
  -1  -5   6  334.77   21.90
  -1  -5   6  352.86   22.10
   1  -5  -6  350.56   17.90
   1  -5  -6  373.36   19.10
   1   5  -6  374.46   21.20
   1   5  -6  344.47   19.70
   1   5  -6  354.86   20.90
   1   5  -6  360.76   18.60
   1   5  -6  310.97   18.10
   0  -5   6  679.83   37.50
   0  -5  -6  686.63   33.50
   0  -5   6  666.83   37.40
   0  -5  -6  664.03   34.90
   0  -5   6  719.83   37.80
   0  -5   6  697.23   34.90
   0  -5  -6  700.13   33.40
   0  -5  -6  691.93   35.10
   0   5  -6  690.93   32.70
   0   5  -6  631.94   34.80
   0   5  -6  665.63   32.50
   0   5  -6  675.33   35.40
   0   5  -6  660.93   34.20
  -1  -5  -6  505.15   27.90
  -1  -5  -6  531.45   28.30
   1  -5   6  498.95   27.30
  -1  -5  -6  521.65   26.50
   1  -5   6  548.85   30.40
   1  -5   6  463.75   29.30
   1  -5   6  531.25   30.00
  -1  -5  -6  540.85   26.50
  -1  -5  -6  524.95   26.50
  -1   5  -6  499.15   28.30
  -1   5  -6  551.74   29.20
  -1   5  -6  564.94   26.50
   1   5   6  514.35   26.70
  -1   5  -6  527.95   28.50
  -1   5  -6  530.05   26.40
  -2  -5  -6   76.09    5.00
   2  -5   6   70.89    9.40
  -2  -5  -6   67.39    7.20
   2  -5   6   64.39    9.00
   2  -5   6   74.79    7.60
   2  -5   6   83.29    8.90
  -2  -5  -6   73.89    7.10
  -2  -5  -6   81.29    8.30
  -2   5  -6   79.59    7.10
  -2   5  -6   65.69    8.00
   2   5   6   72.79    6.80
  -2   5  -6   74.79    5.60
  -2   5  -6   63.09    7.50
  -2   5  -6   57.39    5.40
  -3  -5  -6  110.99    9.20
   3  -5   6  112.19   12.20
   3  -5   6  110.29    9.50
  -3  -5  -6  117.29   10.40
  -3  -5  -6  124.09   11.30
   3  -5   6  114.09   11.10
   3  -5   6  109.69   13.70
  -3   5  -6  123.69    8.90
  -3   5  -6  112.99    8.00
  -3   5  -6  138.59   10.40
  -4  -5  -6   69.69    7.80
   4  -5   6   73.89    9.90
   4  -5   6   73.29    8.10
  -4  -5  -6   63.79    9.30
   4  -5   6   82.89   10.30
  -4   5  -6   70.09    5.90
  -4   5  -6   58.69    7.60
   5  -5   6   27.80    6.60
   5  -5   6   20.20    4.90
  -5  -5  -6   22.70    6.30
   5  -5   6   27.80    6.80
  -5  -5  -6   32.50    5.50
  -5   5  -6   35.70    5.80
  -5   5  -6   28.70    4.20
   5   5   6   29.50    4.30
  -6  -5  -6  134.49   14.00
   6  -5   6  129.59   11.30
  -6  -5  -6  123.09   12.20
   6  -5   6  104.19   12.50
   6  -5   6  122.79   13.00
   6  -6  -6  115.99   11.30
  -6  -6   6  118.19   12.70
  -6  -6   6  134.39   12.60
   6   6  -6  112.19   11.90
  -5  -6   6  143.49   14.80
  -5  -6   6  160.58   12.70
   5  -6  -6  171.08   11.80
   5   6  -6  144.49   12.50
  -4  -6   6   96.49   10.20
   4  -6  -6   69.29    6.40
   4  -6  -6   77.19    7.10
  -4  -6   6   76.99   10.60
  -4  -6   6   82.09    8.80
   4   6  -6   67.39    8.60
   3  -6  -6  348.77   19.20
  -3  -6   6  386.86   20.80
   3  -6  -6  315.27   17.60
  -3  -6   6  375.66   23.40
  -3  -6   6  340.67   21.70
   3  -6  -6  342.67   18.30
   3  -6  -6  325.17   18.70
   3   6  -6  331.57   21.20
   3   6  -6  332.57   18.00
  -2  -6   6   69.99    7.60
  -2  -6   6   85.29    9.00
   2  -6  -6   69.09    5.30
   2  -6  -6   68.99    5.50
  -2  -6   6   76.59    9.10
   2  -6  -6   79.99    5.40
   2  -6  -6   72.59    5.90
   2   6  -6   68.29    5.60
   2   6  -6   74.89    9.20
  -1  -6   6  154.78   12.20
  -1  -6   6  142.69   11.90
   1  -6  -6  142.99    8.50
   1  -6  -6  126.19    8.70
  -1  -6   6  138.39   10.30
  -1  -6   6  150.78   12.70
   1  -6  -6  134.99    8.30
   1  -6  -6  140.79    9.10
   1   6  -6  145.39   12.10
   1   6  -6  146.99   11.10
   0  -6  -6   81.59    7.00
   0  -6   6   69.39    9.00
   0  -6  -6   93.29    7.10
   0  -6   6   85.39   10.30
   0  -6  -6   89.29    6.20
   0  -6   6   76.39    9.30
   0  -6   6   85.89    7.30
   0  -6  -6   80.29    6.10
   0   6  -6   96.19   10.10
   0   6  -6   68.19    8.60
   0   6  -6   86.19    8.40
   1  -6   6  141.59   10.40
  -1  -6  -6  143.59    9.50
  -1  -6  -6  136.99   10.20
  -1  -6  -6  143.79   10.00
   1  -6   6  138.09   12.20
  -1  -6  -6  164.78    9.80
  -1  -6  -6  146.39   10.60
   1  -6   6  144.99   12.60
   1  -6   6  174.58   13.30
  -1  -6  -6  135.29    9.40
  -1   6  -6  154.18   11.60
  -1   6  -6  133.79   11.00
  -2  -6  -6   20.80    4.80
  -2  -6  -6   30.10    5.20
   2  -6   6   29.40    6.10
   2  -6   6   36.50    7.00
  -2  -6  -6   28.00    4.40
   2  -6   6   22.10    4.00
  -2   6  -6   30.50    5.50
  -2   6  -6   22.30    4.30
   2   6   6   27.80    3.60
  -2   6  -6   19.60    2.70
   3  -6   6   20.80    5.40
  -3  -6  -6   16.20    4.20
   3  -6   6   10.90    3.70
  -3  -6  -6   19.00    3.90
   3  -6   6   16.10    4.80
  -3   6  -6   13.90    4.60
  -3   6  -6   15.40    3.80
   4  -6   6  145.39   13.80
  -4  -6  -6  158.18   13.80
  -4  -6  -6  142.09   11.60
   4  -6   6  178.68   15.20
   4  -6   6  153.18   11.60
  -4   6  -6  129.49   10.80
   5  -6   6  117.59   12.80
   5  -6   6  113.29   11.40
  -5  -6  -6  142.69   11.60
   5  -6   6  141.59   13.00
  -5  -6  -6  118.49   12.80
  -5   6  -6  124.59   11.90
  -5  -7   6   26.10    5.20
  -5  -7   6   33.60    7.70
   5  -7  -6   39.90    5.50
   4  -7  -6  472.35   24.40
  -4  -7   6  476.95   29.90
  -4  -7   6  487.25   28.50
  -4  -7   6  479.45   27.20
   4  -7  -6  503.45   25.10
   4   7  -6  468.65   28.50
  -3  -7   6    3.70    3.00
   3  -7  -6    4.20    1.40
  -3  -7   6   10.80    3.80
   3  -7  -6    5.70    1.60
  -3  -7   6    1.60    3.50
   3   7  -6    7.80    3.60
   2  -7  -6   29.50    2.50
  -2  -7   6   24.60    5.50
  -2  -7   6   21.60    5.80
   2  -7  -6   28.90    2.80
  -2  -7   6   27.10    4.90
   2   7  -6   44.00    7.20
   1  -7  -6  302.77   15.90
  -1  -7   6  309.77   20.50
  -1  -7   6  304.97   18.40
   1  -7  -6  327.07   15.90
  -1  -7   6  301.07   20.40
   1   7  -6  280.47   19.00
   0  -7   6  101.99   11.60
   0  -7   6  118.29   10.80
   0  -7   6  107.99    8.50
   0  -7  -6  105.09    7.50
   0  -7  -6  105.29    7.50
   0  -7  -6  108.19    9.00
   0   7  -6  103.69    9.80
   0   7  -6   92.69    9.90
   1  -7   6  239.08   17.30
  -1  -7  -6  217.58   13.40
   1  -7   6  213.18   13.70
   1  -7   6  201.48   15.90
  -1  -7  -6  224.08   13.90
  -1   7  -6  213.68   15.10
  -1   7  -6  215.58   14.80
  -2  -7  -6  282.57   17.90
   2  -7   6  291.97   19.70
   2  -7   6  268.67   20.10
   2  -7   6  297.37   17.50
  -2   7  -6  274.77   17.10
  -2   7  -6  252.97   17.20
   3  -7   6   24.50    4.80
  -3  -7  -6   20.60    4.00
  -3  -7  -6   21.00    5.00
   3  -7   6   27.50    6.70
   3  -7   6   21.30    5.00
  -3   7  -6   21.70    4.20
  -3   7  -6   21.00    5.10
  -4  -7  -6   86.79    9.40
   4  -7   6  113.69    9.50
  -3  -8   6  121.19   11.30
   3  -8  -6  118.59   11.60
  -3  -8   6  116.69    9.90
   2  -8  -6   32.10    6.30
  -2  -8   6   41.70    6.90
  -2  -8   6   31.30    5.30
  -2  -8   6   34.30    6.60
   2   8  -6   33.50    6.80
  -1  -8   6   10.50    3.60
  -1  -8   6    5.50    3.40
  -1  -8   6    4.00    3.80
   1  -8  -6    5.40    2.70
   1   8  -6   14.60    4.80
   0  -8  -6  178.98   10.00
   0  -8  -6  185.78   10.00
   0  -8   6  192.18   15.80
   0  -8   6  172.88   14.20
   0  -8   6  200.28   13.00
   0   8  -6  167.58   13.70
   1  -8   6  215.58   17.90
   1  -8   6  154.88   13.40
  -1  -8  -6  177.08   11.20
   1  -8   6  174.38   15.00
  -1   8  -6  146.09   12.10
  -1   8  -6  167.98   13.10
   2  -8   6   10.30    5.10
  -2   8  -6   20.00    4.30
   8   0  -7   95.19   12.80
  -8   0   7   99.49   10.00
   8   0  -7   92.49   10.40
   7   0  -7  248.08   17.10
  -7   0   7  286.27   17.70
   7   0  -7  279.17   20.10
  -6   0   7   -3.10    2.40
   6   0  -7    1.00    2.60
   6   0  -7   -1.60    3.40
  -6   0   7    1.00    3.30
   6   0  -7   -3.30    2.30
   5   0  -7   42.90    5.80
   5   0  -7   69.49    9.40
  -5   0   7   62.79    8.60
   5   0  -7   54.09    8.30
  -5   0   7   57.29    6.70
   4   0  -7  272.17   16.70
   4   0  -7  300.37   19.70
   4   0  -7  293.87   19.00
  -4   0   7  264.97   16.50
  -4   0   7  278.37   16.50
  -4   0   7  291.57   19.20
  -4   0   7  290.57   19.10
   3   0  -7   12.50    3.20
  -3   0   7    6.70    2.50
   3   0  -7    7.60    3.00
  -3   0   7   11.80    3.50
  -3   0   7    9.60    3.40
  -3   0   7    6.40    2.60
   3   0  -7   10.50    3.40
   3   0  -7    6.50    2.60
   3   0  -7    8.50    3.90
   2   0  -7 1346.57   67.09
  -2   0   7 1494.55   68.39
   2   0  -7 1401.66   65.79
   2   0  -7 1209.58   67.69
  -2   0   7 1414.46   65.79
   2   0  -7 1394.66   62.79
   2   0  -7 1435.96   65.89
   2   0  -7 1251.27   67.39
  -2   0   7 1540.05   65.99
  -2   0   7 1375.26   67.99
   1   0  -7  332.07   17.00
  -1   0   7  283.97   17.60
  -1   0   7  288.97   18.30
   1   0  -7  298.47   19.00
  -1   0   7  305.37   18.60
   1   0  -7  265.37   16.10
   1   0  -7  282.37   14.50
   1   0  -7  289.47   17.30
  -1   0   7  269.37   16.20
  -1   0   7  293.97   16.30
   1   0  -7  286.37   18.30
   0   0  -7   51.99    6.00
   0   0   7   58.89    7.70
   0   0  -7   73.89    6.90
   0   0  -7   57.39    6.40
   0   0  -7   51.89    7.20
   0   0   7   50.69    7.10
   0   0   7   69.69    6.70
   0   0  -7   53.29    7.40
   0   0   7   68.59    6.40
   0   0   7   65.89    7.20
  -1   0  -7  646.24   33.40
   1   0   7  641.74   33.20
  -1   0  -7  695.43   33.40
   1   0   7  658.43   33.70
  -1   0  -7  658.83   35.90
   1   0   7  647.24   33.00
  -1   0  -7  651.13   33.60
   1   0   7  659.73   35.80
  -1   0  -7  603.04   35.70
   1   0   7  686.23   36.40
   2   0   7  359.86   20.00
  -2   0  -7  332.37   19.60
   2   0   7  379.06   23.10
  -2   0  -7  323.67   19.90
  -2   0  -7  385.96   20.20
   2   0   7  388.36   20.40
   2   0   7  351.16   20.10
  -2   0  -7  316.67   21.90
  -2   0  -7  375.56   23.10
   2   0   7  358.06   23.00
   3   0   7   55.09    8.20
  -3   0  -7   50.39    6.20
  -3   0  -7   64.89    7.40
   3   0   7   61.79    7.00
  -3   0  -7   61.99    8.60
   3   0   7   58.69    6.60
   3   0   7   62.79    8.80
  -3   0  -7   67.69    9.30
   4   0   7   67.09    7.60
  -4   0  -7   44.10    7.70
  -4   0  -7   40.40    6.10
  -4   0  -7   49.30    8.00
   4   0   7   44.20    8.20
  -4   0  -7   53.39    6.20
   4   0   7   29.00    7.00
   4   0   7   40.80    5.70
   5   0   7  105.19   11.00
   5   0   7   83.79   11.60
  -5   0  -7   90.59   12.10
   5   0   7   70.99    8.40
  -5   0  -7   95.39    9.50
   5   0   7   75.89    7.30
  -5   0  -7   74.79   10.30
  -6   0  -7  119.29   11.50
   6   0   7  118.99    9.30
   6   0   7  129.09   11.10
   6   0   7  126.09   14.90
  -6   0  -7   92.79   13.00
  -7   0  -7   18.20    5.50
   7   0   7   29.00    5.80
   8  -1  -7   74.19   10.60
  -8  -1   7  106.19   10.60
   8  -1  -7   94.19    9.80
   8   1  -7  112.79   11.30
  -8   1   7  114.99    9.90
   8   1  -7   91.29    8.90
   8   1  -7  122.79   14.40
   7  -1  -7  181.08   13.50
   7  -1  -7  188.48   16.00
  -7  -1   7  179.58   13.20
  -7   1   7  199.38   13.30
   7   1  -7  198.08   16.70
   7   1  -7  181.08   13.20
   7   1  -7  175.78   13.30
   6  -1  -7  175.68   14.90
  -6  -1   7  171.78   12.60
   6  -1  -7  195.38   13.20
  -6  -1   7  175.38   15.20
  -6   1   7  168.78   12.00
   6   1  -7  208.48   13.60
   6   1  -7  166.78   15.30
   6   1  -7  194.18   16.30
  -5  -1   7    6.00    1.10
   5  -1  -7    2.40    3.30
  -5  -1   7    1.40    2.10
   5  -1  -7    2.90    2.10
  -5  -1   7    4.30    2.90
   5  -1  -7    1.70    3.40
  -5  -1   7    1.30    2.60
  -5   1   7   -1.20    1.40
   5   1  -7   -1.10    2.50
  -5   1   7   -0.30    2.10
  -5   1   7    4.40    3.00
   5   1  -7   10.80    3.80
   5   1  -7    6.60    4.20
   4  -1  -7  244.68   15.90
  -4  -1   7  254.77   16.00
  -4  -1   7  315.07   19.40
   4  -1  -7  258.27   17.70
  -4  -1   7  264.97   12.90
  -4  -1   7  267.97   18.50
   4  -1  -7  294.07   18.80
  -4   1   7  236.98   14.60
   4   1  -7  237.38   17.40
  -4   1   7  259.07   17.40
   4   1  -7  250.77   15.30
   4   1  -7  273.27   18.00
  -4   1   7  257.67   14.80
   3  -1  -7   40.20    6.30
   3  -1  -7   46.50    5.30
   3  -1  -7   35.30    5.90
  -3  -1   7   43.30    5.30
  -3  -1   7   47.80    7.10
   3  -1  -7   41.40    5.10
  -3  -1   7   41.80    6.50
   3  -1  -7   42.50    6.20
  -3  -1   7   42.70    5.50
   3   1  -7   54.09    5.90
  -3   1   7   46.50    6.70
   3   1  -7   39.30    6.60
  -3   1   7   56.09    5.60
  -3   1   7   46.40    5.20
   3   1  -7   38.00    5.00
   3   1  -7   35.20    5.90
  -3   1   7   33.50    5.90
   3   1  -7   39.90    6.10
   2  -1  -7  585.24   30.40
   2  -1  -7  519.75   27.50
   2  -1  -7  504.15   29.30
  -2  -1   7  511.15   27.70
  -2  -1   7  517.55   27.80
   2  -1  -7  551.34   27.70
   2  -1  -7  550.94   24.50
  -2  -1   7  477.35   29.60
  -2  -1   7  568.54   29.70
  -2  -1   7  550.84   30.40
   2  -1  -7  586.74   29.60
  -2   1   7  551.24   27.40
   2   1  -7  523.85   30.30
   2   1  -7  579.94   30.50
   2   1  -7  494.45   28.90
   2   1  -7  589.44   28.20
   2   1  -7  512.25   27.70
  -2   1   7  517.25   29.30
   2   1  -7  516.75   25.50
  -2   1   7  570.64   29.80
  -2   1   7  541.65   27.20
   1  -1  -7  373.56   20.30
   1  -1  -7  332.47   18.90
  -1  -1   7  325.37   21.10
  -1  -1   7  315.17   20.00
  -1  -1   7  336.97   19.00
  -1  -1   7  341.97   19.10
   1  -1  -7  367.96   19.00
   1  -1  -7  361.36   20.90
  -1  -1   7  361.76   21.50
   1  -1  -7  339.97   21.20
   1   1  -7  363.96   19.60
   1   1  -7  370.86   20.90
   1   1  -7  333.77   21.80
   1   1  -7  336.97   17.60
   1   1  -7  325.77   19.10
  -1   1   7  341.97   20.60
  -1   1   7  368.46   21.40
  -1   1   7  359.46   18.80
  -1   1   7  342.97   18.90
   1   1  -7  400.86   22.10
   0  -1   7  713.83   35.90
   0  -1   7  691.23   35.90
   0  -1  -7  772.92   36.70
   0  -1  -7  696.73   35.80
   0  -1   7  685.13   38.40
   0  -1  -7  686.93   38.10
   0  -1   7  740.93   37.40
   0  -1  -7  744.53   38.20
   0  -1  -7  713.63   35.70
   0  -1   7  751.32   38.70
   0   1   7  660.33   35.40
   0   1  -7  653.03   33.80
   0   1   7  627.64   35.30
   0   1  -7  677.73   36.40
   0   1  -7  696.63   34.00
   0   1   7  679.33   33.50
   0   1   7  703.13   33.20
   0   1  -7  623.04   34.50
   0   1  -7  759.72   37.40
   0   1  -7  644.44   32.50
   1  -1   7  495.95   25.10
  -1  -1  -7  454.55   23.70
   1  -1   7  430.66   26.40
  -1  -1  -7  447.46   23.50
  -1  -1  -7  427.36   23.60
  -1  -1  -7  417.46   25.60
   1  -1   7  400.46   23.40
   1  -1   7  448.26   26.40
   1  -1   7  434.76   23.80
  -1  -1  -7  465.45   26.20
  -1   1  -7  438.96   24.20
   1   1   7  452.45   23.80
   1   1   7  486.45   26.60
   1   1   7  454.15   24.40
  -1   1  -7  420.86   26.70
   1   1   7  429.26   26.60
  -1   1  -7  518.25   25.80
   1   1   7  440.96   23.90
  -1   1  -7  478.85   27.10
  -1   1  -7  456.25   24.40
   2  -1   7  683.43   35.40
   2  -1   7  641.14   37.80
  -2  -1  -7  681.63   35.00
   2  -1   7  670.83   37.60
  -2  -1  -7  644.14   34.00
  -2  -1  -7  701.93   35.00
  -2  -1  -7  744.73   38.00
  -2  -1  -7  705.23   37.60
   2  -1   7  672.63   35.00
   2  -1   7  697.63   35.10
   2   1   7  731.53   34.60
  -2   1  -7  632.34   37.10
  -2   1  -7  666.73   37.30
  -2   1  -7  738.03   35.70
   2   1   7  645.24   36.90
   2   1   7  667.73   37.50
   2   1   7  727.43   34.50
  -2   1  -7  644.74   34.70
   2   1   7  659.83   34.20
  -2   1  -7  687.13   34.70
  -3  -1  -7  517.65   31.80
   3  -1   7  529.55   29.10
  -3  -1  -7  556.94   32.10
  -3  -1  -7  569.34   29.50
   3  -1   7  526.55   31.90
   3  -1   7  555.44   32.60
  -3  -1  -7  565.04   28.20
   3  -1   7  537.25   29.60
   3   1   7  525.65   31.50
  -3   1  -7  532.25   29.20
   3   1   7  556.94   31.60
  -3   1  -7  531.55   31.60
   3   1   7  520.15   28.60
  -3   1  -7  610.14   32.90
   3   1   7  544.55   28.00
  -3   1  -7  543.35   29.10
   4  -1   7  527.05   34.50
   4  -1   7  556.34   31.90
  -4  -1  -7  634.44   30.50
  -4  -1  -7  565.44   31.90
   4  -1   7  643.74   35.80
   4  -1   7  622.34   32.40
  -4  -1  -7  655.33   36.30
  -4  -1  -7  595.74   34.80
   4   1   7  631.24   35.00
   4   1   7  609.74   31.10
   4   1   7  589.44   29.70
  -4   1  -7  550.74   30.80
  -4   1  -7  571.44   34.20
  -4   1  -7  520.75   30.60
  -4   1  -7  598.94   34.40
  -5  -1  -7  149.88   14.40
   5  -1   7  151.98   14.80
   5  -1   7  175.18   12.30
  -5  -1  -7  135.09    9.90
   5  -1   7  126.29   11.40
  -5  -1  -7  153.18   11.80
   5  -1   7  172.38   15.40
  -5  -1  -7  130.29   13.70
   5   1   7  174.28   16.10
  -5   1  -7  171.08   13.20
  -5   1  -7  173.88   15.90
   5   1   7  183.68   13.30
   5   1   7  171.58   11.20
   6  -1   7  230.78   15.90
  -6  -1  -7  248.28   17.00
   6  -1   7  244.48   16.50
  -6  -1  -7  233.88   19.60
   6  -1   7  251.37   20.50
   6   1   7  243.28   16.50
  -6   1  -7  255.97   17.20
   7  -1   7  245.48   17.40
   7  -1   7  231.28   24.00
  -7  -1  -7  236.18   17.20
  -7   1  -7  199.88   15.40
   7   1   7  219.08   15.80
   8  -2  -7   58.19    9.50
  -8  -2   7   65.79    8.30
   8  -2  -7   65.89    8.40
   8   2  -7   54.99    7.00
   8   2  -7   55.39    8.50
   7  -2  -7   87.79    9.00
   7  -2  -7   95.29   11.60
  -7  -2   7  105.19   16.00
  -7  -2   7   79.59    9.30
   7   2  -7   86.89    9.10
  -7   2   7   88.89    7.80
   7   2  -7   79.69   11.30
   7   2  -7   98.89    9.90
   6  -2  -7  141.69   12.80
  -6  -2   7  143.39   11.40
  -6  -2   7  136.79   13.90
   6  -2  -7  140.49   10.70
  -6   2   7  131.19    9.60
   6   2  -7  139.39   11.30
   6   2  -7  131.69   12.90
  -6   2   7  128.19    9.60
   6   2  -7  149.09   13.80
   6   2  -7  149.88   11.30
  -5  -2   7  662.53   35.50
   5  -2  -7  569.84   33.00
   5  -2  -7  625.24   34.30
   5  -2  -7  588.84   30.90
  -5  -2   7  525.35   31.20
  -5  -2   7  616.04   35.10
  -5   2   7  578.94   33.40
   5   2  -7  665.73   36.00
  -5   2   7  627.94   31.10
   5   2  -7  617.54   32.70
  -5   2   7  586.84   30.80
   5   2  -7  631.24   36.20
   4  -2  -7  356.06   22.20
  -4  -2   7  366.66   17.70
  -4  -2   7  332.47   22.20
  -4  -2   7  325.57   22.20
   4  -2  -7  343.87   21.20
  -4  -2   7  342.47   20.40
   4  -2  -7  389.86   20.00
   4   2  -7  404.46   21.30
   4   2  -7  375.16   24.20
  -4   2   7  387.96   19.80
  -4   2   7  357.96   19.70
   4   2  -7  344.77   23.20
  -4   2   7  367.66   21.80
   3  -2  -7  196.78   14.50
  -3  -2   7  220.38   15.30
   3  -2  -7  202.18   12.10
  -3  -2   7  191.08   12.60
  -3  -2   7  188.78   10.60
  -3  -2   7  181.68   13.60
   3  -2  -7  194.68   13.70
  -3  -2   7  206.18   15.10
   3  -2  -7  204.48   12.20
  -3   2   7  226.18   12.50
   3   2  -7  219.78   15.80
  -3   2   7  184.48   13.70
   3   2  -7  220.08   15.70
   3   2  -7  226.88   13.60
  -3   2   7  210.28   12.20
   2  -2  -7  198.08   13.20
  -2  -2   7  191.78   10.40
  -2  -2   7  187.98   14.50
   2  -2  -7  188.28   11.40
  -2  -2   7  166.88   13.50
   2  -2  -7  191.98    9.30
  -2  -2   7  177.98   11.80
   2  -2  -7  184.48   11.40
   2  -2  -7  188.28   13.50
  -2  -2   7  192.98   13.80
  -2  -2   7  175.78   11.90
   2  -2  -7  180.58   13.00
   2   2  -7  176.68   10.10
  -2   2   7  187.28   12.50
   2   2  -7  146.89   12.00
   2   2  -7  193.78   14.30
   2   2  -7  181.08   11.70
   2   2  -7  184.98   13.80
  -2   2   7  198.88   10.80
  -2   2   7  167.38   10.40
   2   2  -7  166.58   11.20
  -2   2   7  187.68   12.80
  -1  -2   7 1022.40   50.69
   1  -2  -7 1066.29   52.19
  -1  -2   7 1013.50   52.19
   1  -2  -7 1029.60   52.49
   1  -2  -7 1060.09   50.19
  -1  -2   7 1114.59   53.79
   1  -2  -7 1062.99   51.49
  -1  -2   7  996.10   50.49
   1  -2  -7 1080.69   49.99
  -1  -2   7  970.60   52.89
   1   2  -7 1125.29   55.29
  -1   2   7 1050.39   50.39
   1   2  -7 1142.09   51.99
   1   2  -7 1002.30   51.39
  -1   2   7 1107.59   53.19
  -1   2   7 1042.10   52.79
   1   2  -7 1047.90   53.19
  -1   2   7 1086.29   50.69
   1   2  -7 1089.39   54.19
   1   2  -7 1016.10   50.29
   0  -2  -7  422.96   23.70
   0  -2   7  407.16   21.80
   0  -2   7  374.46   22.80
   0  -2   7  375.26   24.00
   0  -2  -7  398.86   21.30
   0  -2   7  402.06   24.30
   0  -2  -7  402.96   21.40
   0  -2   7  413.36   22.00
   0  -2  -7  397.16   21.90
   0  -2  -7  404.76   23.50
   0   2   7  414.46   21.70
   0   2  -7  382.06   22.30
   0   2  -7  391.96   22.20
   0   2  -7  457.25   25.30
   0   2   7  418.56   24.00
   0   2  -7  396.06   21.60
   0   2   7  455.05   21.70
   0   2  -7  465.65   24.20
   0   2  -7  403.66   25.00
   0   2   7  429.56   24.10
   1  -2   7  116.19    8.90
  -1  -2  -7  125.39    8.70
  -1  -2  -7  132.79   10.90
   1  -2   7  125.99   11.00
  -1  -2  -7  133.19   11.00
   1  -2   7   98.49    9.70
   1  -2   7  121.79   11.10
  -1  -2  -7  138.19    9.20
   1  -2   7  103.69    8.90
  -1  -2  -7  125.59    8.80
   1   2   7  118.89    8.30
   1   2   7  136.19   10.70
  -1   2  -7  124.09    9.30
   1   2   7  120.29    8.20
  -1   2  -7  128.69   11.00
  -1   2  -7  140.59   10.50
  -1   2  -7  114.59   10.90
  -1   2  -7  123.39    9.10
  -1   2  -7  119.69    8.40
  -2  -2  -7  266.87   15.20
  -2  -2  -7  294.07   19.10
   2  -2   7  267.07   19.00
   2  -2   7  274.17   17.50
  -2  -2  -7  262.47   16.30
   2  -2   7  285.17   19.50
   2  -2   7  299.17   16.90
  -2  -2  -7  242.08   17.90
  -2   2  -7  291.37   16.60
   2   2   7  297.27   16.30
   2   2   7  273.17   18.50
  -2   2  -7  265.27   17.70
  -2   2  -7  263.67   16.60
  -2   2  -7  273.67   16.80
  -2   2  -7  286.77   19.40
  -2   2  -7  309.87   19.60
   2   2   7  326.87   19.80
   2   2   7  280.47   16.20
  -3  -2  -7   11.40    2.50
  -3  -2  -7   13.10    4.30
  -3  -2  -7   11.70    3.20
  -3  -2  -7   16.50    4.80
   3  -2   7   11.80    4.30
   3  -2   7   15.30    4.70
   3  -2   7   11.20    3.70
   3  -2   7   14.30    4.20
   3   2   7   16.10    3.00
  -3   2  -7   11.80    4.10
   3   2   7   15.40    4.50
  -3   2  -7   20.10    3.70
   3   2   7   13.30    3.50
  -3   2  -7   15.70    4.80
  -3   2  -7   13.60    3.30
   3   2   7   16.50    3.60
  -4  -2  -7  221.78   14.80
  -4  -2  -7  234.58   17.30
  -4  -2  -7  217.78   12.10
   4  -2   7  222.58   15.20
   4  -2   7  209.48   14.50
   4  -2   7  214.98   17.30
   4  -2   7  185.88   16.40
  -4  -2  -7  197.68   16.60
   4   2   7  222.08   14.00
  -4   2  -7  212.28   14.30
   4   2   7  204.68   12.00
  -4   2  -7  194.28   13.90
  -4   2  -7  223.18   17.30
   4   2   7  231.08   17.40
  -5  -2  -7   15.20    4.60
   5  -2   7   17.60    4.60
  -5  -2  -7   19.10    6.50
   5  -2   7   28.20    5.50
   5  -2   7   33.00    7.90
   5   2   7   18.80    3.30
   5   2   7   15.00    4.30
  -5   2  -7   22.00    4.30
  -5   2  -7   12.90    5.10
  -6  -2  -7   18.10    5.10
  -6  -2  -7   13.60    5.30
   6  -2   7   19.90    4.70
   6  -2   7   16.50    5.70
   6  -2   7   13.90    4.30
  -6   2  -7    9.80    3.40
   6   2   7    7.50    3.90
   7  -2   7  231.18   20.20
  -7  -2  -7  202.68   18.90
   7  -2   7  197.58   15.10
  -7   2  -7  217.68   15.10
   7   2   7  185.28   14.70
   7  -3  -7   21.80    4.80
   7  -3  -7   32.30    6.90
  -7  -3   7   26.80    5.20
  -7  -3   7   31.00    7.40
   7   3  -7   20.60    4.80
   7   3  -7   18.80    5.00
   6  -3  -7  484.75   26.70
   6  -3  -7  454.25   28.50
  -6  -3   7  473.85   27.50
  -6  -3   7  539.85   31.60
   6   3  -7  468.85   30.10
  -6   3   7  482.15   24.80
   6   3  -7  495.85   27.20
   6   3  -7  515.15   28.10
   5  -3  -7  367.96   22.60
   5  -3  -7  380.26   22.50
  -5  -3   7  330.77   23.40
  -5  -3   7  367.96   18.80
   5  -3  -7  329.37   19.90
  -5  -3   7  359.66   23.90
  -5  -3   7  365.66   21.20
   5   3  -7  350.76   21.10
   5   3  -7  354.46   24.10
  -5   3   7  387.46   19.30
  -5   3   7  381.36   24.40
   5   3  -7  380.86   22.60
   4  -3  -7  534.65   27.90
   4  -3  -7  524.45   29.70
  -4  -3   7  563.34   29.50
  -4  -3   7  568.34   27.00
  -4  -3   7  497.75   31.10
   4  -3  -7  558.14   30.50
  -4  -3   7  535.85   31.70
   4   3  -7  556.54   29.50
  -4   3   7  541.65   27.00
  -4   3   7  567.74   30.00
   4   3  -7  527.95   31.60
   4   3  -7  604.14   33.30
   3  -3  -7  199.88   12.10
   3  -3  -7  200.98    9.90
   3  -3  -7  204.88   14.00
   3  -3  -7  209.28   12.20
  -3  -3   7  182.88   12.70
  -3  -3   7  192.38   14.60
   3  -3  -7  201.08   13.50
  -3  -3   7  194.98   15.10
  -3  -3   7  196.28   11.40
  -3  -3   7  179.38   14.80
  -3   3   7  202.58   10.80
   3   3  -7  205.38   15.30
   3   3  -7  190.28   12.60
   3   3  -7  198.48   15.70
  -3   3   7  214.08   11.10
  -3   3   7  202.28   13.20
  -2  -3   7  680.93   37.40
   2  -3  -7  716.13   33.30
   2  -3  -7  679.53   35.10
   2  -3  -7  678.63   31.60
  -2  -3   7  732.83   37.60
   2  -3  -7  686.93   35.80
  -2  -3   7  631.54   35.70
  -2  -3   7  656.43   32.80
   2  -3  -7  632.64   35.20
   2  -3  -7  620.14   33.00
  -2  -3   7  669.13   34.30
   2   3  -7  688.63   36.80
   2   3  -7  659.53   34.20
   2   3  -7  672.33   33.10
   2   3  -7  647.54   37.10
   2   3  -7  709.33   34.50
   2   3  -7  705.03   37.80
  -2   3   7  655.13   34.50
  -2   3   7  683.93   32.10
   1  -3  -7  765.52   40.60
  -1  -3   7  799.72   38.90
   1  -3  -7  803.22   41.50
  -1  -3   7  834.22   42.10
   1  -3  -7  842.32   39.10
  -1  -3   7  780.72   42.70
  -1  -3   7  756.52   42.30
   1  -3  -7  775.02   40.50
  -1  -3   7  839.52   40.20
   1  -3  -7  809.62   39.20
   1   3  -7  779.72   39.00
  -1   3   7  753.12   37.00
  -1   3   7  820.32   39.60
   1   3  -7  749.82   38.20
   1   3  -7  826.22   41.90
   1   3  -7  788.22   39.10
   1   3  -7  811.82   42.40
   0  -3   7  153.88   11.30
   0  -3   7  169.68   13.80
   0  -3  -7  169.38   10.90
   0  -3  -7  154.28   12.30
   0  -3   7  163.78   13.00
   0  -3   7  202.18   14.70
   0  -3  -7  178.68   12.60
   0  -3  -7  173.38   11.40
   0  -3  -7  181.38   10.90
   0   3   7  170.48    9.60
   0   3  -7  158.98   11.10
   0   3   7  184.28   12.20
   0   3  -7  160.58   13.00
   0   3   7  180.38    9.70
   0   3  -7  152.48   10.70
   0   3  -7  166.88   10.80
   0   3  -7  180.38   13.10
   1  -3   7  190.28   12.30
  -1  -3  -7  192.58   13.90
   1  -3   7  182.78   13.60
  -1  -3  -7  183.78   11.70
   1  -3   7  196.08   14.70
  -1  -3  -7  190.28   13.90
  -1  -3  -7  184.38   11.60
   1  -3   7  192.38   15.10
  -1  -3  -7  201.78   12.20
   1  -3   7  164.98   14.60
   1   3   7  177.98   12.70
  -1   3  -7  177.18   13.70
  -1   3  -7  166.58   11.30
  -1   3  -7  200.58   12.00
  -1   3  -7  175.98   13.40
  -1   3  -7  172.08   11.30
   1   3   7  173.08   10.30
   1   3   7  181.78   12.80
   1   3   7  168.38   10.10
  -2  -3  -7  736.83   32.90
  -2  -3  -7  711.53   36.80
   2  -3   7  573.74   36.80
   2  -3   7  650.73   36.10
  -2  -3  -7  671.93   36.60
   2  -3   7  656.83   37.60
   2  -3   7  647.14   34.40
  -2  -3  -7  657.53   34.00
   2   3   7  690.93   36.80
   2   3   7  710.93   33.60
   2   3   7  695.53   33.60
  -2   3  -7  657.53   34.40
  -2   3  -7  653.13   34.60
  -2   3  -7  656.23   37.10
  -2   3  -7  687.13   34.50
   3  -3   7  178.18   16.00
  -3  -3  -7  196.18   13.50
   3  -3   7  224.18   14.10
  -3  -3  -7  209.38   11.30
   3  -3   7  207.48   15.00
   3  -3   7  227.08   16.80
  -3  -3  -7  192.68   15.60
  -3  -3  -7  215.78   16.10
  -3   3  -7  185.68   13.10
   3   3   7  202.08   12.50
  -3   3  -7  199.78   15.80
  -3   3  -7  204.48   13.30
   3   3   7  220.38   12.70
  -4  -3  -7   74.49   10.20
  -4  -3  -7   75.89   11.30
   4  -3   7  108.09   10.30
  -4  -3  -7   98.29    9.50
   4  -3   7   85.19   11.30
   4  -3   7   99.09    9.80
   4  -3   7   90.69   11.90
   4   3   7   87.99    8.40
  -4   3  -7   79.79    8.40
   4   3   7   89.59   10.80
  -4   3  -7  113.49   10.10
  -4   3  -7   90.39   11.30
   5  -3   7  363.06   23.00
  -5  -3  -7  416.66   27.20
   5  -3   7  385.06   26.80
  -5  -3  -7  368.86   23.10
   5  -3   7  439.06   25.10
  -5   3  -7  368.96   21.00
   5   3   7  353.66   21.00
  -5   3  -7  361.16   21.70
   6  -3   7   17.30    5.00
  -6  -3  -7   22.20    5.00
   6  -3   7   17.90    6.50
   6  -3   7   23.00    5.20
  -6  -3  -7   28.40    7.60
  -6   3  -7   28.00    5.20
   6   3   7   21.50    4.50
  -6   3  -7   14.10    5.00
   7  -4  -7  139.49   11.40
  -7  -4   7  159.68   15.90
  -7  -4   7  123.29   12.80
   7  -4  -7  173.18   14.10
   7   4  -7  149.39   12.10
   7   4  -7  141.79   11.80
  -6  -4   7  195.68   14.30
   6  -4  -7  188.88   14.50
   6  -4  -7  184.38   12.90
  -6  -4   7  176.78   16.10
   6   4  -7  166.88   13.20
   6   4  -7  162.18   12.40
  -5  -4   7  157.28    9.80
  -5  -4   7  129.29   13.60
   5  -4  -7  142.39    9.80
   5  -4  -7  118.49   10.40
  -5  -4   7  166.88   12.20
   5   4  -7  147.69   12.30
   5   4  -7  142.09   11.10
   4  -4  -7  489.35   29.10
  -4  -4   7  530.75   31.70
  -4  -4   7  484.95   31.10
  -4  -4   7  580.94   27.30
   4  -4  -7  570.54   27.40
  -4  -4   7  548.85   29.00
   4  -4  -7  514.15   28.60
  -4  -4   7  497.15   29.80
   4   4  -7  525.05   28.20
  -4   4   7  524.95   27.70
   4   4  -7  510.35   29.50
   4   4  -7  569.94   31.60
   3  -4  -7   28.30    4.50
  -3  -4   7   24.70    5.20
   3  -4  -7   27.40    3.90
   3  -4  -7   30.50    5.00
  -3  -4   7   34.10    7.00
  -3  -4   7   35.20    6.90
   3  -4  -7   16.70    3.20
  -3  -4   7   40.10    5.30
  -3  -4   7   28.00    3.90
   3  -4  -7   30.20    3.10
   3   4  -7   34.50    6.30
   3   4  -7   36.80    6.10
   3   4  -7   19.40    4.00
  -3   4   7   24.30    3.60
  -2  -4   7   71.59    9.50
   2  -4  -7   78.89    5.50
   2  -4  -7   80.19    7.40
   2  -4  -7   69.89    6.90
   2  -4  -7   79.59    6.20
  -2  -4   7   78.59    7.90
  -2  -4   7   75.29    9.60
  -2  -4   7   77.19    6.50
  -2  -4   7   81.49    9.40
   2  -4  -7   70.99    6.00
   2   4  -7   71.49    8.50
   2   4  -7   72.19    8.60
  -2   4   7   72.19    6.00
   2   4  -7   68.99    7.00
   2   4  -7   72.19    7.10
  -1  -4   7  631.44   34.90
  -1  -4   7  629.34   31.20
  -1  -4   7  587.14   34.30
   1  -4  -7  601.44   31.90
   1  -4  -7  631.74   32.60
  -1  -4   7  610.24   33.80
  -1  -4   7  560.24   31.40
   1  -4  -7  605.44   30.40
   1  -4  -7  593.64   30.00
   1  -4  -7  655.23   30.50
  -1   4   7  594.54   29.50
   1   4  -7  642.24   30.20
   1   4  -7  571.14   32.40
   1   4  -7  590.04   31.80
   1   4  -7  571.34   29.80
   1   4  -7  538.75   29.60
   0  -4  -7  705.23   34.20
   0  -4   7  680.83   37.90
   0  -4   7  634.44   36.70
   0  -4  -7  670.63   34.80
   0  -4   7  662.83   38.00
   0  -4  -7  701.03   36.20
   0  -4  -7  704.73   34.20
   0  -4  -7  738.43   36.20
   0  -4   7  673.63   35.00
   0   4  -7  673.13   36.70
   0   4   7  772.92   35.80
   0   4  -7  690.93   35.60
   0   4  -7  739.53   35.50
   0   4  -7  683.53   37.80
   0   4  -7  667.33   35.00
  -1  -4  -7  132.29    9.00
  -1  -4  -7  121.29   10.20
   1  -4   7  119.89   11.60
  -1  -4  -7  133.79    9.20
   1  -4   7  115.49   11.00
  -1  -4  -7  117.39    8.40
   1  -4   7  110.09    9.00
  -1  -4  -7  127.59   10.70
   1  -4   7  112.29   10.60
   1   4   7  105.99    9.10
  -1   4  -7  119.19    9.00
  -1   4  -7  127.59   11.00
  -1   4  -7  141.99    9.20
  -1   4  -7  127.29    9.90
  -1   4  -7  114.19    8.60
   2  -4   7   92.89    9.90
   2  -4   7   85.39   10.20
   2  -4   7   82.39   10.70
   2  -4   7   83.89    8.40
  -2  -4  -7   97.39    8.10
  -2  -4  -7   72.69    8.90
  -2  -4  -7   97.59    6.30
  -2  -4  -7   82.79    9.10
  -2   4  -7   88.59    7.30
  -2   4  -7   82.09    8.00
  -2   4  -7   88.19    9.40
   2   4   7   83.19    6.00
   2   4   7   96.59    9.00
  -2   4  -7   79.89    7.00
  -2   4  -7   78.39    7.50
   3  -4   7  190.38   15.60
  -3  -4  -7  173.98   12.30
  -3  -4  -7  166.98    8.50
  -3  -4  -7  166.68   13.80
   3  -4   7  168.28   12.00
   3  -4   7  169.38   14.50
   3  -4   7  164.38   14.00
  -3  -4  -7  198.88   15.10
  -3   4  -7  173.38   11.40
  -3   4  -7  175.88   11.50
   3   4   7  178.18   10.70
  -3   4  -7  161.78   13.80
  -3   4  -7  165.28   11.40
  -3   4  -7  170.28   12.20
   3   4   7  173.88   13.80
   3   4   7  172.08   10.60
   4  -4   7  172.58   14.20
   4  -4   7  202.28   13.50
  -4  -4  -7  170.98   13.20
   4  -4   7  176.18   15.90
  -4  -4  -7  194.28   16.00
   4   4   7  202.18   12.50
  -4   4  -7  201.98   12.00
  -4   4  -7  186.28   12.80
  -4   4  -7  209.08   14.30
   5  -4   7   82.89   11.80
  -5  -4  -7  104.39   13.20
   5  -4   7   93.19   10.80
   5  -4   7   87.99    9.90
  -5  -4  -7   99.09   10.20
  -5   4  -7   97.39    8.50
   5   4   7   99.79    8.40
  -5   4  -7   99.29   10.40
   6  -4   7    9.50    4.80
  -6  -4  -7    3.80    3.00
   6  -4   7    9.70    4.30
  -6  -4  -7   11.90    4.90
   6  -4   7    5.30    4.10
   6   4   7   10.40    3.60
  -6   4  -7    6.50    3.10
  -6   4  -7    9.30    3.50
   6  -5  -7  163.48   11.50
  -6  -5   7  169.78   16.30
   6  -5  -7  158.58   12.60
  -6  -5   7  153.68   12.90
   6   5  -7  161.28   12.40
   6   5  -7  192.88   14.70
  -5  -5   7  200.18   14.80
   5  -5  -7  200.48   12.60
  -5  -5   7  209.68   17.10
   5  -5  -7  199.38   14.10
   5   5  -7  209.48   13.90
   5   5  -7  206.78   15.60
   4  -5  -7  457.75   24.20
  -4  -5   7  459.15   26.30
  -4  -5   7  480.65   29.30
  -4  -5   7  455.45   27.40
   4  -5  -7  485.05   25.80
   4  -5  -7  462.55   26.30
   4   5  -7  451.85   26.60
   4   5  -7  443.86   24.30
   3  -5  -7    7.60    2.20
  -3  -5   7    7.10    4.20
   3  -5  -7    9.80    3.30
   3  -5  -7    5.50    2.60
   3  -5  -7    5.80    2.20
  -3  -5   7   10.60    4.20
   3  -5  -7    9.30    2.80
  -3  -5   7    9.20    3.00
   3  -5  -7    6.30    2.00
   3   5  -7    8.90    3.00
   3   5  -7    9.00    3.50
   2  -5  -7   52.19    6.30
   2  -5  -7   37.60    4.40
  -2  -5   7   35.60    6.40
  -2  -5   7   46.20    7.40
  -2  -5   7   40.70    7.00
   2  -5  -7   41.50    4.60
   2  -5  -7   38.50    5.00
   2  -5  -7   46.20    4.70
  -2  -5   7   40.40    5.50
   2   5  -7   51.29    5.70
   2   5  -7   43.40    6.80
   2   5  -7   50.89    5.60
   1  -5  -7  232.28   13.00
  -1  -5   7  210.38   16.10
   1  -5  -7  214.48   14.30
   1  -5  -7  227.88   12.90
  -1  -5   7  204.98   16.00
   1  -5  -7  224.08   14.00
  -1  -5   7  240.08   14.70
  -1  -5   7  224.18   16.90
   1  -5  -7  241.28   13.50
   1   5  -7  229.18   13.40
   1   5  -7  223.98   14.50
  -1   5   7  213.08   11.80
   1   5  -7  221.38   13.40
   1   5  -7  259.77   16.30
   1   5  -7  230.08   15.50
   0  -5  -7  165.78   10.40
   0  -5  -7  164.68   11.30
   0  -5  -7  171.88   11.90
   0  -5   7  167.38   11.60
   0  -5  -7  162.08   11.70
   0  -5   7  147.49   13.00
   0  -5   7  172.98   14.20
   0  -5   7  149.69   13.20
   0  -5  -7  167.78   10.50
   0   5  -7  144.39   11.40
   0   5  -7  155.18   11.10
   0   5  -7  157.28   10.00
   0   5  -7  142.19   11.60
   0   5  -7  156.18   10.00
  -1  -5  -7  157.98   10.40
   1  -5   7  142.69   12.60
   1  -5   7  161.08   11.30
  -1  -5  -7  157.18   10.40
  -1  -5  -7  167.88   10.30
   1  -5   7  143.29   13.10
  -1  -5  -7  159.28   12.00
   1  -5   7  136.59   12.70
  -1  -5  -7  159.38   12.00
  -1   5  -7  152.48   11.30
  -1   5  -7  163.68   10.10
  -1   5  -7  158.48   12.40
  -1   5  -7  162.68   10.20
  -1   5  -7  144.29   11.50
   2  -5   7 1102.29   53.59
  -2  -5  -7 1043.80   54.69
  -2  -5  -7 1077.59   55.29
   2  -5   7 1063.29   56.79
   2  -5   7 1126.79   56.59
  -2  -5  -7 1085.59   52.89
   2  -5   7 1109.39   57.29
  -2   5  -7 1016.80   52.69
  -2   5  -7 1153.18   51.39
  -2   5  -7 1050.29   51.19
  -2   5  -7 1045.50   52.49
   3  -5   7  367.36   23.90
  -3  -5  -7  373.96   23.90
   3  -5   7  375.26   24.90
   3  -5   7  373.16   21.60
  -3  -5  -7  349.37   21.10
  -3   5  -7  358.06   21.40
  -3   5  -7  332.17   19.00
  -3   5  -7  375.36   20.10
  -4  -5  -7  209.28   16.70
   4  -5   7  209.98   17.20
  -4  -5  -7  202.58   14.10
   4  -5   7  189.18   15.90
   4  -5   7  181.88   13.60
  -4   5  -7  234.58   17.30
  -4   5  -7  196.18   14.10
   4   5   7  187.38   11.50
  -5  -5  -7  159.28   15.30
   5  -5   7  145.99   13.50
  -5  -5  -7  146.69   12.00
   5  -5   7  185.18   16.10
   5  -5   7  153.08   12.10
  -5   5  -7  163.98   11.00
  -5   5  -7  155.88   12.50
  -5  -6   7  134.69   11.70
   5  -6  -7  126.69    9.90
  -5  -6   7  130.99   13.00
   5   6  -7  124.39   12.60
   5   6  -7  117.49    9.50
   4  -6  -7  136.79    9.70
  -4  -6   7  129.19   12.90
   4  -6  -7  138.69   10.70
  -4  -6   7  116.49   10.90
  -4  -6   7  142.69   12.00
   4   6  -7  156.98   13.20
   4   6  -7  135.69    9.80
  -3  -6   7  223.78   15.20
   3  -6  -7  231.78   13.90
  -3  -6   7  223.58   17.60
   3  -6  -7  224.58   13.60
   3  -6  -7  222.48   14.30
  -3  -6   7  249.78   17.30
   3   6  -7  250.67   17.70
   3   6  -7  243.98   14.50
  -2  -6   7  481.25   28.20
   2  -6  -7  431.76   24.10
  -2  -6   7  451.85   28.50
  -2  -6   7  479.55   26.10
   2  -6  -7  484.25   25.00
   2  -6  -7  491.35   23.80
   2   6  -7  480.95   27.20
   2   6  -7  441.06   23.50
   1  -6  -7  221.88   13.10
   1  -6  -7  205.78   12.60
   1  -6  -7  185.98   11.70
   1  -6  -7  243.48   14.10
  -1  -6   7  204.98   13.70
  -1  -6   7  178.28   15.30
  -1  -6   7  186.88   15.20
   1   6  -7  205.88   13.60
   1   6  -7  208.08   11.90
   1   6  -7  194.18   14.80
   0  -6   7  153.08   13.30
   0  -6  -7  159.58   10.90
   0  -6  -7  136.89    9.70
   0  -6   7  149.99   11.20
   0  -6   7  161.58   13.80
   0  -6  -7  161.08    9.90
   0  -6  -7  159.78   11.10
   0   6  -7  156.88    9.10
   0   6  -7  127.99   10.50
   0   6  -7  141.49   11.50
   1  -6   7   80.59   10.50
  -1  -6  -7   97.09    8.50
  -1  -6  -7   93.29    7.50
  -1  -6  -7  108.09    9.10
   1  -6   7   91.59   10.90
   1  -6   7  100.19    8.40
  -1   6  -7  100.79    9.50
  -1   6  -7   91.79    6.60
  -1   6  -7   96.49    9.10
   2  -6   7   37.40    7.00
  -2  -6  -7   56.59    6.30
   2  -6   7   36.00    6.90
   2  -6   7   46.00    6.30
  -2  -6  -7   56.79    7.50
  -2   6  -7   54.09    6.80
  -2   6  -7   50.39    7.00
   3  -6   7   25.40    6.10
   3  -6   7   24.70    5.90
   3  -6   7   24.00    4.80
  -3  -6  -7   23.40    4.60
  -3  -6  -7   27.10    5.90
  -3   6  -7   29.90    4.90
  -3   6  -7   36.50    5.90
   4  -6   7   81.09    9.00
  -4  -6  -7   74.99   10.40
   4  -6   7   75.29   10.80
   4  -6   7   74.59   10.20
  -4  -6  -7   70.69    8.30
  -4   6  -7   86.79    9.70
  -4  -7   7  131.49   13.80
  -4  -7   7  154.98   11.80
  -4  -7   7  132.49   12.60
   4   7  -7  127.19   13.40
  -3  -7   7   12.00    4.20
   3  -7  -7   13.80    2.80
   3  -7  -7   14.70    2.50
  -3  -7   7    5.30    3.40
  -3  -7   7   13.30    4.20
   3   7  -7   10.70    4.80
  -2  -7   7  126.29   12.10
  -2  -7   7  115.39    9.50
   2  -7  -7  101.29    7.10
  -2  -7   7  109.59   10.80
   2  -7  -7  115.19    7.60
   2   7  -7  101.99   11.30
  -1  -7   7  155.48   11.60
  -1  -7   7  159.38   14.00
  -1  -7   7  159.28   13.70
   1  -7  -7  152.58    9.80
   1   7  -7  136.59   12.30
   0  -7  -7  117.99    8.50
   0  -7   7  119.89   11.10
   0  -7   7  130.39    9.90
   0  -7  -7  110.29    8.60
   0  -7   7  113.29   12.90
   0   7  -7   99.49   10.10
   0   7  -7  113.39   10.70
   1  -7   7  138.39   13.00
   1  -7   7  147.79   13.40
  -1  -7  -7  158.28   11.10
   1  -7   7  143.99   10.90
  -1   7  -7  131.09   10.80
  -1   7  -7  136.79   11.60
   2  -7   7   16.50    5.10
  -2  -7  -7   15.40    4.00
   2  -7   7   11.50    4.40
   2  -7   7   19.20    4.30
  -2   7  -7   19.60    5.00
  -2   7  -7   17.50    4.00
   3  -7   7  272.97   20.00
  -3  -7  -7  271.67   21.00
   3  -7   7  306.87   18.50
   3  -7   7  337.27   24.90
  -3   7  -7  273.67   20.30
   1  -8  -7  106.89    6.10
   1  -8  -7  104.89    5.90
  -1  -8   7  104.39    9.90
  -1  -8   7  107.59   12.30
   1   8  -7  111.59   12.00
   0  -8   7   22.30    4.60
   0  -8  -7   20.90    3.70
   0  -8   7   34.00    7.00
   0   8  -7   33.00    6.00
  -8   0   8    1.10    3.10
   8   0  -8   -0.10    2.70
   8   0  -8    2.30    3.40
   7   0  -8  181.18   16.50
   7   0  -8  196.18   14.30
  -7   0   8  209.78   14.00
  -6   0   8   96.59    9.40
   6   0  -8  109.59    9.70
   6   0  -8   92.09   11.30
   5   0  -8  155.18   13.30
   5   0  -8  174.18   12.00
  -5   0   8  159.48   11.30
  -5   0   8  141.69   13.40
   5   0  -8  174.58   14.70
  -4   0   8  280.27   18.90
  -4   0   8  277.37   16.90
   4   0  -8  264.07   18.70
   4   0  -8  307.67   20.50
   4   0  -8  282.37   17.00
  -3   0   8   61.69    8.30
   3   0  -8   79.89    7.60
  -3   0   8   79.99    7.50
   3   0  -8   72.49    8.80
  -3   0   8   75.99    9.10
   3   0  -8   67.09    9.10
  -3   0   8   71.19    7.00
  -2   0   8  210.18   12.70
   2   0  -8  193.88   12.40
   2   0  -8  191.28    9.70
   2   0  -8  208.28   15.00
  -2   0   8  176.98   14.00
   2   0  -8  168.58   14.80
   2   0  -8  231.58   16.00
  -2   0   8  205.08   14.90
  -2   0   8  192.68   12.30
   1   0  -8  305.97   19.90
  -1   0   8  271.47   16.70
  -1   0   8  335.77   20.20
   1   0  -8  288.37   17.10
   1   0  -8  280.17   17.20
  -1   0   8  285.47   18.10
   1   0  -8  311.57   18.50
  -1   0   8  293.87   19.20
   1   0  -8  304.87   15.10
  -1   0   8  280.47   16.90
   1   0  -8  299.47   19.30
   0   0  -8 1053.09   54.89
   0   0   8 1177.98   58.09
   0   0   8 1122.19   54.99
   0   0  -8 1220.28   58.59
   0   0  -8 1084.89   55.79
   0   0  -8 1182.78   57.99
   0   0   8 1177.88   58.09
   0   0   8 1130.89   56.19
   0   0  -8 1140.09   55.09
   0   0   8 1077.89   54.59
   1   0   8  143.29   12.60
   1   0   8  149.29   10.90
   1   0   8  156.48   13.10
  -1   0  -8  184.88   14.30
  -1   0  -8  153.58   11.40
  -1   0  -8  161.88   11.00
   1   0   8  155.18   10.70
   1   0   8  142.69   11.00
  -1   0  -8  169.28   13.40
  -2   0  -8   -2.80    2.40
  -2   0  -8   -2.30    1.80
  -2   0  -8    2.90    3.90
   2   0   8   -0.20    2.30
   2   0   8    1.70    2.80
   2   0   8    0.20    2.40
  -2   0  -8    2.50    2.60
   2   0   8    0.10    2.30
   3   0   8  443.46   27.20
  -3   0  -8  455.95   24.20
   3   0   8  414.06   23.80
  -3   0  -8  387.26   26.50
   3   0   8  432.36   27.50
  -3   0  -8  508.85   28.60
   3   0   8  409.06   23.80
  -3   0  -8  396.76   23.90
   4   0   8    0.40    3.90
   4   0   8    4.30    2.70
   4   0   8    2.70    3.00
  -4   0  -8    1.10    3.60
  -4   0  -8    0.00    2.50
  -4   0  -8    1.20    1.70
  -4   0  -8    0.10    2.00
   4   0   8    0.30    1.90
   5   0   8   48.70    6.20
  -5   0  -8   38.30    8.40
   5   0   8   32.70    7.30
  -5   0  -8   44.80    7.00
   5   0   8   38.20    6.30
   6   0   8  127.59   12.50
   6   0   8  133.69   11.50
  -6   0  -8  129.09   11.30
   8  -1  -8   79.99   11.50
  -8  -1   8   89.69   10.00
   8  -1  -8   78.09    9.40
   8   1  -8   79.39    8.80
   8   1  -8   77.89   14.00
  -8   1   8   87.29    8.80
   7  -1  -8  105.09   11.10
   7  -1  -8  138.29   13.10
  -7  -1   8  152.28   11.80
   7   1  -8  123.59   11.50
   7   1  -8  117.29   13.60
  -7   1   8  104.79    9.10
  -6  -1   8  130.49   10.40
  -6  -1   8  131.29   13.50
   6  -1  -8  155.58   13.00
   6  -1  -8  111.69   10.20
  -6   1   8  131.09   10.00
   6   1  -8  130.99   12.50
   6   1  -8  113.99   10.10
   5  -1  -8  323.07   21.30
   5  -1  -8  336.37   19.30
  -5  -1   8  321.97   22.20
  -5  -1   8  319.17   19.20
   5  -1  -8  298.37   21.70
  -5   1   8  315.07   18.60
  -5   1   8  361.26   21.90
   5   1  -8  308.77   19.00
   5   1  -8  353.76   22.20
   5   1  -8  285.97   21.50
   4  -1  -8   75.09    9.20
   4  -1  -8   65.59    7.30
  -4  -1   8   74.79    9.70
   4  -1  -8   85.99   10.40
  -4  -1   8   71.79    7.80
  -4  -1   8   88.29   10.50
   4   1  -8   56.89    7.10
  -4   1   8   66.39    8.60
   4   1  -8   63.39    8.60
  -4   1   8   80.99    7.40
  -4   1   8   72.79    6.90
   4   1  -8   54.69    8.50
  -3  -1   8  220.78   15.60
   3  -1  -8  217.68   15.30
   3  -1  -8  182.18   12.70
  -3  -1   8  199.48   15.60
   3  -1  -8  204.18   15.30
  -3  -1   8  184.48   12.90
  -3   1   8  170.58   11.20
   3   1  -8  170.08   11.80
  -3   1   8  183.98   11.60
  -3   1   8  179.68   13.70
   3   1  -8  179.28   13.90
   3   1  -8  191.98   15.10
   2  -1  -8  448.46   25.50
  -2  -1   8  360.76   23.40
   2  -1  -8  402.26   18.80
   2  -1  -8  381.46   21.80
   2  -1  -8  447.16   24.70
  -2  -1   8  398.36   23.10
  -2  -1   8  395.06   22.00
  -2  -1   8  429.46   25.10
  -2  -1   8  398.06   24.80
   2  -1  -8  399.46   24.60
   2  -1  -8  403.76   21.90
   2  -1  -8  400.36   24.80
   2   1  -8  361.36   22.00
  -2   1   8  416.26   24.40
   2   1  -8  430.96   25.00
  -2   1   8  419.06   21.80
  -2   1   8  432.06   24.50
   2   1  -8  423.66   25.80
  -2   1   8  404.56   21.80
   2   1  -8  391.66   19.90
   2   1  -8  438.06   25.80
  -1  -1   8   69.89    8.10
  -1  -1   8   62.89    7.00
   1  -1  -8   63.99    6.90
  -1  -1   8   68.79    9.00
   1  -1  -8   68.39    6.80
   1  -1  -8   68.39    8.80
   1  -1  -8   85.59    8.60
  -1  -1   8   62.99    6.70
  -1  -1   8   62.19    8.30
   1  -1  -8   79.39    8.40
   1   1  -8   69.99    8.70
  -1   1   8   64.89    8.00
   1   1  -8   64.99    6.70
   1   1  -8   66.89    8.70
  -1   1   8   67.29    5.90
   1   1  -8   67.79    4.90
  -1   1   8   55.69    7.30
  -1   1   8   64.39    6.40
   1   1  -8   52.99    6.10
   1   1  -8   63.69    7.70
   0  -1  -8   63.39    7.10
   0  -1   8   50.99    6.90
   0  -1   8   56.69    6.50
   0  -1   8   64.89    8.50
   0  -1   8   64.39    8.80
   0  -1  -8   55.69    6.50
   0  -1  -8   64.59    6.50
   0  -1  -8   48.60    7.10
   0  -1   8   63.49    6.90
   0  -1  -8   64.49    8.60
   0   1   8   53.19    7.40
   0   1  -8   43.60    5.60
   0   1  -8   63.09    8.60
   0   1  -8   50.59    6.00
   0   1   8   51.09    5.60
   0   1   8   57.59    6.10
   0   1  -8   54.79    7.70
   0   1  -8   67.29    7.70
   0   1   8   69.99    8.50
   0   1  -8   62.79    4.90
   1  -1   8  195.38   13.50
  -1  -1  -8  221.98   16.20
  -1  -1  -8  216.38   14.00
   1  -1   8  255.07   17.20
   1  -1   8  216.28   15.00
   1  -1   8  228.98   16.70
  -1  -1  -8  204.98   13.80
  -1  -1  -8  209.38   16.20
   1  -1   8  275.97   18.10
  -1   1  -8  226.78   14.30
  -1   1  -8  205.18   13.00
   1   1   8  224.88   16.50
   1   1   8  228.58   13.90
   1   1   8  234.88   14.60
  -1   1  -8  255.47   17.30
  -1   1  -8  244.48   15.50
   1   1   8  224.98   16.20
   1   1   8  206.28   13.40
   1   1   8  226.88   16.10
  -1   1  -8  217.98   16.70
  -2  -1  -8  255.17   19.30
   2  -1   8  284.07   19.90
   2  -1   8  298.07   18.30
  -2  -1  -8  312.47   17.80
  -2  -1  -8  304.27   20.20
   2  -1   8  306.87   21.00
  -2  -1  -8  288.87   16.80
   2  -1   8  266.77   17.20
   2   1   8  278.37   17.00
  -2   1  -8  279.77   18.10
   2   1   8  289.47   20.00
   2   1   8  300.67   17.50
  -2   1  -8  329.37   21.10
   2   1   8  305.97   17.70
  -2   1  -8  281.17   17.60
  -2   1  -8  278.27   20.30
   2   1   8  302.77   20.20
  -3  -1  -8  162.08   10.80
  -3  -1  -8  141.39   13.10
   3  -1   8  168.88   14.20
   3  -1   8  158.78   11.70
   3  -1   8  156.88   13.80
  -3  -1  -8  155.38   14.10
  -3  -1  -8  142.39   11.20
   3  -1   8  146.49   11.40
   3   1   8  149.99   10.80
   3   1   8  167.38   11.50
  -3   1  -8  156.88   11.60
   3   1   8  156.78   14.10
  -3   1  -8  164.88   14.20
  -3   1  -8  161.18   14.40
   4  -1   8   63.59    7.80
   4  -1   8   65.99    9.90
  -4  -1  -8   58.79    9.10
  -4  -1  -8   61.79    6.10
   4  -1   8   61.79    9.90
  -4  -1  -8   54.29    9.30
  -4  -1  -8   48.60    7.20
   4  -1   8   72.29    8.20
   4   1   8   57.59    7.00
  -4   1  -8   60.49    9.40
  -4   1  -8   67.29    8.10
   4   1   8   65.79    6.90
   4   1   8   62.09    9.80
   5  -1   8   61.59    7.60
  -5  -1  -8   46.00    7.00
  -5  -1  -8   53.89    9.80
   5  -1   8   56.69   10.10
   5  -1   8   69.99    8.20
   5   1   8   56.19    7.00
   5   1   8   62.09    6.10
  -5   1  -8   56.59    9.70
   5   1   8   49.10   10.10
  -5   1  -8   53.19    7.20
   6  -1   8  186.18   17.60
   6  -1   8  172.58   12.90
  -6  -1  -8  158.68   13.70
  -6  -1  -8  166.28   16.80
   6  -1   8  163.18   13.70
  -6   1  -8  150.48   12.70
   6   1   8  157.28   12.80
  -7  -2   8  150.18   12.20
   7  -2  -8  165.78   12.50
   7  -2  -8  153.68   14.30
   7   2  -8  171.68   12.70
  -7   2   8  151.98   11.00
   7   2  -8  165.18   12.90
  -6  -2   8   12.50    4.40
  -6  -2   8    8.10    4.20
   6  -2  -8   22.30    5.60
   6  -2  -8   18.10    4.30
   6   2  -8   15.70    4.50
   6   2  -8   15.20    4.70
  -6   2   8   15.20    3.40
   5  -2  -8    3.30    3.50
   5  -2  -8    5.30    3.00
   5  -2  -8    4.20    4.00
  -5  -2   8    0.90    3.50
  -5  -2   8    4.50    3.50
  -5  -2   8    0.40    2.10
   5   2  -8    0.90    2.00
   5   2  -8    2.40    3.00
  -5   2   8    6.60    2.40
   5   2  -8    1.10    2.50
  -5   2   8    4.50    2.30
   4  -2  -8    4.10    2.00
  -4  -2   8   -2.40    3.40
  -4  -2   8   -2.00    2.50
   4  -2  -8   -0.80    1.80
  -4  -2   8    0.80    3.40
  -4  -2   8    0.20    0.80
   4  -2  -8   -3.00    2.60
   4   2  -8   -1.00    2.10
   4   2  -8   -0.70    1.50
  -4   2   8    0.80    1.40
  -4   2   8   -0.60    1.80
   4   2  -8    1.60    2.90
  -4   2   8   -1.60    1.40
   3  -2  -8  416.66   24.00
  -3  -2   8  456.25   24.90
  -3  -2   8  473.55   27.80
   3  -2  -8  510.45   27.10
   3  -2  -8  406.06   26.30
  -3  -2   8  496.15   27.20
  -3  -2   8  441.16   27.40
   3   2  -8  504.05   25.90
   3   2  -8  459.05   28.30
  -3   2   8  471.75   24.00
   3   2  -8  437.76   27.50
  -3   2   8  455.25   24.10
  -3   2   8  484.35   27.00
  -2  -2   8  330.97   21.10
   2  -2  -8  335.77   15.90
   2  -2  -8  335.77   18.70
  -2  -2   8  335.87   22.00
   2  -2  -8  324.67   18.50
  -2  -2   8  327.67   19.10
  -2  -2   8  328.27   21.60
   2  -2  -8  333.97   21.10
   2  -2  -8  348.77   20.50
  -2   2   8  347.77   19.00
   2   2  -8  368.06   23.50
  -2   2   8  361.56   21.30
  -2   2   8  346.57   18.80
   2   2  -8  400.56   23.10
   2   2  -8  366.36   18.20
   2   2  -8  328.47   19.80
   2   2  -8  335.97   22.50
   1  -2  -8 1313.67   62.79
   1  -2  -8 1354.16   64.09
  -1  -2   8 1309.07   61.99
  -1  -2   8 1159.68   63.29
  -1  -2   8 1264.47   65.19
   1  -2  -8 1201.78   64.09
   1  -2  -8 1259.47   61.29
  -1  -2   8 1282.47   65.09
   1  -2  -8 1412.46   61.79
  -1   2   8 1361.86   63.49
   1   2  -8 1304.27   64.39
   1   2  -8 1327.77   62.99
   1   2  -8 1490.95   68.79
  -1   2   8 1219.28   65.59
   1   2  -8 1414.06   67.59
  -1   2   8 1329.07   63.19
   0  -2   8  141.19   12.20
   0  -2  -8  113.19   10.60
   0  -2  -8  127.59    9.10
   0  -2  -8  126.99    9.80
   0  -2  -8  108.89   10.50
   0  -2   8  144.79   11.00
   0  -2   8  127.89    9.80
   0  -2  -8  123.09    9.00
   0  -2   8  135.09   12.20
   0   2  -8  126.29   11.60
   0   2  -8  121.39    8.40
   0   2  -8  139.69    9.80
   0   2  -8  103.59   10.60
   0   2   8  132.69    8.80
   0   2  -8  121.49   10.20
   0   2   8  121.69    8.20
  -1  -2  -8  406.76   21.50
  -1  -2  -8  344.27   20.50
   1  -2   8  358.86   24.50
   1  -2   8  420.16   25.10
  -1  -2  -8  346.07   23.10
   1  -2   8  370.56   21.30
  -1  -2  -8  337.37   23.00
   1  -2   8  383.76   24.00
   1  -2   8  452.25   23.70
   1   2   8  378.76   20.10
   1   2   8  359.26   22.60
   1   2   8  384.66   20.00
  -1   2  -8  406.06   24.50
  -1   2  -8  377.26   20.80
   1   2   8  348.27   22.60
  -1   2  -8  359.66   20.00
  -1   2  -8  335.07   22.60
  -2  -2  -8  559.94   32.90
  -2  -2  -8  565.14   30.20
   2  -2   8  543.85   31.20
   2  -2   8  556.84   33.60
  -2  -2  -8  568.94   33.00
   2  -2   8  590.14   30.40
   2  -2   8  553.84   33.20
  -2  -2  -8  590.44   29.20
   2   2   8  502.95   27.50
  -2   2  -8  501.95   31.20
   2   2   8  528.35   27.70
  -2   2  -8  565.24   28.80
   2   2   8  544.05   31.40
  -2   2  -8  568.64   32.10
  -2   2  -8  532.45   28.20
  -3  -2  -8   66.09    9.60
   3  -2   8   91.39   11.50
   3  -2   8   66.59    9.90
  -3  -2  -8   66.89    7.90
   3  -2   8   74.39    8.90
  -3  -2  -8   65.89    9.20
  -3  -2  -8   75.39    6.20
   3  -2   8   65.39    7.50
   3   2   8   67.79    7.30
   3   2   8   76.49    6.30
  -3   2  -8   57.79    8.80
  -3   2  -8   63.29    7.60
  -3   2  -8   73.19    7.50
   3   2   8   80.49   10.40
   4  -2   8   74.39   10.50
  -4  -2  -8   72.79   10.50
  -4  -2  -8   79.19    8.60
   4  -2   8   63.49    8.00
   4  -2   8   99.19   12.20
   4  -2   8   71.59    8.70
  -4   2  -8   69.89    7.70
   4   2   8   77.89   10.20
   4   2   8   65.79    6.00
  -4   2  -8   76.39    8.30
  -4   2  -8   79.59   11.00
   4   2   8   85.39    8.30
  -5  -2  -8  131.09   11.70
   5  -2   8  144.29   14.90
   5  -2   8  143.89   11.50
  -5  -2  -8  145.09   14.30
   5  -2   8  129.89   12.00
  -5   2  -8  151.38   12.00
  -5   2  -8  161.48   12.10
   5   2   8  129.09   11.30
   6  -2   8   74.59   11.70
  -6  -2  -8   83.29   12.50
   6  -2   8   51.89    7.70
  -6  -2  -8   66.19    8.50
   6  -2   8   76.79    9.30
  -6   2  -8   77.59    9.00
  -6   2  -8   61.39    8.10
   6   2   8   66.19    7.90
  -7  -3   8   94.29   10.10
   7  -3  -8   98.09   11.60
   7  -3  -8   94.79    9.70
   7   3  -8   78.59    9.00
   7   3  -8   85.19    9.60
  -6  -3   8  251.57   19.90
   6  -3  -8  263.07   18.50
  -6  -3   8  253.47   16.80
   6  -3  -8  243.48   15.70
  -6   3   8  277.47   15.90
   6   3  -8  287.37   18.90
   6   3  -8  313.57   18.80
  -5  -3   8   11.20    4.70
  -5  -3   8   15.30    3.90
   5  -3  -8   12.70    3.10
   5  -3  -8    9.50    3.80
  -5  -3   8   14.10    5.50
   5   3  -8   10.60    3.80
   5   3  -8   15.40    4.90
   5   3  -8   18.10    3.90
  -5   3   8    7.70    2.00
  -4  -3   8  246.88   18.80
   4  -3  -8  256.77   15.20
  -4  -3   8  240.38   13.50
  -4  -3   8  260.87   19.60
   4  -3  -8  261.97   18.00
  -4  -3   8  252.97   16.30
   4  -3  -8  228.48   16.30
  -4   3   8  224.08   12.90
  -4   3   8  246.98   13.00
   4   3  -8  211.88   17.20
   4   3  -8  253.77   15.40
  -4   3   8  245.48   15.80
  -3  -3   8 1444.36   70.29
  -3  -3   8 1387.56   65.89
   3  -3  -8 1408.56   69.79
   3  -3  -8 1335.97   66.79
   3  -3  -8 1352.96   68.89
  -3  -3   8 1494.75   71.89
  -3  -3   8 1499.75   68.49
  -3  -3   8 1451.45   71.69
   3  -3  -8 1368.36   63.89
  -3   3   8 1501.45   70.89
   3   3  -8 1441.56   70.09
  -3   3   8 1451.45   67.89
   3   3  -8 1629.74   77.49
  -3   3   8 1447.36   67.69
   3   3  -8 1345.87   72.59
   2  -3  -8   33.80    4.70
  -2  -3   8   40.70    4.40
   2  -3  -8   35.70    4.90
  -2  -3   8   28.60    6.00
   2  -3  -8   40.70    3.30
  -2  -3   8   51.59    8.00
  -2  -3   8   45.90    6.00
   2  -3  -8   39.60    5.90
   2  -3  -8   35.80    6.20
  -2  -3   8   34.10    5.90
  -2   3   8   42.90    5.80
   2   3  -8   29.90    5.00
   2   3  -8   30.60    4.10
  -2   3   8   39.90    3.70
   2   3  -8   37.20    6.70
   2   3  -8   56.09    8.60
  -2   3   8   30.10    3.40
   1  -3  -8  256.97   15.60
  -1  -3   8  243.78   17.60
   1  -3  -8  221.68   13.90
   1  -3  -8  220.58   15.50
  -1  -3   8  235.98   17.00
  -1  -3   8  246.08   16.50
   1  -3  -8  230.18   16.10
   1  -3  -8  220.28   13.80
  -1  -3   8  224.38   14.50
   1   3  -8  220.78   16.30
   1   3  -8  232.08   17.40
   1   3  -8  233.68   13.60
  -1   3   8  247.38   15.40
  -1   3   8  237.68   12.70
  -1   3   8  238.78   12.80
   1   3  -8  222.68   14.20
   0  -3  -8  279.97   18.90
   0  -3   8  293.37   20.30
   0  -3   8  319.97   21.00
   0  -3  -8  323.17   17.60
   0  -3  -8  309.07   18.00
   0  -3  -8  276.07   19.00
   0  -3  -8  277.47   17.10
   0  -3   8  315.97   18.10
   0  -3   8  334.87   20.20
   0   3   8  272.07   17.50
   0   3  -8  285.37   17.00
   0   3  -8  317.37   20.30
   0   3  -8  300.07   19.30
   0   3   8  293.07   15.30
   0   3  -8  284.27   16.80
   0   3   8  272.97   15.00
   0   3  -8  267.97   15.90
  -1  -3  -8    6.60    3.10
  -1  -3  -8    8.20    3.20
   1  -3   8    4.00    2.40
  -1  -3  -8    3.50    2.30
   1  -3   8    4.20    4.00
  -1  -3  -8    1.80    2.50
   1  -3   8    9.40    4.00
   1  -3   8    2.30    3.40
  -1   3  -8    6.90    3.90
  -1   3  -8   13.10    3.40
   1   3   8    5.10    3.20
  -1   3  -8   13.50    3.10
   1   3   8    5.90    2.20
   1   3   8    6.00    2.20
   2  -3   8  100.99    8.30
   2  -3   8   89.09   11.10
  -2  -3  -8   80.79   10.20
   2  -3   8   93.19   11.80
  -2  -3  -8   77.89    6.70
  -2  -3  -8   97.09    9.60
  -2  -3  -8   98.99    8.10
   2  -3   8   97.09    9.30
   2   3   8  101.49    7.60
  -2   3  -8   97.49    8.50
  -2   3  -8  102.29   10.30
   2   3   8   95.49    7.50
  -2   3  -8   87.09    8.50
   2   3   8   99.69   10.10
  -3  -3  -8   62.69    9.20
  -3  -3  -8   59.79    7.40
  -3  -3  -8   50.69    8.10
   3  -3   8   51.69    7.60
   3  -3   8   58.69    9.40
  -3  -3  -8   59.49    4.90
   3  -3   8   59.29    9.50
   3  -3   8   54.89    7.10
   3   3   8   62.09    6.40
  -3   3  -8   54.09    6.80
  -3   3  -8   47.20    6.40
   3   3   8   66.89    6.70
  -3   3  -8   72.09    9.70
   4  -3   8  131.19   13.90
  -4  -3  -8  128.89   11.20
  -4  -3  -8  160.18   14.00
   4  -3   8  140.49   12.60
   4  -3   8  136.09   11.10
  -4   3  -8  138.09   10.50
   4   3   8  132.69   10.20
  -4   3  -8  138.09   10.80
   5  -3   8  367.96   23.20
  -5  -3  -8  394.76   26.10
   5  -3   8  325.07   24.70
  -5  -3  -8  325.67   21.60
   5  -3   8  340.07   21.50
  -5   3  -8  359.16   21.70
  -5   3  -8  348.27   21.20
   5   3   8  364.16   21.10
   6  -3   8  102.49   14.10
  -6  -3  -8   85.69   12.50
   6  -3   8   94.09   10.70
  -6  -3  -8   87.59   10.40
   6  -3   8   77.69    9.60
  -6   3  -8   95.99   10.00
  -6   3  -8   86.99    9.20
   7  -4  -8   73.89    8.10
   7   4  -8   72.99    8.60
   7   4  -8   89.49   10.20
   6  -4  -8   51.09    7.90
   6  -4  -8   51.59    6.60
  -6  -4   8   72.09    8.50
  -6  -4   8   47.80    9.00
   6   4  -8   54.09    6.80
   6   4  -8   43.30    7.20
  -5  -4   8  130.29   13.20
   5  -4  -8  135.59   11.00
   5  -4  -8  103.99    9.00
  -5  -4   8  119.09   11.50
   5   4  -8  113.89   10.90
   5   4  -8  113.49    9.80
  -4  -4   8  250.97   16.60
   4  -4  -8  254.87   17.70
  -4  -4   8  253.87   19.40
   4  -4  -8  237.68   15.10
  -4  -4   8  252.97   14.70
  -4  -4   8  259.27   17.90
   4  -4  -8  295.17   17.50
   4   4  -8  221.58   17.60
   4   4  -8  280.07   18.20
   4   4  -8  273.37   16.50
   3  -4  -8  126.69   10.50
  -3  -4   8   99.29    7.70
  -3  -4   8  100.39   11.00
   3  -4  -8  117.99    8.30
  -3  -4   8  107.39    9.40
  -3  -4   8  104.79   11.00
  -3  -4   8  101.69   10.90
   3  -4  -8   98.49    9.00
   3   4  -8  101.49    9.60
  -3   4   8  106.29    8.20
   3   4  -8  103.49   10.20
   3   4  -8   96.69    8.20
   2  -4  -8  387.96   23.40
   2  -4  -8  384.86   21.20
  -2  -4   8  410.06   25.70
  -2  -4   8  419.26   24.70
  -2  -4   8  391.36   21.30
   2  -4  -8  393.76   22.90
   2  -4  -8  419.96   21.40
  -2  -4   8  388.26   25.10
  -2  -4   8  375.96   22.40
  -2   4   8  379.46   20.30
   2   4  -8  372.26   20.60
   2   4  -8  356.96   20.00
   2   4  -8  365.46   22.90
  -1  -4   8  104.09   10.10
  -1  -4   8  103.59   10.80
  -1  -4   8  106.69    8.80
   1  -4  -8  102.99    8.00
  -1  -4   8  111.59   11.60
   1  -4  -8  105.99    9.50
   1  -4  -8  110.99    9.80
   1  -4  -8  106.19    8.00
   1  -4  -8  104.99    9.30
   1   4  -8   94.19    8.40
  -1   4   8  101.39    7.80
   1   4  -8   91.89    9.80
   1   4  -8   88.09    7.60
   1   4  -8   92.79    7.60
   0  -4   8  237.98   17.20
   0  -4   8  204.38   16.30
   0  -4   8  186.68   14.90
   0  -4   8  195.68   13.40
   0  -4  -8  221.88   13.70
   0  -4  -8  197.08   12.80
   0  -4  -8  206.98   14.70
   0  -4  -8  198.68   14.40
   0   4  -8  204.78   13.10
   0   4   8  230.28   14.10
   0   4  -8  220.58   13.70
   0   4  -8  244.38   16.20
   0   4   8  203.18   10.70
   0   4  -8  205.08   13.50
   1  -4   8  343.67   22.10
  -1  -4  -8  290.37   17.10
   1  -4   8  284.87   20.50
   1  -4   8  348.57   18.90
  -1  -4  -8  297.67   17.80
  -1  -4  -8  312.37   19.90
  -1  -4  -8  292.97   19.80
   1  -4   8  277.57   19.80
  -1   4  -8  283.87   17.20
   1   4   8  285.07   14.90
  -1   4  -8  283.97   19.40
  -1   4  -8  302.17   17.00
   1   4   8  294.17   15.10
   1   4   8  292.77   18.10
  -1   4  -8  320.27   17.50
   2  -4   8 1138.09   59.69
  -2  -4  -8 1316.87   59.89
   2  -4   8 1213.68   62.39
   2  -4   8 1320.07   64.49
  -2  -4  -8 1243.38   62.29
   2  -4   8 1105.09   62.89
  -2  -4  -8 1208.88   62.09
  -2   4  -8 1228.98   57.79
  -2   4  -8 1212.08   61.19
   2   4   8 1186.48   55.99
  -2   4  -8 1174.98   58.29
   2   4   8 1183.48   55.89
   2   4   8 1164.58   62.49
  -3  -4  -8    4.50    3.20
   3  -4   8    6.10    3.50
   3  -4   8    4.80    3.10
   3  -4   8   12.90    4.80
  -3  -4  -8    7.30    3.90
  -3   4  -8    5.10    2.90
  -3   4  -8    7.50    2.90
   3   4   8    3.30    2.10
  -3   4  -8    4.90    2.60
   4  -4   8   56.69    9.80
   4  -4   8   67.79    9.50
  -4  -4  -8   60.79    7.70
  -4  -4  -8   66.59    9.90
   4  -4   8   55.29    7.30
  -4   4  -8   73.09    8.30
  -4   4  -8   56.29    5.90
   4   4   8   53.59    6.00
  -5  -4  -8  228.58   16.20
   5  -4   8  203.98   15.10
  -5  -4  -8  215.98   18.50
   5  -4   8  237.68   19.60
   5  -4   8  228.08   17.70
  -5   4  -8  219.48   15.80
   5   4   8  221.88   14.10
  -6  -5   8  216.48   19.10
   6  -5  -8  214.08   15.80
   6  -5  -8  211.28   13.90
  -6  -5   8  190.48   14.70
   6   5  -8  227.58   16.70
   5  -5  -8   84.29    8.50
  -5  -5   8   79.49    9.50
  -5  -5   8   82.69   11.70
   5  -5  -8   89.99    7.40
   5   5  -8   79.39    9.80
   5   5  -8   65.69    7.60
  -4  -5   8   89.39   10.70
  -4  -5   8   80.59   10.50
   4  -5  -8   85.69    8.10
  -4  -5   8   78.29    8.70
   4  -5  -8   86.59    7.20
   4   5  -8   93.99    8.20
   4   5  -8   72.69    9.20
   3  -5  -8  245.48   15.80
  -3  -5   8  204.28   16.40
   3  -5  -8  232.08   13.40
   3  -5  -8  210.98   14.30
  -3  -5   8  236.28   18.10
  -3  -5   8  213.68   14.90
   3   5  -8  226.28   15.90
   3   5  -8  208.48   13.80
  -2  -5   8  160.78   13.30
   2  -5  -8  132.59    9.30
   2  -5  -8  157.78    9.80
  -2  -5   8  152.08   13.70
  -2  -5   8  117.79   10.50
   2  -5  -8  152.48   11.30
   2  -5  -8  130.89   10.40
   2  -5  -8  141.19    9.10
   2   5  -8  135.99   11.50
   2   5  -8  132.99    9.70
   1  -5  -8    9.00    2.60
   1  -5  -8    8.50    3.30
  -1  -5   8    8.80    3.70
   1  -5  -8    9.60    2.70
   1  -5  -8   10.60    2.80
   1  -5  -8    9.00    3.10
  -1  -5   8   11.40    4.00
  -1  -5   8   13.00    3.40
   1   5  -8    4.90    3.70
  -1   5   8    5.10    1.70
   1   5  -8    6.30    2.70
   1   5  -8    7.70    2.80
   1   5  -8    9.40    2.90
   0  -5  -8  166.48   10.90
   0  -5   8  173.08   14.70
   0  -5  -8  182.18   12.50
   0  -5  -8  178.48   12.70
   0  -5   8  145.59   13.10
   0  -5  -8  142.89   11.20
   0  -5   8  163.98   11.80
   0   5  -8  180.28   11.40
   0   5  -8  154.98   11.40
   0   5  -8  175.68   13.10
   0   5  -8  162.48   10.80
   1  -5   8   19.60    5.30
  -1  -5  -8   10.50    3.10
  -1  -5  -8   10.60    3.70
   1  -5   8   12.20    4.40
  -1  -5  -8   12.10    3.70
   1  -5   8   10.70    3.60
  -1  -5  -8   14.40    3.80
  -1   5  -8   13.10    3.10
  -1   5  -8    8.80    3.10
  -1   5  -8   15.00    3.30
  -1   5  -8   12.70    3.90
   2  -5   8  114.29   10.90
  -2  -5  -8   98.29   10.00
   2  -5   8   82.89    9.00
  -2  -5  -8   94.49    8.50
   2  -5   8   94.09   11.60
  -2   5  -8  104.99    7.80
  -2   5  -8   85.59    8.00
  -2   5  -8   91.59    9.20
  -3  -5  -8   65.09    7.70
   3  -5   8   65.89    9.90
   3  -5   8   66.79    8.10
  -3  -5  -8   76.79   10.20
   3  -5   8   66.89    9.70
  -3   5  -8   53.69    7.40
  -3   5  -8   60.79    6.70
   4  -5   8  338.27   24.40
  -4  -5  -8  357.56   23.80
   4  -5   8  343.67   22.90
   4  -5   8  311.47   20.30
  -4  -5  -8  317.77   20.50
  -4   5  -8  318.67   19.90
  -4   5  -8  314.37   18.10
  -5  -5  -8  186.98   14.60
   5  -5   8  173.18   14.30
   5  -5   8  218.98   18.70
   5  -5   8  185.68   16.40
  -5  -5  -8  195.18   17.60
  -5  -6   8   90.29   12.30
  -5  -6   8   93.69   10.60
   5   6  -8   56.29    8.80
   5   6  -8   73.19    7.70
   4  -6  -8   54.79    6.40
  -4  -6   8   51.99    7.50
  -4  -6   8   61.69    8.80
  -4  -6   8   33.20    7.20
   4   6  -8   41.80    5.50
   4   6  -8   39.70    7.00
   3  -6  -8  160.88   14.30
  -3  -6   8  172.48   14.90
  -3  -6   8  153.48   11.80
   3  -6  -8  158.38   10.90
  -3  -6   8  142.79   13.50
   3   6  -8  175.48   11.60
   3   6  -8  165.48   13.80
  -2  -6   8   84.29    8.90
  -2  -6   8   92.19   10.90
   2  -6  -8   67.39    7.30
   2  -6  -8   82.29    7.80
  -2  -6   8   75.49   10.30
   2  -6  -8   68.69    7.00
   2   6  -8   66.49    6.60
   2   6  -8   73.99    9.20
  -1  -6   8  270.27   19.90
   1  -6  -8  282.87   16.90
  -1  -6   8  281.07   20.40
   1  -6  -8  281.47   15.90
  -1  -6   8  293.77   17.70
   1  -6  -8  283.17   17.30
   1   6  -8  278.47   17.30
   1   6  -8  289.67   15.90
   1   6  -8  265.47   18.50
   0  -6   8  297.97   22.20
   0  -6   8  345.27   20.40
   0  -6   8  377.76   23.90
   0  -6  -8  350.66   20.40
   0  -6  -8  364.06   20.70
   0  -6  -8  330.67   18.80
   0   6  -8  330.27   20.90
   0   6  -8  356.66   20.30
   0   6  -8  319.67   17.80
  -1  -6  -8  157.58   11.00
   1  -6   8  145.99   13.50
   1  -6   8  167.58   14.70
   1  -6   8  169.88   11.90
  -1  -6  -8  155.58   12.20
  -1   6  -8  161.18   12.40
  -1   6  -8  158.78   12.20
   2  -6   8   35.90    7.20
  -2  -6  -8   31.20    6.00
   2  -6   8   28.40    6.20
   2  -6   8   35.40    5.60
  -2  -6  -8   29.00    4.70
  -2   6  -8   35.70    4.60
  -2   6  -8   38.40    6.00
  -2   6  -8   32.20    5.70
   3  -6   8  116.79   12.70
   3  -6   8  102.69    9.50
   3  -6   8  116.79   13.90
  -3  -6  -8  117.79   11.60
   3  -6   8  138.09   13.30
  -3  -6  -8  110.59    9.50
  -3   6  -8  116.79    9.40
  -3   6  -8   91.19   10.00
   4  -6   8   25.80    5.50
  -4  -6  -8   16.10    4.60
   4  -6   8   15.90    6.00
  -3  -7   8   26.00    5.10
  -3  -7   8   25.10    6.20
  -3  -7   8   28.30    7.30
   3  -7  -8   22.20    3.40
   3   7  -8   22.90    6.20
   2  -7  -8  215.08   13.30
  -2  -7   8  220.68   17.20
   2  -7  -8  252.87   16.20
  -2  -7   8  223.48   17.60
  -2  -7   8  237.18   15.80
   2   7  -8  197.88   15.50
  -1  -7   8   63.79    9.40
   1  -7  -8   88.99    7.10
  -1  -7   8   72.39    9.80
  -1  -7   8   76.19    8.60
   1   7  -8   73.49    9.20
   0  -7  -8   21.70    4.10
   0  -7   8   31.80    5.10
   0  -7   8   24.00    6.10
   0  -7   8   30.60    6.50
   0   7  -8   34.70    6.20
   0   7  -8   36.50    6.60
   1  -7   8  121.19   10.10
   1  -7   8  124.39   13.50
   1  -7   8  125.29   12.20
  -1  -7  -8  118.89   10.00
  -1   7  -8  124.19   10.60
  -1   7  -8  111.79   10.90
   2  -7   8   53.79    7.00
  -2  -7  -8   47.80    7.80
   2  -7   8   54.09    9.80
   2  -7   8   34.00    7.30
  -2   7  -8   66.99    8.20
  -2   7  -8   57.99    7.70
   7   0  -9    1.60    2.30
   7   0  -9    4.00    4.40
  -7   0   9    4.80    2.70
   6   0  -9   -3.90    2.70
  -6   0   9    2.80    2.40
   6   0  -9    0.10    3.70
  -5   0   9  573.44   31.90
  -5   0   9  504.25   27.60
   5   0  -9  477.35   27.90
   5   0  -9  497.65   30.90
  -4   0   9    6.40    3.70
   4   0  -9   13.20    3.50
   4   0  -9    7.10    3.50
  -4   0   9    8.00    3.50
   4   0  -9    6.30    3.40
  -3   0   9    3.20    2.80
   3   0  -9    1.90    2.00
   3   0  -9   -0.70    3.20
   3   0  -9    2.00    3.40
  -3   0   9    1.60    2.00
   2   0  -9   58.19    6.50
  -2   0   9   51.39    7.80
  -2   0   9   67.69    7.20
  -2   0   9   61.29    8.80
   2   0  -9   57.19    8.20
   2   0  -9   66.59    9.30
   2   0  -9   56.19    3.70
  -1   0   9  389.26   21.40
   1   0  -9  383.36   19.30
  -1   0   9  383.86   24.30
   1   0  -9  391.76   25.00
  -1   0   9  378.16   22.90
   1   0  -9  405.56   22.00
   1   0  -9  362.36   23.60
  -1   0   9  394.56   24.30
   0   0  -9  189.28   15.70
   0   0   9  220.08   16.30
   0   0  -9  197.38   15.70
   0   0   9  183.28   12.70
   0   0   9  202.78   14.40
   0   0  -9  199.18   13.30
   0   0   9  208.28   15.60
   1   0   9    0.70    3.50
   1   0   9    4.40    3.90
   1   0   9   -1.00    2.30
  -1   0  -9    1.50    2.90
   1   0   9    1.90    3.60
  -1   0  -9    0.00    2.40
   1   0   9    3.30    2.00
  -1   0  -9    1.00    1.80
  -1   0  -9   -2.10    2.30
  -2   0  -9  128.39   10.40
  -2   0  -9  115.49   12.30
   2   0   9  130.09   12.30
  -2   0  -9  128.29   10.30
   2   0   9  114.29    9.80
   2   0   9  133.19   12.60
  -2   0  -9  133.79   13.00
   2   0   9  117.19   10.20
   3   0   9    4.30    2.50
   3   0   9    0.90    2.50
  -3   0  -9    2.00    3.80
  -3   0  -9    3.70    3.20
  -3   0  -9    1.90    3.90
   3   0   9    1.40    3.90
  -4   0  -9  102.29   12.80
   4   0   9   81.99   11.70
  -4   0  -9   92.99    9.60
   4   0   9  113.19    9.50
  -4   0  -9  135.69   13.50
   4   0   9  113.19   10.00
  -5   0  -9  871.31   50.99
   5   0   9  923.51   46.40
  -5   0  -9  895.11   47.30
   5   0   9  949.90   47.40
   6   0   9    6.60    4.00
  -6   0  -9   10.60    3.80
  -7  -1   9   12.30    4.40
   7  -1  -9   18.60    6.10
   7  -1  -9   16.30    4.70
   7   1  -9   24.60    7.30
   7   1  -9   18.80    5.10
  -7   1   9   15.30    4.20
  -6  -1   9  157.08   12.10
   6  -1  -9  168.38   15.10
   6  -1  -9  174.38   12.70
   6   1  -9  162.68   14.70
   6   1  -9  181.18   13.20
  -6   1   9  150.18   11.20
   5  -1  -9   46.50    8.00
  -5  -1   9   38.00    6.00
   5  -1  -9   43.90    5.90
  -5  -1   9   43.20    8.10
   5   1  -9   50.19    6.60
   5   1  -9   51.99    8.30
   5   1  -9   37.00    7.50
  -5   1   9   45.50    5.90
   4  -1  -9  399.96   22.50
   4  -1  -9  384.86   25.20
  -4  -1   9  401.46   22.70
  -4  -1   9  415.36   26.00
   4  -1  -9  389.76   24.70
   4   1  -9  426.16   26.40
   4   1  -9  387.86   24.70
   4   1  -9  383.46   22.40
  -4   1   9  397.26   24.20
  -4   1   9  349.27   21.10
   3  -1  -9  467.25   27.50
   3  -1  -9  522.75   30.90
  -3  -1   9  569.84   31.60
   3  -1  -9  551.54   30.90
  -3  -1   9  523.05   31.00
  -3  -1   9  504.65   27.80
   3   1  -9  537.95   31.50
  -3   1   9  554.54   28.60
   3   1  -9  538.45   32.20
  -3   1   9  551.14   28.40
  -3   1   9  556.44   31.30
   3   1  -9  522.65   28.80
  -2  -1   9  101.99    8.30
  -2  -1   9  100.29   10.10
  -2  -1   9   96.99   11.40
   2  -1  -9  102.69    5.40
   2  -1  -9   90.19    9.70
   2  -1  -9  103.89    8.30
  -2  -1   9  115.19   10.10
   2  -1  -9   94.19   10.20
   2   1  -9  108.79   11.00
   2   1  -9  102.69    8.50
   2   1  -9   87.89    5.90
  -2   1   9   94.09    9.20
  -2   1   9   98.09    8.00
  -2   1   9   97.99    7.80
   2   1  -9   93.89   10.90
   1  -1  -9   34.20    5.20
   1  -1  -9   27.90    5.90
  -1  -1   9   27.60    4.80
  -1  -1   9   28.90    5.40
   1  -1  -9   26.10    5.50
  -1  -1   9   23.20    5.90
  -1  -1   9   32.50    6.60
   1   1  -9   22.10    5.50
   1   1  -9   21.90    4.10
  -1   1   9   30.00    4.80
   1   1  -9   31.80    6.60
  -1   1   9   23.50    4.10
  -1   1   9   32.90    6.20
   1   1  -9   28.50    3.40
   0  -1   9  535.75   27.80
   0  -1   9  566.74   31.60
   0  -1  -9  540.25   31.00
   0  -1  -9  496.95   28.20
   0  -1   9  464.35   30.10
   0  -1  -9  496.55   27.40
   0  -1  -9  483.85   29.60
   0  -1   9  561.44   29.60
   0   1  -9  560.34   31.60
   0   1  -9  520.25   30.50
   0   1   9  512.05   30.00
   0   1   9  524.05   27.50
   0   1  -9  511.15   26.10
   0   1   9  498.25   27.00
   0   1  -9  505.05   27.80
   1  -1   9  147.69   10.70
   1  -1   9  154.68   13.40
  -1  -1  -9  130.09   10.40
  -1  -1  -9  159.48   13.30
  -1  -1  -9  136.99   10.40
  -1  -1  -9  114.09   12.30
   1  -1   9  144.69   13.10
   1  -1   9  144.49   11.90
  -1   1  -9  123.59   12.10
   1   1   9  150.88   10.50
  -1   1  -9  145.09   13.60
  -1   1  -9  148.89   10.90
  -1   1  -9  142.09    9.60
   1   1   9  133.89   10.90
   1   1   9  162.78   13.20
  -2  -1  -9   73.39   10.20
   2  -1   9  101.29   10.70
  -2  -1  -9   83.29    7.80
  -2  -1  -9   80.99   10.30
  -2  -1  -9   98.49    9.40
   2  -1   9   76.99    8.70
   2  -1   9   79.09    8.20
   2  -1   9   86.99   11.10
  -2   1  -9   76.09   10.40
   2   1   9   69.99    9.60
   2   1   9   65.69    7.10
  -2   1  -9   64.79    9.30
   2   1   9   70.39    7.70
  -2   1  -9   92.79    8.80
   3  -1   9  349.07   21.10
  -3  -1  -9  365.96   24.40
  -3  -1  -9  352.26   23.90
  -3  -1  -9  330.17   20.90
   3  -1   9  392.06   25.00
   3  -1   9  351.86   21.60
   3  -1   9  330.97   24.10
  -3  -1  -9  346.27   20.00
   3   1   9  352.86   20.70
   3   1   9  366.86   21.20
  -3   1  -9  351.76   24.80
   3   1   9  362.26   24.70
  -3   1  -9  373.26   24.40
  -3   1  -9  368.66   21.70
   4  -1   9  176.58   13.30
   4  -1   9  165.98   16.40
   4  -1   9  188.68   13.60
  -4  -1  -9  191.38   14.10
  -4  -1  -9  189.98   16.30
   4  -1   9  201.88   17.30
   4   1   9  205.18   14.30
   4   1   9  194.58   17.00
  -4   1  -9  183.88   14.20
  -4   1  -9  167.08   15.90
   4   1   9  223.88   13.50
  -5  -1  -9   71.09    8.80
   5  -1   9   57.09   10.00
  -5  -1  -9   50.39    9.70
   5  -1   9   59.19    7.60
   5  -1   9   58.89    8.20
  -5   1  -9   62.19    8.10
   5   1   9   62.19    7.90
   6  -1   9   38.10    6.20
   6  -1   9   47.20    7.80
  -6  -1  -9   35.00    6.50
   6   1   9   32.20    5.90
  -6   1  -9   47.40    7.50
  -7  -2   9  245.58   17.30
   7  -2  -9  253.97   19.30
   7  -2  -9  288.27   17.70
   7   2  -9  298.27   18.70
  -7   2   9  249.18   16.20
   7   2  -9  282.27   18.60
   6  -2  -9   31.50    5.30
   6  -2  -9   38.40    7.10
  -6  -2   9   34.40    6.20
   6   2  -9   41.50    8.40
   6   2  -9   35.80    6.20
  -6   2   9   34.30    4.90
   5  -2  -9  140.39   10.80
   5  -2  -9  143.79   12.40
  -5  -2   9  116.49   10.50
  -5  -2   9  141.29   13.50
  -5   2   9  134.19    9.60
   5   2  -9  136.49   11.20
  -5   2   9  169.18   11.60
   5   2  -9  140.89   13.10
   5   2  -9  149.59   17.30
   4  -2  -9  453.25   27.20
  -4  -2   9  464.65   27.90
  -4  -2   9  385.76   26.80
   4  -2  -9  408.16   25.50
   4  -2  -9  407.56   23.30
  -4  -2   9  429.16   24.40
   4   2  -9  413.56   27.00
  -4   2   9  430.56   22.40
   4   2  -9  432.16   26.30
  -4   2   9  404.96   21.80
   4   2  -9  405.36   23.50
  -4   2   9  385.06   24.90
  -3  -2   9   38.50    5.60
   3  -2  -9   43.60    7.00
   3  -2  -9   37.80    5.50
  -3  -2   9   36.20    7.20
  -3  -2   9   57.29    8.90
   3  -2  -9   45.40    7.50
  -3   2   9   55.49    7.60
   3   2  -9   41.10    7.50
  -3   2   9   43.20    5.00
  -3   2   9   38.40    5.00
   3   2  -9   44.10    6.10
   3   2  -9   61.89    9.40
  -2  -2   9  128.79   11.70
  -2  -2   9  151.78   13.20
   2  -2  -9  147.59   12.50
   2  -2  -9  126.19    9.80
  -2  -2   9  153.78   13.60
  -2  -2   9  149.59   10.60
   2  -2  -9  139.69   11.50
   2   2  -9  134.09    8.60
   2   2  -9  138.79   10.70
   2   2  -9  142.79   13.70
   2   2  -9  145.89   12.50
  -2   2   9  157.18    9.80
  -2   2   9  153.18   12.00
  -2   2   9  137.99    9.50
   1  -2  -9  488.85   26.10
  -1  -2   9  492.45   29.60
  -1  -2   9  483.95   29.40
  -1  -2   9  445.26   26.10
  -1  -2   9  487.45   28.20
   1  -2  -9  548.95   29.70
   1  -2  -9  455.65   28.00
  -1   2   9  473.55   28.00
  -1   2   9  512.95   25.70
   1   2  -9  470.45   29.80
   1   2  -9  525.25   25.00
  -1   2   9  472.05   25.20
   1   2  -9  455.95   26.10
   1   2  -9  514.05   29.50
   0  -2  -9  231.78   17.30
   0  -2   9  232.38   17.50
   0  -2   9  231.28   16.60
   0  -2  -9  228.38   14.80
   0  -2   9  231.58   14.90
   0  -2   9  252.07   18.00
   0  -2  -9  234.58   16.70
   0  -2  -9  239.58   15.40
   0   2   9  246.58   14.40
   0   2  -9  259.77   15.60
   0   2  -9  246.78   17.60
   0   2   9  253.17   14.40
   0   2  -9  242.28   14.20
   0   2  -9  208.58   17.30
  -1  -2  -9 1227.58   62.59
  -1  -2  -9 1185.88   59.59
   1  -2   9 1197.98   63.29
   1  -2   9 1213.38   59.79
   1  -2   9 1252.17   61.49
   1  -2   9 1248.08   63.69
  -1  -2  -9 1221.18   62.89
  -1  -2  -9 1212.38   59.49
   1   2   9 1144.29   59.39
  -1   2  -9 1166.98   55.99
   1   2   9 1159.58   55.89
  -1   2  -9 1202.18   60.89
  -1   2  -9 1167.68   60.79
   1   2   9 1168.18   56.09
  -1   2  -9 1138.29   56.89
  -2  -2  -9  542.55   28.80
  -2  -2  -9  503.35   27.60
  -2  -2  -9  516.85   31.30
  -2  -2  -9  513.25   31.60
   2  -2   9  553.94   32.40
   2  -2   9  516.15   32.50
   2  -2   9  546.45   30.20
   2  -2   9  522.15   28.80
  -2   2  -9  518.45   28.40
  -2   2  -9  561.34   29.30
   2   2   9  576.54   32.60
  -2   2  -9  544.55   32.60
   2   2   9  505.05   28.20
  -3  -2  -9  184.68   13.60
  -3  -2  -9  203.38   16.30
   3  -2   9  206.18   14.70
   3  -2   9  191.08   13.90
  -3  -2  -9  179.08   12.10
   3  -2   9  217.38   17.70
   3  -2   9  193.78   16.60
  -3   2  -9  190.88   13.10
  -3   2  -9  188.48   13.10
   3   2   9  166.88   15.00
  -3   2  -9  170.38   15.80
   3   2   9  201.78   12.80
   4  -2   9  272.57   20.80
  -4  -2  -9  215.88   16.10
   4  -2   9  249.28   17.40
  -4  -2  -9  238.58   19.10
   4  -2   9  233.98   16.10
  -4   2  -9  225.98   15.50
   4   2   9  231.88   15.00
   4   2   9  232.48   14.00
  -4   2  -9  222.48   15.60
  -5  -2  -9   42.20    9.10
   5  -2   9   41.20    7.10
   5  -2   9   26.70    7.70
   5  -2   9   43.30    7.20
  -5  -2  -9   42.30    7.00
  -5   2  -9   40.30    6.20
   5   2   9   39.00    5.90
  -5   2  -9   39.00    6.70
   6  -2   9  145.29   17.10
  -6  -2  -9  123.29   15.40
   6  -2   9  130.59   12.20
  -6   2  -9  129.29   12.40
   6   2   9  121.29   11.00
   7  -3  -9  175.28   13.40
   7  -3  -9  195.88   15.80
   7   3  -9  199.48   15.20
   6  -3  -9   24.50    4.70
  -6  -3   9   22.50    5.30
   6  -3  -9   14.90    5.20
  -6  -3   9   14.70    6.20
   6   3  -9   30.30    5.80
   6   3  -9   19.60    4.40
   5  -3  -9  374.96   23.70
   5  -3  -9  375.36   21.60
  -5  -3   9  376.76   25.80
  -5  -3   9  378.36   22.60
   5   3  -9  356.86   21.50
  -5   3   9  377.16   19.20
   5   3  -9  346.37   24.30
  -4  -3   9  266.67   20.00
  -4  -3   9  273.27   20.30
   4  -3  -9  287.17   16.60
  -4  -3   9  276.27   17.30
   4  -3  -9  242.98   17.80
   4   3  -9  280.47   17.00
   4   3  -9  248.38   18.90
  -4   3   9  272.77   14.60
   3  -3  -9  127.99    9.60
  -3  -3   9  121.99   10.00
  -3  -3   9  115.09   11.90
   3  -3  -9  109.69   10.50
   3  -3  -9  141.69   12.20
   3  -3  -9  140.39   12.40
  -3  -3   9  145.09   13.50
  -3  -3   9  125.19   12.20
   3   3  -9  129.19   10.30
  -3   3   9  120.59    8.40
  -3   3   9  135.39   10.60
   3   3  -9  133.49   12.10
  -2  -3   9  448.66   26.10
   2  -3  -9  433.76   25.30
  -2  -3   9  539.95   30.70
  -2  -3   9  488.25   29.50
   2  -3  -9  481.85   28.50
   2  -3  -9  477.05   22.90
   2  -3  -9  476.05   27.20
  -2  -3   9  478.05   28.30
   2   3  -9  475.05   26.40
   2   3  -9  536.95   30.10
  -2   3   9  481.25   24.30
   2   3  -9  462.15   24.80
  -2   3   9  503.65   24.60
  -2   3   9  477.35   27.10
  -1  -3   9 1126.29   56.29
  -1  -3   9 1085.59   52.59
  -1  -3   9 1050.49   56.09
   1  -3  -9 1040.80   51.59
   1  -3  -9 1000.70   54.29
  -1  -3   9 1025.60   54.49
   1  -3  -9 1061.89   53.89
  -1   3   9 1024.80   52.39
   1   3  -9 1025.20   50.09
   1   3  -9 1089.89   54.89
  -1   3   9 1036.90   49.30
  -1   3   9 1040.90   49.50
   1   3  -9 1046.10   51.39
   0  -3  -9   10.30    3.10
   0  -3  -9   24.40    5.50
   0  -3   9   18.70    5.30
   0  -3   9   29.90    5.60
   0  -3  -9   23.30    5.50
   0  -3   9   18.60    5.50
   0  -3   9   21.50    4.30
   0  -3  -9   19.80    3.70
   0   3   9   22.00    3.40
   0   3  -9   19.40    5.40
   0   3   9   26.70    5.40
   0   3  -9   24.00    4.40
   0   3  -9   24.20    3.80
   0   3   9   28.30    3.80
   1  -3   9  161.98   14.70
   1  -3   9  179.88   12.70
  -1  -3  -9  161.18   11.50
  -1  -3  -9  155.48   11.60
  -1  -3  -9  161.58   13.90
  -1  -3  -9  158.68   13.60
   1  -3   9  199.28   14.70
   1  -3   9  178.68   15.30
  -1   3  -9  171.28   14.30
  -1   3  -9  152.18   10.80
   1   3   9  162.88   10.30
  -1   3  -9  159.28   11.50
   1   3   9  158.68   10.20
   1   3   9  151.98   12.60
   2  -3   9    5.90    3.80
   2  -3   9    3.60    2.50
  -2  -3  -9    2.50    1.90
  -2  -3  -9    3.60    3.10
   2  -3   9    2.40    2.40
  -2  -3  -9    1.50    3.90
  -2  -3  -9    8.30    3.80
   2  -3   9    8.60    4.10
   2   3   9    9.40    2.60
  -2   3  -9    5.80    3.30
   2   3   9    6.10    2.60
  -2   3  -9   12.00    3.80
  -2   3  -9   12.80    3.70
   3  -3   9   38.70    7.30
  -3  -3  -9   37.00    7.50
   3  -3   9   49.30    8.90
  -3  -3  -9   57.29    7.40
   3  -3   9   54.79    7.20
   3   3   9   48.30    5.70
  -3   3  -9   44.20    6.30
  -3   3  -9   35.20    5.90
   4  -3   9  233.98   16.20
  -4  -3  -9  220.18   15.80
  -4  -3  -9  212.38   18.50
   4  -3   9  261.57   20.40
   4  -3   9  240.58   17.30
  -4   3  -9  212.68   14.90
   4   3   9  233.28   14.80
  -4   3  -9  216.48   15.20
   5  -3   9   45.30    7.30
  -5  -3  -9   44.70    8.60
  -5  -3  -9   34.30    6.20
   5  -3   9   32.00    6.30
   5  -3   9   29.40    7.30
  -5   3  -9   33.50    6.10
  -5   3  -9   41.90    6.80
   5   3   9   45.00    6.20
  -6  -4   9   47.00    8.80
  -6  -4   9   65.59    8.30
   6  -4  -9   57.19    6.90
   6  -4  -9   53.99    8.10
   6   4  -9   56.19    7.50
   6   4  -9   40.70    6.90
  -5  -4   9  134.29   13.60
  -5  -4   9  110.99   11.40
   5  -4  -9  134.39   11.90
   5  -4  -9  119.79    9.50
   5   4  -9  113.19   10.00
   5   4  -9  120.39   11.00
  -4  -4   9   98.19   12.70
   4  -4  -9  100.19    9.30
   4  -4  -9  109.69    8.60
  -4  -4   9   81.99   10.60
  -4  -4   9  115.69   10.90
   4   4  -9   94.39    8.50
   4   4  -9  107.69   11.20
   3  -4  -9   25.00    4.30
   3  -4  -9   27.30    6.60
  -3  -4   9   27.40    6.70
  -3  -4   9   24.60    3.80
   3  -4  -9   24.00    5.10
  -3  -4   9   19.90    5.70
  -3  -4   9   20.40    4.40
   3   4  -9   21.50    6.20
   3   4  -9   30.40    5.10
   2  -4  -9   90.79    9.10
   2  -4  -9  103.39    6.70
   2  -4  -9  109.29   10.00
  -2  -4   9   95.29   11.60
  -2  -4   9  102.19   11.50
   2  -4  -9   85.99    7.50
  -2  -4   9   94.59    9.50
  -2  -4   9  142.79   16.00
  -2   4   9   97.39    8.50
   2   4  -9   93.19    9.90
   2   4  -9  102.89    8.50
   2   4  -9  106.89    8.00
  -1  -4   9  306.57   20.70
   1  -4  -9  289.47   19.00
  -1  -4   9  321.87   21.90
  -1  -4   9  279.47   18.30
  -1  -4   9  301.57   21.60
   1  -4  -9  283.57   17.00
   1  -4  -9  312.97   19.90
   1   4  -9  285.87   17.40
  -1   4   9  286.87   14.20
  -1   4   9  356.96   18.60
   1   4  -9  277.87   17.00
   1   4  -9  295.17   20.10
   0  -4  -9  343.47   19.50
   0  -4  -9  331.07   18.90
   0  -4   9  290.37   18.90
   0  -4  -9  329.37   20.60
   0  -4   9  340.57   22.70
   0  -4   9  295.77   21.20
   0  -4  -9  313.57   20.80
   0  -4   9  310.67   21.90
   0   4  -9  348.77   19.10
   0   4   9  290.57   19.30
   0   4  -9  348.37   21.70
   0   4  -9  313.07   18.60
  -1  -4  -9  336.17   24.60
   1  -4   9  325.97   23.10
   1  -4   9  330.57   22.20
  -1  -4  -9  374.16   19.80
  -1  -4  -9  381.86   23.00
  -1  -4  -9  335.17   19.90
   1  -4   9  325.37   20.40
  -1   4  -9  310.67   18.50
  -1   4  -9  325.37   18.70
   2  -4   9   39.40    6.80
   2  -4   9   24.90    6.90
  -2  -4  -9   26.30    5.10
   2  -4   9   34.10    5.80
  -2  -4  -9   28.10    5.90
   2  -4   9   29.60    7.40
  -2   4  -9   34.10    5.30
  -2   4  -9   40.00    6.00
  -3  -4  -9  276.07   18.20
   3  -4   9  310.67   18.80
   3  -4   9  301.27   22.50
   3  -4   9  256.87   19.60
  -3  -4  -9  295.57   20.70
  -3   4  -9  294.27   17.80
   3   4   9  284.67   16.30
  -3   4  -9  307.47   18.50
  -3   4  -9  272.47   17.30
   4  -4   9  605.84   35.10
  -4  -4  -9  616.04   36.60
   4  -4   9  618.64   33.40
   4  -4   9  595.24   37.30
  -4  -4  -9  584.24   33.20
  -4   4  -9  675.63   34.50
  -4   4  -9  636.64   35.00
   4   4   9  644.34   33.30
  -5  -4  -9   81.19   11.90
   5  -4   9  100.39   10.60
  -5  -4  -9   85.69    9.80
   5  -4   9   84.69   12.70
   5  -4   9   87.09   10.80
   5   4   9   93.99    8.40
  -5   4  -9   81.89    8.60
   5  -5  -9   91.79    9.50
  -5  -5   9   97.09   12.70
   5  -5  -9  102.19    8.50
  -5  -5   9  107.59   10.90
   5   5  -9  105.49   12.00
   5   5  -9  119.49   10.00
  -4  -5   9  186.58   15.10
   4  -5  -9  173.88   11.90
   4  -5  -9  184.28   13.50
  -4  -5   9  177.98   16.20
  -4  -5   9  207.38   14.40
   4   5  -9  181.28   12.50
   4   5  -9  164.78   13.80
   3  -5  -9  154.88   12.00
  -3  -5   9  158.68   12.20
   3  -5  -9  171.08   11.20
  -3  -5   9  171.58   15.10
  -3  -5   9  182.38   14.60
   3   5  -9  181.58   13.80
   3   5  -9  151.18   11.20
  -2  -5   9  174.68   15.20
  -2  -5   9  169.98   13.00
   2  -5  -9  193.98   12.00
  -2  -5   9  188.58   15.90
   2  -5  -9  178.88   13.00
   2   5  -9  162.88   11.70
   2   5  -9  191.18   14.20
  -1  -5   9  245.88   18.80
  -1  -5   9  250.57   16.60
   1  -5  -9  261.27   16.70
   1  -5  -9  268.07   20.80
   1  -5  -9  239.98   15.10
  -1  -5   9  258.87   18.80
   1   5  -9  246.48   15.60
   1   5  -9  267.27   18.10
   1   5  -9  270.67   16.20
   0  -5   9   25.20    6.20
   0  -5  -9   30.90    5.70
   0  -5  -9   23.40    4.30
   0  -5   9   28.50    4.90
   0  -5   9   23.70    6.40
   0   5  -9   26.50    5.70
   0   5  -9   23.90    4.10
   0   5  -9   23.30    4.50
  -1  -5  -9   78.59    9.60
   1  -5   9   72.49   10.30
   1  -5   9   91.39    9.10
   1  -5   9   84.59   10.40
  -1  -5  -9   81.59    8.20
  -1   5  -9   77.39    8.60
  -1   5  -9   95.59    7.70
  -1   5  -9   76.19    8.40
  -2  -5  -9   59.29    8.80
   2  -5   9   96.49    9.40
   2  -5   9   63.59    9.10
  -2  -5  -9   66.49    7.80
   2  -5   9   72.09   10.60
  -2   5  -9   84.89    7.30
  -2   5  -9   67.79    7.60
  -2   5  -9   65.09    7.80
   3  -5   9  134.09   14.50
   3  -5   9  148.29   14.50
   3  -5   9  152.48   15.20
  -3  -5  -9  126.39   12.60
  -3  -5  -9  164.08   12.20
   3  -5   9  151.78   12.10
  -3   5  -9  119.99    9.90
  -3   5  -9  130.99   10.70
  -4  -5  -9  175.48   12.90
  -4  -5  -9  168.78   15.00
   4  -5   9  161.18   15.50
   4  -5   9  155.48   12.70
   4  -5   9  151.48   14.80
  -4   5  -9  166.08   13.40
  -4   5  -9  174.28   11.90
  -4  -6   9   47.20    8.00
  -4  -6   9   46.70    6.90
   4  -6  -9   60.39    7.00
  -4  -6   9   55.79    9.10
   4   6  -9   51.49    8.00
   4   6  -9   60.69    6.60
   3  -6  -9    1.60    2.60
  -3  -6   9    8.60    3.80
  -3  -6   9    4.30    4.30
  -3  -6   9    3.90    4.30
   3   6  -9    2.20    2.70
   3   6  -9    3.10    3.00
  -2  -6   9  124.69   10.10
  -2  -6   9   95.29   12.20
   2  -6  -9   84.49    8.00
  -2  -6   9  108.29   12.10
   2   6  -9   96.99    8.00
   2   6  -9   76.89    9.80
  -1  -6   9  135.39   13.40
   1  -6  -9  114.49    9.60
  -1  -6   9  109.59   12.80
   1  -6  -9  117.99   10.10
  -1  -6   9  143.19   11.10
   1   6  -9  137.89    9.40
   1   6  -9  122.99    9.70
   1   6  -9  102.59   11.50
   0  -6   9   13.00    5.20
   0  -6   9   14.20    3.70
   0  -6  -9   16.50    4.20
   0  -6   9   10.30    4.30
   0  -6  -9   21.50    4.10
   0   6  -9   16.70    5.20
   0   6  -9   19.10    3.70
   0   6  -9   17.40    4.50
  -1  -6  -9   59.89    8.00
   1  -6   9   76.39   10.60
  -1  -6  -9   67.09    7.30
   1  -6   9   70.99   10.10
   1  -6   9   73.79    8.40
  -1   6  -9   56.99    7.30
  -1   6  -9   62.99    6.30
  -1   6  -9   55.99    7.30
   2  -6   9  232.48   15.90
  -2  -6  -9  244.78   17.40
   2  -6   9  229.48   18.30
  -2  -6  -9  214.58   15.00
   2  -6   9  298.67   20.60
  -2   6  -9  243.48   16.20
  -2   6  -9  246.48   16.50
   3  -6   9   72.19    8.40
  -3  -6  -9   75.49    8.20
   3  -6   9   73.79   10.90
  -3   6  -9   77.99   10.10
   2  -7  -9   -0.60    2.00
  -2  -7   9   -0.30    3.80
  -2  -7   9    3.30    4.40
  -2  -7   9   -0.80    2.90
   2   7  -9    1.80    3.00
  -1  -7   9   10.70    5.10
  -1  -7   9   13.00    5.50
   1  -7  -9    4.80    2.20
  -1  -7   9    3.10    3.20
   1   7  -9    3.40    2.90
   0  -7   9  405.96   27.50
   0  -7   9  402.86   27.10
   0  -7   9  465.15   25.20
   0   7  -9  464.15   28.20
   0   7  -9  504.85   27.80
   1  -7   9   15.00    4.10
   1  -7   9   14.20    6.10
  -1   7  -9   11.20    3.90
  -1   7  -9   21.70    4.90
   7   0 -10   73.19   10.60
   7   0 -10   89.99    9.60
  -7   0  10   83.09    8.80
  -6   0  10  756.62   39.90
   6   0 -10  809.32   44.50
   6   0 -10  754.32   40.50
   5   0 -10   56.19    8.90
   5   0 -10   58.19    7.60
  -5   0  10   46.40    6.10
  -4   0  10   61.69    9.40
   4   0 -10   46.00    8.20
  -4   0  10   69.49    7.50
   4   0 -10   48.60    6.60
   3   0 -10  458.45   28.90
   3   0 -10  504.15   29.90
   3   0 -10  473.85   28.50
  -3   0  10  407.96   27.50
   3   0 -10  465.25   25.50
  -3   0  10  439.96   25.00
   2   0 -10    0.30    2.30
  -2   0  10    0.50    2.60
   2   0 -10   -1.10    1.70
   2   0 -10    2.90    3.90
  -2   0  10    0.20    2.30
   2   0 -10   -0.10    0.80
   1   0 -10  195.48   15.40
   1   0 -10  182.38   13.00
   1   0 -10  185.98   15.30
  -1   0  10  174.28   14.40
  -1   0  10  196.68   12.80
   1   0 -10  176.18   10.30
   0   0 -10   55.29    7.10
   0   0 -10   66.39    5.60
   0   0  10   69.69    9.80
   0   0 -10   64.39    9.00
   0   0 -10   73.59   10.20
   0   0  10   55.29    8.00
   0   0  10   56.19    6.60
  -1   0 -10   11.30    5.20
  -1   0 -10   12.20    3.40
  -1   0 -10    9.90    4.50
   1   0  10    6.50    3.20
   1   0  10    8.60    3.40
   1   0  10   15.60    4.90
   2   0  10   34.50    5.70
  -2   0 -10   29.70    6.40
  -2   0 -10   37.00    5.70
   2   0  10   29.30    5.70
  -2   0 -10   30.20    6.90
   2   0  10   31.50    7.50
   3   0  10   -0.10    2.50
   3   0  10    0.90    3.00
  -3   0 -10   -0.40    3.00
  -3   0 -10    0.70    4.00
   3   0  10    0.60    3.90
   4   0  10  153.88   12.00
  -4   0 -10  163.78   15.90
  -4   0 -10  134.49   11.80
   4   0  10  159.98   11.90
  -5   0 -10   47.90    7.30
   5   0  10   25.10    5.30
   5   0  10   33.10    5.70
   7  -1 -10    1.00    3.60
   7  -1 -10   -3.70    3.30
  -7  -1  10   -0.60    2.20
   7   1 -10   -0.20    4.10
  -7   1  10   -1.20    2.50
   6  -1 -10   22.90    5.30
  -6  -1  10   38.50    5.90
   6  -1 -10   34.40    7.60
  -6   1  10   28.90    4.70
   6   1 -10   34.60    6.00
   6   1 -10   21.30    6.00
   5  -1 -10   20.90    5.80
  -5  -1  10   28.30    4.90
   5  -1 -10   22.00    4.50
  -5   1  10   17.50    4.10
   5   1 -10   16.10    5.20
   5   1 -10   16.40    4.10
  -4  -1  10  383.96   21.90
  -4  -1  10  400.96   25.60
   4  -1 -10  342.67   23.30
   4  -1 -10  342.37   21.10
   4   1 -10  349.96   23.50
  -4   1  10  355.36   20.20
   4   1 -10  339.57   24.20
   4   1 -10  358.06   21.10
   3  -1 -10  200.38   13.50
   3  -1 -10  202.18   16.60
   3  -1 -10  199.48   16.30
  -3  -1  10  231.28   14.10
   3  -1 -10  178.58   15.50
  -3  -1  10  209.68   16.40
  -3   1  10  199.68   13.50
  -3   1  10  231.48   16.40
   3   1 -10  203.38   14.20
   3   1 -10  212.98   16.90
   3   1 -10  202.08   17.00
   3   1 -10  223.18   17.70
  -2  -1  10   74.29   10.00
   2  -1 -10   77.59    9.80
   2  -1 -10   68.99    7.40
   2  -1 -10   77.59   10.50
  -2  -1  10   71.99    7.70
  -2  -1  10   86.79   11.00
   2   1 -10   89.49   10.80
  -2   1  10   79.09    9.60
  -2   1  10   74.49    7.30
   2   1 -10   77.09   10.60
   2   1 -10   66.69    5.00
   2   1 -10   75.49    8.10
  -1  -1  10  370.66   23.10
   1  -1 -10  382.36   23.90
   1  -1 -10  342.27   23.90
  -1  -1  10  338.57   23.50
   1  -1 -10  396.26   21.60
  -1  -1  10  390.66   24.80
  -1  -1  10  350.76   21.00
   1   1 -10  386.16   24.10
   1   1 -10  375.76   24.60
   1   1 -10  329.77   20.90
  -1   1  10  347.37   23.40
  -1   1  10  378.96   20.70
   1   1 -10  387.86   19.10
   0  -1  10   66.39   10.00
   0  -1 -10   84.09    8.60
   0  -1 -10   87.59   11.00
   0  -1  10   79.49    8.30
   0  -1  10   78.39   10.40
   0  -1 -10   91.99   10.90
   0  -1  10   95.89   10.20
   0   1 -10   87.69   10.90
   0   1 -10   95.59   12.00
   0   1  10   75.49    7.90
   0   1 -10   94.79    7.00
   0   1 -10   72.69    8.20
   0   1  10   95.89   10.00
   1  -1  10   76.59    9.30
   1  -1  10   87.69   11.70
  -1  -1 -10   79.89   10.70
   1  -1  10   82.29    8.50
   1  -1  10   62.99   10.10
  -1  -1 -10   82.09    8.60
  -1  -1 -10   69.49    9.60
   1   1  10   83.09   10.50
  -1   1 -10   77.69   10.40
  -1   1 -10   65.39    9.50
   1   1  10   83.39    8.80
   1   1  10   65.49    7.10
  -1   1 -10   73.79    8.20
  -1   1 -10   70.49    7.00
  -2  -1 -10  966.90   51.19
  -2  -1 -10  903.61   47.40
  -2  -1 -10  878.11   50.39
   2  -1  10  922.51   48.10
   2  -1  10 1015.50   52.09
   2  -1  10  912.01   50.99
   2  -1  10  904.41   47.00
   2   1  10  901.71   50.89
   2   1  10  951.40   47.00
  -2   1 -10  870.01   46.00
  -2   1 -10  896.01   47.30
  -2   1 -10 1119.99   52.99
   2   1  10  910.61   47.20
  -2   1 -10  922.51   51.29
   3  -1  10  334.77   21.40
  -3  -1 -10  358.06   24.50
  -3  -1 -10  382.26   22.10
   3  -1  10  323.67   21.10
   3  -1  10  359.36   25.30
   3   1  10  375.96   21.40
  -3   1 -10  337.17   21.40
  -3   1 -10  330.27   24.50
   3   1  10  373.36   21.40
  -4  -1 -10   42.00    6.90
  -4  -1 -10   44.50    8.50
   4  -1  10   51.49    7.40
   4  -1  10   41.60    6.70
   4  -1  10   44.70    9.00
  -4   1 -10   34.50    7.60
   4   1  10   35.90    5.40
  -4   1 -10   37.40    6.50
   4   1  10   35.30    5.70
  -5  -1 -10  193.78   18.30
   5  -1  10  219.68   15.50
   5  -1  10  206.48   15.30
  -5  -1 -10  182.88   15.00
   5   1  10  197.68   14.50
  -5   1 -10  204.28   15.00
   6  -2 -10  128.59   12.30
   6  -2 -10  111.29   10.30
  -6  -2  10  127.89   11.30
  -6   2  10  126.19    9.80
   6   2 -10  128.39   11.00
   5  -2 -10  167.98   14.50
   5  -2 -10  165.08   12.50
  -5  -2  10  145.29   14.40
  -5  -2  10  180.08   13.30
   5   2 -10  181.38   15.70
   5   2 -10  168.08   13.20
  -5   2  10  190.78   12.00
  -4  -2  10  175.78   13.00
   4  -2 -10  146.49   11.70
   4  -2 -10  179.48   14.10
  -4  -2  10  165.08   15.00
  -4   2  10  151.28   10.60
   4   2 -10  149.09   11.60
  -4   2  10  165.48   10.90
   4   2 -10  152.18   17.80
   4   2 -10  169.18   14.40
  -3  -2  10   99.29   12.10
  -3  -2  10   84.59   10.90
  -3  -2  10   94.09    9.20
   3  -2 -10   84.99    9.30
   3  -2 -10   79.99    8.40
  -3   2  10   75.99    7.20
  -3   2  10   86.59    7.50
   3   2 -10   95.49   10.20
   3   2 -10   97.69   12.70
   3   2 -10   96.79    8.30
   3   2 -10   99.19   12.20
  -2  -2  10   93.99   10.90
  -2  -2  10   97.39   12.10
  -2  -2  10  105.59   12.50
   2  -2 -10   89.29    9.50
  -2  -2  10  113.59    9.10
   2  -2 -10   95.29   10.40
   2  -2 -10  102.69    8.80
  -2   2  10   96.49    7.60
   2   2 -10   78.69   11.10
  -2   2  10   92.39    7.80
   2   2 -10   97.69    8.40
  -2   2  10   89.29    9.40
   2   2 -10   98.89   11.60
   2   2 -10   92.29    6.50
  -1  -2  10    7.00    3.60
  -1  -2  10    6.60    3.40
   1  -2 -10   14.60    3.90
  -1  -2  10    8.70    3.90
  -1  -2  10   10.50    4.10
   1  -2 -10    6.60    4.10
   1  -2 -10    7.10    3.50
  -1   2  10   13.30    2.90
   1   2 -10   11.80    3.30
   1   2 -10   11.60    4.80
   1   2 -10   12.00    5.20
   1   2 -10    8.30    2.40
  -1   2  10    9.90    3.00
   0  -2 -10  178.88   12.80
   0  -2  10  202.48   16.30
   0  -2  10  188.58   14.50
   0  -2 -10  229.38   16.80
   0  -2  10  168.58   15.20
   0  -2 -10  173.08   14.80
   0  -2  10  159.28   12.30
   0   2  10  186.48   14.50
   0   2 -10  189.68   13.00
   0   2  10  187.68   12.10
   0   2 -10  192.18   15.80
   0   2 -10  187.98   11.80
   0   2 -10  170.88   15.80
   0   2  10  186.78   12.30
   1  -2  10  234.58   18.00
  -1  -2 -10  222.08   17.80
   1  -2  10  215.88   14.70
   1  -2  10  234.68   16.80
  -1  -2 -10  230.38   17.40
   1  -2  10  230.88   18.70
  -1  -2 -10  201.48   14.70
  -1   2 -10  224.08   14.00
   1   2  10  203.88   16.50
  -1   2 -10  229.88   15.20
  -1   2 -10  225.88   17.50
   1   2  10  238.98   14.20
  -2  -2 -10   64.89    8.20
   2  -2  10   67.49    8.30
  -2  -2 -10   65.39    9.70
   2  -2  10   82.09   11.60
  -2  -2 -10   63.39    7.50
   2  -2  10   68.39    9.00
   2  -2  10   80.99   11.50
   2  -2  10   82.39   11.30
   2   2  10   69.69    7.20
  -2   2 -10   50.59    7.20
  -2   2 -10   68.69    9.80
  -2   2 -10   66.59    7.00
   3  -2  10  331.77   20.10
   3  -2  10  306.67   20.70
   3  -2  10  305.27   23.40
  -3  -2 -10  331.77   20.00
  -3  -2 -10  277.47   21.70
   3   2  10  298.87   18.50
  -3   2 -10  308.07   19.40
  -3   2 -10  306.07   22.80
  -3   2 -10  324.77   19.20
  -4  -2 -10   35.20    6.00
   4  -2  10   24.20    5.60
  -4  -2 -10   27.70    6.80
   4  -2  10   32.70    6.20
   4  -2  10   31.40    8.10
  -4   2 -10   43.10    6.80
  -4   2 -10   29.30    5.80
   4   2  10   27.10    5.50
   5  -2  10   36.40    6.80
   5  -2  10   24.10    7.80
  -5  -2 -10   31.80    6.00
   5  -2  10   24.70    5.30
  -5  -2 -10   19.60    6.90
  -5   2 -10   16.70    4.20
   5   2  10   26.90    5.30
  -5   2 -10   25.00    5.10
  -6  -3  10   20.50    5.30
   6  -3 -10   25.80    5.10
   6  -3 -10   34.00    6.70
   6   3 -10   23.60    5.50
   6   3 -10   33.60    5.70
  -5  -3  10   41.40    6.90
   5  -3 -10   55.19    8.40
   5  -3 -10   53.59    6.70
  -5  -3  10   38.40    7.90
   5   3 -10   48.50    7.00
  -4  -3  10   29.70    5.80
  -4  -3  10   30.90    7.10
   4  -3 -10   23.00    4.30
   4  -3 -10   16.60    5.00
  -4   3  10   21.10    3.20
   4   3 -10   26.90    5.10
   4   3 -10   31.30    7.30
   3  -3 -10  160.18   13.40
   3  -3 -10  156.68   11.30
  -3  -3  10  156.28   11.80
  -3  -3  10  129.69   13.50
  -3  -3  10  195.38   19.00
  -3  -3  10  158.38   13.60
   3   3 -10  172.88   12.30
  -3   3  10  148.19    9.50
   3   3 -10  144.99   13.80
   2  -3 -10  169.98   13.50
   2  -3 -10  172.38   12.00
  -2  -3  10  142.99   13.30
  -2  -3  10  168.98   15.50
  -2  -3  10  167.58   14.80
  -2  -3  10  163.78   12.40
   2   3 -10  185.18   13.00
   2   3 -10  200.68   11.70
   2   3 -10  195.78   16.30
  -2   3  10  182.08   11.30
  -1  -3  10  109.29   13.20
  -1  -3  10  113.49   12.10
   1  -3 -10  121.49    9.40
  -1  -3  10  118.79    9.70
   1  -3 -10  101.69   12.00
   1  -3 -10  117.19   10.70
  -1  -3  10   94.29   12.10
  -1   3  10  113.09    7.80
   1   3 -10  100.59    8.70
   1   3 -10   95.59    7.80
   1   3 -10  107.99   11.60
   0  -3  10  372.96   21.40
   0  -3 -10  386.76   21.30
   0  -3  10  356.06   24.80
   0  -3 -10  347.67   22.80
   0  -3  10  345.77   23.00
   0  -3  10  358.36   24.90
   0   3 -10  375.96   24.70
   0   3  10  390.26   20.10
   0   3  10  365.96   20.10
   0   3 -10  364.06   20.60
   0   3 -10  383.26   21.80
   1  -3  10  345.07   21.60
   1  -3  10  312.47   24.00
  -1  -3 -10  440.56   22.20
  -1  -3 -10  369.46   24.30
  -1  -3 -10  357.46   21.60
   1  -3  10  402.16   24.40
   1   3  10  363.46   19.30
  -1   3 -10  358.46   23.80
   1   3  10  342.27   19.00
  -1   3 -10  349.47   20.00
  -1   3 -10  324.37   20.20
   2  -3  10   94.69   12.60
  -2  -3 -10   99.59   12.00
   2  -3  10  113.49   13.90
   2  -3  10   90.79    9.70
  -2  -3 -10   98.69    8.80
   2  -3  10   97.69   11.30
   2   3  10  109.89    8.40
  -2   3 -10   86.69    9.20
  -2   3 -10  116.49    9.00
  -3  -3 -10  195.68   14.50
   3  -3  10  200.98   14.90
   3  -3  10  211.88   18.90
   3  -3  10  227.98   16.80
  -3  -3 -10  214.78   17.90
  -3   3 -10  197.68   14.20
   3   3  10  199.68   13.10
  -3   3 -10  197.78   13.60
   4  -3  10   20.70    5.10
  -4  -3 -10   18.00    5.10
   4  -3  10   15.60    6.40
   4  -3  10   18.20    5.50
  -4  -3 -10   16.20    5.90
  -4   3 -10   22.30    4.60
  -4   3 -10   13.30    4.20
   4   3  10   16.60    4.10
   5  -3  10   39.00    9.30
   5   3  10   53.79    7.00
   5  -4 -10  125.59   11.60
   5  -4 -10  115.99    9.80
  -5  -4  10  140.29   11.30
  -5  -4  10  118.09   14.60
   5   4 -10  134.39   12.50
   5   4 -10  123.89   10.60
   4  -4 -10  238.48   17.00
  -4  -4  10  249.18   20.60
   4  -4 -10  250.17   15.80
  -4  -4  10  273.47   17.30
   4   4 -10  250.57   17.70
   4   4 -10  239.68   15.80
   3  -4 -10   52.49    6.50
  -3  -4  10   57.89    9.60
  -3  -4  10   65.19    7.70
  -3  -4  10   59.39    9.00
   3  -4 -10   76.29    9.00
   3   4 -10   66.99    7.80
  -2  -4  10  141.79   14.10
  -2  -4  10  133.19   12.60
  -2  -4  10  132.79   11.30
   2  -4 -10  158.88   10.90
   2  -4 -10  137.39   12.00
   2   4 -10  141.89   10.00
   2   4 -10  157.58   11.30
   1  -4 -10   86.09    9.10
   1  -4 -10   92.19    8.00
  -1  -4  10   77.49   10.10
  -1  -4  10   72.09    8.60
  -1  -4  10   75.69   10.90
   1   4 -10   86.09    7.10
   1   4 -10   71.19    7.90
   0  -4  10   43.40    7.50
   0  -4 -10   46.50    6.10
   0  -4  10   40.00    6.20
   0  -4 -10   33.90    6.20
   0  -4  10   43.60    8.50
   0   4 -10   43.90    6.00
   0   4 -10   33.10    5.20
   1  -4  10   90.29   10.90
  -1  -4 -10  119.09   11.40
  -1  -4 -10   85.59    9.00
   1  -4  10  104.49   12.90
   1  -4  10  107.39   10.30
  -1   4 -10   89.89    8.70
   1   4  10   85.49    6.20
  -1   4 -10   88.99    7.90
   2  -4  10   47.20    6.60
   2  -4  10   47.00    8.50
  -2  -4 -10   46.20    6.40
   2  -4  10   54.19    8.30
  -2  -4 -10   48.40    8.10
  -2   4 -10   44.60    5.90
  -2   4 -10   55.79    7.00
   2   4  10   47.90    5.10
   3  -4  10   73.59    9.00
  -3  -4 -10   68.89   10.30
   3  -4  10   67.79    9.90
  -3  -4 -10   81.69    9.20
   3  -4  10   76.19   11.30
  -3   4 -10   79.19    8.40
   3   4  10   68.09    6.60
  -3   4 -10   58.09    7.50
   4  -4  10   32.50    6.60
  -4  -4 -10   38.40    6.70
   4  -4  10   41.30    8.60
   4  -4  10   41.50    6.50
  -4  -4 -10   32.40    7.40
  -4   4 -10   34.30    6.30
  -4   4 -10   41.10    6.30
  -5  -5  10   15.10    5.40
   5   5 -10   13.40    3.90
   4  -5 -10   21.70    4.90
  -4  -5  10   17.20    4.30
  -4  -5  10    3.00    5.10
   4  -5 -10   14.60    3.40
   4   5 -10   19.50    5.10
   4   5 -10   13.20    3.60
  -3  -5  10   -1.60    3.90
  -3  -5  10    3.50    3.40
   3  -5 -10    9.80    3.60
  -3  -5  10    9.80    3.50
   3  -5 -10   12.10    3.40
   3   5 -10   10.30    4.10
   3   5 -10    7.40    2.80
  -2  -5  10  203.38   16.70
  -2  -5  10  214.58   17.80
  -2  -5  10  208.68   14.80
   2  -5 -10  222.18   14.00
   2  -5 -10  221.78   15.30
   2   5 -10  197.38   13.90
   2   5 -10  234.58   16.80
  -1  -5  10  526.05   32.90
  -1  -5  10  556.94   34.00
  -1  -5  10  539.15   30.50
   1  -5 -10  601.64   29.90
   1  -5 -10  560.14   31.30
   1   5 -10  589.64   33.50
   1   5 -10  612.94   31.60
   1   5 -10  579.94   31.30
   0  -5 -10  167.18   12.30
   0  -5  10  201.58   16.80
   0  -5  10  194.38   16.30
   0  -5 -10  204.68   15.10
   0  -5  10  189.88   13.60
   0   5 -10  192.48   12.80
   0   5 -10  191.58   14.60
   0   5 -10  174.78   12.90
   1  -5  10  242.68   16.90
  -1  -5 -10  293.07   17.00
   1  -5  10  263.87   20.60
   1  -5  10  240.48   18.80
  -1  -5 -10  244.78   18.20
  -1   5 -10  254.77   17.20
  -1   5 -10  276.97   17.00
  -1   5 -10  246.28   15.90
   2  -5  10   42.10    6.50
   2  -5  10   41.30    8.20
  -2  -5 -10   42.50    6.40
  -2  -5 -10   36.60    7.20
   2  -5  10   35.80    7.20
  -2   5 -10   37.30    5.30
  -2   5 -10   31.50    5.20
  -2   5 -10   26.10    5.00
   3  -5  10  106.89   11.00
   3  -5  10   97.19   12.00
   3  -5  10   91.79   12.90
  -3  -5 -10  109.49   12.90
  -3  -5 -10  110.29    9.80
  -3   5 -10   93.59    9.70
  -3   5 -10   83.79    7.70
  -3  -6  10  157.48   15.00
  -3  -6  10  160.68   12.90
  -3  -6  10  155.78   14.30
   3   6 -10  137.89   10.60
  -2  -6  10  141.39   13.50
   2  -6 -10  143.69   11.30
  -2  -6  10  142.29   12.10
  -2  -6  10  176.58   15.60
   2   6 -10  173.78   14.20
   2   6 -10  137.99   10.40
  -1  -6  10   21.70    6.70
   1  -6 -10   16.20    4.10
  -1  -6  10   21.50    5.00
  -1  -6  10   16.20    5.20
   1   6 -10   15.60    5.10
   1   6 -10   12.60    3.50
   1   6 -10   17.60    3.70
   0  -6 -10   51.09    7.10
   0  -6  10   56.89    9.20
   0  -6  10   56.89    7.30
   0  -6  10   69.69    9.90
   0   6 -10   64.19    7.90
   0   6 -10   62.39    8.80
   0   6 -10   71.49    7.10
   1  -6  10  153.98   14.80
   1  -6  10  147.29   14.40
  -1  -6 -10  132.49   12.20
   1  -6  10  140.49   11.80
  -1  -6 -10  123.49   10.60
  -1   6 -10  158.78   12.10
  -1   6 -10  131.29   12.10
  -1   6 -10  160.18   10.90
   2  -6  10    7.90    5.20
  -2   6 -10    7.10    3.40
   6   0 -11   -1.00    4.00
   6   0 -11    1.90    3.00
  -6   0  11    0.70    3.20
   5   0 -11  305.07   21.90
  -5   0  11  346.67   19.70
   5   0 -11  284.37   19.30
   4   0 -11  119.79   10.60
   4   0 -11  132.59   12.70
  -4   0  11  138.99   10.50
  -3   0  11    2.60    2.80
   3   0 -11    2.40    3.10
   3   0 -11    1.20    3.80
  -2   0  11   44.30    7.40
   2   0 -11   36.80    5.90
   2   0 -11   37.80    3.10
   2   0 -11   46.20   10.20
  -2   0  11   34.70    5.40
   2   0 -11   43.40    7.90
  -1   0  11  342.47   22.80
   1   0 -11  320.07   22.00
  -1   0  11  311.77   19.00
   1   0 -11  318.67   16.70
   1   0 -11  292.27   19.20
   1   0 -11  332.27   23.40
   0   0 -11   24.30    6.80
   0   0  11   27.50    6.70
   0   0 -11   27.20    3.90
   0   0  11   32.10    5.00
   0   0 -11   23.50    5.00
   0   0 -11   32.10    6.80
   0   0  11   29.20    6.00
   1   0  11  658.93   37.60
  -1   0 -11  768.62   42.30
  -1   0 -11  755.22   48.20
   1   0  11  689.53   39.10
  -1   0 -11  721.63   38.50
   1   0  11  814.62   42.80
  -2   0 -11    8.40    4.80
   2   0  11   -1.30    3.80
   2   0  11    3.10    3.20
  -2   0 -11   -1.70    2.60
   2   0  11   -3.50    3.30
   2   0  11    0.50    3.00
   3   0  11    0.70    3.00
   3   0  11    0.70    2.80
  -3   0 -11   -2.50    2.20
  -3   0 -11   -2.00    3.00
  -4   0 -11   -2.00    3.80
  -4   0 -11   -0.70    3.30
   4   0  11    2.80    3.40
   4   0  11   -2.30    1.90
   6  -1 -11   55.29    9.50
  -6  -1  11   79.59    9.10
   6  -1 -11   67.79    8.20
  -6   1  11   51.99    6.90
   6   1 -11   75.39   11.00
   6   1 -11   66.19    8.20
   5  -1 -11   29.50    6.80
   5  -1 -11   30.50    6.00
  -5  -1  11   29.40    5.90
  -5   1  11   24.90    4.50
   5   1 -11   22.00    6.60
   5   1 -11   34.70    5.80
  -4  -1  11  196.58   13.90
   4  -1 -11  191.48   15.90
   4  -1 -11  178.28   13.30
   4   1 -11  156.58   12.70
   4   1 -11  185.88   15.90
  -4   1  11  171.38   12.20
   3  -1 -11   14.90    3.70
   3  -1 -11   13.80    4.50
  -3  -1  11    9.40    4.40
  -3  -1  11   10.70    3.30
   3   1 -11   18.10    5.90
  -3   1  11   10.90    3.10
   3   1 -11   15.40    4.50
   2  -1 -11  404.46   23.40
  -2  -1  11  406.16   26.70
   2  -1 -11  413.46   26.20
  -2  -1  11  389.66   23.20
   2   1 -11  409.46   26.90
   2   1 -11  389.96   19.30
  -2   1  11  373.36   21.60
   2   1 -11  392.56   22.70
   2   1 -11  364.36   25.20
   1  -1 -11  214.98   14.90
   1  -1 -11  210.08   11.90
   1  -1 -11  231.98   17.50
  -1  -1  11  242.28   18.40
  -1  -1  11  197.88   15.80
  -1  -1  11  220.08   14.60
  -1   1  11  209.18   19.30
   1   1 -11  195.48   17.60
   1   1 -11  248.88   15.40
  -1   1  11  200.98   13.70
   1   1 -11  220.78   12.20
   1   1 -11  198.88   16.80
   0  -1  11   14.70    4.50
   0  -1 -11   13.60    4.60
   0  -1 -11   13.70    4.10
   0  -1  11   17.70    4.00
   0  -1  11   13.30    5.60
   0   1 -11   16.00    5.40
   0   1 -11   19.50    6.30
   0   1 -11   15.90    3.20
   0   1 -11   15.70    4.00
   0   1  11   18.00    4.20
   0   1  11   19.40    5.30
  -1  -1 -11  167.78   15.40
  -1  -1 -11  175.68   13.10
   1  -1  11  174.48   12.70
   1  -1  11  172.48   13.70
   1  -1  11  180.98   16.00
  -1   1 -11  198.38   16.40
  -1   1 -11  160.68   15.90
  -1   1 -11  173.38   13.00
   1   1  11  183.18   12.60
  -1   1 -11  175.78   11.60
   2  -1  11   66.99   10.90
   2  -1  11   60.79   10.30
  -2  -1 -11   66.49   10.40
   2  -1  11   56.09    7.60
   2  -1  11   58.19    8.10
  -2  -1 -11   69.99    8.50
   2   1  11   53.49    7.00
  -2   1 -11   61.79    7.70
  -2   1 -11   59.89    6.80
   2   1  11   68.99    8.10
  -2   1 -11   59.49    9.50
  -3  -1 -11  161.38   13.10
   3  -1  11  166.18   12.90
   3  -1  11  164.08   13.10
   3  -1  11  155.08   15.60
  -3  -1 -11  155.88   15.00
   3   1  11  159.68   12.10
  -3   1 -11  159.28   12.80
   3   1  11  175.78   12.70
  -3   1 -11  159.58   15.80
  -3   1 -11  154.48   11.90
  -4  -1 -11  400.56   24.70
   4  -1  11  409.36   25.00
  -4  -1 -11  395.96   27.80
   4   1  11  405.26   24.10
  -4   1 -11  414.76   24.70
  -6  -2  11   92.09   10.20
   6  -2 -11  127.39   12.60
   6  -2 -11  123.29   10.20
  -6   2  11  106.69    8.50
  -5  -2  11   85.59    9.40
   5  -2 -11  106.29   10.30
   5  -2 -11   86.89   10.90
   5   2 -11  101.29    9.90
  -5   2  11   91.69    8.10
   5   2 -11  110.19   13.60
  -4  -2  11  211.78   14.80
  -4  -2  11  208.28   18.20
   4  -2 -11  212.18   16.70
   4  -2 -11  209.58   14.60
   4   2 -11  214.48   14.70
   4   2 -11  193.48   16.80
  -4   2  11  189.48   12.60
  -3  -2  11  219.88   14.80
   3  -2 -11  202.68   14.40
  -3  -2  11  231.68   18.50
   3  -2 -11  215.38   16.50
   3   2 -11  245.88   16.40
   3   2 -11  244.38   19.10
  -3   2  11  253.17   15.10
  -2  -2  11  344.37   19.70
  -2  -2  11  297.87   20.80
   2  -2 -11  293.77   18.50
   2  -2 -11  287.67   20.80
  -2  -2  11  323.07   22.80
   2   2 -11  334.87   16.70
   2   2 -11  298.67   21.90
   2   2 -11  299.27   19.00
  -2   2  11  308.57   17.90
  -1  -2  11   44.80    6.60
   1  -2 -11   32.90    5.70
   1  -2 -11   47.50    8.10
  -1  -2  11   47.00    9.00
  -1  -2  11   40.40    7.30
  -1  -2  11   33.70    7.60
   1   2 -11   45.40    7.80
   1   2 -11   32.20    5.40
   1   2 -11   49.60    5.10
  -1   2  11   38.70    5.20
   0  -2  11  504.45   33.30
   0  -2 -11  620.74   33.80
   0  -2  11  509.75   29.50
   0  -2 -11  532.85   29.70
   0  -2  11  565.64   32.20
   0  -2  11  538.45   33.70
   0   2 -11  544.15   30.10
   0   2 -11  579.14   33.60
   0   2  11  549.35   28.80
   0   2 -11  531.65   28.20
  -1  -2 -11   36.40    7.10
   1  -2  11   53.79    7.30
  -1  -2 -11   44.30    6.60
   1  -2  11   42.10    7.90
   1  -2  11   49.70    7.90
  -1   2 -11   44.10    7.90
  -1   2 -11   48.50    7.00
   1   2  11   40.90    5.50
  -1   2 -11   38.60    5.60
   2  -2  11  253.97   18.20
  -2  -2 -11  252.37   19.30
   2  -2  11  228.38   19.30
   2  -2  11  232.48   16.30
  -2  -2 -11  234.48   16.60
  -2   2 -11  268.17   16.30
  -2   2 -11  282.57   23.20
   2   2  11  277.17   16.70
  -2   2 -11  231.58   16.70
   3  -2  11  126.89   15.60
  -3  -2 -11  139.59   14.00
  -3  -2 -11  127.49   12.30
   3  -2  11  129.09   11.40
   3  -2  11  142.09   12.70
   3   2  11  126.19   10.60
  -3   2 -11  149.59   11.70
  -3   2 -11  124.19   10.70
  -4  -2 -11   32.30    8.40
   4  -2  11   31.60    6.80
  -4  -2 -11   31.60    5.90
   4  -2  11   31.60    6.50
  -4   2 -11   34.20    6.10
  -4   2 -11   35.10    6.00
   5  -3 -11  431.36   24.40
  -5  -3  11  417.16   25.10
   5  -3 -11  400.96   26.30
   5   3 -11  397.56   23.50
  -4  -3  11  123.99   13.60
   4  -3 -11  142.29   12.40
  -4  -3  11  126.79   12.20
   4  -3 -11  133.99   10.80
   4   3 -11  129.09   11.20
  -3  -3  11    1.40    3.20
   3  -3 -11    2.90    3.40
  -3  -3  11   -2.40    2.40
   3  -3 -11    1.40    2.10
  -3  -3  11   -1.70    1.90
  -3   3  11    3.80    2.00
   3   3 -11    4.50    2.80
   2  -3 -11  238.38   15.50
  -2  -3  11  240.98   16.10
   2  -3 -11  260.37   18.30
  -2  -3  11  253.87   18.50
  -2  -3  11  229.18   18.80
   2   3 -11  258.67   16.80
   2   3 -11  230.18   21.60
   2   3 -11  262.97   14.80
  -2   3  11  263.77   14.70
   1  -3 -11  294.37   17.10
  -1  -3  11  254.37   18.60
  -1  -3  11  233.28   16.40
   1  -3 -11  258.97   18.70
  -1  -3  11  249.78   19.90
   1   3 -11  252.87   14.80
   1   3 -11  249.97   16.10
   1   3 -11  249.38   19.70
   0  -3  11   56.49    7.30
   0  -3 -11   68.29    9.70
   0  -3  11   58.19    9.80
   0  -3  11   72.29   10.00
   0  -3 -11   60.19    7.60
   0   3 -11   63.29    7.40
   0   3 -11   63.29    6.60
   0   3  11   50.09    5.70
   1  -3  11   83.39    9.20
   1  -3  11   69.39    9.50
  -1  -3 -11   73.49   10.20
   1  -3  11   61.49   10.10
  -1  -3 -11   67.29    7.80
  -1   3 -11   62.79    7.00
   1   3  11   70.79    6.80
  -1   3 -11   77.99    8.50
  -2  -3 -11  535.15   29.60
  -2  -3 -11  518.55   32.70
   2  -3  11  527.45   33.30
   2  -3  11  490.35   31.00
   2  -3  11  529.45   29.70
  -2   3 -11  526.25   28.80
   2   3  11  533.35   27.80
  -2   3 -11  521.35   29.30
  -3  -3 -11   47.20    7.00
   3  -3  11   31.40    7.90
  -3  -3 -11   34.50    7.80
   3  -3  11   35.80    6.40
   3  -3  11   25.00    7.60
   3  -3  11   29.00    6.90
  -3   3 -11   33.30    6.00
  -3   3 -11   36.60    5.60
  -4  -3 -11   34.90    6.70
   4  -3  11   34.80    8.00
  -4  -3 -11   33.30    8.20
   4  -3  11   43.80    8.00
  -4   3 -11   49.10    6.70
  -4   3 -11   33.10    6.10
   4   3  11   28.20    5.20
   5  -4 -11   14.70    4.10
   5   4 -11   12.40    4.60
   4  -4 -11   49.99    7.90
   4  -4 -11   62.99    7.50
  -4  -4  11   62.09    7.90
  -4  -4  11   32.60    8.30
   4   4 -11   40.60    6.10
  -3  -4  11  470.35   29.40
   3  -4 -11  428.06   27.90
  -3  -4  11  539.95   32.00
   3  -4 -11  474.65   26.00
  -3  -4  11  450.85   26.80
   3   4 -11  471.35   26.50
  -2  -4  11  157.28   14.10
  -2  -4  11  150.68   12.00
  -2  -4  11  140.49   14.20
   2  -4 -11  156.48   13.00
   2  -4 -11  163.58   11.80
   2   4 -11  158.18   10.80
   2   4 -11  172.18   12.70
  -1  -4  11    7.10    4.20
  -1  -4  11    7.00    3.10
   1  -4 -11    3.10    2.70
  -1  -4  11    0.50    4.10
   1  -4 -11    2.10    2.50
   1   4 -11    4.40    3.00
   1   4 -11    4.60    2.50
   0  -4 -11  242.28   17.80
   0  -4 -11  205.18   14.90
   0  -4  11  213.38   15.50
   0  -4  11  228.78   17.60
   0  -4  11  251.97   19.80
   0   4 -11  211.38   13.70
   0   4 -11  211.38   14.40
  -1  -4 -11   26.40    5.10
   1  -4  11   31.40    5.60
   1  -4  11   28.10    6.20
   1  -4  11   27.40    6.80
  -1  -4 -11   27.90    6.50
  -1   4 -11   34.00    5.50
  -1   4 -11   27.50    5.00
   2  -4  11   11.20    4.80
  -2  -4 -11   14.10    4.70
   2  -4  11    8.90    4.20
  -2  -4 -11    9.10    3.90
   2  -4  11   11.70    3.80
  -2   4 -11   15.20    4.20
  -2   4 -11    9.40    3.30
  -3  -4 -11  181.38   16.30
   3  -4  11  160.78   13.10
  -3  -4 -11  151.88   13.00
   3  -4  11  161.88   16.70
   3  -4  11  171.38   15.20
  -3   4 -11  163.28   12.80
  -3   4 -11  163.48   12.50
  -3  -5  11    2.50    3.30
  -3  -5  11    5.50    5.10
   3  -5 -11    1.90    2.60
  -3  -5  11   -1.60    1.80
   3  -5 -11    0.40    2.70
   3   5 -11   -0.30    3.50
   3   5 -11    1.80    2.20
   2  -5 -11   53.49    6.60
  -2  -5  11   59.69    9.70
  -2  -5  11   62.59    8.00
   2  -5 -11   47.30    7.30
  -2  -5  11   52.69    8.50
   2   5 -11   53.59    8.30
   2   5 -11   53.29    6.70
  -1  -5  11   32.80    7.70
  -1  -5  11   37.10    8.40
   1  -5 -11   37.40    5.70
  -1  -5  11   51.69    7.40
   1  -5 -11   35.10    6.10
   1   5 -11   34.10    6.90
   1   5 -11   42.50    5.80
   1   5 -11   35.90    5.50
   0  -5  11    8.50    3.30
   0  -5  11   10.80    5.50
   0  -5 -11   10.80    4.30
   0  -5 -11   13.10    3.50
   0  -5  11   11.40    4.60
   0   5 -11    5.70    4.00
   0   5 -11    9.80    3.70
   0   5 -11    6.40    2.80
   1  -5  11  127.59   12.00
  -1  -5 -11  115.09   11.30
   1  -5  11  120.19   13.20
   1  -5  11  107.09   14.00
  -1  -5 -11  112.19   10.10
  -1   5 -11   94.29    9.10
  -1   5 -11   99.19    9.70
  -2  -5 -11  164.68   13.40
  -2  -5 -11  196.68   18.20
   2  -5  11  204.08   14.70
   2  -5  11  182.28   17.50
  -2   5 -11  174.88   13.40
  -2   5 -11  170.48   13.10
  -5   0  12    2.40    2.60
   5   0 -12    7.30    3.70
   5   0 -12    2.60    4.30
  -4   0  12   26.10    4.90
   4   0 -12   29.30    5.80
   4   0 -12   33.10    7.70
   3   0 -12   32.10    5.70
   3   0 -12   19.60    6.30
  -3   0  12   16.00    4.30
   2   0 -12  227.38   15.40
  -2   0  12  220.98   15.00
   2   0 -12  210.38   17.80
  -1   0  12    2.70    2.50
   1   0 -12    5.10    1.80
   1   0 -12    9.00    3.20
   1   0 -12    5.70    3.30
   0   0 -12  341.37   18.20
   0   0 -12  310.67   20.30
   0   0 -12  333.37   23.40
   0   0  12  318.57   21.50
   0   0  12  336.17   20.10
  -1   0 -12  190.98   17.60
   1   0  12  235.28   15.30
   1   0  12  230.58   16.70
  -1   0 -12  230.58   15.80
  -1   0 -12  207.08   13.50
  -2   0 -12    3.40    2.70
   2   0  12    7.80    3.20
   2   0  12    1.90    3.30
  -2   0 -12    2.80    3.50
  -3   0 -12  114.39   11.90
   3   0  12  140.79   12.20
   3   0  12  141.19   11.80
  -3   0 -12  138.49   14.30
  -5  -1  12   49.00    7.30
   5  -1 -12   43.90    6.60
   5  -1 -12   37.60    7.40
   5   1 -12   40.90    7.80
  -5   1  12   32.70    5.60
   5   1 -12   36.70    6.50
   4  -1 -12  252.37   19.10
  -4  -1  12  262.27   17.10
   4  -1 -12  258.97   16.80
   4   1 -12  258.57   19.90
  -4   1  12  277.07   16.80
   4   1 -12  242.08   16.90
   3  -1 -12  118.19    9.90
   3  -1 -12  107.09   11.60
  -3  -1  12  116.59    9.90
  -3   1  12  128.49   10.20
   3   1 -12  138.69   14.10
   3   1 -12  146.19   11.70
   2  -1 -12  257.07   16.50
  -2  -1  12  252.27   16.30
   2  -1 -12  228.98   18.50
  -2   1  12  252.47   15.80
   2   1 -12  257.57   19.90
   2   1 -12  232.38   16.40
   1  -1 -12   33.60    6.80
   1  -1 -12   31.90    5.90
   1  -1 -12   36.10    3.90
  -1  -1  12   30.20    6.40
  -1  -1  12   33.10    5.40
  -1  -1  12   31.60    7.10
   1   1 -12   35.50    4.10
   1   1 -12   34.90    5.60
  -1   1  12   34.40    5.10
   1   1 -12   28.10    6.40
   0  -1 -12   57.09    9.50
   0  -1  12   59.39    9.00
   0  -1 -12   50.69    7.20
   0  -1  12   68.09    7.90
   0  -1  12   74.29   11.40
   0   1 -12   56.69    7.20
   0   1  12   63.39    7.30
   0   1 -12   65.99   10.20
   0   1 -12   48.90    5.70
  -1  -1 -12   30.70    6.00
   1  -1  12   35.90    7.20
   1  -1  12   38.60    6.50
  -1  -1 -12   24.30    6.40
  -1   1 -12   31.70    5.50
  -1   1 -12   35.10    4.90
  -1   1 -12   20.20    6.40
   1   1  12   27.40    4.70
   2  -1  12    0.20    3.50
  -2  -1 -12    0.90    2.20
  -2  -1 -12    5.50    3.80
   2  -1  12    7.20    3.60
  -2   1 -12    3.20    4.80
  -2   1 -12   -0.70    2.50
   2   1  12    1.50    2.90
  -2   1 -12    2.70    3.40
   3  -1  12   41.80    6.70
   3  -1  12   52.19    7.60
  -3  -1 -12   50.79    7.40
  -3  -1 -12   46.20    8.80
  -3   1 -12   54.89    8.10
  -3   1 -12   50.09    6.50
   3   1  12   46.20    7.10
   3   1  12   52.29    7.30
  -5  -2  12   13.10    4.10
   5  -2 -12   15.20    5.70
   5  -2 -12   13.80    4.60
  -5   2  12   14.10    3.80
  -4  -2  12   55.39    7.40
   4  -2 -12   50.69    7.10
   4  -2 -12   36.30    7.50
   4   2 -12   48.70    7.00
  -4   2  12   48.90    5.90
   3  -2 -12   36.30    5.80
   3  -2 -12   42.10    7.50
  -3  -2  12   41.90    6.20
  -3   2  12   47.10    5.70
   3   2 -12   27.50    5.60
   3   2 -12   42.60    8.20
   2  -2 -12  139.39   13.50
   2  -2 -12  143.79   11.30
  -2  -2  12  125.99   10.70
  -2  -2  12  142.59   13.00
  -2  -2  12  122.59   13.30
  -2   2  12  154.38   10.70
   2   2 -12  157.08   14.20
   2   2 -12  125.99   11.00
  -1  -2  12  190.28   13.60
   1  -2 -12  185.48   13.30
  -1  -2  12  183.98   15.70
   1  -2 -12  166.98   15.40
  -1  -2  12  189.18   16.70
   1   2 -12  164.68   15.50
  -1   2  12  173.58   11.70
   1   2 -12  160.68   10.60
   1   2 -12  183.38   13.20
   0  -2 -12   74.99   10.90
   0  -2  12   96.29    9.60
   0  -2  12   65.79    9.40
   0  -2  12   91.49   12.30
   0  -2 -12   67.19    8.40
   0   2  12   74.19    7.40
   0   2 -12   53.49    9.40
   0   2 -12   69.39    8.40
   0   2 -12   78.09    7.10
   1  -2  12  277.07   21.00
  -1  -2 -12  203.48   15.30
   1  -2  12  227.38   15.80
   1  -2  12  201.98   16.70
  -1  -2 -12  253.97   19.20
  -1   2 -12  264.87   17.60
   1   2  12  271.77   16.30
  -1   2 -12  242.68   15.70
  -2  -2 -12  108.39   13.70
   2  -2  12  113.79   12.40
  -2  -2 -12  115.69   11.70
   2  -2  12  119.49   10.50
   2  -2  12  125.09   15.90
  -2   2 -12  108.89    9.10
  -2   2 -12  101.09   10.50
   2   2  12  131.29   10.00
   3  -2  12  138.19   13.20
   3  -2  12  152.58   12.60
  -3  -2 -12  148.59   12.80
  -3  -2 -12  134.39   14.50
  -3   2 -12  152.08   11.90
  -3   2 -12  137.89   11.90
   3   2  12  161.48   12.10
  -4  -3  12   64.29    8.50
   4  -3 -12   61.89    7.80
   4  -3 -12   45.90    8.20
   4   3 -12   52.39    7.10
  -3  -3  12  256.77   20.80
  -3  -3  12  297.47   18.60
   3  -3 -12  249.78   17.10
  -3  -3  12  259.47   20.10
   3  -3 -12  286.97   20.10
   3   3 -12  273.07   18.20
  -2  -3  12    7.40    5.20
  -2  -3  12    4.50    3.70
   2  -3 -12    4.40    2.60
  -2  -3  12   10.10    4.00
   2  -3 -12    5.20    3.50
   2   3 -12    3.60    3.30
  -2   3  12    9.10    2.70
  -1  -3  12   35.60    8.20
  -1  -3  12   37.60    6.60
   1  -3 -12   43.30    6.50
   1  -3 -12   42.10    7.80
  -1  -3  12   39.70    8.10
   1   3 -12   37.10    6.00
   1   3 -12   34.30    4.60
  -1   3  12   29.00    4.20
   0  -3  12   85.19   11.20
   0  -3  12  102.39   13.50
   0  -3 -12   99.09   10.00
   0  -3 -12  107.39   12.70
   0  -3  12  106.29   10.60
   0   3 -12   87.99    9.00
   0   3 -12   86.49    8.10
  -1  -3 -12   31.60    6.70
   1  -3  12   30.40    7.20
  -1  -3 -12   30.50    5.60
   1  -3  12   22.90    5.80
   1  -3  12   21.10    4.80
  -1   3 -12   24.70    5.40
  -1   3 -12   25.20    4.40
   1   3  12   23.30    4.20
   2  -3  12    0.40    2.50
   2  -3  12    1.30    4.50
   2  -3  12   -4.00    2.70
  -2  -3 -12   -2.80    2.70
  -2  -3 -12    0.20    2.50
  -2   3 -12    3.20    2.90
  -2   3 -12   -2.00    1.60
   2   3  12    1.70    2.50
  -3  -4  12    9.00    4.70
   3  -4 -12   12.20    3.90
  -3  -4  12    5.90    4.70
   3  -4 -12   11.30    4.10
  -3  -4  12   18.80    6.80
   3   4 -12    9.80    4.00
  -2  -4  12  139.59   14.70
  -2  -4  12  166.88   15.80
   2  -4 -12  183.58   14.80
  -2  -4  12  173.58   13.40
   2  -4 -12  159.28   12.20
   2   4 -12  141.19   11.70
  -1  -4  12  190.38   14.00
   1  -4 -12  217.88   13.80
   1  -4 -12  143.79   13.90
  -1  -4  12  210.48   18.00
  -1  -4  12  175.38   15.50
   1   4 -12  182.48   13.40
   1   4 -12  181.78   12.20
   0  -4  12   37.60    8.10
   0  -4 -12   32.60    6.90
   0  -4  12   32.90    6.40
   0  -4  12   40.80    8.50
   0  -4 -12   44.00    6.50
   0   4 -12   31.70    5.20
   0   4 -12   39.20    6.20
   1  -4  12    4.30    2.80
  -1  -4 -12    8.70    3.40
   1  -4  12    7.00    4.20
  -1  -4 -12    9.50    4.20
   1  -4  12   12.40    5.50
  -1   4 -12   10.50    3.10
  -1   4 -12    8.40    3.40
   4   0 -13  101.69   10.50
  -4   0  13  107.19    9.30
   4   0 -13   83.59   11.90
  -3   0  13    1.20    2.20
   3   0 -13    0.50    4.20
   3   0 -13    2.30    3.40
   2   0 -13   53.09    7.50
   2   0 -13   53.29    8.90
  -2   0  13   53.89    6.90
   1   0 -13   27.50    5.20
   1   0 -13   31.20    7.50
  -1   0  13   20.50    4.50
   0   0 -13  133.09   11.80
   0   0 -13  130.99   10.10
   0   0  13  139.39   11.40
   0   0 -13  132.59   13.60
  -1   0 -13   78.39    7.60
   1   0  13   80.59    8.70
   1   0  13   94.19   10.50
  -1   0 -13   68.19   10.90
  -1   0 -13   66.29    8.40
  -2   0 -13  409.76   29.10
  -2   0 -13  442.76   26.00
   2   0  13  411.36   26.20
   2   0  13  435.26   25.30
  -2   0 -13  419.86   23.60
  -4  -1  13   84.99    9.30
   4  -1 -13   62.29    7.90
   4  -1 -13   49.40    8.70
   4   1 -13   75.39   10.80
  -4   1  13   61.29    7.40
   4   1 -13   67.99    9.20
   3  -1 -13  193.38   17.10
  -3  -1  13  202.28   14.60
   3  -1 -13  200.78   14.60
   3   1 -13  212.08   15.50
   3   1 -13  227.78   19.30
  -3   1  13  214.78   14.80
   2  -1 -13   51.69    9.20
  -2  -1  13   55.39    7.60
   2  -1 -13   44.00    6.90
  -2   1  13   56.99    6.80
   2   1 -13   43.20    8.30
   2   1 -13   53.99    7.30
   1  -1 -13  101.99   10.40
  -1  -1  13   92.39    9.80
   1  -1 -13   95.09   11.90
   1   1 -13  134.09   15.00
  -1   1  13   99.29    9.90
   1   1 -13  107.59   10.80
   0  -1 -13  347.57   22.30
   0  -1 -13  414.56   26.80
   0  -1  13  350.16   23.90
   0  -1  13  368.96   22.50
   0   1 -13  345.07   25.20
   0   1 -13  340.87   19.50
   0   1 -13  362.16   22.20
   0   1  13  378.76   21.20
   1  -1  13   17.90    5.00
   1  -1  13   18.60    4.40
  -1  -1 -13   13.40    4.30
  -1  -1 -13   19.20    6.50
  -1   1 -13   10.90    3.10
  -1   1 -13    8.30    3.60
   1   1  13   13.80    4.40
   2  -1  13   30.10    5.60
  -2  -1 -13   34.90    8.10
   2  -1  13   41.70    7.50
  -2  -1 -13   19.70    5.00
  -2   1 -13   36.50    7.40
   2   1  13   22.40    4.60
  -2   1 -13   28.80    5.00
   4  -2 -13   86.19    9.60
   4  -2 -13   75.49   10.40
   3  -2 -13   20.60    4.80
  -3  -2  13   12.90    4.50
   3  -2 -13   10.20    4.40
  -3   2  13    4.70    2.80
   3   2 -13   13.70    4.60
  -2  -2  13  352.46   22.60
   2  -2 -13  393.66   22.80
   2  -2 -13  361.96   25.30
   2   2 -13  319.17   20.70
  -2   2  13  351.76   19.70
  -1  -2  13   76.29    9.20
   1  -2 -13   91.49    9.80
  -1  -2  13  110.09   12.90
   1  -2 -13   98.89   12.50
   1   2 -13   80.29    9.10
  -1   2  13   92.49    8.20
   0  -2  13   11.30    5.50
   0  -2 -13    9.70    4.60
   0  -2 -13   10.60    4.30
   0  -2  13   13.60    4.50
   0   2 -13   17.40    4.30
   0   2 -13   19.30    3.70
   0   2  13   15.50    3.90
  -1  -2 -13  268.77   18.60
   1  -2  13  299.57   21.00
   1  -2  13  275.17   18.60
  -1  -2 -13  278.47   21.60
  -1   2 -13  279.07   18.30
  -1   2 -13  269.67   16.50
   1   2  13  251.47   16.60
  -2  -2 -13   89.19   11.70
  -2  -2 -13   83.59   11.70
   2  -2  13   93.39   11.10
  -2   2 -13   79.19    8.50
   2   2  13   92.99    8.20
   3  -3 -13    5.00    3.50
   3  -3 -13    8.60    4.90
  -2  -3  13   12.10    4.40
   2  -3 -13   22.80    4.90
  -2  -3  13   11.40    5.50
   2  -3 -13   16.50    5.60
   2   3 -13   15.70    4.70
   1  -3 -13  312.07   19.80
  -1  -3  13  284.37   20.10
   1  -3 -13  349.37   23.20
   1   3 -13  339.67   21.20
   0  -3 -13   40.50    6.90
   0  -3 -13   46.20    8.50
   0  -3  13   61.49    9.60
   0   3 -13   49.10    7.10
   0   3 -13   49.80    6.10
  -1  -3 -13  178.68   16.30
  -1  -3 -13  145.39   12.70
   1  -3  13  164.18   15.30
  -1   3 -13  146.19   11.90
   1   3  13  153.68   10.80
  -1   3 -13  126.59   10.60
   2   0 -14   17.60    6.30
  -2   0  14    4.10    3.30
   1   0 -14    5.30    4.60
  -1   0  14    7.10    2.90
   0   0 -14   29.20    7.50
   0   0  14   27.70    5.70
   2  -1 -14   26.70    6.50
  -2  -1  14   20.00    6.10
  -2   1  14   18.00    4.40
  -1  -1  14  103.49   10.60
   1  -1 -14   95.09   12.70
  -1   1  14   87.69    9.00
   0   1  14   20.80    4.40
   0   0   0    0.00    0.00

_computing_structure_solution     'SHELXT 2014/5 (Sheldrick, 2014)'
;
_shelx_hkl_checksum              53792
_shelx_shelxl_version_number     2014/7
_olex2_submission_special_instructions 'No special instructions were received'
loop_
_space_group_symop_operation_xyz
'x, y, z'
'-x, y+1/2, -z'
loop_
_atom_site_label
_atom_site_type_symbol
_atom_site_fract_x
_atom_site_fract_y
_atom_site_fract_z
_atom_site_U_iso_or_equiv
_atom_site_adp_type
_atom_site_occupancy
_atom_site_site_symmetry_order
_atom_site_calc_flag
_atom_site_refinement_flags_posn
Cl1 Cl 0.34350(7) 0.80664(7) 0.86345(5) 0.02054(14) Uani 1 1 d .
O1 O 0.4774(2) 0.7043(2) 0.61505(14) 0.0182(4) Uani 1 1 d .
O2 O 0.8076(2) 0.5975(2) 0.72540(14) 0.0178(3) Uani 1 1 d D
H2 H 0.780(5) 0.698(4) 0.686(3) 0.047(10) Uiso 1 1 d D
N1 N 0.1435(2) 0.5709(3) 0.63106(16) 0.0148(4) Uani 1 1 d D
H1A H 0.032(3) 0.543(3) 0.661(2) 0.015(6) Uiso 1 1 d D
H1B H 0.150(4) 0.696(3) 0.633(2) 0.025(7) Uiso 1 1 d D
H1C H 0.127(4) 0.541(4) 0.550(2) 0.034(8) Uiso 1 1 d D
C1 C 0.4775(3) 0.5761(3) 0.68030(18) 0.0135(4) Uani 1 1 d .
C2 C 0.6514(3) 0.4903(3) 0.73704(19) 0.0147(4) Uani 1 1 d .
H2A H 0.6418 0.4707 0.8232 0.018 Uiso 1 1 calc R
C3 C 0.6696(3) 0.3098(3) 0.67701(19) 0.0174(4) Uani 1 1 d .
H3A H 0.6881 0.3289 0.5930 0.021 Uiso 1 1 calc R
H3B H 0.7785 0.2466 0.7164 0.021 Uiso 1 1 calc R
C4 C 0.4999(3) 0.1942(3) 0.6828(2) 0.0180(5) Uani 1 1 d .
H4A H 0.4909 0.1610 0.7663 0.022 Uiso 1 1 calc R
H4B H 0.5116 0.0831 0.6372 0.022 Uiso 1 1 calc R
C5 C 0.3260(3) 0.2929(3) 0.63235(19) 0.0157(4) Uani 1 1 d .
H5A H 0.2185 0.2160 0.6397 0.019 Uiso 1 1 calc R
H5B H 0.3306 0.3162 0.5470 0.019 Uiso 1 1 calc R
C6 C 0.3019(3) 0.4724(3) 0.69667(18) 0.0133(4) Uani 1 1 d .
C7 C 0.2673(3) 0.4519(3) 0.82684(17) 0.0144(4) Uani 1 1 d .
C8 C 0.2804(3) 0.5943(3) 0.90638(19) 0.0159(4) Uani 1 1 d .
C9 C 0.2417(3) 0.5760(4) 1.02232(19) 0.0199(5) Uani 1 1 d .
H9 H 0.2526 0.6758 1.0743 0.024 Uiso 1 1 calc R
C10 C 0.1874(3) 0.4126(3) 1.0622(2) 0.0230(6) Uani 1 1 d .
H10 H 0.1611 0.3991 1.1416 0.028 Uiso 1 1 calc R
C11 C 0.1716(3) 0.2689(3) 0.9853(2) 0.0213(5) Uani 1 1 d .
H11 H 0.1348 0.1560 1.0122 0.026 Uiso 1 1 calc R
C12 C 0.2091(3) 0.2884(3) 0.86892(19) 0.0179(4) Uani 1 1 d .
H12 H 0.1950 0.1888 0.8169 0.022 Uiso 1 1 calc R
Cl2 Cl 0.03786(7) 0.45154(7) 0.37081(4) 0.01698(13) Uani 1 1 d .
loop_
_atom_site_aniso_label
_atom_site_aniso_U_11
_atom_site_aniso_U_22
_atom_site_aniso_U_33
_atom_site_aniso_U_23
_atom_site_aniso_U_13
_atom_site_aniso_U_12
Cl1 0.0259(3) 0.0149(3) 0.0208(3) -0.0028(2) 0.0030(2) -0.0016(2)
O1 0.0179(8) 0.0173(9) 0.0203(8) 0.0038(7) 0.0055(6) 0.0004(6)
O2 0.0116(7) 0.0189(9) 0.0232(8) 0.0022(7) 0.0032(6) -0.0008(6)
N1 0.0129(9) 0.0167(10) 0.0147(9) -0.0001(8) 0.0019(7) 0.0010(7)
C1 0.0165(10) 0.0125(11) 0.0122(10) -0.0034(8) 0.0044(8) 0.0004(9)
C2 0.0134(10) 0.0151(11) 0.0159(10) 0.0014(8) 0.0028(8) -0.0010(8)
C3 0.0163(10) 0.0158(10) 0.0201(10) -0.0005(10) 0.0016(8) 0.0041(10)
C4 0.0196(12) 0.0137(12) 0.0205(12) -0.0017(9) 0.0024(9) 0.0023(9)
C5 0.0162(10) 0.0151(10) 0.0156(10) -0.0027(9) 0.0012(8) -0.0002(9)
C6 0.0119(9) 0.0134(11) 0.0145(10) -0.0003(9) 0.0013(7) 0.0005(8)
C7 0.0103(9) 0.0185(10) 0.0144(10) 0.0013(10) 0.0013(7) 0.0025(10)
C8 0.0124(10) 0.0175(11) 0.0175(11) 0.0015(9) 0.0005(8) 0.0009(9)
C9 0.0183(11) 0.0250(12) 0.0160(11) -0.0015(10) 0.0008(9) 0.0059(10)
C10 0.0182(11) 0.0349(16) 0.0160(11) 0.0061(10) 0.0028(9) 0.0043(10)
C11 0.0154(11) 0.0251(14) 0.0237(12) 0.0093(10) 0.0041(9) 0.0010(9)
C12 0.0140(10) 0.0198(11) 0.0198(11) 0.0011(10) 0.0013(8) -0.0014(9)
Cl2 0.0196(3) 0.0150(3) 0.0160(2) -0.0002(2) 0.00087(19) -0.0007(2)
loop_
_atom_type_symbol
_atom_type_description
_atom_type_scat_dispersion_real
_atom_type_scat_dispersion_imag
_atom_type_scat_source
C C 0.0033 0.0016 'International Tables Vol C Tables 4.2.6.8 and 6.1.1.4'
H H 0.0000 0.0000 'International Tables Vol C Tables 4.2.6.8 and 6.1.1.4'
Cl Cl 0.1484 0.1585 'International Tables Vol C Tables 4.2.6.8 and 6.1.1.4'
N N 0.0061 0.0033 'International Tables Vol C Tables 4.2.6.8 and 6.1.1.4'
O O 0.0106 0.0060 'International Tables Vol C Tables 4.2.6.8 and 6.1.1.4'
loop_
_geom_angle_atom_site_label_1
_geom_angle_atom_site_label_2
_geom_angle_atom_site_label_3
_geom_angle
C2 O2 H2 113(2)
H1A N1 H1B 105(2)
H1A N1 H1C 106(2)
H1B N1 H1C 105(3)
C6 N1 H1A 111.6(15)
C6 N1 H1B 116.6(17)
C6 N1 H1C 111.9(18)
O1 C1 C2 122.55(19)
O1 C1 C6 122.33(19)
C2 C1 C6 114.54(18)
O2 C2 C1 111.96(17)
O2 C2 H2A 109.0
O2 C2 C3 110.13(17)
C1 C2 H2A 109.0
C1 C2 C3 107.58(17)
C3 C2 H2A 109.0
C2 C3 H3A 109.3
C2 C3 H3B 109.3
H3A C3 H3B 108.0
C4 C3 C2 111.56(18)
C4 C3 H3A 109.3
C4 C3 H3B 109.3
C3 C4 H4A 109.4
C3 C4 H4B 109.4
C3 C4 C5 111.16(18)
H4A C4 H4B 108.0
C5 C4 H4A 109.4
C5 C4 H4B 109.4
C4 C5 H5A 109.1
C4 C5 H5B 109.1
C4 C5 C6 112.36(17)
H5A C5 H5B 107.9
C6 C5 H5A 109.1
C6 C5 H5B 109.1
N1 C6 C1 107.76(18)
N1 C6 C5 108.56(16)
N1 C6 C7 108.60(16)
C1 C6 C5 103.70(16)
C1 C6 C7 113.87(16)
C7 C6 C5 114.04(18)
C8 C7 C6 122.7(2)
C8 C7 C12 116.68(19)
C12 C7 C6 120.5(2)
C7 C8 Cl1 121.18(17)
C9 C8 Cl1 116.56(18)
C9 C8 C7 122.2(2)
C8 C9 H9 120.0
C10 C9 C8 119.9(2)
C10 C9 H9 120.0
C9 C10 H10 120.3
C9 C10 C11 119.3(2)
C11 C10 H10 120.3
C10 C11 H11 119.7
C10 C11 C12 120.5(2)
C12 C11 H11 119.7
C7 C12 H12 119.3
C11 C12 C7 121.3(2)
C11 C12 H12 119.3
loop_
_geom_bond_atom_site_label_1
_geom_bond_atom_site_label_2
_geom_bond_distance
Cl1 C8 1.744(2)
O1 C1 1.213(3)
O2 H2 0.89(2)
O2 C2 1.421(3)
N1 H1A 0.94(2)
N1 H1B 0.94(2)
N1 H1C 0.95(2)
N1 C6 1.500(3)
C1 C2 1.506(3)
C1 C6 1.537(3)
C2 H2A 1.0000
C2 C3 1.528(3)
C3 H3A 0.9900
C3 H3B 0.9900
C3 C4 1.527(3)
C4 H4A 0.9900
C4 H4B 0.9900
C4 C5 1.528(3)
C5 H5A 0.9900
C5 H5B 0.9900
C5 C6 1.551(3)
C6 C7 1.537(3)
C7 C8 1.394(3)
C7 C12 1.401(3)
C8 C9 1.387(3)
C9 H9 0.9500
C9 C10 1.381(4)
C10 H10 0.9500
C10 C11 1.383(4)
C11 H11 0.9500
C11 C12 1.389(3)
C12 H12 0.9500
loop_
_geom_hbond_atom_site_label_D
_geom_hbond_atom_site_label_H
_geom_hbond_atom_site_label_A
_geom_hbond_distance_DH
_geom_hbond_distance_HA
_geom_hbond_distance_DA
_geom_hbond_angle_DHA
_geom_hbond_site_symmetry_A
O2 H2 Cl2 0.89(2) 2.45(3) 3.1340(17) 134(3) 2_656
N1 H1A O2 0.94(2) 1.93(2) 2.814(2) 155(2) 1_455
N1 H1B Cl2 0.94(2) 2.36(2) 3.148(2) 141(2) 2_556
N1 H1C Cl2 0.95(2) 2.16(2) 3.0974(19) 169(3) .
