#------------------------------------------------------------------------------
#$Date: 2017-11-07 03:26:42 +0200 (Tue, 07 Nov 2017) $
#$Revision: 202841 $
#$URL: file:///home/coder/svn-repositories/cod/cif/1/54/76/1547695.cif $
#------------------------------------------------------------------------------
#
# This file is available in the Crystallography Open Database (COD),
# http://www.crystallography.net/
#
# All data on this site have been placed in the public domain by the
# contributors.
#
data_1547695
loop_
_publ_author_name
'Ziegler, Doroth\'ee S'
'Greiner, Robert'
'Lumpe, Henning'
'Kqiku, Laura'
'Karaghiosoff, Konstantin'
'Knochel, Paul'
_publ_section_title
;
 Directed Zincation or Magnesiation of the 2-Pyridone and
 2,7-Naphthyridone Scaffold Using TMP Bases.
;
_journal_issue                   21
_journal_name_full               'Organic letters'
_journal_page_first              5760
_journal_page_last               5763
_journal_paper_doi               10.1021/acs.orglett.7b02690
_journal_volume                  19
_journal_year                    2017
_chemical_formula_moiety         'C12 H13 I N2 O3'
_chemical_formula_sum            'C12 H13 I N2 O3'
_chemical_formula_weight         360.14
_chemical_name_systematic
;
3-iodo-2-((2-methoxyethoxy)methyl)-2,7-naphthyridin-1(2H)-one
;
_space_group_crystal_system      triclinic
_space_group_IT_number           2
_space_group_name_Hall           '-P 1'
_space_group_name_H-M_alt        'P -1'
_symmetry_space_group_name_Hall  '-P 1'
_symmetry_space_group_name_H-M   'P -1'
_atom_sites_solution_hydrogens   geom
_audit_creation_method           SHELXL-2014
_cell_angle_alpha                113.998(2)
_cell_angle_beta                 91.780(2)
_cell_angle_gamma                111.582(2)
_cell_formula_units_Z            2
_cell_length_a                   8.5985(2)
_cell_length_b                   8.9813(2)
_cell_length_c                   10.1508(2)
_cell_measurement_reflns_used    5581
_cell_measurement_temperature    173(2)
_cell_measurement_theta_max      32.0460
_cell_measurement_theta_min      4.5080
_cell_volume                     650.70(3)
_computing_cell_refinement
;
CrysAlisPro, Agilent Technologies,
Version 1.171.37.33 (release 27-03-2014 CrysAlis171 .NET)
(compiled Mar 27 2014,17:12:48)
;
_computing_data_collection
;
CrysAlisPro, Agilent Technologies,
Version 1.171.37.33 (release 27-03-2014 CrysAlis171 .NET)
(compiled Mar 27 2014,17:12:48)
;
_computing_data_reduction
;
CrysAlisPro, Agilent Technologies,
Version 1.171.37.33 (release 27-03-2014 CrysAlis171 .NET)
(compiled Mar 27 2014,17:12:48)
;
_computing_molecular_graphics
;
'ORTEP (M. N. Burnett, C. K. Johnson, ORTEP-III: Oak Ridge Thermal Ellipsoid
# Plot Program for Crystal Structure Illustrations, Oak Ridge National
# Laboratory Report ORNL-6895, 1996). Windows version (L. J. Farrugia, Univ.
# Glasgow) used --- SCHAKAL (E. Keller, University of  Freiburg (Breisgau),
# Germany, 1995)'
;
_computing_publication_material
;
PLATON (A. L. Spek, Acta Crystallogr, Sect. A, 1990, 46, C34, 1995 version).
# --- T.B.Cohen, Pure Appl. Chem. 1996,68,2339-2359 (atomic masses).
;
_computing_structure_refinement  'SHELXL-2014 (Sheldrick, 2014)'
_computing_structure_solution    'SHELXS-97 (Sheldrick, 1990)'
_diffrn_ambient_temperature      173(2)
_diffrn_detector_area_resol_mean 15.9809
_diffrn_measured_fraction_theta_full 0.992
_diffrn_measured_fraction_theta_max 0.995
_diffrn_measurement_device_type  'Xcalibur, Sapphire3'
_diffrn_measurement_method       '\w scans'
_diffrn_radiation_type           MoK\a
_diffrn_radiation_wavelength     0.71073
_diffrn_reflns_av_R_equivalents  0.0320
_diffrn_reflns_av_unetI/netI     0.0315
_diffrn_reflns_Laue_measured_fraction_full 0.992
_diffrn_reflns_Laue_measured_fraction_max 0.995
_diffrn_reflns_limit_h_max       12
_diffrn_reflns_limit_h_min       -12
_diffrn_reflns_limit_k_max       12
_diffrn_reflns_limit_k_min       -12
_diffrn_reflns_limit_l_max       14
_diffrn_reflns_limit_l_min       -14
_diffrn_reflns_number            12980
_diffrn_reflns_point_group_measured_fraction_full 0.992
_diffrn_reflns_point_group_measured_fraction_max 0.995
_diffrn_reflns_theta_full        25.242
_diffrn_reflns_theta_max         30.508
_diffrn_reflns_theta_min         4.152
_diffrn_source                   'Enhance (Mo) X-ray Source'
_exptl_absorpt_coefficient_mu    2.463
_exptl_absorpt_correction_T_max  1.00000
_exptl_absorpt_correction_T_min  0.70049
_exptl_absorpt_correction_type   multi-scan
_exptl_absorpt_process_details
;
CrysAlisPro, Agilent Technologies,
Version 1.171.37.33 (release 27-03-2014 CrysAlis171 .NET)
(compiled Mar 27 2014,17:12:48)
Empirical absorption correction using spherical harmonics,
implemented in SCALE3 ABSPACK scaling algorithm.
;
_exptl_crystal_colour            colorless
_exptl_crystal_density_diffrn    1.838
_exptl_crystal_description       block
_exptl_crystal_F_000             352
_exptl_crystal_size_max          0.421
_exptl_crystal_size_mid          0.169
_exptl_crystal_size_min          0.114
_refine_diff_density_max         0.526
_refine_diff_density_min         -0.759
_refine_diff_density_rms         0.091
_refine_ls_extinction_method     none
_refine_ls_goodness_of_fit_ref   1.041
_refine_ls_hydrogen_treatment    mixed
_refine_ls_matrix_type           full
_refine_ls_number_parameters     172
_refine_ls_number_reflns         3946
_refine_ls_number_restraints     0
_refine_ls_restrained_S_all      1.041
_refine_ls_R_factor_all          0.0253
_refine_ls_R_factor_gt           0.0214
_refine_ls_shift/su_max          0.000
_refine_ls_shift/su_mean         0.000
_refine_ls_structure_factor_coef Fsqd
_refine_ls_weighting_details
'w=1/[\s^2^(Fo^2^)+(0.0229P)^2^] where P=(Fo^2^+2Fc^2^)/3'
_refine_ls_weighting_scheme      calc
_refine_ls_wR_factor_gt          0.0480
_refine_ls_wR_factor_ref         0.0499
_reflns_Friedel_coverage         0.000
_reflns_number_gt                3629
_reflns_number_total             3946
_reflns_threshold_expression     'I > 2\s(I)'
_cod_data_source_file            ol7b02690_si_002.cif
_cod_data_source_block           test1
_cod_depositor_comments          'Adding full bibliography for 1547695.cif.'
_cod_database_code               1547695
_shelx_space_group_comment
;
The symmetry employed for this shelxl refinement is uniquely defined
by the following loop, which should always be used as a source of
symmetry information in preference to the above space-group names.
They are only intended as comments.
;
_shelx_estimated_absorpt_t_min   0.424
_shelx_estimated_absorpt_t_max   0.767
_shelxl_version_number           2014-3
_shelx_res_file
;
TITL test1 in P-1
CELL  0.71073   8.5985   8.9813  10.1508  113.998   91.780  111.582
ZERR     2.00   0.0002   0.0002   0.0002    0.002    0.002    0.002
LATT   1
SFAC  C    H    N    O    I
UNIT  24 26 4 6 2
MERG   2
OMIT     0.00 100.00
OMIT    -2   2   0
OMIT     1  -2   2
OMIT     2  -2   1
OMIT     3  -1   4
OMIT     3  -1   3
OMIT     1   0   2
OMIT    -3   0   5
OMIT     5  -3   4
SHEL 1000 0.70
FMAP   2
PLAN   20
SIZE     0.114   0.169   0.421
ACTA
BOND   $H
CONF
LIST   1
L.S.  40
TEMP  -100.00
WGHT    0.022900
FVAR       0.18743
MOLE    1
I1    5   -0.035591   -0.292952   -0.017123    11.00000    0.02205    0.01757 =
         0.03333    0.01221    0.00873    0.00519
C1    1    0.186446   -0.070264    0.007098    11.00000    0.01755    0.01516 =
         0.02889    0.00896    0.00582    0.00479
O2    4    0.159134    0.063386    0.347257    11.00000    0.02985    0.02820 =
         0.02825    0.01168    0.00971    0.00580
N1    3    0.299195    0.043925    0.143689    11.00000    0.02070    0.02163 =
         0.02332    0.01076    0.00527    0.00549
O3    4   -0.047764    0.258455    0.455056    11.00000    0.03352    0.04425 =
         0.02182    0.00764    0.00414    0.01439
C7    1    0.471500    0.223050    0.032404    11.00000    0.01716    0.02031 =
         0.02570    0.00902    0.00610    0.00585
C3    1    0.353418    0.108266   -0.102674    11.00000    0.01763    0.01843 =
         0.02579    0.00844    0.00606    0.00628
O1    4    0.542052    0.296125    0.285192    11.00000    0.02900    0.03912 =
         0.02599    0.01002   -0.00324   -0.00208
N2    3    0.645978    0.407455   -0.070951    11.00000    0.02346    0.02593 =
         0.03686    0.01499    0.00947    0.00511
C11   1    0.106529    0.292661    0.538947    11.00000    0.03208    0.03713 =
         0.02064    0.00670    0.00093    0.00885
AFIX  24
H11A  2    0.081087    0.212494    0.593192    11.00000   -1.20000
H11B  2    0.163253    0.426230    0.618069    11.00000   -1.20000
AFIX   0
C6    1    0.615978    0.368561    0.040973    11.00000    0.01786    0.02374 =
         0.03264    0.00973    0.00461    0.00296
AFIX  44
H6    2    0.696957    0.443519    0.132236    11.00000   -1.20000
AFIX   0
C2    1    0.209068   -0.042568   -0.112349    11.00000    0.01847    0.01878 =
         0.02587    0.00839    0.00154    0.00287
AFIX  44
H2    2    0.135654   -0.116643   -0.195858    11.00000   -1.20000
AFIX   0
C4    1    0.384036    0.152239   -0.220009    11.00000    0.02418    0.02602 =
         0.02577    0.01187    0.00461    0.00649
AFIX  44
H4    2    0.307086    0.081643   -0.311415    11.00000   -1.20000
AFIX   0
C8    1    0.445374    0.195429    0.163583    11.00000    0.01831    0.02439 =
         0.02826    0.01024    0.00284    0.00441
C9    1    0.275607    0.006297    0.271301    11.00000    0.03104    0.03080 =
         0.02834    0.01793    0.00679    0.01268
AFIX  24
H9A   2    0.236033   -0.121033    0.237986    11.00000   -1.20000
H9B   2    0.384808    0.064698    0.338615    11.00000   -1.20000
AFIX   0
C5    1    0.527674    0.299518   -0.199391    11.00000    0.02746    0.02860 =
         0.03553    0.01827    0.01177    0.00896
AFIX  44
H5    2    0.545991    0.328547   -0.282200    11.00000   -1.20000
AFIX   0
C10   1    0.226031    0.253260    0.438909    11.00000    0.02851    0.02917 =
         0.02981    0.00814    0.00324    0.00366
AFIX  24
H10A  2    0.237273    0.316165    0.376619    11.00000   -1.20000
H10B  2    0.340954    0.296352    0.498413    11.00000   -1.20000
AFIX   0
C12   1   -0.157750    0.315524    0.543047    11.00000    0.04714    0.04776 =
         0.03968    0.02104    0.01837    0.02561
AFIX  38
H12A  2   -0.261915    0.290930    0.478779    11.00000   -1.50000
H12B  2   -0.098383    0.445637    0.608891    11.00000   -1.50000
H12C  2   -0.190008    0.249987    0.603117    11.00000   -1.50000
AFIX   0
HKLF    4

REM  test1 in P-1
REM R1 =  0.0214 for    3629 Fo > 4sig(Fo)  and  0.0253 for all    3946 data
REM    172 parameters refined using      0 restraints

END

WGHT      0.0229      0.0000

REM Highest difference peak  0.526,  deepest hole -0.759,  1-sigma level  0.091
Q1    1   0.4748  0.1998 -0.2123  11.00000  0.05    0.53
Q2    1   0.1094 -0.1271  0.0504  11.00000  0.05    0.49
Q3    1  -0.0975 -0.4426 -0.1291  11.00000  0.05    0.46
Q4    1   0.2360 -0.0630 -0.0562  11.00000  0.05    0.41
Q5    1  -0.0079 -0.3613 -0.1391  11.00000  0.05    0.40
Q6    1   0.2770  0.0431 -0.0949  11.00000  0.05    0.37
Q7    1  -0.1618 -0.2834 -0.0141  11.00000  0.05    0.37
Q8    1   0.2164  0.0432  0.3154  11.00000  0.05    0.35
Q9    1   0.3933  0.1288 -0.1679  11.00000  0.05    0.35
Q10   1  -0.1034 -0.2026 -0.0278  11.00000  0.05    0.34
Q11   1  -0.0593 -0.5091 -0.1731  11.00000  0.05    0.32
Q12   1   0.0401 -0.0587  0.2165  11.00000  0.05    0.31
Q13   1   0.3714  0.0998  0.1440  11.00000  0.05    0.31
Q14   1   0.5477  0.2770  0.0253  11.00000  0.05    0.30
Q15   1  -0.0182 -0.2056  0.1443  11.00000  0.05    0.29
Q16   1  -0.0347 -0.4387 -0.0486  11.00000  0.05    0.29
Q17   1   0.0602 -0.2435 -0.1213  11.00000  0.05    0.29
Q18   1   0.2669  0.0500  0.1993  11.00000  0.05    0.28
Q19   1   0.0732 -0.3275 -0.0269  11.00000  0.05    0.28
Q20   1   0.0547 -0.2966  0.0839  11.00000  0.05    0.28
;
_shelx_res_checksum              63474
_shelx_hkl_file
;
 -12   1   0    2.84    0.64
 -12   1   1    2.40    0.59
 -12   1   1    2.82    0.70
 -12   1   2    2.70    0.62
 -12   1   2    4.39    0.87
 -12   2  -1    2.28    0.71
 -12   2   0    2.44    0.61
 -12   2   0    2.98    0.75
 -12   2   1    1.41    0.52
 -12   2   1    1.10    0.39
 -12   2   2    1.07    0.53
 -12   2   3    1.20    0.50
 -12   3  -2    6.21    1.11
 -12   3  -1    6.50    1.08
 -12   3  -1    6.34    0.99
 -12   3   0   13.19    1.43
 -12   3   0   10.69    1.31
 -12   3   1   13.39    1.46
 -12   3   2    7.25    1.13
 -12   3   3    7.45    1.20
 -12   4  -3   -0.41    0.52
 -12   4  -2    1.07    0.53
 -12   4  -1    0.43    0.42
 -12   4  -1   -0.16    0.22
 -12   4   0   -0.08    0.18
 -12   4   1   -0.46    0.44
 -12   4   2    0.34    0.26
 -12   4   3    0.81    0.45
 -12   5  -3    3.89    0.78
 -12   5  -2    1.24    0.54
 -12   5  -1    0.86    0.44
 -12   5   0    4.42    0.91
 -12   5   1   11.53    1.44
 -12   5   2    8.49    1.21
 -12   5   3    7.13    1.17
 -12   6  -2    2.70    0.62
 -12   6  -1    3.85    0.85
 -12   6   0    5.20    0.95
 -12   6   1    1.58    0.51
 -12   6   2    1.21    0.50
 -12   7  -4    5.33    0.80
 -12   7  -3    5.33    0.80
 -12   7  -2    4.62    0.83
 -12   7  -1    5.10    1.01
 -12   7   0    4.07    0.87
 -12   7   1    6.04    1.05
 -12   8  -2    3.73    0.76
 -12   8  -1    4.18    0.87
 -12   8   0    4.23    0.92
 -12   9  -2    1.50    0.56
 -11  -2   4    3.36    0.72
 -11  -2   5    2.71    0.70
 -11  -1   0    0.91    0.42
 -11  -1   1    2.18    0.60
 -11  -1   1    0.84    0.45
 -11  -1   2    2.72    0.65
 -11  -1   2    2.39    0.59
 -11  -1   3    5.07    0.91
 -11  -1   3    5.75    0.93
 -11  -1   4    3.56    0.74
 -11  -1   4    4.77    0.90
 -11  -1   5    7.12    1.07
 -11   0  -1    2.22    0.71
 -11   0   0    1.45    0.49
 -11   0   0    2.69    0.66
 -11   0   1    2.78    0.62
 -11   0   1    3.06    0.70
 -11   0   2    5.38    0.84
 -11   0   2    3.88    0.78
 -11   0   3    2.18    0.60
 -11   0   3    3.00    0.69
 -11   0   4    0.96    0.43
 -11   0   5    3.10    0.77
 -11   0   6    1.38    0.47
 -11   1  -2    4.13    0.87
 -11   1  -1    5.59    0.88
 -11   1  -1    6.06    0.99
 -11   1   0    9.38    1.12
 -11   1   0    8.65    1.13
 -11   1   1    8.00    1.06
 -11   1   1    8.45    1.08
 -11   1   2   17.11    1.58
 -11   1   2   17.92    1.53
 -11   1   3   25.31    1.96
 -11   1   4   19.40    1.74
 -11   1   5   23.84    1.99
 -11   1   6   11.46    1.39
 -11   2  -3    5.84    1.08
 -11   2  -2    4.41    0.90
 -11   2  -1    1.31    0.54
 -11   2  -1    1.77    0.55
 -11   2   0    1.88    0.54
 -11   2   0    1.38    0.44
 -11   2   1    0.90    0.42
 -11   2   1    0.77    0.36
 -11   2   2    0.73    0.41
 -11   2   2    0.92    0.38
 -11   2   3   -0.28    0.37
 -11   2   4   -0.26    0.35
 -11   2   5   -0.45    0.41
 -11   2   6    4.21    0.85
 -11   3  -4    3.90    0.94
 -11   3  -3    4.02    0.89
 -11   3  -2   26.26    2.04
 -11   3  -1   21.61    1.70
 -11   3  -1   20.12    1.72
 -11   3   0   17.26    1.55
 -11   3   0   17.85    1.58
 -11   3   1   12.72    1.25
 -11   3   1   13.63    1.40
 -11   3   2   14.55    1.48
 -11   3   3   22.95    1.90
 -11   3   4    8.19    1.15
 -11   3   5   16.57    1.70
 -11   3   6    6.99    1.15
 -11   4  -5    1.05    0.52
 -11   4  -4   -0.73    0.48
 -11   4  -3    1.14    0.52
 -11   4  -2    0.59    0.30
 -11   4  -2    1.01    0.50
 -11   4  -1    0.99    0.39
 -11   4  -1   -0.01    0.39
 -11   4   0   -0.60    0.38
 -11   4   0    0.30    0.31
 -11   4   1    1.61    0.54
 -11   4   2    2.36    0.64
 -11   4   3    2.78    0.74
 -11   4   4    4.99    0.95
 -11   4   5    5.11    0.98
 -11   4   6   11.55    1.43
 -11   5  -6    7.86    0.97
 -11   5  -5    5.40    0.80
 -11   5  -4   10.10    1.04
 -11   5  -4   11.39    1.37
 -11   5  -3    5.46    0.93
 -11   5  -3    6.69    0.83
 -11   5  -2   20.25    1.69
 -11   5  -2   20.96    1.44
 -11   5  -2   22.87    1.83
 -11   5  -1   16.02    1.52
 -11   5  -1   15.26    1.43
 -11   5   0   12.26    1.34
 -11   5   1   13.38    1.46
 -11   5   2    5.87    1.01
 -11   5   3    9.97    1.33
 -11   5   4    5.18    1.01
 -11   5   5    5.87    1.07
 -11   6  -6   -0.09    0.31
 -11   6  -5   -0.28    0.29
 -11   6  -4    1.89    0.47
 -11   6  -3    2.17    0.52
 -11   6  -2    3.37    0.61
 -11   6  -2    3.25    0.70
 -11   6  -1    4.22    0.79
 -11   6   0    6.19    1.00
 -11   6   1   10.61    1.31
 -11   6   2   17.60    1.76
 -11   6   3   13.49    1.55
 -11   6   4    5.56    1.07
 -11   7  -6    9.26    1.13
 -11   7  -5    4.97    0.83
 -11   7  -4    8.61    1.02
 -11   7  -3    4.88    0.76
 -11   7  -3    6.09    0.90
 -11   7  -2    6.96    1.02
 -11   7  -1    5.75    0.95
 -11   7   0    3.61    0.84
 -11   7   1    4.18    0.87
 -11   7   2    2.75    0.80
 -11   7   3    2.16    0.70
 -11   8  -6    1.49    0.48
 -11   8  -5    1.77    0.53
 -11   8  -4    3.67    0.71
 -11   8  -3    3.14    0.64
 -11   8  -3    3.80    0.76
 -11   8  -2    5.51    0.91
 -11   8  -1    7.08    1.09
 -11   8   0   11.36    1.40
 -11   8   1   15.87    1.71
 -11   8   2    7.05    1.18
 -11   9  -5    1.23    0.54
 -11   9  -4    0.59    0.40
 -11   9  -3    0.30    0.42
 -11   9  -2    0.01    0.32
 -11   9  -1   -0.23    0.26
 -11   9   0    0.40    0.36
 -11   9   0   -0.43    0.27
 -11   9   1    0.55    0.30
 -11  10  -1    6.23    0.95
 -11  10   0    2.50    0.71
 -10  -3   1    0.76    0.51
 -10  -3   2    1.80    0.67
 -10  -3   2    1.86    0.59
 -10  -3   3    3.95    0.78
 -10  -3   3    1.83    0.59
 -10  -3   4    1.93    0.56
 -10  -3   4    2.35    0.64
 -10  -3   5    4.20    0.80
 -10  -3   5    4.53    0.86
 -10  -3   6    4.39    0.75
 -10  -3   7    7.08    0.98
 -10  -2   0   25.98    2.06
 -10  -2   0   23.77    1.78
 -10  -2   1   13.63    1.35
 -10  -2   1   13.20    1.43
 -10  -2   2   12.51    1.31
 -10  -2   2   10.73    1.24
 -10  -2   3    6.95    1.00
 -10  -2   3    6.34    0.94
 -10  -2   4    7.61    0.96
 -10  -2   4    8.55    1.11
 -10  -2   5    5.73    0.93
 -10  -2   5    4.20    0.77
 -10  -2   6    2.97    0.70
 -10  -2   6    3.46    0.70
 -10  -2   7    3.46    0.77
 -10  -1  -2    3.82    0.80
 -10  -1  -1    1.17    0.42
 -10  -1   0    4.71    0.79
 -10  -1   0    4.00    0.82
 -10  -1   1    7.83    1.06
 -10  -1   1    7.94    1.00
 -10  -1   2    6.42    0.90
 -10  -1   2    6.58    0.93
 -10  -1   3   10.91    1.22
 -10  -1   3   10.49    1.10
 -10  -1   4   15.82    1.49
 -10  -1   4   14.32    1.29
 -10  -1   5   17.32    1.39
 -10  -1   5   19.91    1.70
 -10  -1   6   17.10    1.62
 -10  -1   7   21.77    1.86
 -10  -1   8   11.56    1.35
 -10   0  -3    7.80    1.13
 -10   0  -2    7.25    1.07
 -10   0  -1    4.13    0.74
 -10   0  -1    6.17    0.91
 -10   0   0   10.97    1.16
 -10   0   0   12.52    1.31
 -10   0   1    5.46    0.80
 -10   0   1    5.02    0.79
 -10   0   2    3.45    0.63
 -10   0   2    3.06    0.66
 -10   0   3    3.15    0.61
 -10   0   3    2.67    0.62
 -10   0   4    1.60    0.44
 -10   0   4    1.09    0.43
 -10   0   5   -0.16    0.37
 -10   0   6    0.36    0.37
 -10   0   7   -0.26    0.39
 -10   0   8    2.09    0.63
 -10   0   9    0.61    0.37
 -10   1  -4    9.30    1.28
 -10   1  -3    7.89    1.14
 -10   1  -2   14.31    1.44
 -10   1  -1   14.45    1.42
 -10   1  -1   15.33    1.33
 -10   1   0   25.31    1.74
 -10   1   0   26.27    1.84
 -10   1   1   24.05    1.70
 -10   1   1   26.39    1.80
 -10   1   2   18.81    1.47
 -10   1   2   20.46    1.61
 -10   1   3   13.96    1.21
 -10   1   3   14.10    1.36
 -10   1   4   14.31    1.38
 -10   1   5   20.62    1.71
 -10   1   6   15.13    1.51
 -10   1   7   28.31    2.12
 -10   1   8    6.93    1.12
 -10   1   9    6.97    1.11
 -10   2  -5    1.31    0.62
 -10   2  -4    2.36    0.73
 -10   2  -3    1.19    0.51
 -10   2  -2    1.84    0.58
 -10   2  -2    1.88    0.48
 -10   2  -1    1.57    0.46
 -10   2  -1    1.66    0.48
 -10   2   0   -0.31    0.29
 -10   2   0    0.18    0.21
 -10   2   1    0.12    0.25
 -10   2   1   -0.37    0.35
 -10   2   2   -0.07    0.31
 -10   2   2    0.31    0.23
 -10   2   3    2.03    0.55
 -10   2   4    2.33    0.64
 -10   2   5    1.51    0.55
 -10   2   6   -0.13    0.33
 -10   2   7    0.40    0.32
 -10   2   8    3.66    0.79
 -10   2   9    5.91    1.02
 -10   3  -6    9.24    1.32
 -10   3  -5    5.98    1.08
 -10   3  -4   13.90    1.51
 -10   3  -3    8.74    1.17
 -10   3  -2    5.33    0.77
 -10   3  -2    5.05    0.83
 -10   3  -1    1.49    0.47
 -10   3  -1    3.33    0.63
 -10   3   0   21.87    1.63
 -10   3   0   19.14    1.48
 -10   3   1   21.42    1.51
 -10   3   1   20.43    1.61
 -10   3   2   24.36    1.80
 -10   3   3   22.26    1.76
 -10   3   4   11.05    1.26
 -10   3   5   12.54    1.40
 -10   3   6    1.38    0.51
 -10   3   7    2.67    0.70
 -10   3   8    0.09    0.41
 -10   4  -8    0.33    0.32
 -10   4  -7    1.05    0.38
 -10   4  -6    0.68    0.33
 -10   4  -6    0.45    0.40
 -10   4  -5    0.48    0.27
 -10   4  -5   -0.78    0.48
 -10   4  -4    0.13    0.25
 -10   4  -4   -0.81    0.55
 -10   4  -3   -0.49    0.30
 -10   4  -3   -0.05    0.19
 -10   4  -2    7.52    1.01
 -10   4  -2    7.39    0.78
 -10   4  -2    6.55    0.88
 -10   4  -1    8.79    1.02
 -10   4  -1    8.53    0.83
 -10   4  -1    8.77    1.04
 -10   4   0    7.08    0.95
 -10   4   0    6.80    0.90
 -10   4   1    4.87    0.83
 -10   4   2    3.11    0.67
 -10   4   3   10.71    1.21
 -10   4   4   12.63    1.41
 -10   4   5   12.55    1.43
 -10   4   6    9.53    1.29
 -10   4   7    8.90    1.29
 -10   4   8    6.22    1.10
 -10   5  -8    6.53    0.91
 -10   5  -7    2.68    0.58
 -10   5  -6    4.10    0.68
 -10   5  -5    8.61    0.96
 -10   5  -4   18.50    1.35
 -10   5  -4   16.93    1.57
 -10   5  -3   10.25    1.09
 -10   5  -3   11.13    1.02
 -10   5  -3    9.83    1.18
 -10   5  -2   18.93    1.30
 -10   5  -2   17.17    1.48
 -10   5  -2   17.83    1.49
 -10   5  -1   13.78    1.10
 -10   5  -1   12.28    1.21
 -10   5  -1   13.71    1.30
 -10   5   0   12.78    1.31
 -10   5   1    5.75    0.91
 -10   5   2    2.71    0.64
 -10   5   3    5.35    0.95
 -10   5   4    2.06    0.62
 -10   5   5    2.25    0.66
 -10   5   6    1.01    0.47
 -10   5   7    2.70    0.78
 -10   6  -8    0.19    0.27
 -10   6  -7    1.38    0.49
 -10   6  -6    5.59    0.80
 -10   6  -5    1.30    0.45
 -10   6  -4    4.56    0.72
 -10   6  -3    4.43    0.74
 -10   6  -3    5.20    0.71
 -10   6  -2    7.59    1.04
 -10   6  -2    8.23    0.90
 -10   6  -1    6.56    0.96
 -10   6   0   12.30    1.32
 -10   6   1   14.12    1.46
 -10   6   2   14.65    1.52
 -10   6   3   16.11    1.63
 -10   6   4   13.90    1.56
 -10   6   5   20.46    1.93
 -10   6   6    8.59    1.22
 -10   7  -8    5.69    0.86
 -10   7  -7    6.64    0.92
 -10   7  -6    7.12    0.92
 -10   7  -5    4.98    0.79
 -10   7  -4   12.33    1.18
 -10   7  -3    8.57    0.95
 -10   7  -3    7.08    0.94
 -10   7  -2    8.14    1.07
 -10   7  -2    7.43    0.87
 -10   7  -1    4.70    0.84
 -10   7   0    3.26    0.73
 -10   7   1    1.44    0.48
 -10   7   1    2.45    0.63
 -10   7   2    0.44    0.31
 -10   7   2    0.04    0.27
 -10   7   3    0.24    0.31
 -10   7   4    0.97    0.56
 -10   7   5    0.31    0.36
 -10   8  -8    2.02    0.59
 -10   8  -7    1.00    0.40
 -10   8  -6    3.79    0.74
 -10   8  -5    5.29    0.85
 -10   8  -4   11.30    1.14
 -10   8  -4    9.69    1.09
 -10   8  -3   13.14    1.22
 -10   8  -3   13.27    1.34
 -10   8  -2   15.49    1.49
 -10   8  -1   12.99    1.26
 -10   8  -1   11.90    1.34
 -10   8   0   14.44    1.50
 -10   8   0   13.29    1.24
 -10   8   1   13.57    1.52
 -10   8   1   12.89    1.21
 -10   8   2   11.46    1.39
 -10   8   2    9.24    1.07
 -10   8   3   15.39    1.68
 -10   8   4    7.67    1.26
 -10   9  -7    1.79    0.54
 -10   9  -6    0.46    0.39
 -10   9  -5    0.46    0.33
 -10   9  -4    0.73    0.37
 -10   9  -3    0.44    0.37
 -10   9  -2    0.32    0.35
 -10   9  -2   -0.30    0.29
 -10   9  -1    0.56    0.35
 -10   9  -1   -0.14    0.34
 -10   9   0    1.75    0.55
 -10   9   0    1.70    0.57
 -10   9   1    2.31    0.61
 -10   9   1    2.85    0.79
 -10   9   2    2.19    0.78
 -10   9   2    2.82    0.65
 -10  10  -6    7.18    1.00
 -10  10  -5    6.08    0.92
 -10  10  -3    9.69    1.18
 -10  10  -2   10.88    1.25
 -10  10  -1   14.69    1.41
 -10  10   0   15.01    1.45
 -10  10   1   16.99    1.54
 -10  10   2    4.75    0.89
 -10  11  -3    0.96    0.44
  -9  -4   1   17.65    1.67
  -9  -4   2   15.45    1.53
  -9  -4   3   15.24    1.48
  -9  -4   3   17.33    1.57
  -9  -4   4    7.90    1.07
  -9  -4   4    9.87    1.18
  -9  -4   5    4.38    0.78
  -9  -4   5    4.99    0.89
  -9  -4   6    8.33    1.03
  -9  -4   6    9.20    1.18
  -9  -4   7   11.13    1.33
  -9  -4   7   10.17    1.17
  -9  -4   8    8.09    1.17
  -9  -4   8    7.77    0.99
  -9  -3  -1    0.71    0.48
  -9  -3   0    0.91    0.37
  -9  -3   0    0.69    0.37
  -9  -3   1    1.65    0.47
  -9  -3   1    1.83    0.56
  -9  -3   2    5.14    0.85
  -9  -3   2    6.84    0.97
  -9  -3   3    5.55    0.86
  -9  -3   3    6.43    0.92
  -9  -3   4    5.42    0.83
  -9  -3   4    5.93    0.93
  -9  -3   5   14.60    1.42
  -9  -3   5   13.07    1.27
  -9  -3   6   10.82    1.21
  -9  -3   6    7.52    0.98
  -9  -3   7    6.74    0.90
  -9  -3   7    7.59    1.07
  -9  -3   8    5.21    0.90
  -9  -3   9    6.57    1.02
  -9  -2  -3    8.48    1.14
  -9  -2  -2   11.58    1.37
  -9  -2  -1   10.57    1.21
  -9  -2  -1    8.69    1.01
  -9  -2   0    2.39    0.58
  -9  -2   0    2.24    0.56
  -9  -2   1    9.67    1.10
  -9  -2   1   10.64    1.11
  -9  -2   2   14.43    1.32
  -9  -2   2   13.64    1.30
  -9  -2   3    6.12    0.85
  -9  -2   3    6.47    0.90
  -9  -2   4    7.51    0.97
  -9  -2   4    6.86    0.84
  -9  -2   5    6.75    0.86
  -9  -2   5    7.26    0.98
  -9  -2   6    2.71    0.64
  -9  -2   6    3.23    0.57
  -9  -2   7    0.62    0.37
  -9  -2   8    0.55    0.28
  -9  -2   9    0.22    0.35
  -9  -2  10    0.21    0.42
  -9  -1  -4    2.12    0.63
  -9  -1  -3    2.29    0.60
  -9  -1  -2    4.55    0.82
  -9  -1  -1   12.04    1.12
  -9  -1  -1   11.43    1.26
  -9  -1   0   18.32    1.52
  -9  -1   0   16.23    1.34
  -9  -1   1   18.38    1.44
  -9  -1   1   18.87    1.48
  -9  -1   2   23.93    1.65
  -9  -1   2   28.44    1.81
  -9  -1   3   53.27    2.59
  -9  -1   3   47.81    2.35
  -9  -1   4   34.12    2.06
  -9  -1   4   33.37    1.89
  -9  -1   5   33.96    2.10
  -9  -1   5   34.17    1.88
  -9  -1   6   29.86    1.98
  -9  -1   6   24.51    1.56
  -9  -1   7   26.17    1.93
  -9  -1   8   22.57    1.82
  -9  -1   9   20.18    1.76
  -9  -1  10    6.69    1.04
  -9   0  -5   10.73    1.40
  -9   0  -4   12.93    1.43
  -9   0  -3   16.39    1.56
  -9   0  -2    7.20    0.83
  -9   0  -2    8.87    1.06
  -9   0  -1    6.37    0.77
  -9   0  -1    7.67    0.95
  -9   0   0    5.53    0.78
  -9   0   0    5.43    0.76
  -9   0   1    2.24    0.52
  -9   0   1    2.19    0.55
  -9   0   2    1.69    0.45
  -9   0   2    1.79    0.45
  -9   0   3    2.15    0.53
  -9   0   3    1.11    0.39
  -9   0   4    1.03    0.35
  -9   0   4    0.59    0.34
  -9   0   5    0.07    0.19
  -9   0   5   -0.17    0.29
  -9   0   6    2.11    0.61
  -9   0   7    6.06    0.94
  -9   0   8    0.76    0.37
  -9   0   9    2.11    0.56
  -9   0  10    5.56    0.96
  -9   0  10    5.25    0.81
  -9   0  11    2.39    0.60
  -9   0  11    3.38    0.79
  -9   1  -6    3.84    0.91
  -9   1  -5    4.87    0.91
  -9   1  -4    4.12    0.87
  -9   1  -3   12.94    1.32
  -9   1  -2   43.59    2.11
  -9   1  -2   44.89    2.44
  -9   1  -1   47.46    2.26
  -9   1  -1   48.07    2.44
  -9   1   0   24.72    1.64
  -9   1   0   22.53    1.53
  -9   1   1   34.39    1.91
  -9   1   1   35.18    1.95
  -9   1   2   36.67    2.03
  -9   1   2   34.04    1.86
  -9   1   3   36.78    1.87
  -9   1   3   39.91    2.17
  -9   1   4   36.86    2.12
  -9   1   4   32.96    1.71
  -9   1   5   27.55    1.87
  -9   1   6   24.36    1.79
  -9   1   7   18.64    1.63
  -9   1   8   10.22    1.23
  -9   1   8    8.25    0.91
  -9   1   9   10.45    1.29
  -9   1   9    7.79    0.95
  -9   1  10    4.44    0.75
  -9   1  10    5.14    0.90
  -9   2  -8    3.69    0.69
  -9   2  -7    3.26    0.63
  -9   2  -7    2.79    0.77
  -9   2  -6    3.62    0.60
  -9   2  -6    3.03    0.74
  -9   2  -5    3.84    0.84
  -9   2  -5    2.44    0.51
  -9   2  -4    0.33    0.34
  -9   2  -4    1.10    0.34
  -9   2  -3    1.97    0.59
  -9   2  -3    2.07    0.40
  -9   2  -2    8.80    0.89
  -9   2  -2    7.62    0.95
  -9   2  -1    1.01    0.40
  -9   2  -1    2.40    0.51
  -9   2   0   -0.51    0.31
  -9   2   0   -0.33    0.30
  -9   2   1   -0.09    0.18
  -9   2   1    0.03    0.19
  -9   2   2    3.23    0.55
  -9   2   2    3.25    0.61
  -9   2   3    8.09    0.80
  -9   2   3    6.36    0.88
  -9   2   4    4.27    0.75
  -9   2   5   16.78    1.48
  -9   2   6   25.77    1.89
  -9   2   7   24.98    1.91
  -9   2   8   17.35    1.64
  -9   2   8   13.72    1.24
  -9   2   9    5.79    0.96
  -9   2   9    4.52    0.77
  -9   2  10    6.87    1.07
  -9   2  10    5.37    0.83
  -9   3  -8    2.54    0.54
  -9   3  -7    8.52    1.19
  -9   3  -7    6.29    0.84
  -9   3  -6   15.56    1.61
  -9   3  -6   13.92    1.17
  -9   3  -5   14.16    1.15
  -9   3  -5   14.03    1.48
  -9   3  -4   21.44    1.35
  -9   3  -4   17.24    1.57
  -9   3  -3   30.24    1.71
  -9   3  -3   28.10    1.52
  -9   3  -3   28.95    1.94
  -9   3  -2   37.25    1.73
  -9   3  -2   36.07    2.11
  -9   3  -2   39.57    2.01
  -9   3  -1   51.19    2.40
  -9   3  -1   49.11    2.40
  -9   3  -1   51.99    2.03
  -9   3   0   31.93    1.49
  -9   3   0   30.59    1.77
  -9   3   0   31.16    1.84
  -9   3   1   24.28    1.66
  -9   3   1   25.50    1.53
  -9   3   2   30.54    1.90
  -9   3   2   28.55    1.56
  -9   3   3   20.47    1.59
  -9   3   4   12.32    1.26
  -9   3   5   13.19    1.35
  -9   3   6    5.54    0.93
  -9   3   7    7.31    1.03
  -9   3   8    1.43    0.57
  -9   3   9   -0.23    0.42
  -9   3   9    0.31    0.28
  -9   3  10    0.62    0.40
  -9   4  -9    0.22    0.20
  -9   4  -8   -0.11    0.26
  -9   4  -7    0.70    0.29
  -9   4  -6    0.81    0.36
  -9   4  -6    0.26    0.33
  -9   4  -5    0.96    0.36
  -9   4  -5    0.51    0.43
  -9   4  -4    0.97    0.29
  -9   4  -4    0.45    0.34
  -9   4  -3    4.42    0.67
  -9   4  -3    5.05    0.64
  -9   4  -3    4.65    0.81
  -9   4  -2    6.28    0.88
  -9   4  -2    6.78    0.72
  -9   4  -2    6.46    0.81
  -9   4  -1    6.90    0.85
  -9   4  -1    7.22    0.72
  -9   4  -1    7.39    0.91
  -9   4   0   12.68    1.19
  -9   4   0   12.71    1.12
  -9   4   0   13.84    0.99
  -9   4   1   32.08    1.72
  -9   4   1   29.37    1.90
  -9   4   2   31.14    2.01
  -9   4   3   31.05    2.06
  -9   4   4   17.88    1.57
  -9   4   5   21.36    1.77
  -9   4   6   22.24    1.85
  -9   4   7   15.55    1.58
  -9   4   8   11.75    1.43
  -9   4   9   12.12    1.49
  -9   5  -9    4.40    0.79
  -9   5  -8    9.41    1.04
  -9   5  -7    9.82    1.05
  -9   5  -6   22.87    1.56
  -9   5  -5   20.21    1.40
  -9   5  -4   12.25    1.07
  -9   5  -3   20.25    1.34
  -9   5  -3   19.97    1.57
  -9   5  -3   22.09    1.52
  -9   5  -2   25.96    1.73
  -9   5  -2   24.61    1.66
  -9   5  -2   25.16    1.47
  -9   5  -1   13.91    1.27
  -9   5  -1   14.68    1.23
  -9   5  -1   14.23    1.06
  -9   5   0   15.60    1.18
  -9   5   0   12.44    1.24
  -9   5   1   17.96    1.51
  -9   5   2   10.16    1.17
  -9   5   2   12.13    0.99
  -9   5   3    6.29    0.99
  -9   5   4    1.78    0.57
  -9   5   5    1.38    0.54
  -9   5   6   -0.26    0.38
  -9   5   7   -0.36    0.36
  -9   5   8    0.96    0.40
  -9   6  -9    0.33    0.24
  -9   6  -8    0.56    0.36
  -9   6  -7    1.48    0.46
  -9   6  -6    0.71    0.39
  -9   6  -5    4.37    0.69
  -9   6  -4    7.63    0.84
  -9   6  -4    8.40    0.92
  -9   6  -3    6.36    0.85
  -9   6  -3    6.88    0.79
  -9   6  -2   11.73    1.00
  -9   6  -2   11.10    1.14
  -9   6  -1   27.77    1.87
  -9   6   0   23.84    1.48
  -9   6   0   22.77    1.73
  -9   6   1   24.77    1.87
  -9   6   1   26.42    1.57
  -9   6   2   26.19    1.95
  -9   6   2   25.55    1.53
  -9   6   3   20.18    1.74
  -9   6   3   21.03    1.38
  -9   6   4   15.89    1.59
  -9   6   5   12.03    1.39
  -9   6   6    7.09    1.08
  -9   6   7   10.62    1.30
  -9   7  -9    4.26    0.81
  -9   7  -8    8.01    0.99
  -9   7  -7    7.11    0.91
  -9   7  -6    5.98    0.85
  -9   7  -5    5.56    0.77
  -9   7  -4    3.80    0.60
  -9   7  -4    4.20    0.68
  -9   7  -3    0.49    0.33
  -9   7  -3   -0.03    0.23
  -9   7  -2    0.25    0.32
  -9   7  -2    0.38    0.26
  -9   7  -1    0.63    0.36
  -9   7  -1    0.52    0.30
  -9   7   0    0.41    0.26
  -9   7   0    0.86    0.38
  -9   7   1   -0.11    0.31
  -9   7   1    0.23    0.24
  -9   7   2    1.09    0.53
  -9   7   2    1.37    0.41
  -9   7   3    1.74    0.45
  -9   7   3    2.09    0.60
  -9   7   4    1.26    0.56
  -9   7   5    1.71    0.63
  -9   7   6    3.98    0.87
  -9   8  -9    2.74    0.65
  -9   8  -8    1.35    0.49
  -9   8  -7    2.37    0.58
  -9   8  -6   11.12    1.14
  -9   8  -5   13.70    1.23
  -9   8  -4   16.16    1.37
  -9   8  -4   14.26    1.23
  -9   8  -3   21.90    1.53
  -9   8  -3   22.98    1.69
  -9   8  -2   22.93    1.73
  -9   8  -2   18.99    1.45
  -9   8  -1   16.92    1.53
  -9   8  -1   14.02    1.24
  -9   8   0    9.07    0.98
  -9   8   0    9.84    1.21
  -9   8   1    7.26    0.91
  -9   8   1    7.29    1.09
  -9   8   2   11.57    1.13
  -9   8   2   12.09    1.42
  -9   8   3   10.50    1.08
  -9   8   3   12.21    1.43
  -9   8   4    7.39    1.19
  -9   8   5    6.46    1.09
  -9   9  -9    0.84    0.46
  -9   9  -8    0.10    0.30
  -9   9  -7    0.18    0.31
  -9   9  -6    0.34    0.36
  -9   9  -5   -0.09    0.24
  -9   9  -4   -0.05    0.30
  -9   9  -3   -0.02    0.18
  -9   9  -2    1.65    0.44
  -9   9  -1    1.41    0.56
  -9   9  -1    1.28    0.47
  -9   9   0    2.68    0.72
  -9   9   0    0.52    0.32
  -9   9   1    2.57    0.59
  -9   9   1    3.35    0.78
  -9   9   2    5.10    0.79
  -9   9   3    6.37    0.92
  -9   9   4    5.16    0.82
  -9  10  -8   10.40    1.24
  -9  10  -7   12.98    1.31
  -9  10  -6   12.51    1.26
  -9  10  -5   10.21    1.14
  -9  10  -4   11.03    1.21
  -9  10  -3   11.65    1.22
  -9  10  -2   11.59    1.22
  -9  10  -1    6.71    0.95
  -9  10   0    4.56    0.80
  -9  10   1    3.12    0.65
  -9  10   2    1.91    0.53
  -9  10   3    2.86    0.65
  -9  11  -7    0.24    0.29
  -9  11  -6    1.28    0.50
  -9  11  -5    0.60    0.33
  -9  11  -4    2.02    0.57
  -9  11  -3    2.54    0.70
  -9  11  -2    4.33    0.85
  -9  11  -1    4.47    0.80
  -9  11   0    3.89    0.77
  -8  -6   5   55.83    3.02
  -8  -6   6   22.23    1.85
  -8  -6   7   17.49    1.62
  -8  -6   8   11.43    1.32
  -8  -5   1    0.64    0.33
  -8  -5   2    1.07    0.42
  -8  -5   3    6.23    0.91
  -8  -5   4    1.95    0.51
  -8  -5   5    3.78    0.77
  -8  -5   6    5.94    0.88
  -8  -5   7   13.17    1.31
  -8  -5   8   14.94    1.42
  -8  -5   8   17.07    1.59
  -8  -5   9   15.05    1.51
  -8  -4  -2   11.02    1.33
  -8  -4  -1   25.00    1.97
  -8  -4   0   34.37    2.27
  -8  -4   1   25.81    1.88
  -8  -4   2   12.84    1.29
  -8  -4   3   27.37    1.87
  -8  -4   4   10.00    1.08
  -8  -4   5   12.69    1.24
  -8  -4   6   10.18    1.12
  -8  -4   6    8.35    0.98
  -8  -4   7    6.19    0.86
  -8  -4   7    6.41    0.94
  -8  -4   8    2.70    0.65
  -8  -4   8    2.48    0.54
  -8  -4   9    1.41    0.52
  -8  -4  10    1.71    0.56
  -8  -4  11    0.40    0.29
  -8  -3  -3    0.67    0.40
  -8  -3  -2    1.53    0.51
  -8  -3  -1    1.73    0.51
  -8  -3   0    0.57    0.32
  -8  -3   1   15.56    1.36
  -8  -3   2    7.53    0.92
  -8  -3   3   13.71    1.24
  -8  -3   4   25.31    1.68
  -8  -3   5   30.05    1.94
  -8  -3   5   33.09    1.92
  -8  -3   6   21.57    1.64
  -8  -3   6   19.22    1.43
  -8  -3   7   37.37    2.21
  -8  -3   7   32.23    1.89
  -8  -3   8   29.01    1.97
  -8  -3   8   25.70    1.67
  -8  -3   9   22.01    1.75
  -8  -3  10   17.97    1.61
  -8  -3  11   12.33    1.35
  -8  -2  -5    4.10    0.85
  -8  -2  -4   11.57    1.37
  -8  -2  -3   12.57    1.34
  -8  -2  -2   12.59    1.31
  -8  -2  -1   14.26    1.34
  -8  -2  -1   14.84    1.20
  -8  -2   0   13.25    1.16
  -8  -2   0   14.04    1.26
  -8  -2   1   18.19    1.40
  -8  -2   1   18.03    1.35
  -8  -2   2    5.68    0.77
  -8  -2   2    4.99    0.70
  -8  -2   3    7.71    0.88
  -8  -2   3    9.54    1.00
  -8  -2   4    3.40    0.65
  -8  -2   4    3.57    0.61
  -8  -2   5    1.10    0.40
  -8  -2   5    0.89    0.31
  -8  -2   6    0.03    0.25
  -8  -2   6    0.16    0.17
  -8  -2   7   -0.39    0.29
  -8  -2   7    0.03    0.11
  -8  -2   8    0.78    0.36
  -8  -2   9    3.15    0.70
  -8  -2  10    0.19    0.29
  -8  -2  11    0.29    0.30
  -8  -1  -6    4.04    0.89
  -8  -1  -5    1.19    0.53
  -8  -1  -4   10.89    1.28
  -8  -1  -3   21.89    1.70
  -8  -1  -2   12.75    1.24
  -8  -1  -2   12.85    1.06
  -8  -1  -1   36.91    2.09
  -8  -1  -1   37.41    1.91
  -8  -1   0   35.85    1.88
  -8  -1   0   32.72    1.91
  -8  -1   1   52.14    2.39
  -8  -1   1   51.59    2.35
  -8  -1   2   22.81    1.47
  -8  -1   2   25.35    1.59
  -8  -1   3   39.82    2.05
  -8  -1   3   34.36    1.82
  -8  -1   4   16.72    1.20
  -8  -1   4   17.64    1.36
  -8  -1   5   44.19    2.28
  -8  -1   5   46.00    2.08
  -8  -1   6   35.76    1.79
  -8  -1   6   37.51    2.11
  -8  -1   7   32.43    2.00
  -8  -1   8   24.93    1.78
  -8  -1   9    8.84    0.92
  -8  -1   9    9.69    1.12
  -8  -1  10    9.81    1.05
  -8  -1  10   11.77    1.26
  -8  -1  11    4.11    0.76
  -8  -1  11    5.67    0.92
  -8  -1  12    2.72    0.68
  -8   0  -7    5.20    1.03
  -8   0  -6    3.41    0.78
  -8   0  -5    2.89    0.75
  -8   0  -4    8.84    1.10
  -8   0  -3    4.37    0.71
  -8   0  -2    2.61    0.46
  -8   0  -2    3.40    0.64
  -8   0  -1    6.50    0.74
  -8   0  -1    7.25    0.90
  -8   0   0    2.88    0.50
  -8   0   0    3.06    0.56
  -8   0   1   -0.14    0.24
  -8   0   1    0.11    0.17
  -8   0   2    0.90    0.29
  -8   0   2    0.10    0.25
  -8   0   3    0.48    0.22
  -8   0   3    0.78    0.34
  -8   0   4    6.92    0.73
  -8   0   4    7.80    0.91
  -8   0   5    0.38    0.22
  -8   0   5    0.15    0.27
  -8   0   6    0.66    0.25
  -8   0   6    0.60    0.33
  -8   0   7    0.46    0.25
  -8   0   7    0.11    0.24
  -8   0   8    2.76    0.54
  -8   0   8    2.52    0.57
  -8   0   9   11.24    1.22
  -8   0   9   10.05    1.04
  -8   0  10    5.02    0.78
  -8   0  10    5.16    0.85
  -8   0  11    5.29    0.86
  -8   0  11    4.75    0.85
  -8   1  -8    3.23    0.83
  -8   1  -8    4.94    0.80
  -8   1  -7    3.35    0.80
  -8   1  -7    3.77    0.62
  -8   1  -6   11.21    1.04
  -8   1  -6    9.85    1.27
  -8   1  -5   14.29    1.11
  -8   1  -5   12.93    1.36
  -8   1  -4   20.16    1.59
  -8   1  -4   19.11    1.23
  -8   1  -3   24.70    1.31
  -8   1  -3   22.95    1.34
  -8   1  -3   22.07    1.62
  -8   1  -2    3.68    0.47
  -8   1  -2    4.37    0.59
  -8   1  -2    3.68    0.64
  -8   1  -1   12.77    0.82
  -8   1  -1   12.62    1.02
  -8   1  -1   13.41    1.15
  -8   1   0   26.16    1.56
  -8   1   0   27.59    1.56
  -8   1   1   83.80    2.99
  -8   1   1   82.99    3.05
  -8   1   2   22.95    1.36
  -8   1   2   25.00    1.54
  -8   1   3   60.68    2.60
  -8   1   3   59.68    2.29
  -8   1   4   37.60    1.68
  -8   1   4   39.22    2.07
  -8   1   5   17.50    1.38
  -8   1   6    7.51    0.77
  -8   1   6    8.29    0.98
  -8   1   7    2.70    0.52
  -8   1   7    3.19    0.68
  -8   1   8    5.21    0.86
  -8   1   8    4.03    0.64
  -8   1   9    2.69    0.55
  -8   1   9    3.18    0.75
  -8   1  10    4.80    0.90
  -8   1  10    3.77    0.69
  -8   1  11    0.50    0.33
  -8   2  -9   -0.18    0.31
  -8   2  -8    2.01    0.61
  -8   2  -8    2.08    0.52
  -8   2  -7    1.78    0.45
  -8   2  -7    1.52    0.61
  -8   2  -6    1.08    0.36
  -8   2  -6    1.49    0.55
  -8   2  -5    1.32    0.35
  -8   2  -5    0.38    0.34
  -8   2  -4    1.09    0.47
  -8   2  -4    0.99    0.33
  -8   2  -3    0.29    0.22
  -8   2  -3    1.00    0.42
  -8   2  -3    0.69    0.23
  -8   2  -2    5.83    0.68
  -8   2  -2    5.39    0.57
  -8   2  -2    5.92    0.79
  -8   2  -1   25.53    1.24
  -8   2  -1   23.81    1.51
  -8   2  -1   27.32    1.53
  -8   2   0    6.08    0.72
  -8   2   0    5.98    0.72
  -8   2   0    6.67    0.58
  -8   2   1    6.31    0.77
  -8   2   1    6.73    0.58
  -8   2   1    6.96    0.73
  -8   2   2    6.01    0.65
  -8   2   2    5.81    0.76
  -8   2   3   13.14    1.15
  -8   2   3   13.79    0.95
  -8   2   4   24.31    1.64
  -8   2   5   29.55    1.87
  -8   2   6   16.10    1.41
  -8   2   6   14.05    1.09
  -8   2   7   18.94    1.58
  -8   2   7   16.53    1.26
  -8   2   8   14.21    1.22
  -8   2   8   15.45    1.47
  -8   2   9    8.96    1.14
  -8   2   9    8.29    0.99
  -8   2  10    8.50    1.12
  -8   2  10    9.67    1.14
  -8   3  -9    6.81    0.94
  -8   3  -8   12.66    1.20
  -8   3  -7    7.95    1.11
  -8   3  -7    6.72    0.85
  -8   3  -6    8.05    0.88
  -8   3  -6    9.09    1.14
  -8   3  -5   18.97    1.28
  -8   3  -5   18.76    1.59
  -8   3  -4   37.93    1.76
  -8   3  -4   32.87    2.06
  -8   3  -3   36.58    1.68
  -8   3  -3   38.63    2.12
  -8   3  -3   37.59    1.80
  -8   3  -2   20.99    1.47
  -8   3  -2   24.28    1.44
  -8   3  -2   22.20    1.23
  -8   3  -1   64.18    2.58
  -8   3  -1   61.80    2.56
  -8   3  -1   63.73    2.23
  -8   3   0   15.45    1.13
  -8   3   0   15.14    1.18
  -8   3   0   15.70    0.96
  -8   3   1   22.32    1.30
  -8   3   1   21.62    1.46
  -8   3   2    8.89    0.96
  -8   3   2    8.32    0.74
  -8   3   3   15.56    1.30
  -8   3   4   11.95    1.19
  -8   3   5    8.26    1.00
  -8   3   6    4.74    0.79
  -8   3   7    1.78    0.45
  -8   3   7    2.87    0.65
  -8   3   8    1.82    0.60
  -8   3   8    0.81    0.42
  -8   3   9    0.12    0.19
  -8   3   9   -0.19    0.32
  -8   3  10   -0.79    0.46
  -8   3  10    0.55    0.39
  -8   4 -10    0.19    0.29
  -8   4  -9    0.21    0.28
  -8   4  -8    0.21    0.25
  -8   4  -7    1.92    0.48
  -8   4  -6    6.47    0.77
  -8   4  -6    6.04    0.93
  -8   4  -5    3.62    0.57
  -8   4  -5    3.35    0.70
  -8   4  -4    1.32    0.35
  -8   4  -4    1.30    0.37
  -8   4  -4    1.32    0.45
  -8   4  -3   19.62    1.49
  -8   4  -3   21.15    1.35
  -8   4  -3   22.18    1.29
  -8   4  -2    5.46    0.68
  -8   4  -2    5.16    0.61
  -8   4  -2    4.98    0.73
  -8   4  -1   17.57    1.10
  -8   4  -1   18.63    1.33
  -8   4  -1   19.38    1.35
  -8   4   0   24.89    1.47
  -8   4   0   24.84    1.61
  -8   4   0   25.65    1.31
  -8   4   1   40.91    1.85
  -8   4   1   41.86    2.18
  -8   4   2   20.60    1.53
  -8   4   2   21.69    1.21
  -8   4   3   41.55    2.28
  -8   4   3   39.37    1.70
  -8   4   4   34.74    2.14
  -8   4   5   32.89    2.12
  -8   4   6   26.13    1.93
  -8   4   7   16.43    1.55
  -8   4   8   14.66    1.33
  -8   4   8   18.18    1.66
  -8   4   9    7.44    1.13
  -8   4   9    6.53    0.96
  -8   5 -10    6.17    0.92
  -8   5  -9    5.65    0.83
  -8   5  -8   13.54    1.22
  -8   5  -7   14.35    1.22
  -8   5  -6   18.71    1.34
  -8   5  -5   17.58    1.24
  -8   5  -4   23.37    1.39
  -8   5  -4   23.32    1.41
  -8   5  -3   37.36    1.78
  -8   5  -3   40.16    1.98
  -8   5  -2   11.89    0.93
  -8   5  -2   13.32    1.13
  -8   5  -1   20.65    1.24
  -8   5  -1   19.02    1.41
  -8   5   0   11.84    0.94
  -8   5   0   12.73    1.18
  -8   5   1    7.89    0.95
  -8   5   1    7.74    0.75
  -8   5   2    2.08    0.56
  -8   5   2    2.31    0.43
  -8   5   3    1.46    0.35
  -8   5   3    1.62    0.54
  -8   5   4    0.66    0.25
  -8   5   4    0.77    0.45
  -8   5   5    3.07    0.70
  -8   5   6    1.05    0.53
  -8   5   7    2.19    0.61
  -8   5   8   -0.22    0.40
  -8   5   9    1.72    0.55
  -8   6 -10    0.01    0.26
  -8   6  -9   -0.34    0.24
  -8   6  -8    2.81    0.57
  -8   6  -7    4.34    0.69
  -8   6  -6    3.97    0.65
  -8   6  -5   20.33    1.36
  -8   6  -4   20.08    1.33
  -8   6  -4   18.56    1.27
  -8   6  -3   37.09    1.84
  -8   6  -3   41.93    2.08
  -8   6  -2   29.36    1.77
  -8   6  -2   24.95    1.45
  -8   6  -1   47.88    2.09
  -8   6  -1   48.75    2.13
  -8   6  -1   49.37    2.44
  -8   6   0   25.70    1.76
  -8   6   0   24.29    1.42
  -8   6   1   46.40    2.49
  -8   6   1   43.63    1.99
  -8   6   2   26.69    1.89
  -8   6   2   25.07    1.46
  -8   6   3   31.76    2.10
  -8   6   3   27.34    1.56
  -8   6   4   37.16    2.33
  -8   6   4   32.28    1.73
  -8   6   5   20.62    1.78
  -8   6   6   19.00    1.72
  -8   6   7    6.29    1.04
  -8   6   8    0.65    0.41
  -8   7 -10    2.52    0.59
  -8   7  -9    5.20    0.80
  -8   7  -8    9.35    1.03
  -8   7  -7    5.92    0.81
  -8   7  -6    2.84    0.57
  -8   7  -5    5.13    0.70
  -8   7  -5    4.91    0.67
  -8   7  -4    3.84    0.61
  -8   7  -4    3.56    0.58
  -8   7  -3    2.07    0.46
  -8   7  -3    1.98    0.49
  -8   7  -2    2.07    0.52
  -8   7  -2    1.61    0.43
  -8   7  -2    1.70    0.44
  -8   7  -1   -0.06    0.24
  -8   7  -1    0.03    0.17
  -8   7   0    7.06    0.79
  -8   7   0    9.20    1.08
  -8   7   1    4.89    0.67
  -8   7   1    4.30    0.78
  -8   7   2    2.41    0.65
  -8   7   2    3.15    0.55
  -8   7   3    1.92    0.60
  -8   7   3    1.50    0.42
  -8   7   4    3.77    0.82
  -8   7   4    3.22    0.59
  -8   7   5    6.13    0.79
  -8   7   5    7.21    1.10
  -8   7   6    4.50    0.89
  -8   7   7    7.79    1.15
  -8   8 -10    3.55    0.75
  -8   8  -9    4.51    0.74
  -8   8  -8   12.45    1.21
  -8   8  -7   19.16    1.45
  -8   8  -6   15.52    1.29
  -8   8  -5   19.91    1.43
  -8   8  -4   20.44    1.42
  -8   8  -3   39.93    2.07
  -8   8  -3   37.86    1.98
  -8   8  -3   39.49    2.20
  -8   8  -2   18.32    1.34
  -8   8  -2   18.82    1.52
  -8   8  -1   50.48    2.36
  -8   8  -1   53.07    2.72
  -8   8   0   53.64    2.47
  -8   8   0   59.45    2.98
  -8   8   1   49.66    2.35
  -8   8   1   49.92    2.79
  -8   8   2   27.63    2.06
  -8   8   2   22.83    1.57
  -8   8   3    8.38    0.95
  -8   8   3   10.65    1.34
  -8   8   4    6.64    0.86
  -8   8   4    7.23    1.12
  -8   8   5    3.83    0.73
  -8   9 -10   -0.01    0.30
  -8   9  -9    1.92    0.50
  -8   9  -8    5.25    0.85
  -8   9  -7    3.70    0.69
  -8   9  -6    0.71    0.35
  -8   9  -5    1.74    0.47
  -8   9  -4    1.35    0.45
  -8   9  -4    0.60    0.41
  -8   9  -3    1.81    0.47
  -8   9  -2    3.49    0.64
  -8   9  -1    3.69    0.62
  -8   9   0    5.85    0.82
  -8   9   1    7.27    0.91
  -8   9   2    7.80    0.97
  -8   9   3   11.51    1.20
  -8   9   4   10.10    1.15
  -8   9   5    7.22    1.02
  -8  10  -9    6.80    0.98
  -8  10  -8    8.14    1.04
  -8  10  -7    7.85    0.99
  -8  10  -6    9.26    1.05
  -8  10  -5   26.23    1.76
  -8  10  -5   25.68    1.81
  -8  10  -4   16.61    1.42
  -8  10  -3   16.83    1.43
  -8  10  -2    6.17    0.87
  -8  10  -1    7.04    0.93
  -8  10   0    5.20    0.83
  -8  10   1    2.38    0.56
  -8  10   2    2.12    0.57
  -8  10   3    1.32    0.45
  -8  11  -9    0.45    0.30
  -8  11  -8   -0.02    0.30
  -8  11  -7    2.97    0.63
  -8  11  -6    1.64    0.52
  -8  11  -6    1.08    0.48
  -8  11  -5    2.33    0.63
  -8  11  -4    3.93    0.75
  -8  11  -3    7.14    1.00
  -8  11  -2    6.49    0.96
  -8  11  -1    8.27    1.07
  -8  11   0    9.60    1.14
  -8  11   1    9.61    1.18
  -8  12  -6    3.40    0.78
  -8  12  -5    3.51    0.78
  -8  12  -4    1.91    0.52
  -8  12  -3    2.20    0.57
  -7  -7   4   -0.56    0.41
  -7  -7   5    0.68    0.35
  -7  -7   6    1.75    0.56
  -7  -7   7    5.36    0.86
  -7  -7   8    3.76    0.77
  -7  -7   9    2.53    0.71
  -7  -6   0    9.44    1.19
  -7  -6   1   21.63    1.79
  -7  -6   2   25.55    1.94
  -7  -6   3   19.00    1.63
  -7  -6   4    8.12    1.05
  -7  -6   5   11.85    1.26
  -7  -6   6    7.43    0.90
  -7  -6   7   20.90    1.62
  -7  -6   8   11.68    1.25
  -7  -6   9    8.53    1.09
  -7  -6  10    4.84    0.85
  -7  -5  -2    0.11    0.32
  -7  -5  -1   -0.10    0.21
  -7  -5   0    0.08    0.20
  -7  -5   1    2.43    0.61
  -7  -5   2    3.24    0.67
  -7  -5   3   11.63    1.19
  -7  -5   4    4.49    0.72
  -7  -5   5   19.49    1.38
  -7  -5   5   16.74    1.42
  -7  -5   6   14.13    1.22
  -7  -5   7    6.60    0.87
  -7  -5   8    6.83    0.92
  -7  -5   9   11.86    1.27
  -7  -5  10   12.89    1.34
  -7  -5  11   10.78    1.23
  -7  -5  12    8.51    1.11
  -7  -4  -4    8.22    1.12
  -7  -4  -3   11.69    1.33
  -7  -4  -2   14.63    1.43
  -7  -4  -1    8.65    1.05
  -7  -4   0    7.31    0.95
  -7  -4   1   12.79    1.22
  -7  -4   2   21.53    1.56
  -7  -4   3   19.71    1.46
  -7  -4   4    7.06    0.85
  -7  -4   4    6.37    0.73
  -7  -4   5   21.14    1.50
  -7  -4   5   23.20    1.46
  -7  -4   6    5.43    0.71
  -7  -4   8    0.40    0.37
  -7  -4   9    0.23    0.21
  -7  -4  10    0.56    0.39
  -7  -4  11    1.65    0.51
  -7  -4  12    0.17    0.22
  -7  -3  -5    0.29    0.33
  -7  -3  -4    3.21    0.65
  -7  -3  -3    1.20    0.42
  -7  -3  -2    8.09    1.01
  -7  -3  -1   16.58    1.38
  -7  -3   0   15.03    1.27
  -7  -3   1   36.95    2.02
  -7  -3   2   29.95    1.76
  -7  -3   3   81.30    2.73
  -7  -3   3   78.05    3.04
  -7  -3   4   46.70    2.21
  -7  -3   4   49.87    2.09
  -7  -3   5   47.04    2.19
  -7  -3   6   39.42    2.12
  -7  -3   7   55.38    2.62
  -7  -3   8   31.54    1.93
  -7  -3   9   26.45    1.81
  -7  -3  10   22.91    1.70
  -7  -3  11    7.32    0.99
  -7  -3  12   11.27    1.17
  -7  -2  -7    5.29    0.98
  -7  -2  -6   10.19    1.28
  -7  -2  -5   18.74    1.66
  -7  -2  -4   19.49    1.60
  -7  -2  -3   16.42    1.42
  -7  -2  -2   24.22    1.68
  -7  -2  -1    8.91    0.97
  -7  -2   0   11.30    1.04
  -7  -2   1   12.20    1.05
  -7  -2   2    2.33    0.48
  -7  -2   3    6.39    0.74
  -7  -2   4    3.09    0.56
  -7  -2   4    2.96    0.50
  -7  -2   5    0.25    0.19
  -7  -2   5   -0.06    0.27
  -7  -2   6    4.46    0.70
  -7  -2   7    1.16    0.38
  -7  -2   8    2.36    0.54
  -7  -2   8    2.49    0.47
  -7  -2   9    1.58    0.47
  -7  -2   9    0.46    0.30
  -7  -2  10    3.40    0.60
  -7  -2  10    5.25    0.78
  -7  -2  11   10.39    1.16
  -7  -2  11    9.49    1.06
  -7  -2  12    3.20    0.68
  -7  -1  -8    1.98    0.64
  -7  -1  -7    0.58    0.44
  -7  -1  -6    6.46    1.00
  -7  -1  -5    1.79    0.53
  -7  -1  -4    9.26    1.05
  -7  -1  -3   18.25    1.15
  -7  -1  -3   18.68    1.46
  -7  -1  -2   51.29    2.44
  -7  -1  -2   53.19    2.15
  -7  -1  -1   92.79    3.07
  -7  -1  -1   85.08    3.22
  -7  -1   0   26.33    1.55
  -7  -1   0   27.45    1.51
  -7  -1   1   66.77    2.56
  -7  -1   1   65.73    2.57
  -7  -1   2   63.47    2.46
  -7  -1   2   65.47    2.55
  -7  -1   3   89.10    3.11
  -7  -1   3   82.16    2.87
  -7  -1   4   37.32    1.72
  -7  -1   4   36.47    1.87
  -7  -1   5   79.74    2.74
  -7  -1   5   79.81    2.46
  -7  -1   5   82.19    3.07
  -7  -1   6   31.39    1.47
  -7  -1   6   33.02    1.59
  -7  -1   6   35.16    1.90
  -7  -1   7   32.87    1.61
  -7  -1   7   34.78    1.94
  -7  -1   8   30.75    1.66
  -7  -1   8   34.52    1.97
  -7  -1   9   12.57    1.11
  -7  -1   9   14.47    1.30
  -7  -1  10   13.00    1.24
  -7  -1  10    9.81    1.05
  -7  -1  11    2.31    0.56
  -7  -1  11    2.56    0.57
  -7  -1  12    3.68    0.77
  -7   0  -9   11.05    1.22
  -7   0  -8    2.43    0.61
  -7   0  -8    1.91    0.62
  -7   0  -7    7.67    0.92
  -7   0  -7    8.68    1.17
  -7   0  -6    7.95    1.06
  -7   0  -6    7.45    0.85
  -7   0  -5    5.84    0.70
  -7   0  -5    4.88    0.82
  -7   0  -4    3.53    0.66
  -7   0  -4    4.05    0.55
  -7   0  -3    5.83    0.61
  -7   0  -3    5.81    0.79
  -7   0  -3    6.02    0.61
  -7   0  -2   19.51    1.05
  -7   0  -2   21.07    1.23
  -7   0  -1    7.09    0.80
  -7   0  -1    7.15    0.71
  -7   0  -1    7.14    0.56
  -7   0   0    0.80    0.31
  -7   0   0    0.68    0.30
  -7   0   0    0.72    0.19
  -7   0   1    0.61    0.28
  -7   0   1    0.19    0.21
  -7   0   2    1.25    0.31
  -7   0   2    1.12    0.33
  -7   0   3   11.94    1.00
  -7   0   3   11.16    0.86
  -7   0   4    7.48    0.68
  -7   0   4    7.30    0.81
  -7   0   5   13.64    0.91
  -7   0   5   14.70    0.95
  -7   0   5   16.43    1.23
  -7   0   6   58.55    2.23
  -7   0   6   61.29    2.15
  -7   0   6   65.97    2.69
  -7   0   7   41.50    1.91
  -7   0   7   43.28    2.19
  -7   0   8   18.02    1.28
  -7   0   8   20.41    1.50
  -7   0   9   12.91    1.23
  -7   0   9   11.50    1.08
  -7   0  10    9.65    1.10
  -7   0  10    9.68    1.04
  -7   0  11    9.09    1.07
  -7   0  12    7.01    1.05
  -7   1  -9   -0.22    0.34
  -7   1  -9   -0.98    0.50
  -7   1  -8    5.91    0.99
  -7   1  -8    5.83    0.82
  -7   1  -7    5.96    0.80
  -7   1  -7    5.12    0.92
  -7   1  -6   26.13    1.90
  -7   1  -6   25.98    1.56
  -7   1  -5   28.15    1.52
  -7   1  -5   26.83    1.83
  -7   1  -4   27.81    1.77
  -7   1  -4   30.88    1.51
  -7   1  -3   57.99    2.12
  -7   1  -3   57.84    2.54
  -7   1  -3   55.94    2.06
  -7   1  -2   71.85    2.48
  -7   1  -2   68.71    2.26
  -7   1  -2   72.61    2.80
  -7   1  -1   93.65    2.69
  -7   1  -1   96.09    3.25
  -7   1  -1   97.72    3.07
  -7   1   0   51.54    2.09
  -7   1   0   51.76    2.11
  -7   1   0   51.19    1.70
  -7   1   1   87.23    2.38
  -7   1   1   87.47    2.84
  -7   1   1   82.43    2.89
  -7   1   2   33.94    1.69
  -7   1   2   32.58    1.50
  -7   1   3   77.37    2.52
  -7   1   3   83.52    2.95
  -7   1   4   15.15    1.16
  -7   1   4   14.67    0.89
  -7   1   5   30.69    1.31
  -7   1   5   27.82    1.41
  -7   1   5   33.28    1.81
  -7   1   6   22.92    1.54
  -7   1   6   22.91    1.31
  -7   1   7    9.65    0.91
  -7   1   7   11.10    1.10
  -7   1   8    6.08    0.86
  -7   1   8    4.76    0.67
  -7   1   9   -0.18    0.33
  -7   1   9    0.02    0.34
  -7   1  10    0.04    0.23
  -7   1  10   -0.29    0.26
  -7   1  11   -0.40    0.31
  -7   2 -10    0.07    0.27
  -7   2  -9    2.00    0.58
  -7   2  -8    0.08    0.32
  -7   2  -8    0.21    0.25
  -7   2  -7    2.94    0.58
  -7   2  -7    2.49    0.67
  -7   2  -6    1.71    0.52
  -7   2  -6    2.52    0.46
  -7   2  -5    0.01    0.16
  -7   2  -5   -0.46    0.35
  -7   2  -4    3.12    0.48
  -7   2  -4    3.27    0.44
  -7   2  -4    3.04    0.61
  -7   2  -3    2.95    0.55
  -7   2  -3    3.26    0.45
  -7   2  -3    4.05    0.50
  -7   2  -2    5.12    0.52
  -7   2  -2    5.35    0.60
  -7   2  -2    4.57    0.64
  -7   2  -1   22.11    1.33
  -7   2  -1   21.77    1.25
  -7   2  -1   22.28    1.09
  -7   2   0    6.69    0.71
  -7   2   0    7.30    0.72
  -7   2   0    7.29    0.57
  -7   2   1   72.39    2.46
  -7   2   1   70.72    2.16
  -7   2   1   70.82    2.62
  -7   2   2   63.48    2.18
  -7   2   2   61.46    2.47
  -7   2   3   47.02    1.73
  -7   2   3   47.42    2.16
  -7   2   4   33.83    1.85
  -7   2   4   34.65    1.36
  -7   2   5   43.46    2.16
  -7   2   5   37.46    1.73
  -7   2   6   41.23    2.17
  -7   2   6   36.37    1.79
  -7   2   7   31.02    1.93
  -7   2   7   25.99    1.57
  -7   2   8   27.27    1.85
  -7   2   8   24.55    1.61
  -7   2   9   20.10    1.53
  -7   2   9   22.63    1.73
  -7   2  10   21.85    1.73
  -7   2  10   18.65    1.56
  -7   2  11    6.97    1.02
  -7   3 -10    9.00    1.11
  -7   3  -9    6.91    0.90
  -7   3  -8   14.60    1.23
  -7   3  -7   18.56    1.60
  -7   3  -7   18.91    1.34
  -7   3  -6   36.51    1.82
  -7   3  -6   34.89    2.16
  -7   3  -5   38.78    1.79
  -7   3  -5   35.84    2.11
  -7   3  -4   30.49    1.44
  -7   3  -4   31.38    1.52
  -7   3  -4   30.20    1.84
  -7   3  -3   45.98    1.83
  -7   3  -3   44.99    1.87
  -7   3  -3   45.44    2.19
  -7   3  -2   55.75    2.01
  -7   3  -2   56.66    2.21
  -7   3  -2   56.26    2.36
  -7   3  -1   54.74    1.95
  -7   3  -1   54.90    2.22
  -7   3  -1   57.86    2.28
  -7   3   0   12.58    0.81
  -7   3   0   13.58    0.96
  -7   3   0   13.81    1.05
  -7   3   1   91.13    2.82
  -7   3   1   88.82    3.14
  -7   3   2   26.40    1.22
  -7   3   2   25.07    1.55
  -7   3   2   27.39    1.25
  -7   3   3   19.17    1.38
  -7   3   3   19.17    0.96
  -7   3   3   20.61    1.03
  -7   3   4    8.75    0.95
  -7   3   4    9.87    0.70
  -7   3   5    9.73    1.04
  -7   3   5    7.81    0.78
  -7   3   6    0.34    0.30
  -7   3   6    0.84    0.31
  -7   3   7   -0.14    0.25
  -7   3   7    0.52    0.34
  -7   3   8    0.05    0.17
  -7   3   8   -0.02    0.27
  -7   3   9    1.26    0.47
  -7   3   9    1.54    0.49
  -7   3  10   -0.05    0.33
  -7   4 -11    2.50    0.62
  -7   4 -10   -0.29    0.33
  -7   4  -9    0.09    0.26
  -7   4  -8    2.47    0.50
  -7   4  -7    0.23    0.28
  -7   4  -6    2.23    0.47
  -7   4  -5    6.66    0.73
  -7   4  -5    6.66    0.88
  -7   4  -4    9.03    0.77
  -7   4  -4    8.14    0.75
  -7   4  -4    8.83    0.96
  -7   4  -3   22.08    1.28
  -7   4  -3   20.89    1.19
  -7   4  -3   21.00    1.44
  -7   4  -2   10.88    0.92
  -7   4  -2   11.14    0.97
  -7   4  -2   10.88    0.82
  -7   4  -1   81.00    2.60
  -7   4  -1   81.32    2.94
  -7   4  -1   80.88    2.88
  -7   4   0   39.46    1.66
  -7   4   0   41.52    1.80
  -7   4   0   38.75    1.94
  -7   4   0   38.72    1.61
  -7   4   1   64.59    2.68
  -7   4   1   64.98    2.26
  -7   4   1   65.34    2.24
  -7   4   2   52.13    1.83
  -7   4   2   54.72    1.98
  -7   4   2   53.07    2.45
  -7   4   3   71.00    2.97
  -7   4   3   69.61    2.34
  -7   4   4   26.34    1.76
  -7   4   4   28.86    1.36
  -7   4   5   24.48    1.27
  -7   4   5   25.75    1.78
  -7   4   6   16.99    1.29
  -7   4   6   24.39    1.76
  -7   4   7   12.13    1.26
  -7   4   7   11.00    1.07
  -7   4   8   21.07    1.71
  -7   4   8   16.79    1.40
  -7   4   9    4.64    0.82
  -7   4   9    3.86    0.72
  -7   4  10    3.48    0.70
  -7   5 -11    2.89    0.67
  -7   5 -10    5.51    0.87
  -7   5  -9   11.46    1.12
  -7   5  -8   13.39    1.17
  -7   5  -7   15.74    1.22
  -7   5  -6   24.38    1.46
  -7   5  -5   13.19    1.01
  -7   5  -5   14.10    0.94
  -7   5  -4    6.92    0.71
  -7   5  -4    7.25    0.72
  -7   5  -3    4.37    0.61
  -7   5  -3    4.67    0.57
  -7   5  -2   -0.02    0.18
  -7   5  -2   -0.02    0.22
  -7   5  -1    7.91    0.73
  -7   5  -1    7.85    0.87
  -7   5  -1    8.01    0.74
  -7   5   0    2.68    0.43
  -7   5   0    1.95    0.51
  -7   5   1    1.27    0.32
  -7   5   1    0.71    0.38
  -7   5   2    1.71    0.51
  -7   5   2    1.37    0.33
  -7   5   3    0.85    0.28
  -7   5   3    0.80    0.38
  -7   5   4    2.64    0.44
  -7   5   4    3.24    0.67
  -7   5   5    0.90    0.38
  -7   5   5    1.04    0.30
  -7   5   6    5.01    0.83
  -7   5   7    6.90    0.95
  -7   5   8    1.34    0.52
  -7   5   8    1.60    0.52
  -7   5   9    5.48    0.87
  -7   5   9    5.50    0.90
  -7   6 -11    1.44    0.48
  -7   6 -10    7.41    0.96
  -7   6  -9    2.88    0.62
  -7   6  -8    5.36    0.72
  -7   6  -7    5.98    0.76
  -7   6  -6   18.62    1.28
  -7   6  -5   41.82    1.95
  -7   6  -5   44.72    1.90
  -7   6  -4   20.16    1.28
  -7   6  -4   23.07    1.36
  -7   6  -3   62.13    2.38
  -7   6  -3   64.27    2.55
  -7   6  -2   46.08    2.03
  -7   6  -2   51.41    2.29
  -7   6  -2   49.17    2.04
  -7   6  -1   49.63    2.05
  -7   6  -1   52.82    2.42
  -7   6  -1   49.70    2.08
  -7   6   0    9.41    0.83
  -7   6   0    9.55    1.02
  -7   6   1   39.13    1.81
  -7   6   1   42.31    2.26
  -7   6   2   23.42    1.36
  -7   6   2   26.33    1.78
  -7   6   3   43.19    2.37
  -7   6   3   33.73    1.73
  -7   6   4   23.09    1.41
  -7   6   4   22.41    1.73
  -7   6   5   12.67    1.32
  -7   6   5   10.69    0.97
  -7   6   6   12.78    1.09
  -7   6   6   15.57    1.48
  -7   6   7    5.50    0.88
  -7   6   8   11.37    1.32
  -7   7 -11    4.42    0.78
  -7   7 -10    4.78    0.77
  -7   7  -9    1.83    0.52
  -7   7  -8   -0.37    0.25
  -7   7  -7    0.17    0.26
  -7   7  -6    2.08    0.46
  -7   7  -5    2.75    0.51
  -7   7  -4   -0.20    0.27
  -7   7  -4   -0.03    0.20
  -7   7  -4    0.16    0.24
  -7   7  -3   -0.09    0.23
  -7   7  -3   -0.02    0.21
  -7   7  -3   -0.20    0.24
  -7   7  -2    0.04    0.22
  -7   7  -2    0.21    0.29
  -7   7  -2    0.19    0.23
  -7   7  -1    3.35    0.66
  -7   7  -1    3.37    0.55
  -7   7   0    2.39    0.55
  -7   7   0    3.10    0.52
  -7   7   1    4.01    0.75
  -7   7   1    2.97    0.53
  -7   7   2   13.61    1.10
  -7   7   2   14.98    1.40
  -7   7   3   13.02    1.33
  -7   7   3   11.40    1.02
  -7   7   4    9.26    0.94
  -7   7   4   11.31    1.29
  -7   7   5   12.10    1.35
  -7   7   5    9.98    1.03
  -7   7   6    8.81    0.97
  -7   8 -11    1.93    0.53
  -7   8 -10    7.24    0.95
  -7   8  -9   11.18    1.14
  -7   8  -8   19.98    1.47
  -7   8  -7   32.95    1.87
  -7   8  -6   21.31    1.44
  -7   8  -5   31.74    1.81
  -7   8  -5   28.85    1.68
  -7   8  -4   22.09    1.42
  -7   8  -4   19.09    1.37
  -7   8  -3   39.83    2.00
  -7   8  -3   40.97    1.99
  -7   8  -2   26.15    1.58
  -7   8  -1   41.31    2.04
  -7   8   0    6.63    0.79
  -7   8   0    5.04    0.84
  -7   8   1   12.81    1.11
  -7   8   2    9.96    1.00
  -7   8   3    8.74    0.96
  -7   8   4    6.35    0.87
  -7   8   5    1.27    0.43
  -7   8   6    0.71    0.36
  -7   9 -11    0.87    0.48
  -7   9 -10    0.81    0.44
  -7   9  -9    0.02    0.34
  -7   9  -8   -0.07    0.30
  -7   9  -7    0.99    0.39
  -7   9  -6    0.41    0.32
  -7   9  -5    2.42    0.55
  -7   9  -5    2.89    0.60
  -7   9  -4    2.21    0.50
  -7   9  -4    1.36    0.44
  -7   9  -3    9.53    0.99
  -7   9  -2    8.32    0.92
  -7   9  -1   10.24    1.03
  -7   9   0   10.25    1.07
  -7   9   1   13.03    1.19
  -7   9   2   10.44    1.10
  -7   9   3    8.09    1.00
  -7   9   4    4.68    0.79
  -7   9   5    6.56    0.95
  -7  10 -11    2.65    0.60
  -7  10 -10    5.76    0.88
  -7  10  -9    7.35    0.96
  -7  10  -8    6.36    0.90
  -7  10  -7   10.31    1.10
  -7  10  -6   11.04    1.15
  -7  10  -6   10.44    1.06
  -7  10  -5   10.15    1.05
  -7  10  -5    9.29    1.05
  -7  10  -4    2.63    0.58
  -7  10  -3   11.57    1.14
  -7  10  -2    4.28    0.72
  -7  10  -1    4.87    0.80
  -7  10   0    1.86    0.49
  -7  10   1    2.20    0.56
  -7  10   2    0.61    0.33
  -7  10   3    0.10    0.29
  -7  10   4   -0.11    0.27
  -7  11 -10    0.87    0.44
  -7  11  -9    0.95    0.41
  -7  11  -8    3.73    0.72
  -7  11  -7    4.31    0.82
  -7  11  -7    4.76    0.78
  -7  11  -6    2.85    0.61
  -7  11  -6    3.06    0.64
  -7  11  -5   14.86    1.38
  -7  11  -4   12.72    1.30
  -7  11  -3   16.80    1.47
  -7  11  -2   18.29    1.54
  -7  11  -1   25.20    1.86
  -7  11   0   14.64    1.43
  -7  11   1   12.36    1.34
  -7  12  -9    5.49    0.83
  -7  12  -8    5.92    0.90
  -7  12  -7    3.77    0.79
  -7  12  -6    0.89    0.41
  -7  12  -5    2.42    0.62
  -7  12  -4    1.30    0.49
  -7  12  -3    1.41    0.52
  -7  12  -2    1.67    0.52
  -6  -8   4   52.13    2.90
  -6  -8   5   54.69    2.99
  -6  -8   6   27.95    1.91
  -6  -8   7   18.60    1.58
  -6  -8   8   13.88    1.38
  -6  -8   9   11.73    1.30
  -6  -7   0    0.23    0.30
  -6  -7   1    0.97    0.42
  -6  -7   2    0.77    0.41
  -6  -7   3    2.31    0.59
  -6  -7   4    1.98    0.50
  -6  -7   5    2.01    0.50
  -6  -7   6    3.45    0.63
  -6  -7   7   12.92    1.25
  -6  -7   8   13.96    1.36
  -6  -7   9   11.79    1.26
  -6  -7  10   12.65    1.35
  -6  -6  -2   13.37    1.38
  -6  -6  -1   24.75    1.86
  -6  -6   0   37.94    2.30
  -6  -6   1   31.45    2.04
  -6  -6   2   20.88    1.61
  -6  -6   3   21.64    1.61
  -6  -6   4   25.91    1.76
  -6  -6   4   23.92    1.52
  -6  -6   5   13.86    1.17
  -6  -6   6   13.88    1.20
  -6  -6   7   14.60    1.26
  -6  -6   8    3.47    0.64
  -6  -6   9    4.71    0.78
  -6  -6  10    2.81    0.66
  -6  -6  11    1.13    0.44
  -6  -6  12    0.09    0.32
  -6  -5  -4    1.33    0.43
  -6  -5  -3    1.61    0.51
  -6  -5  -2    0.71    0.37
  -6  -5  -1    0.41    0.29
  -6  -5   0    2.43    0.55
  -6  -5   1    8.18    0.95
  -6  -5   2   11.33    1.11
  -6  -5   3   16.89    1.36
  -6  -5   3   22.73    1.33
  -6  -5   4   26.67    1.51
  -6  -5   5   46.61    2.16
  -6  -5   6   25.75    1.61
  -6  -5   7   35.91    1.99
  -6  -5   8   42.69    2.25
  -6  -5   9   23.43    1.68
  -6  -5  10   21.83    1.64
  -6  -5  11   21.16    1.64
  -6  -5  12   13.16    1.28
  -6  -5  13    4.16    0.76
  -6  -4  -6    4.94    0.89
  -6  -4  -5    6.69    1.04
  -6  -4  -4   16.05    1.48
  -6  -4  -3   17.67    1.51
  -6  -4  -2   14.66    1.32
  -6  -4  -1   19.28    1.47
  -6  -4   0   26.24    1.68
  -6  -4   1   16.00    1.27
  -6  -4   2   20.66    1.16
  -6  -4   2   19.78    1.39
  -6  -4   3   11.85    0.90
  -6  -4   3   10.44    0.99
  -6  -4   4    8.39    0.79
  -6  -4   5    4.48    0.61
  -6  -4   6    0.14    0.21
  -6  -4   7    0.61    0.30
  -6  -4   8    0.52    0.29
  -6  -4   9    1.72    0.41
  -6  -4   9    1.78    0.53
  -6  -4  10   -0.23    0.25
  -6  -4  10    0.54    0.28
  -6  -4  11    0.33    0.29
  -6  -4  11    0.87    0.37
  -6  -4  11    1.16    0.44
  -6  -4  12   -0.04    0.11
  -6  -4  12    0.64    0.38
  -6  -4  13    2.20    0.55
  -6  -4  13    1.92    0.56
  -6  -3  -7    0.40    0.35
  -6  -3  -6    2.18    0.58
  -6  -3  -5    5.06    0.87
  -6  -3  -4    8.39    1.01
  -6  -3  -3   17.03    1.41
  -6  -3  -2   23.35    1.59
  -6  -3  -1   26.91    1.65
  -6  -3   0   52.23    2.35
  -6  -3   1   65.15    2.62
  -6  -3   2   26.50    1.55
  -6  -3   2   31.38    1.38
  -6  -3   3   51.75    2.21
  -6  -3   3   51.92    1.99
  -6  -3   4   41.05    1.79
  -6  -3   5   55.88    2.25
  -6  -3   6   63.18    2.51
  -6  -3   7   56.66    2.47
  -6  -3   7   53.36    2.06
  -6  -3   8   27.91    1.70
  -6  -3   8   28.78    1.51
  -6  -3   8   25.76    1.41
  -6  -3   9   27.87    1.73
  -6  -3   9   24.12    1.47
  -6  -3   9   25.53    1.53
  -6  -3  10   19.23    1.40
  -6  -3  10   16.64    1.29
  -6  -3  10   19.28    1.46
  -6  -3  11    6.93    0.88
  -6  -3  11    6.89    0.90
  -6  -3  11    5.03    0.75
  -6  -3  12    6.63    0.94
  -6  -3  12    6.06    0.89
  -6  -3  13    3.78    0.70
  -6  -3  13    2.90    0.68
  -6  -2  -8    7.45    1.02
  -6  -2  -8    7.41    1.18
  -6  -2  -7    5.69    0.95
  -6  -2  -7    7.06    0.89
  -6  -2  -6    4.04    0.77
  -6  -2  -6    3.77    0.61
  -6  -2  -5    9.38    1.08
  -6  -2  -5    9.92    0.93
  -6  -2  -4    7.32    0.91
  -6  -2  -4    9.17    0.83
  -6  -2  -3    9.01    0.99
  -6  -2  -2    7.60    0.85
  -6  -2  -1    7.10    0.80
  -6  -2   0   13.01    1.04
  -6  -2   1    1.06    0.32
  -6  -2   1    1.04    0.22
  -6  -2   2    0.21    0.16
  -6  -2   2    0.30    0.16
  -6  -2   3   -0.06    0.14
  -6  -2   3    0.44    0.21
  -6  -2   4    6.44    0.65
  -6  -2   5    0.45    0.12
  -6  -2   5    0.52    0.18
  -6  -2   5    0.69    0.28
  -6  -2   6    5.50    0.71
  -6  -2   6    5.93    0.57
  -6  -2   6    4.66    0.51
  -6  -2   7    0.42    0.19
  -6  -2   7    0.63    0.30
  -6  -2   7    0.22    0.15
  -6  -2   8   12.86    1.09
  -6  -2   8   11.15    0.92
  -6  -2   8   12.08    0.97
  -6  -2   9    8.20    0.87
  -6  -2   9    8.08    0.91
  -6  -2   9    6.61    0.76
  -6  -2  10   10.01    1.01
  -6  -2  10   12.61    1.15
  -6  -2  10   11.48    1.11
  -6  -2  11    8.26    0.96
  -6  -2  11    8.42    0.96
  -6  -2  11    6.08    0.84
  -6  -2  12    5.34    0.79
  -6  -2  13    4.97    0.89
  -6  -1  -9   -1.75    0.67
  -6  -1  -9    0.73    0.47
  -6  -1  -8    1.23    0.54
  -6  -1  -8    2.08    0.49
  -6  -1  -7    6.73    0.86
  -6  -1  -7    6.55    0.97
  -6  -1  -6    9.28    1.07
  -6  -1  -6    9.28    0.94
  -6  -1  -5   15.84    1.14
  -6  -1  -5   15.78    1.35
  -6  -1  -4   33.97    1.94
  -6  -1  -4   34.49    1.62
  -6  -1  -3   19.26    1.39
  -6  -1  -3   21.56    1.15
  -6  -1  -2    7.62    0.60
  -6  -1  -2    7.13    0.79
  -6  -1  -1   22.08    0.98
  -6  -1  -1   22.22    1.35
  -6  -1   0   52.09    1.55
  -6  -1   0   51.46    2.10
  -6  -1   1  110.61    3.37
  -6  -1   2   66.21    2.35
  -6  -1   3   86.53    2.75
  -6  -1   3   84.57    2.88
  -6  -1   4   82.21    2.86
  -6  -1   4   81.49    2.61
  -6  -1   4   80.21    2.30
  -6  -1   5   49.65    1.79
  -6  -1   5   52.27    2.18
  -6  -1   5   51.32    1.77
  -6  -1   6    5.80    0.70
  -6  -1   6    5.20    0.55
  -6  -1   6    5.18    0.57
  -6  -1   7   16.04    1.07
  -6  -1   7   16.11    1.07
  -6  -1   7   17.44    1.24
  -6  -1   8   10.88    1.00
  -6  -1   8    9.26    0.87
  -6  -1   8    9.81    0.89
  -6  -1   9    4.94    0.69
  -6  -1   9    6.54    0.80
  -6  -1  10   11.01    1.08
  -6  -1  10    9.55    0.98
  -6  -1  11    1.14    0.40
  -6  -1  12    0.66    0.39
  -6   0  -9    0.76    0.45
  -6   0  -9    0.38    0.34
  -6   0  -8    3.46    0.66
  -6   0  -8    2.29    0.65
  -6   0  -7    6.04    0.79
  -6   0  -7    4.22    0.78
  -6   0  -6    1.82    0.43
  -6   0  -6    1.01    0.43
  -6   0  -5    6.01    0.82
  -6   0  -5    4.68    0.62
  -6   0  -4    6.74    0.81
  -6   0  -4    6.72    0.67
  -6   0  -3    1.13    0.29
  -6   0  -3    1.30    0.27
  -6   0  -3    1.30    0.37
  -6   0  -2   11.66    0.81
  -6   0  -2    9.68    0.89
  -6   0  -2   10.04    0.68
  -6   0  -1   21.27    1.14
  -6   0  -1   19.93    0.93
  -6   0  -1   21.37    1.26
  -6   0   0   13.02    0.90
  -6   0   0   14.42    0.97
  -6   0   0   12.47    0.66
  -6   0   1    5.47    0.59
  -6   0   1    4.90    0.54
  -6   0   1    4.92    0.37
  -6   0   2    4.44    0.50
  -6   0   2    4.95    0.59
  -6   0   3   29.31    1.48
  -6   0   3   28.21    1.30
  -6   0   4   32.82    1.63
  -6   0   4   33.77    1.40
  -6   0   4   33.11    1.34
  -6   0   5   36.60    1.46
  -6   0   5   37.88    1.56
  -6   0   5   38.87    1.83
  -6   0   6   41.98    1.96
  -6   0   6   38.64    1.70
  -6   0   7   21.38    1.38
  -6   0   7   15.86    1.11
  -6   0   8   35.00    1.87
  -6   0   8   30.10    1.67
  -6   0   9   16.85    1.29
  -6   0   9   20.36    1.46
  -6   0  10   13.44    1.20
  -6   0  10   13.54    1.24
  -6   0  11    9.31    1.09
  -6   0  12    8.60    1.11
  -6   1 -10    8.65    1.08
  -6   1  -9   14.12    1.31
  -6   1  -8   14.52    1.26
  -6   1  -8   13.17    1.37
  -6   1  -7   10.48    1.00
  -6   1  -7   10.34    1.17
  -6   1  -6   18.37    1.47
  -6   1  -6   20.09    1.30
  -6   1  -5   27.03    1.71
  -6   1  -5   29.35    1.49
  -6   1  -4   55.78    1.85
  -6   1  -4   56.13    2.07
  -6   1  -4   50.95    2.34
  -6   1  -3   70.54    2.69
  -6   1  -3   72.39    2.27
  -6   1  -3   70.30    2.30
  -6   1  -2   50.73    1.75
  -6   1  -2   51.35    1.86
  -6   1  -2   51.34    2.12
  -6   1  -1   93.57    2.57
  -6   1  -1   91.55    2.80
  -6   1  -1   94.48    3.00
  -6   1   0   68.29    1.99
  -6   1   0   70.44    2.37
  -6   1   0   71.41    2.37
  -6   1   1   31.95    1.40
  -6   1   1   31.62    1.48
  -6   1   1   32.00    1.15
  -6   1   2   13.55    0.96
  -6   1   2   14.13    0.83
  -6   1   3   60.68    2.29
  -6   1   3   58.61    1.92
  -6   1   4   15.05    1.08
  -6   1   4   13.49    0.85
  -6   1   4   13.52    0.76
  -6   1   5   29.84    1.41
  -6   1   5   29.79    1.17
  -6   1   5   31.48    1.65
  -6   1   6   15.91    1.18
  -6   1   6   15.20    1.04
  -6   1   7    7.27    0.77
  -6   1   7    9.23    0.94
  -6   1   8    2.80    0.55
  -6   1   8    4.29    0.67
  -6   1   9    1.06    0.38
  -6   1   9    1.56    0.46
  -6   1  10    0.97    0.39
  -6   1  10    1.15    0.43
  -6   1  11    0.59    0.36
  -6   1  12   -0.08    0.20
  -6   2 -11    0.94    0.48
  -6   2 -10   -0.52    0.37
  -6   2  -9    1.80    0.54
  -6   2  -8    0.20    0.37
  -6   2  -8   -0.22    0.25
  -6   2  -7    2.93    0.54
  -6   2  -7    3.30    0.67
  -6   2  -6    5.92    0.68
  -6   2  -6    5.06    0.79
  -6   2  -5    2.40    0.42
  -6   2  -5    2.52    0.59
  -6   2  -4    2.89    0.54
  -6   2  -4    2.68    0.35
  -6   2  -4    2.35    0.39
  -6   2  -3   13.02    0.84
  -6   2  -3   12.03    1.00
  -6   2  -3   13.57    0.84
  -6   2  -2   14.45    0.85
  -6   2  -2   15.78    0.94
  -6   2  -2   17.53    1.12
  -6   2  -1   19.46    1.13
  -6   2  -1   18.32    0.91
  -6   2   0   35.02    1.56
  -6   2   0   36.59    1.54
  -6   2   0   36.67    1.35
  -6   2   1   89.05    2.49
  -6   2   1   93.72    2.72
  -6   2   1   94.48    2.97
  -6   2   2   29.52    1.22
  -6   2   2   28.38    1.48
  -6   2   3   68.08    1.96
  -6   2   3   66.39    2.51
  -6   2   3   65.62    1.97
  -6   2   4   98.92    3.27
  -6   2   4   90.26    2.83
  -6   2   4   94.12    2.51
  -6   2   4   93.55    2.44
  -6   2   5   56.76    2.41
  -6   2   5   52.33    2.08
  -6   2   5   56.71    1.73
  -6   2   6   41.17    1.89
  -6   2   6   47.17    2.22
  -6   2   7   38.18    1.91
  -6   2   7   42.21    2.17
  -6   2   8   28.76    1.72
  -6   2   8   33.40    1.96
  -6   2   9   19.57    1.52
  -6   2   9   15.11    1.30
  -6   2  10   13.56    1.32
  -6   2  11    5.60    0.91
  -6   3 -11    6.69    0.95
  -6   3 -10    9.91    1.08
  -6   3  -9    5.48    0.79
  -6   3  -8   24.97    1.58
  -6   3  -7   33.05    1.74
  -6   3  -6   29.98    1.55
  -6   3  -6   26.57    1.77
  -6   3  -5   42.92    1.84
  -6   3  -5   46.00    2.27
  -6   3  -4   58.76    2.52
  -6   3  -4   56.28    2.08
  -6   3  -4   59.16    1.99
  -6   3  -3   70.36    2.30
  -6   3  -3   67.44    1.72
  -6   3  -3   67.69    2.24
  -6   3  -3   68.76    2.63
  -6   3  -2   50.44    2.02
  -6   3  -2   46.23    1.66
  -6   3  -2   49.64    1.84
  -6   3  -1   47.45    1.89
  -6   3  -1   44.34    1.85
  -6   3  -1   46.71    1.67
  -6   3   0   33.10    1.44
  -6   3   0   31.21    1.54
  -6   3   0   31.17    1.29
  -6   3   1   41.70    1.58
  -6   3   1   43.13    1.56
  -6   3   1   44.98    1.95
  -6   3   2    2.18    0.30
  -6   3   2    2.20    0.31
  -6   3   2    1.53    0.39
  -6   3   3   10.28    0.95
  -6   3   3   10.96    0.71
  -6   3   3   11.38    0.62
  -6   3   4    0.28    0.15
  -6   3   4    0.05    0.18
  -6   3   4    0.21    0.28
  -6   3   5    3.43    0.50
  -6   3   5    3.52    0.42
  -6   3   5    3.84    0.64
  -6   3   6    2.92    0.52
  -6   3   6    3.02    0.59
  -6   3   7    0.24    0.32
  -6   3   7    0.53    0.29
  -6   3   8    1.59    0.44
  -6   3   8    2.04    0.54
  -6   3   9    3.29    0.65
  -6   3   9    2.84    0.62
  -6   3  10    1.69    0.51
  -6   3  11    5.35    0.90
  -6   4 -11    0.93    0.42
  -6   4 -10   -0.16    0.32
  -6   4  -9    0.42    0.32
  -6   4  -8    2.63    0.51
  -6   4  -7    6.16    0.72
  -6   4  -7    6.20    0.61
  -6   4  -6   13.28    0.83
  -6   4  -6   14.22    1.04
  -6   4  -5   19.56    0.92
  -6   4  -5   20.33    1.20
  -6   4  -5   21.35    1.04
  -6   4  -4   55.61    1.99
  -6   4  -4   53.53    2.02
  -6   4  -4   53.24    1.57
  -6   4  -4   53.44    2.38
  -6   4  -3   72.80    2.39
  -6   4  -3   71.11    1.79
  -6   4  -3   73.00    2.75
  -6   4  -3   77.07    2.51
  -6   4  -2   43.38    1.08
  -6   4  -2   48.90    1.95
  -6   4  -2   48.34    1.77
  -6   4  -2   51.00    2.05
  -6   4  -1  106.68    3.20
  -6   4  -1  100.59    2.99
  -6   4  -1  101.51    3.28
  -6   4  -1  103.41    2.97
  -6   4   0   62.81    2.10
  -6   4   0   62.16    2.45
  -6   4   0   63.77    2.17
  -6   4   0   62.25    2.10
  -6   4   1   78.55    2.45
  -6   4   1   81.48    2.95
  -6   4   2   58.73    2.50
  -6   4   2   60.12    2.03
  -6   4   3   68.74    2.27
  -6   4   3   72.04    2.87
  -6   4   4   62.30    2.72
  -6   4   4   60.47    2.13
  -6   4   5   73.16    2.43
  -6   4   5   65.86    2.58
  -6   4   5   73.02    3.05
  -6   4   6   39.56    1.72
  -6   4   6   43.22    2.29
  -6   4   7   13.64    1.28
  -6   4   7   12.30    1.12
  -6   4   8    7.62    0.97
  -6   4   8    5.76    0.82
  -6   4   9    0.94    0.37
  -6   4   9    1.75    0.49
  -6   4  10    5.57    0.89
  -6   5 -12    7.39    1.02
  -6   5 -11    3.28    0.61
  -6   5 -11    5.78    0.83
  -6   5 -10    5.57    0.80
  -6   5 -10    5.20    0.69
  -6   5  -9   11.61    1.09
  -6   5  -9   10.36    0.92
  -6   5  -8   15.66    1.06
  -6   5  -8   18.00    1.30
  -6   5  -7   16.54    1.00
  -6   5  -7   16.19    1.17
  -6   5  -6    6.82    0.72
  -6   5  -6    6.72    0.57
  -6   5  -5   10.73    0.76
  -6   5  -5   11.16    0.89
  -6   5  -5   10.72    0.66
  -6   5  -4   19.51    1.15
  -6   5  -4   19.33    0.83
  -6   5  -4   22.76    1.20
  -6   5  -3   12.04    0.56
  -6   5  -3   14.02    0.98
  -6   5  -3   11.29    0.85
  -6   5  -2    2.94    0.45
  -6   5  -2    2.94    0.24
  -6   5  -2    3.41    0.53
  -6   5  -2    3.16    0.45
  -6   5  -1    1.99    0.37
  -6   5  -1    2.42    0.40
  -6   5  -1    2.46    0.49
  -6   5  -1    1.91    0.19
  -6   5   0   16.85    1.01
  -6   5   0   16.10    1.22
  -6   5   1    8.79    0.72
  -6   5   1    8.59    0.92
  -6   5   2    0.76    0.25
  -6   5   2    1.03    0.39
  -6   5   3    0.70    0.39
  -6   5   3    1.86    0.37
  -6   5   4   11.43    0.88
  -6   5   4   12.40    1.20
  -6   5   5    7.19    0.93
  -6   5   5    7.52    0.74
  -6   5   6   12.01    0.99
  -6   5   6   13.53    1.29
  -6   5   7   15.11    1.28
  -6   5   7   15.59    1.17
  -6   5   7   18.72    1.56
  -6   5   8   19.75    1.54
  -6   5   8   20.16    1.64
  -6   5   9   17.67    1.55
  -6   6 -12    0.67    0.40
  -6   6 -11    2.21    0.50
  -6   6 -11    3.08    0.65
  -6   6 -10    5.40    0.74
  -6   6 -10    6.73    0.89
  -6   6  -9    6.94    0.85
  -6   6  -9    7.58    0.78
  -6   6  -8   23.25    1.49
  -6   6  -8   22.32    1.27
  -6   6  -7   27.89    1.34
  -6   6  -7   29.33    1.63
  -6   6  -6   32.96    1.69
  -6   6  -6   35.09    1.43
  -6   6  -5   43.21    1.87
  -6   6  -5   39.76    1.46
  -6   6  -4   52.45    2.07
  -6   6  -4   47.77    2.00
  -6   6  -4   48.31    1.57
  -6   6  -3   87.59    2.83
  -6   6  -3   84.70    2.86
  -6   6  -3   81.96    2.22
  -6   6  -3   89.23    2.99
  -6   6  -2   50.84    2.04
  -6   6  -2   53.93    2.27
  -6   6  -2   48.95    1.49
  -6   6  -2   51.35    2.02
  -6   6  -1  113.55    3.44
  -6   6  -1  114.84    2.85
  -6   6  -1  121.03    3.88
  -6   6   0  172.11    4.64
  -6   6   0  172.39    5.13
  -6   6   1  148.86    4.20
  -6   6   1  151.21    4.77
  -6   6   2   39.84    2.16
  -6   6   2   38.10    1.76
  -6   6   3   38.79    2.19
  -6   6   3   38.88    1.82
  -6   6   4   17.78    1.47
  -6   6   4   15.25    1.13
  -6   6   5   16.38    1.44
  -6   6   5   11.02    0.99
  -6   6   6   12.96    1.33
  -6   6   6   11.07    1.01
  -6   6   7    3.95    0.61
  -6   7 -12    3.09    0.70
  -6   7 -11    3.47    0.66
  -6   7 -11    3.87    0.64
  -6   7 -10    1.24    0.43
  -6   7 -10    1.88    0.45
  -6   7  -9    9.37    0.99
  -6   7  -9    8.50    0.83
  -6   7  -8   17.57    1.28
  -6   7  -8   12.59    0.95
  -6   7  -7   10.68    0.81
  -6   7  -7   11.55    1.01
  -6   7  -6    1.10    0.34
  -6   7  -6    1.38    0.30
  -6   7  -5    0.53    0.20
  -6   7  -5    0.03    0.20
  -6   7  -4    1.94    0.42
  -6   7  -4    2.63    0.33
  -6   7  -4    1.62    0.41
  -6   7  -3    0.93    0.35
  -6   7  -3    1.42    0.36
  -6   7  -3    1.04    0.21
  -6   7  -2    5.84    0.49
  -6   7  -2    5.73    0.67
  -6   7  -2    6.28    0.69
  -6   7  -2    6.46    0.80
  -6   7  -1    7.48    0.57
  -6   7  -1    9.50    1.02
  -6   7  -1    9.40    0.85
  -6   7   0    5.62    0.52
  -6   7   0    7.61    0.95
  -6   7   0    6.11    0.70
  -6   7   1   13.96    1.28
  -6   7   1   11.79    0.99
  -6   7   2   25.87    1.79
  -6   7   2   20.76    1.36
  -6   7   3   26.35    1.86
  -6   7   3   22.51    1.45
  -6   7   4   27.17    1.64
  -6   7   5   17.99    1.34
  -6   7   6   10.49    1.05
  -6   7   7    7.86    0.96
  -6   8 -12    4.26    0.79
  -6   8 -11    7.07    0.96
  -6   8 -11    5.04    0.74
  -6   8 -10   14.81    1.29
  -6   8 -10   12.85    1.10
  -6   8  -9   13.48    1.18
  -6   8  -9   11.88    0.99
  -6   8  -8   15.62    1.24
  -6   8  -8   14.94    1.06
  -6   8  -7   20.00    1.36
  -6   8  -7   17.46    1.10
  -6   8  -6   25.74    1.53
  -6   8  -6   24.79    1.26
  -6   8  -5   65.58    2.57
  -6   8  -5   67.00    2.68
  -6   8  -5   63.41    2.18
  -6   8  -4   53.49    1.91
  -6   8  -4   58.49    2.34
  -6   8  -4   55.10    2.36
  -6   8  -3   34.83    1.46
  -6   8  -3   36.14    1.79
  -6   8  -3   37.12    1.85
  -6   8  -2   18.74    1.28
  -6   8  -2   17.16    0.97
  -6   8  -1   29.33    1.64
  -6   8  -1   27.68    1.30
  -6   8   0    8.49    0.87
  -6   8   0    9.23    0.75
  -6   8   1   14.79    1.19
  -6   8   2    5.81    0.76
  -6   8   3    3.99    0.64
  -6   8   4    2.17    0.48
  -6   8   5   -0.04    0.27
  -6   8   6    0.20    0.22
  -6   8   7    0.40    0.27
  -6   9 -12    1.00    0.47
  -6   9 -11   -0.32    0.31
  -6   9 -10    0.08    0.26
  -6   9 -10   -0.57    0.34
  -6   9  -9    0.08    0.20
  -6   9  -9   -0.07    0.23
  -6   9  -8    0.22    0.31
  -6   9  -8    0.45    0.25
  -6   9  -7    2.28    0.44
  -6   9  -7    2.12    0.50
  -6   9  -6    5.88    0.74
  -6   9  -6    4.23    0.53
  -6   9  -6    5.75    0.78
  -6   9  -5    2.06    0.37
  -6   9  -5    2.36    0.53
  -6   9  -5    2.30    0.51
  -6   9  -4    7.71    0.89
  -6   9  -4    6.49    0.64
  -6   9  -4    7.46    0.81
  -6   9  -3   17.40    1.31
  -6   9  -3   18.21    1.09
  -6   9  -2   11.20    0.86
  -6   9  -2   13.57    1.16
  -6   9  -1   20.96    1.46
  -6   9  -1   20.95    1.24
  -6   9   0   27.46    1.71
  -6   9   0   25.67    1.43
  -6   9   1   24.69    1.65
  -6   9   2   19.14    1.48
  -6   9   3   20.42    1.58
  -6   9   4   13.91    1.33
  -6   9   5   10.42    1.16
  -6  10 -12    3.06    0.65
  -6  10 -11    4.86    0.82
  -6  10 -10    6.40    0.90
  -6  10 -10    6.02    0.79
  -6  10  -9    7.60    0.87
  -6  10  -9    7.59    0.94
  -6  10  -8    8.65    0.98
  -6  10  -8    6.31    0.75
  -6  10  -7   12.22    1.00
  -6  10  -7   12.78    1.22
  -6  10  -7   11.67    1.10
  -6  10  -6    9.76    0.87
  -6  10  -6    9.64    0.99
  -6  10  -6   10.69    1.09
  -6  10  -5    8.71    0.81
  -6  10  -5    9.50    1.02
  -6  10  -4    8.85    0.82
  -6  10  -4    9.79    1.02
  -6  10  -3    9.30    0.85
  -6  10  -3   11.36    1.11
  -6  10  -2    2.04    0.42
  -6  10  -2    1.61    0.46
  -6  10  -1    3.20    0.63
  -6  10  -1    2.45    0.48
  -6  10   0    0.89    0.38
  -6  10   1   -0.25    0.30
  -6  10   2    0.50    0.45
  -6  10   3    0.90    0.40
  -6  10   4    1.01    0.43
  -6  11 -11    0.97    0.49
  -6  11 -10    2.99    0.63
  -6  11  -9    5.33    0.80
  -6  11  -8   11.46    1.20
  -6  11  -8   11.55    1.15
  -6  11  -8    9.15    0.93
  -6  11  -7    9.54    0.92
  -6  11  -7    9.13    1.03
  -6  11  -7    8.62    1.06
  -6  11  -6   12.81    1.27
  -6  11  -6   12.11    1.06
  -6  11  -5   20.66    1.38
  -6  11  -5   23.92    1.72
  -6  11  -4   16.19    1.22
  -6  11  -4   18.22    1.50
  -6  11  -3   18.69    1.53
  -6  11  -3   17.74    1.28
  -6  11  -2   13.20    1.32
  -6  11  -2   13.06    1.14
  -6  11  -1   12.95    1.12
  -6  11  -1   13.50    1.33
  -6  11   0   11.07    1.23
  -6  11   1   18.12    1.61
  -6  12 -10    1.77    0.55
  -6  12  -9    2.27    0.55
  -6  12  -8    3.37    0.72
  -6  12  -8    1.77    0.53
  -6  12  -7    1.95    0.59
  -6  12  -6    1.41    0.51
  -6  12  -5    2.21    0.57
  -6  12  -4    0.56    0.31
  -6  12  -3    0.32    0.28
  -6  12  -2   -0.07    0.21
  -6  12  -1    0.33    0.33
  -5  -9   5    0.26    0.25
  -5  -9   6    1.26    0.40
  -5  -9   7    2.23    0.56
  -5  -9   8    2.96    0.64
  -5  -8   0   12.06    1.28
  -5  -8   1   17.45    1.56
  -5  -8   2   27.97    1.98
  -5  -8   3   19.27    1.62
  -5  -8   4   10.07    1.06
  -5  -8   5   10.06    1.06
  -5  -8   6   17.37    1.43
  -5  -8   7   15.24    1.38
  -5  -8   8   20.15    1.62
  -5  -8   9    7.63    1.03
  -5  -8  10    5.55    0.93
  -5  -7  -2   -0.18    0.25
  -5  -7  -1   -0.06    0.10
  -5  -7   0    0.01    0.20
  -5  -7   1    2.03    0.54
  -5  -7   2    2.17    0.53
  -5  -7   3    5.73    0.75
  -5  -7   3    6.33    0.86
  -5  -7   4    7.46    0.87
  -5  -7   5   10.06    1.00
  -5  -7   6   14.97    1.26
  -5  -7   7    6.09    0.84
  -5  -7   8    5.86    0.83
  -5  -7   9   13.02    1.30
  -5  -7  10   16.65    1.51
  -5  -7  11    9.34    1.18
  -5  -7  12   15.24    1.39
  -5  -7  13    9.27    1.13
  -5  -6  -4    5.43    0.91
  -5  -6  -3   14.44    1.42
  -5  -6  -2   13.26    1.29
  -5  -6  -1   10.21    1.11
  -5  -6   0    8.15    0.96
  -5  -6   1   22.11    1.58
  -5  -6   2   24.73    1.42
  -5  -6   2   27.70    1.75
  -5  -6   3   21.29    1.34
  -5  -6   4   22.82    1.42
  -5  -6   5   16.14    1.22
  -5  -6   6   15.91    1.22
  -5  -6   7    1.14    0.41
  -5  -6   8    2.11    0.49
  -5  -6   9    1.74    0.53
  -5  -6  10    0.38    0.23
  -5  -6  10    0.42    0.31
  -5  -6  11    1.77    0.53
  -5  -6  11    1.74    0.52
  -5  -6  11    1.74    0.54
  -5  -6  12    0.24    0.28
  -5  -6  13    0.27    0.19
  -5  -5  -5    0.72    0.39
  -5  -5  -4    1.29    0.45
  -5  -5  -3    1.74    0.49
  -5  -5  -2    1.97    0.48
  -5  -5  -1   22.58    1.56
  -5  -5   0   14.30    1.20
  -5  -5   1   24.80    1.58
  -5  -5   2   54.10    2.41
  -5  -5   2   54.26    2.10
  -5  -5   3   65.83    2.42
  -5  -5   4   66.38    2.50
  -5  -5   5   52.71    2.22
  -5  -5   6   55.81    2.37
  -5  -5   7   55.18    2.42
  -5  -5   8   54.63    2.49
  -5  -5   9   23.37    1.61
  -5  -5   9   25.22    1.52
  -5  -5  10   31.38    1.81
  -5  -5  10   33.90    1.92
  -5  -5  10   28.81    1.90
  -5  -5  11   16.43    1.35
  -5  -5  11   15.69    1.30
  -5  -5  11   15.77    1.32
  -5  -5  12   12.53    1.22
  -5  -5  12   10.84    1.17
  -5  -5  13    7.87    1.01
  -5  -5  13    8.51    1.10
  -5  -4  -6   11.43    1.27
  -5  -4  -5   22.58    1.71
  -5  -4  -4   26.06    1.78
  -5  -4  -3   21.95    1.56
  -5  -4  -2   22.14    1.51
  -5  -4  -1   24.28    1.53
  -5  -4   0   11.71    1.02
  -5  -4   1   14.29    0.89
  -5  -4   1   16.31    1.18
  -5  -4   2   16.63    0.99
  -5  -4   2   15.24    1.13
  -5  -4   3    5.63    0.59
  -5  -4   4   12.81    0.94
  -5  -4   5    1.28    0.33
  -5  -4   6    2.56    0.48
  -5  -4   7    0.95    0.27
  -5  -4   7    0.71    0.31
  -5  -4   8    0.15    0.16
  -5  -4   8    0.26    0.24
  -5  -4   8    0.06    0.16
  -5  -4   9    2.31    0.54
  -5  -4   9    3.10    0.57
  -5  -4   9    2.51    0.47
  -5  -4   9    2.16    0.46
  -5  -4  10    4.80    0.70
  -5  -4  10    5.44    0.70
  -5  -4  10    6.59    0.81
  -5  -4  11    7.30    0.88
  -5  -4  11    7.77    0.89
  -5  -4  11    6.73    0.86
  -5  -4  12   10.79    1.14
  -5  -4  12    9.82    1.12
  -5  -4  13    2.22    0.60
  -5  -4  13    2.81    0.68
  -5  -3  -8    0.79    0.35
  -5  -3  -7    1.31    0.47
  -5  -3  -7    1.87    0.48
  -5  -3  -6    2.04    0.48
  -5  -3  -6    2.32    0.61
  -5  -3  -5    7.07    0.91
  -5  -3  -4    1.18    0.39
  -5  -3  -3   36.53    1.61
  -5  -3  -3   33.44    1.87
  -5  -3  -2   50.04    1.81
  -5  -3  -2   47.91    2.19
  -5  -3  -1   74.04    2.77
  -5  -3   0   52.14    2.20
  -5  -3   0   55.52    1.77
  -5  -3   1   62.40    1.97
  -5  -3   1   57.97    2.32
  -5  -3   2  108.02    3.01
  -5  -3   2  104.56    3.32
  -5  -3   3  109.51    3.15
  -5  -3   4   77.73    2.57
  -5  -3   5   82.17    2.74
  -5  -3   5   79.98    2.28
  -5  -3   6  103.44    2.95
  -5  -3   6  104.50    3.03
  -5  -3   6  103.94    3.34
  -5  -3   7   36.32    1.63
  -5  -3   7   37.13    1.61
  -5  -3   7   36.00    1.81
  -5  -3   8   49.74    2.08
  -5  -3   8   52.78    2.15
  -5  -3   8   55.72    2.32
  -5  -3   9   32.14    1.70
  -5  -3   9   30.27    1.65
  -5  -3   9   32.61    1.76
  -5  -3  10   13.45    1.13
  -5  -3  10   14.72    1.17
  -5  -3  10   13.88    1.18
  -5  -3  11    8.02    0.94
  -5  -3  11    8.46    0.98
  -5  -3  11    7.43    0.85
  -5  -3  12    7.05    0.97
  -5  -3  12    8.19    1.01
  -5  -3  13   -1.39    0.57
  -5  -3  13    0.29    0.26
  -5  -2  -9   10.02    1.17
  -5  -2  -8    6.33    0.89
  -5  -2  -8    6.87    1.00
  -5  -2  -8    6.75    1.01
  -5  -2  -7    7.02    0.94
  -5  -2  -7    5.61    0.79
  -5  -2  -7    4.96    0.84
  -5  -2  -6   19.11    1.34
  -5  -2  -6   15.38    1.36
  -5  -2  -5    6.04    0.71
  -5  -2  -5    5.32    0.77
  -5  -2  -4    3.27    0.58
  -5  -2  -4    4.65    0.58
  -5  -2  -3   19.68    1.33
  -5  -2  -3   19.57    1.09
  -5  -2  -2   31.64    1.64
  -5  -2  -2   31.49    1.32
  -5  -2  -1   12.04    0.94
  -5  -2  -1   12.86    0.71
  -5  -2   0    5.06    0.37
  -5  -2   0    4.59    0.58
  -5  -2   0    5.97    0.43
  -5  -2   1   -0.01    0.04
  -5  -2   1    0.08    0.18
  -5  -2   1    0.09    0.09
  -5  -2   2    1.71    0.17
  -5  -2   2    1.73    0.34
  -5  -2   2    1.74    0.29
  -5  -2   3    3.10    0.27
  -5  -2   3    3.07    0.28
  -5  -2   3    3.43    0.43
  -5  -2   4   12.40    0.85
  -5  -2   4   12.07    0.67
  -5  -2   4   12.43    0.65
  -5  -2   5   21.17    1.20
  -5  -2   5   20.85    0.99
  -5  -2   5   21.65    1.02
  -5  -2   6   74.22    2.39
  -5  -2   6   75.68    2.67
  -5  -2   6   73.26    2.37
  -5  -2   7   77.17    2.74
  -5  -2   7   72.54    2.52
  -5  -2   7   74.62    2.55
  -5  -2   8   26.44    1.45
  -5  -2   8   23.82    1.38
  -5  -2   8   25.77    1.48
  -5  -2   9   10.48    0.96
  -5  -2   9   12.95    1.07
  -5  -2   9   13.23    1.06
  -5  -2  10   25.59    1.62
  -5  -2  10   25.01    1.63
  -5  -2  10   29.07    1.66
  -5  -2  11   11.15    1.14
  -5  -2  11    8.51    1.00
  -5  -2  12   12.20    1.20
  -5  -2  12   10.51    1.16
  -5  -2  13    9.14    1.15
  -5  -1  -9    0.34    0.32
  -5  -1  -9    0.19    0.31
  -5  -1  -9   -0.09    0.30
  -5  -1  -8    4.20    0.72
  -5  -1  -8    3.75    0.77
  -5  -1  -8    3.05    0.67
  -5  -1  -7   15.80    1.34
  -5  -1  -7   14.20    1.33
  -5  -1  -7   15.10    1.23
  -5  -1  -6   13.41    1.23
  -5  -1  -6   13.71    1.09
  -5  -1  -5   55.78    2.49
  -5  -1  -5   54.87    2.20
  -5  -1  -4   34.28    1.55
  -5  -1  -4   33.45    1.78
  -5  -1  -3   75.43    2.39
  -5  -1  -3   74.99    2.76
  -5  -1  -2  113.14    3.06
  -5  -1  -2  119.04    3.57
  -5  -1  -1  139.67    3.37
  -5  -1  -1  137.81    3.09
  -5  -1  -1  139.77    3.91
  -5  -1   0   76.23    2.01
  -5  -1   0   78.91    2.04
  -5  -1   0   83.13    2.60
  -5  -1   1  131.45    3.58
  -5  -1   1  129.41    3.18
  -5  -1   1  129.00    2.89
  -5  -1   2  114.98    3.04
  -5  -1   2  119.01    3.26
  -5  -1   3   66.69    1.79
  -5  -1   3   65.83    1.83
  -5  -1   4   73.33    2.11
  -5  -1   4   74.93    2.15
  -5  -1   4   74.23    2.52
  -5  -1   5   37.37    1.45
  -5  -1   5   35.45    1.42
  -5  -1   5   36.34    1.65
  -5  -1   6   56.76    2.06
  -5  -1   6   60.55    2.28
  -5  -1   6   59.34    2.10
  -5  -1   7   31.43    1.52
  -5  -1   7   30.23    1.56
  -5  -1   7   28.60    1.46
  -5  -1   8    7.66    0.78
  -5  -1   8    8.33    0.82
  -5  -1   8    8.54    0.80
  -5  -1   9    0.74    0.33
  -5  -1   9    1.04    0.38
  -5  -1   9    0.46    0.29
  -5  -1  10    0.17    0.24
  -5  -1  10    0.59    0.34
  -5  -1  10    0.43    0.30
  -5  -1  11    0.08    0.26
  -5  -1  12    0.13    0.33
  -5  -1  13   -0.19    0.28
  -5   0 -10    2.35    0.63
  -5   0  -9    0.16    0.30
  -5   0  -9   -0.08    0.21
  -5   0  -8    4.08    0.67
  -5   0  -8    4.42    0.78
  -5   0  -7    1.93    0.45
  -5   0  -7    2.52    0.59
  -5   0  -6    6.24    0.72
  -5   0  -6    5.15    0.74
  -5   0  -5   -0.10    0.20
  -5   0  -5    0.07    0.23
  -5   0  -4    1.04    0.23
  -5   0  -4    1.28    0.37
  -5   0  -4    1.43    0.31
  -5   0  -3    6.73    0.72
  -5   0  -3    8.97    0.66
  -5   0  -2    0.62    0.18
  -5   0  -2    0.65    0.26
  -5   0  -1   18.77    1.07
  -5   0  -1   18.22    0.82
  -5   0   0   29.85    1.31
  -5   0   0   28.70    1.26
  -5   0   0   28.47    1.00
  -5   0   1   51.46    1.80
  -5   0   1   52.77    1.45
  -5   0   1   52.12    1.86
  -5   0   2  141.54    3.59
  -5   0   2  138.74    3.76
  -5   0   3   62.30    1.94
  -5   0   3   63.20    2.19
  -5   0   3   62.52    1.85
  -5   0   4   45.37    1.81
  -5   0   4   42.08    1.54
  -5   0   5   67.11    2.21
  -5   0   5   67.44    2.39
  -5   0   6   76.08    2.65
  -5   0   6   72.89    2.48
  -5   0   7   32.96    1.65
  -5   0   7   29.61    1.53
  -5   0   8   54.02    2.32
  -5   0   8   64.23    2.50
  -5   0   9   42.81    2.06
  -5   0   9   37.43    1.96
  -5   0  10   28.13    1.78
  -5   0  10   33.64    1.86
  -5   0  11   15.79    1.38
  -5   0  12   11.20    1.22
  -5   1 -11    2.46    0.64
  -5   1 -10    7.75    0.99
  -5   1  -9   16.34    1.35
  -5   1  -8   12.30    1.10
  -5   1  -8   12.73    1.25
  -5   1  -7   35.26    2.07
  -5   1  -7   35.99    1.83
  -5   1  -6   48.31    2.34
  -5   1  -6   48.17    2.05
  -5   1  -5   60.64    2.22
  -5   1  -5   60.22    2.53
  -5   1  -4   42.49    1.95
  -5   1  -4   43.80    1.44
  -5   1  -4   43.34    1.70
  -5   1  -3  104.41    2.78
  -5   1  -3  107.27    2.94
  -5   1  -3  105.97    3.32
  -5   1  -2   79.41    2.31
  -5   1  -2   83.44    2.66
  -5   1  -2   78.36    2.27
  -5   1  -1  102.42    2.86
  -5   1  -1  105.70    2.70
  -5   1  -1  107.82    3.07
  -5   1   0   67.76    1.85
  -5   1   0   65.28    2.11
  -5   1   0   65.16    2.10
  -5   1   1  115.30    3.22
  -5   1   1  115.55    3.05
  -5   1   1  117.96    2.81
  -5   1   2  146.75    3.94
  -5   1   2  149.99    3.62
  -5   1   3   24.70    1.08
  -5   1   3   25.49    0.89
  -5   1   3   24.50    0.99
  -5   1   3   26.11    1.29
  -5   1   4   21.13    0.88
  -5   1   4   23.90    0.83
  -5   1   4   23.32    1.26
  -5   1   4   23.36    1.12
  -5   1   5   36.87    1.13
  -5   1   5   38.43    1.72
  -5   1   5   33.96    1.51
  -5   1   5   34.92    1.16
  -5   1   6    2.63    0.47
  -5   1   6    2.20    0.40
  -5   1   7    0.57    0.27
  -5   1   7    0.30    0.24
  -5   1   8    0.54    0.32
  -5   1   8    0.16    0.24
  -5   1   9   -0.15    0.27
  -5   1   9    0.13    0.28
  -5   1  10    0.48    0.29
  -5   1  11    0.90    0.43
  -5   1  12    0.83    0.45
  -5   2 -11    0.16    0.33
  -5   2 -10    1.68    0.48
  -5   2  -9    0.36    0.32
  -5   2  -8    0.69    0.33
  -5   2  -7    0.73    0.33
  -5   2  -7    0.22    0.29
  -5   2  -6   -0.17    0.18
  -5   2  -6    0.15    0.24
  -5   2  -5   24.31    1.27
  -5   2  -5   23.88    0.93
  -5   2  -5   24.56    1.54
  -5   2  -4    3.95    0.38
  -5   2  -4    4.36    0.59
  -5   2  -4    3.75    0.46
  -5   2  -3   21.20    0.96
  -5   2  -3   21.73    1.25
  -5   2  -3   19.93    1.00
  -5   2  -2   46.19    1.63
  -5   2  -2   49.24    1.87
  -5   2  -2   45.23    1.57
  -5   2  -1   85.54    2.52
  -5   2  -1   84.21    2.33
  -5   2  -1   86.31    2.60
  -5   2   0  113.87    3.16
  -5   2   0  112.33    2.85
  -5   2   0  111.10    3.03
  -5   2   1   92.94    2.78
  -5   2   1   89.82    2.40
  -5   2   1   89.90    2.47
  -5   2   1   88.47    2.38
  -5   2   2  116.82    2.94
  -5   2   2  120.90    3.47
  -5   2   2  122.55    2.97
  -5   2   3  107.94    3.05
  -5   2   3  117.41    3.44
  -5   2   3  112.92    2.81
  -5   2   3  114.13    2.71
  -5   2   4   79.20    2.72
  -5   2   4   73.72    2.40
  -5   2   4   75.90    2.10
  -5   2   4   75.53    1.86
  -5   2   5   24.18    1.28
  -5   2   5   24.37    1.01
  -5   2   5   24.69    1.44
  -5   2   6   54.48    1.77
  -5   2   6   51.74    2.14
  -5   2   7   28.51    1.59
  -5   2   7   30.83    1.73
  -5   2   8   24.33    1.55
  -5   2   8   27.86    1.69
  -5   2   9   16.62    1.30
  -5   2   9   13.35    1.20
  -5   2  10    6.26    0.89
  -5   2  11    2.41    0.59
  -5   3 -12    4.02    0.76
  -5   3 -11    5.50    0.88
  -5   3 -10    8.25    0.99
  -5   3  -9   18.09    1.35
  -5   3  -8   26.39    1.57
  -5   3  -7   25.72    1.46
  -5   3  -6   36.96    1.68
  -5   3  -5   50.19    1.53
  -5   3  -5   46.91    2.20
  -5   3  -5   45.69    1.84
  -5   3  -4    5.28    0.53
  -5   3  -4    5.40    0.67
  -5   3  -4    5.23    0.46
  -5   3  -3   13.32    0.80
  -5   3  -3   13.70    0.59
  -5   3  -3   12.36    0.78
  -5   3  -3   14.09    1.03
  -5   3  -2    5.28    0.52
  -5   3  -2    5.65    0.50
  -5   3  -2    6.11    0.62
  -5   3  -2    5.49    0.27
  -5   3  -1    6.52    0.60
  -5   3  -1    6.38    0.51
  -5   3  -1    6.51    0.60
  -5   3   0   19.55    0.93
  -5   3   0   20.41    0.95
  -5   3   0   20.25    1.15
  -5   3   0   20.99    1.02
  -5   3   1    5.31    0.45
  -5   3   1    4.74    0.43
  -5   3   1    4.98    0.58
  -5   3   2    4.06    0.40
  -5   3   2    3.67    0.54
  -5   3   2    4.22    0.35
  -5   3   3    0.09    0.18
  -5   3   3    0.26    0.14
  -5   3   3   -0.31    0.24
  -5   3   4    0.69    0.30
  -5   3   4    0.42    0.16
  -5   3   4    0.35    0.22
  -5   3   5    2.97    0.47
  -5   3   5    3.53    0.60
  -5   3   5    3.23    0.38
  -5   3   6    4.49    0.66
  -5   3   6    3.29    0.53
  -5   3   6    3.38    0.43
  -5   3   7    5.33    0.56
  -5   3   7    7.13    0.85
  -5   3   7    5.20    0.71
  -5   3   8    4.58    0.72
  -5   3   8    5.58    0.78
  -5   3   9    3.09    0.64
  -5   3  10    5.66    0.85
  -5   3  11    3.28    0.72
  -5   4 -13   -0.23    0.29
  -5   4 -12    1.06    0.50
  -5   4 -11    3.49    0.70
  -5   4 -10    5.18    0.78
  -5   4  -9   11.02    1.04
  -5   4  -8    2.31    0.48
  -5   4  -7   20.63    1.15
  -5   4  -7   21.45    1.30
  -5   4  -6   22.21    1.08
  -5   4  -6   18.95    1.17
  -5   4  -5   71.43    2.11
  -5   4  -5   72.65    2.09
  -5   4  -5   69.05    2.40
  -5   4  -4   56.67    1.86
  -5   4  -4   53.34    1.60
  -5   4  -4   52.73    1.93
  -5   4  -3   85.67    2.12
  -5   4  -3   85.09    2.57
  -5   4  -3   87.48    2.64
  -5   4  -2  130.92    3.48
  -5   4  -2  131.10    2.90
  -5   4  -2  135.94    3.71
  -5   4  -2  132.48    3.54
  -5   4  -1   88.69    2.56
  -5   4  -1   84.70    1.96
  -5   4  -1   87.41    2.54
  -5   4  -1   88.25    2.84
  -5   4   0   21.91    1.29
  -5   4   0   22.21    1.07
  -5   4   0   22.06    1.06
  -5   4   1   50.66    1.76
  -5   4   1   53.89    2.20
  -5   4   2  123.22    3.39
  -5   4   2  139.69    4.09
  -5   4   3   56.61    2.39
  -5   4   3   52.14    1.86
  -5   4   4   62.75    2.13
  -5   4   4   64.09    2.65
  -5   4   4   58.26    2.23
  -5   4   5   35.94    1.59
  -5   4   5   34.88    1.72
  -5   4   6   23.33    1.29
  -5   4   6   20.37    1.35
  -5   4   7   19.44    1.22
  -5   4   7   22.68    1.57
  -5   4   7   19.53    1.39
  -5   4   8   25.50    1.69
  -5   4   8   19.73    1.48
  -5   4   9    6.09    0.88
  -5   4  10    1.60    0.52
  -5   5 -13    2.62    0.61
  -5   5 -12    3.73    0.67
  -5   5 -12    4.71    0.79
  -5   5 -11    5.59    0.81
  -5   5 -11    4.37    0.72
  -5   5 -10   13.79    1.14
  -5   5 -10   15.96    1.29
  -5   5  -9    2.58    0.50
  -5   5  -9    1.36    0.42
  -5   5  -8    0.11    0.19
  -5   5  -8    0.31    0.28
  -5   5  -7    0.67    0.27
  -5   5  -7    0.81    0.32
  -5   5  -6    6.94    0.58
  -5   5  -6    7.02    0.71
  -5   5  -5    8.24    0.59
  -5   5  -5    8.52    0.74
  -5   5  -4    2.47    0.40
  -5   5  -4    2.72    0.31
  -5   5  -4    1.97    0.35
  -5   5  -3    0.13    0.18
  -5   5  -3    0.46    0.23
  -5   5  -3    0.73    0.25
  -5   5  -3    0.32    0.12
  -5   5  -2    0.00    0.14
  -5   5  -2    0.08    0.17
  -5   5  -2    0.00    0.22
  -5   5  -2   -0.02    0.05
  -5   5  -1    0.18    0.19
  -5   5  -1   -0.01    0.18
  -5   5  -1    0.28    0.22
  -5   5  -1    0.17    0.09
  -5   5   0    8.07    0.67
  -5   5   0    9.21    0.87
  -5   5   0    8.98    0.52
  -5   5   1    2.06    0.47
  -5   5   1    2.34    0.38
  -5   5   2   20.44    1.13
  -5   5   2   23.33    1.49
  -5   5   3   31.71    1.48
  -5   5   3   33.76    1.86
  -5   5   4   14.44    1.22
  -5   5   4   12.73    0.92
  -5   5   5   14.89    1.14
  -5   5   5   15.53    1.08
  -5   5   6   23.97    1.40
  -5   5   6   23.47    1.64
  -5   5   6   19.39    1.38
  -5   5   7    7.89    0.97
  -5   5   7    7.05    0.80
  -5   5   7    7.27    0.89
  -5   5   8    2.08    0.52
  -5   5   8    3.47    0.58
  -5   5   9    3.48    0.68
  -5   5  10    6.06    0.90
  -5   6 -13    0.76    0.38
  -5   6 -13    0.70    0.40
  -5   6 -12    2.26    0.56
  -5   6 -12    3.85    0.71
  -5   6 -11    5.65    0.79
  -5   6 -11    6.17    0.83
  -5   6 -10    5.16    0.75
  -5   6 -10    4.64    0.67
  -5   6  -9   29.54    1.70
  -5   6  -9   29.50    1.58
  -5   6  -8   32.51    1.71
  -5   6  -8   31.28    1.54
  -5   6  -7   57.52    2.08
  -5   6  -7   56.66    2.29
  -5   6  -6   57.18    1.98
  -5   6  -6   57.20    2.22
  -5   6  -5   59.13    2.20
  -5   6  -5   59.23    1.92
  -5   6  -4   47.40    1.94
  -5   6  -4   47.19    1.89
  -5   6  -4   49.25    1.62
  -5   6  -3   89.25    2.85
  -5   6  -3   92.01    2.47
  -5   6  -3   94.97    2.95
  -5   6  -2   84.01    2.95
  -5   6  -2   86.15    2.30
  -5   6  -2   81.88    2.67
  -5   6  -2   83.09    2.72
  -5   6  -1   58.85    2.15
  -5   6  -1   56.81    1.78
  -5   6  -1   63.08    2.49
  -5   6   0   36.94    1.38
  -5   6   0   35.92    1.63
  -5   6   0   40.11    1.99
  -5   6   1   16.50    1.07
  -5   6   1   17.35    1.31
  -5   6   2   39.74    1.78
  -5   6   2   40.56    2.13
  -5   6   3   31.83    1.61
  -5   6   3   35.66    2.02
  -5   6   4   14.44    1.08
  -5   6   4   16.29    1.38
  -5   6   5    6.58    0.76
  -5   6   6    3.31    0.57
  -5   6   7    0.39    0.31
  -5   6   8    1.17    0.47
  -5   6   8    0.68    0.32
  -5   6   9   -0.24    0.30
  -5   7 -13    0.03    0.24
  -5   7 -13   -0.14    0.32
  -5   7 -12    0.75    0.37
  -5   7 -12    1.57    0.48
  -5   7 -11    0.60    0.34
  -5   7 -11    0.89    0.43
  -5   7 -10    2.49    0.49
  -5   7 -10    2.88    0.54
  -5   7  -9    0.93    0.40
  -5   7  -9    0.55    0.26
  -5   7  -8   -0.70    0.27
  -5   7  -8    0.29    0.26
  -5   7  -7   -0.15    0.19
  -5   7  -7    0.19    0.25
  -5   7  -6    0.11    0.20
  -5   7  -6    0.08    0.15
  -5   7  -5    4.84    0.61
  -5   7  -5    4.25    0.58
  -5   7  -5    4.01    0.46
  -5   7  -4    7.09    0.73
  -5   7  -4    8.44    0.63
  -5   7  -4    6.60    0.68
  -5   7  -3    6.79    0.69
  -5   7  -3    6.70    0.70
  -5   7  -3    6.59    0.55
  -5   7  -2   27.25    1.18
  -5   7  -2   26.69    1.43
  -5   7  -1   13.39    0.99
  -5   7  -1   12.54    0.78
  -5   7   0   19.80    1.05
  -5   7   0   19.39    1.23
  -5   7   1   29.72    1.57
  -5   7   2   20.09    1.30
  -5   7   3   12.87    1.06
  -5   7   4   14.64    1.17
  -5   7   5   15.44    1.25
  -5   7   6   12.37    1.17
  -5   7   7    8.91    1.03
  -5   7   8    4.67    0.79
  -5   8 -13    5.24    0.85
  -5   8 -13    6.24    0.92
  -5   8 -12    5.87    0.87
  -5   8 -12    5.30    0.79
  -5   8 -11    9.32    1.03
  -5   8 -11    8.13    0.94
  -5   8 -10    9.14    0.99
  -5   8 -10    9.87    0.97
  -5   8  -9   14.37    1.17
  -5   8  -9   12.63    1.03
  -5   8  -8   14.65    1.15
  -5   8  -8   16.54    1.12
  -5   8  -7   28.92    1.59
  -5   8  -7   27.51    1.42
  -5   8  -6   25.24    1.50
  -5   8  -6   23.32    1.26
  -5   8  -6   24.99    1.43
  -5   8  -5   23.78    1.39
  -5   8  -5   24.11    1.44
  -5   8  -5   22.55    1.19
  -5   8  -4   11.65    0.82
  -5   8  -4   10.56    0.93
  -5   8  -4   11.20    0.92
  -5   8  -3   25.66    1.46
  -5   8  -3   23.49    1.20
  -5   8  -2   32.33    1.70
  -5   8  -2   32.10    1.44
  -5   8  -1    9.62    0.77
  -5   8  -1   10.43    0.95
  -5   8   0    7.89    0.73
  -5   8   0    8.43    0.87
  -5   8   1   11.88    1.05
  -5   8   2    2.59    0.52
  -5   8   3    0.33    0.27
  -5   8   4    0.68    0.31
  -5   8   5    0.26    0.24
  -5   8   6    0.82    0.34
  -5   8   7    0.54    0.38
  -5   9 -13    0.01    0.16
  -5   9 -13    0.61    0.40
  -5   9 -12   -0.02    0.22
  -5   9 -12    0.36    0.34
  -5   9 -11   -0.25    0.26
  -5   9 -11    0.13    0.32
  -5   9 -10    0.01    0.32
  -5   9 -10    0.54    0.30
  -5   9  -9    4.18    0.64
  -5   9  -9    2.93    0.56
  -5   9  -8    4.73    0.66
  -5   9  -8    4.65    0.61
  -5   9  -7    6.14    0.68
  -5   9  -7    6.34    0.80
  -5   9  -7    5.94    0.73
  -5   9  -6   10.58    0.95
  -5   9  -6    9.38    0.82
  -5   9  -6    9.03    0.93
  -5   9  -5   16.17    1.17
  -5   9  -5   16.85    1.09
  -5   9  -5   19.20    1.35
  -5   9  -4   35.53    1.87
  -5   9  -4   35.65    1.63
  -5   9  -3   27.50    1.63
  -5   9  -3   27.07    1.40
  -5   9  -2   45.49    1.94
  -5   9  -2   48.72    2.26
  -5   9  -1   54.38    2.22
  -5   9  -1   60.06    2.57
  -5   9   0   44.62    2.22
  -5   9   0   42.61    1.97
  -5   9   1   22.30    1.56
  -5   9   2   28.60    1.82
  -5   9   3   20.78    1.57
  -5   9   4   13.83    1.32
  -5   9   5    9.87    1.15
  -5  10 -13    1.88    0.55
  -5  10 -12    8.21    1.02
  -5  10 -12    5.07    0.81
  -5  10 -11    7.32    0.89
  -5  10 -11    7.48    0.95
  -5  10 -10   11.41    1.13
  -5  10 -10   12.35    1.16
  -5  10  -9   17.17    1.35
  -5  10  -9   17.35    1.31
  -5  10  -8   11.75    1.03
  -5  10  -8   12.30    1.11
  -5  10  -8   13.45    1.22
  -5  10  -7   13.29    1.13
  -5  10  -7   13.37    1.20
  -5  10  -7   11.77    1.01
  -5  10  -6    5.95    0.72
  -5  10  -6    6.95    0.84
  -5  10  -6    4.84    0.68
  -5  10  -5    6.02    0.80
  -5  10  -5    6.25    0.72
  -5  10  -4    6.24    0.72
  -5  10  -4    6.68    0.85
  -5  10  -3    3.84    0.67
  -5  10  -3    2.89    0.51
  -5  10  -2    1.77    0.47
  -5  10  -2    1.92    0.43
  -5  10  -1    2.78    0.51
  -5  10  -1    2.11    0.50
  -5  10   0   -0.26    0.28
  -5  10   0    0.05    0.23
  -5  10   1    1.46    0.45
  -5  10   2    2.30    0.59
  -5  10   3    2.61    0.64
  -5  11 -12    0.28    0.43
  -5  11 -12    0.79    0.32
  -5  11 -11    3.49    0.70
  -5  11 -11    2.02    0.54
  -5  11 -10    2.89    0.57
  -5  11 -10    2.48    0.59
  -5  11  -9    5.57    0.73
  -5  11  -9    4.93    0.73
  -5  11  -8    6.86    0.86
  -5  11  -8    8.44    0.95
  -5  11  -7   16.19    1.29
  -5  11  -7   17.44    1.30
  -5  11  -7   17.57    1.45
  -5  11  -6   32.81    1.83
  -5  11  -6   37.11    2.13
  -5  11  -5   28.18    1.82
  -5  11  -5   24.30    1.55
  -5  11  -4   18.75    1.49
  -5  11  -4   17.61    1.30
  -5  11  -3   18.24    1.49
  -5  11  -3   17.88    1.33
  -5  11  -2   23.93    1.74
  -5  11  -2   22.31    1.54
  -5  11  -1   17.58    1.38
  -5  11  -1   17.10    1.48
  -5  11   0   16.52    1.50
  -5  11   1   14.30    1.41
  -5  12 -11    1.79    0.50
  -5  12 -11    1.85    0.54
  -5  12 -10    1.03    0.40
  -5  12 -10    1.92    0.52
  -5  12  -9    1.20    0.37
  -5  12  -9    2.28    0.65
  -5  12  -9    2.02    0.52
  -5  12  -8    0.31    0.23
  -5  12  -8    0.11    0.32
  -5  12  -7    1.46    0.39
  -5  12  -7    2.89    0.68
  -5  12  -6    3.09    0.57
  -5  12  -6    2.35    0.56
  -5  12  -5    0.83    0.38
  -5  12  -5    1.27    0.47
  -5  12  -4    0.30    0.20
  -5  12  -4    0.06    0.19
  -5  12  -3    0.61    0.25
  -5  12  -3    0.68    0.41
  -5  12  -2    1.86    0.52
  -5  12  -2    1.64    0.47
  -5  12  -1    2.30    0.58
  -5  12  -1    2.40    0.65
  -5  13  -9    4.84    0.75
  -5  13  -8    6.40    0.88
  -5  13  -8    7.37    1.04
  -5  13  -7    8.19    1.02
  -5  13  -7    9.42    1.17
  -5  13  -6   11.67    1.22
  -5  13  -6   10.84    1.26
  -5  13  -5   12.24    1.25
  -5  13  -4    8.40    1.03
  -5  13  -3    6.47    0.96
  -4 -10   5   35.45    2.27
  -4 -10   6   27.74    1.98
  -4 -10   7   15.00    1.46
  -4  -9   1   -0.16    0.17
  -4  -9   2    0.37    0.34
  -4  -9   3    0.23    0.28
  -4  -9   4    1.02    0.34
  -4  -9   5    0.81    0.36
  -4  -9   6    3.04    0.67
  -4  -9   7    8.28    1.05
  -4  -9   8   14.03    1.36
  -4  -9   9    8.56    1.11
  -4  -9  10    8.44    1.11
  -4  -8  -1   27.25    1.92
  -4  -8   0   27.49    1.91
  -4  -8   1   28.17    1.89
  -4  -8   2   22.62    1.67
  -4  -8   3   24.41    1.61
  -4  -8   4   20.53    1.47
  -4  -8   5   22.30    1.55
  -4  -8   6   14.16    1.25
  -4  -8   7   10.91    1.13
  -4  -8   8   14.60    1.32
  -4  -8   9    2.32    0.57
  -4  -8  10    8.47    1.06
  -4  -8  11    0.35    0.33
  -4  -7  -3    2.02    0.52
  -4  -7  -2   -0.05    0.12
  -4  -7  -1    0.26    0.19
  -4  -7   0    0.55    0.26
  -4  -7   1    8.46    0.96
  -4  -7   2    5.30    0.66
  -4  -7   2    4.88    0.72
  -4  -7   3   21.64    1.40
  -4  -7   4   31.70    1.75
  -4  -7   5   27.91    1.65
  -4  -7   6   42.95    2.14
  -4  -7   7   31.89    1.85
  -4  -7   8   49.13    2.41
  -4  -7   9   27.17    1.81
  -4  -7  10   23.81    1.74
  -4  -7  11   22.57    1.75
  -4  -7  12   19.98    1.69
  -4  -7  12   16.76    1.49
  -4  -7  13    4.44    0.84
  -4  -6  -4   15.24    1.49
  -4  -6  -4   11.24    1.22
  -4  -6  -3   20.71    1.57
  -4  -6  -2   13.75    1.22
  -4  -6  -1   22.31    1.54
  -4  -6   0   33.51    1.88
  -4  -6   1   25.74    1.61
  -4  -6   1   29.32    1.51
  -4  -6   2   14.61    1.05
  -4  -6   3   25.42    1.42
  -4  -6   4   10.71    0.91
  -4  -6   5    3.21    0.53
  -4  -6   6    4.97    0.66
  -4  -6   7    0.06    0.22
  -4  -6   8   -0.01    0.22
  -4  -6   9    1.66    0.48
  -4  -6  10    0.38    0.35
  -4  -6  11    0.31    0.26
  -4  -6  11    0.27    0.27
  -4  -6  12    0.08    0.27
  -4  -6  12    0.00    0.31
  -4  -6  13    2.86    0.70
  -4  -5  -6   -0.19    0.40
  -4  -5  -5    5.11    0.88
  -4  -5  -5    5.37    0.80
  -4  -5  -4    3.77    0.70
  -4  -5  -4    4.60    0.78
  -4  -5  -3   21.53    1.57
  -4  -5  -3   18.25    1.38
  -4  -5  -2   11.30    1.04
  -4  -5  -1   43.91    2.10
  -4  -5   0   31.79    1.44
  -4  -5   0   29.39    1.65
  -4  -5   1   72.31    2.76
  -4  -5   1   76.83    2.52
  -4  -5   2   40.62    1.71
  -4  -5   3   35.43    1.60
  -4  -5   4   69.58    2.48
  -4  -5   5   53.19    2.15
  -4  -5   6   78.36    2.82
  -4  -5   7   48.74    2.18
  -4  -5   8   58.56    2.51
  -4  -5   9   20.12    1.44
  -4  -5  10   37.74    2.09
  -4  -5  10   34.74    1.92
  -4  -5  11    8.83    0.89
  -4  -5  11    6.80    0.88
  -4  -5  12    7.24    0.96
  -4  -5  13    9.48    1.13
  -4  -5  14    7.78    1.13
  -4  -4  -7    6.22    0.97
  -4  -4  -6    6.67    0.92
  -4  -4  -6    6.82    0.99
  -4  -4  -5    9.17    1.05
  -4  -4  -5    8.32    0.96
  -4  -4  -4   21.38    1.53
  -4  -4  -4   16.59    1.31
  -4  -4  -3    7.35    0.81
  -4  -4  -3    8.47    0.91
  -4  -4  -2   16.31    1.18
  -4  -4  -2   16.08    1.19
  -4  -4  -1   19.02    0.97
  -4  -4  -1   19.22    1.25
  -4  -4   0   12.07    0.77
  -4  -4   0   12.87    0.98
  -4  -4   1   11.24    0.91
  -4  -4   1   12.91    0.81
  -4  -4   2    1.18    0.28
  -4  -4   3    0.11    0.15
  -4  -4   4    0.50    0.23
  -4  -4   5    0.03    0.18
  -4  -4   6    8.47    0.80
  -4  -4   7    1.45    0.38
  -4  -4   8    8.88    0.89
  -4  -4   9   16.66    1.18
  -4  -4   9   17.54    1.24
  -4  -4   9   16.76    1.29
  -4  -4  10    5.24    0.65
  -4  -4  10    4.74    0.68
  -4  -4  11   12.03    1.14
  -4  -4  12    7.98    1.00
  -4  -4  13    2.29    0.62
  -4  -4  13    4.53    0.81
  -4  -4  14    5.00    0.91
  -4  -4  14    4.54    0.83
  -4  -3  -8    1.09    0.48
  -4  -3  -7    5.69    0.87
  -4  -3  -7    7.58    1.02
  -4  -3  -6    8.32    0.96
  -4  -3  -6    8.78    1.04
  -4  -3  -5   22.16    1.56
  -4  -3  -5   23.82    1.54
  -4  -3  -4   18.34    1.34
  -4  -3  -4   17.63    1.28
  -4  -3  -3   49.19    2.16
  -4  -3  -3   53.75    2.28
  -4  -3  -2    0.28    0.20
  -4  -3  -1   46.60    1.50
  -4  -3  -1   42.81    1.87
  -4  -3   0   81.29    2.26
  -4  -3   0   78.12    2.66
  -4  -3   1  111.95    3.26
  -4  -3   1  104.76    2.42
  -4  -3   1  111.55    2.88
  -4  -3   2  108.91    2.95
  -4  -3   3  114.51    2.59
  -4  -3   3  117.80    3.18
  -4  -3   4  136.11    3.21
  -4  -3   4  133.17    3.65
  -4  -3   5   44.71    1.81
  -4  -3   6   33.71    1.59
  -4  -3   7    3.84    0.57
  -4  -3   7    4.42    0.53
  -4  -3   8   50.62    2.05
  -4  -3   8   45.26    1.98
  -4  -3   8   46.05    2.10
  -4  -3   9    6.76    0.76
  -4  -3   9    6.81    0.73
  -4  -3  10   16.37    1.26
  -4  -3  10   18.23    1.22
  -4  -3  11    7.81    0.94
  -4  -3  12    1.84    0.49
  -4  -3  12    1.07    0.42
  -4  -3  13    0.94    0.44
  -4  -3  13    0.19    0.26
  -4  -2  -9    0.93    0.44
  -4  -2  -8    4.42    0.78
  -4  -2  -8    3.69    0.71
  -4  -2  -7    3.52    0.68
  -4  -2  -7    4.20    0.71
  -4  -2  -6    8.96    0.94
  -4  -2  -6    7.83    0.90
  -4  -2  -5    1.99    0.46
  -4  -2  -5    1.98    0.45
  -4  -2  -4   25.51    1.47
  -4  -2  -4   22.68    1.40
  -4  -2  -3    0.56    0.27
  -4  -2  -3    0.97    0.33
  -4  -2  -2   17.70    0.70
  -4  -2  -2   17.23    1.08
  -4  -2  -1   14.13    0.93
  -4  -2  -1   14.07    0.63
  -4  -2  -1   13.33    0.69
  -4  -2   0    6.29    0.39
  -4  -2   0    5.93    0.42
  -4  -2   0    7.34    0.64
  -4  -2   1    7.40    0.50
  -4  -2   1    7.70    0.64
  -4  -2   1    7.31    0.33
  -4  -2   2    2.86    0.19
  -4  -2   2    3.34    0.35
  -4  -2   3   16.01    0.65
  -4  -2   3   14.60    0.83
  -4  -2   4   70.81    2.25
  -4  -2   4   69.81    1.97
  -4  -2   5   30.85    1.40
  -4  -2   5   31.78    1.26
  -4  -2   5   28.32    0.76
  -4  -2   5   30.96    1.24
  -4  -2   6   46.01    1.74
  -4  -2   6   47.73    1.93
  -4  -2   6   46.85    1.76
  -4  -2   6   49.02    1.89
  -4  -2   7   34.44    1.59
  -4  -2   7   35.29    1.58
  -4  -2   8   33.99    1.60
  -4  -2   8   32.54    1.62
  -4  -2   9   28.19    1.61
  -4  -2   9   34.05    1.63
  -4  -2   9   30.60    1.68
  -4  -2  10   24.69    1.58
  -4  -2  10   22.29    1.36
  -4  -2  10   22.19    1.48
  -4  -2  11   14.17    1.24
  -4  -2  11   10.82    1.10
  -4  -2  12   15.92    1.42
  -4  -2  12   16.09    1.44
  -4  -2  13    8.01    1.07
  -4  -2  13    6.92    1.01
  -4  -1 -10   10.57    1.21
  -4  -1 -10    8.95    1.12
  -4  -1  -9   13.03    1.24
  -4  -1  -9   12.31    1.28
  -4  -1  -9   13.70    1.32
  -4  -1  -8   14.39    1.27
  -4  -1  -8   12.87    1.25
  -4  -1  -7   17.27    1.37
  -4  -1  -7   15.91    1.27
  -4  -1  -6   10.89    0.99
  -4  -1  -6   11.47    1.04
  -4  -1  -5   67.13    2.57
  -4  -1  -5   65.38    2.58
  -4  -1  -4   40.16    1.84
  -4  -1  -4   40.59    1.81
  -4  -1  -3  126.42    3.69
  -4  -1  -2   71.14    2.06
  -4  -1  -2   73.90    2.40
  -4  -1  -2   69.25    1.62
  -4  -1  -1  142.19    3.33
  -4  -1  -1  144.65    3.78
  -4  -1  -1  140.57    3.09
  -4  -1   0  101.71    2.41
  -4  -1   0  101.33    2.87
  -4  -1   0  100.59    2.38
  -4  -1   1   59.25    1.31
  -4  -1   1   60.41    1.69
  -4  -1   1   61.29    1.95
  -4  -1   1   60.28    1.44
  -4  -1   2   27.53    0.86
  -4  -1   2   26.97    1.06
  -4  -1   2   27.03    0.83
  -4  -1   3   65.64    1.76
  -4  -1   3   61.88    1.94
  -4  -1   3   60.35    1.69
  -4  -1   4  117.50    3.23
  -4  -1   4  120.95    2.99
  -4  -1   4  111.08    2.91
  -4  -1   5   12.58    0.77
  -4  -1   5   12.57    0.84
  -4  -1   5   12.37    0.76
  -4  -1   6   90.03    2.74
  -4  -1   6   87.27    2.66
  -4  -1   6   81.04    2.62
  -4  -1   7   10.37    0.84
  -4  -1   7   10.51    0.84
  -4  -1   7   10.67    0.82
  -4  -1   8   10.82    0.92
  -4  -1   8   10.15    0.90
  -4  -1   8   10.16    0.84
  -4  -1   9    1.57    0.42
  -4  -1   9    2.39    0.48
  -4  -1   9    2.00    0.41
  -4  -1  10    4.15    0.67
  -4  -1  10    4.51    0.69
  -4  -1  11    0.19    0.27
  -4  -1  11    0.48    0.35
  -4  -1  12   -0.14    0.28
  -4  -1  13   -0.63    0.38
  -4   0 -11    1.50    0.52
  -4   0 -11    1.93    0.51
  -4   0 -10    0.40    0.33
  -4   0 -10    0.40    0.23
  -4   0  -9    1.50    0.45
  -4   0  -9    1.39    0.47
  -4   0  -8    2.75    0.53
  -4   0  -8    3.08    0.56
  -4   0  -8    3.15    0.63
  -4   0  -7   10.88    1.07
  -4   0  -7   10.89    0.95
  -4   0  -7   12.08    1.03
  -4   0  -6    0.50    0.29
  -4   0  -6   -0.19    0.26
  -4   0  -6    0.36    0.24
  -4   0  -5    3.32    0.47
  -4   0  -5    2.70    0.47
  -4   0  -5    2.57    0.48
  -4   0  -4    0.01    0.15
  -4   0  -4    0.32    0.23
  -4   0  -4   -0.17    0.18
  -4   0  -3   25.56    1.13
  -4   0  -3   27.68    1.35
  -4   0  -2    0.74    0.24
  -4   0  -2    0.91    0.19
  -4   0  -1   40.04    1.51
  -4   0  -1   40.12    1.25
  -4   0   0   52.59    1.71
  -4   0   0   51.35    1.41
  -4   0   1   70.21    2.10
  -4   0   1   69.75    2.03
  -4   0   1   71.05    1.72
  -4   0   2  114.81    2.71
  -4   0   2  113.70    2.87
  -4   0   2  113.21    3.04
  -4   0   3   46.31    1.46
  -4   0   3   44.15    1.40
  -4   0   3   46.69    1.66
  -4   0   4  206.88    4.75
  -4   0   4  200.48    4.92
  -4   0   4  204.20    4.70
  -4   0   4  199.71    4.10
  -4   0   5   86.50    2.54
  -4   0   5   82.87    1.89
  -4   0   5   85.59    2.55
  -4   0   5   85.27    2.62
  -4   0   6   72.86    2.45
  -4   0   6   74.17    2.46
  -4   0   6   74.46    1.80
  -4   0   6   74.65    2.48
  -4   0   7   60.16    2.29
  -4   0   7   63.19    2.29
  -4   0   7   59.67    2.28
  -4   0   8   73.94    2.61
  -4   0   8   67.25    2.61
  -4   0   9   15.75    1.22
  -4   0   9   19.51    1.26
  -4   0  10   22.09    1.53
  -4   0  11   15.96    1.37
  -4   0  12    4.46    0.83
  -4   0  13    1.12    0.48
  -4   1 -12    2.68    0.64
  -4   1 -11    7.03    0.97
  -4   1 -11    6.42    0.90
  -4   1 -10   13.49    1.18
  -4   1 -10   12.11    1.18
  -4   1  -9    9.42    0.96
  -4   1  -9   10.92    1.05
  -4   1  -8   24.02    1.48
  -4   1  -8   23.70    1.45
  -4   1  -7   63.34    2.45
  -4   1  -7   63.78    2.43
  -4   1  -7   60.41    2.65
  -4   1  -6   31.70    1.52
  -4   1  -6   31.25    1.74
  -4   1  -6   31.25    1.52
  -4   1  -5   71.10    2.36
  -4   1  -5   67.97    1.72
  -4   1  -5   68.80    2.33
  -4   1  -5   72.28    2.65
  -4   1  -4  111.80    3.38
  -4   1  -4  109.08    2.61
  -4   1  -4  108.38    3.04
  -4   1  -3  140.10    3.50
  -4   1  -3  136.02    3.24
  -4   1  -3  141.87    3.83
  -4   1  -2   43.67    1.39
  -4   1  -2   46.04    1.68
  -4   1  -2   43.00    1.42
  -4   1  -1  158.14    3.77
  -4   1  -1  158.68    3.65
  -4   1  -1  163.20    3.97
  -4   1   0   83.62    2.33
  -4   1   0   84.13    2.10
  -4   1   0   83.54    2.30
  -4   1   1   46.10    1.31
  -4   1   1   46.50    1.58
  -4   1   1   44.34    1.40
  -4   1   2   59.50    1.74
  -4   1   2   60.57    1.66
  -4   1   2   58.63    1.94
  -4   1   2   62.00    1.58
  -4   1   3    0.85    0.20
  -4   1   3    0.97    0.14
  -4   1   3    1.17    0.26
  -4   1   3    0.75    0.14
  -4   1   4    7.61    0.59
  -4   1   4    8.13    0.67
  -4   1   4    8.36    0.44
  -4   1   5   11.26    0.56
  -4   1   5   11.83    0.85
  -4   1   5   11.83    0.81
  -4   1   6    0.67    0.16
  -4   1   6    0.53    0.24
  -4   1   6    0.59    0.25
  -4   1   7    0.59    0.16
  -4   1   7    0.74    0.27
  -4   1   7    0.66    0.29
  -4   1   8   -0.08    0.13
  -4   1   8    0.18    0.25
  -4   1   9    6.59    0.82
  -4   1   9    9.20    0.89
  -4   1  10    1.33    0.43
  -4   1  11    2.63    0.59
  -4   1  12    6.75    0.98
  -4   2 -12    0.18    0.39
  -4   2 -11   -0.11    0.25
  -4   2 -11    0.36    0.33
  -4   2 -10    0.37    0.26
  -4   2 -10    0.99    0.41
  -4   2  -9    1.52    0.43
  -4   2  -9    1.53    0.38
  -4   2  -8    0.31    0.29
  -4   2  -8   -0.18    0.17
  -4   2  -7   12.52    0.91
  -4   2  -7   13.01    1.00
  -4   2  -6    7.50    0.82
  -4   2  -6    7.68    0.72
  -4   2  -5   62.83    2.00
  -4   2  -5   58.21    2.27
  -4   2  -4   24.19    0.89
  -4   2  -4   26.38    1.40
  -4   2  -3  195.92    4.55
  -4   2  -3  206.98    4.76
  -4   2  -3  213.78    5.20
  -4   2  -2   64.29    2.11
  -4   2  -2   62.66    1.85
  -4   2  -2   63.33    1.86
  -4   2  -1  115.75    2.97
  -4   2  -1  111.95    2.32
  -4   2  -1  119.49    2.85
  -4   2  -1  122.08    3.07
  -4   2   0  213.44    5.05
  -4   2   0  214.67    4.89
  -4   2   0  216.02    4.78
  -4   2   0  219.82    4.82
  -4   2   1   67.06    1.83
  -4   2   1   64.91    2.12
  -4   2   1   68.40    1.83
  -4   2   2  147.24    3.91
  -4   2   2  150.34    3.45
  -4   2   2  148.32    3.32
  -4   2   2  150.55    3.63
  -4   2   3   89.81    2.19
  -4   2   3   91.31    2.71
  -4   2   3   85.12    2.41
  -4   2   4  188.98    4.21
  -4   2   4  189.93    4.58
  -4   2   4  177.41    3.65
  -4   2   4  195.57    4.87
  -4   2   5   83.50    2.70
  -4   2   5   84.61    2.36
  -4   2   5   89.86    2.93
  -4   2   6  124.20    3.29
  -4   2   6  118.21    3.65
  -4   2   7   17.46    0.97
  -4   2   7   19.20    1.26
  -4   2   8   15.18    1.16
  -4   2   8   14.41    0.93
  -4   2   8   13.79    1.13
  -4   2   9    8.01    0.92
  -4   2  10   11.12    1.15
  -4   2  11    7.45    0.99
  -4   2  12    1.77    0.61
  -4   3 -12    8.45    1.07
  -4   3 -11    6.55    0.91
  -4   3 -10    7.38    0.89
  -4   3 -10    7.13    0.78
  -4   3  -9   18.64    1.33
  -4   3  -8   31.32    1.65
  -4   3  -7   19.39    1.20
  -4   3  -6   18.74    1.10
  -4   3  -5   29.97    1.35
  -4   3  -5   30.97    0.98
  -4   3  -4   30.07    1.12
  -4   3  -4   32.03    1.58
  -4   3  -4   33.15    1.14
  -4   3  -4   31.90    1.31
  -4   3  -3   64.30    1.67
  -4   3  -3   61.05    1.94
  -4   3  -3   63.15    2.26
  -4   3  -3   64.53    1.93
  -4   3  -2    9.98    0.66
  -4   3  -2   10.32    0.63
  -4   3  -2   10.16    0.43
  -4   3  -2   10.47    0.75
  -4   3  -1    3.17    0.34
  -4   3  -1    2.76    0.38
  -4   3  -1    3.15    0.35
  -4   3  -1    3.32    0.39
  -4   3  -1    2.90    0.18
  -4   3   0    6.25    0.29
  -4   3   0    6.50    0.49
  -4   3   0    6.30    0.59
  -4   3   0    6.09    0.47
  -4   3   0    6.44    0.48
  -4   3   1   28.01    1.09
  -4   3   1   28.95    1.37
  -4   3   2    0.08    0.19
  -4   3   2    0.14    0.11
  -4   3   3   -0.04    0.18
  -4   3   3    0.01    0.11
  -4   3   3    0.24    0.18
  -4   3   4   16.37    1.00
  -4   3   4   17.30    0.91
  -4   3   5   16.70    1.06
  -4   3   5   18.58    1.24
  -4   3   5   17.56    0.96
  -4   3   6    7.09    0.74
  -4   3   6    6.59    0.76
  -4   3   6    5.43    0.55
  -4   3   7   41.67    2.01
  -4   3   7   41.05    1.79
  -4   3   8   38.17    2.02
  -4   3   8   39.23    1.80
  -4   3   9   23.69    1.62
  -4   3  10   13.61    1.29
  -4   3  11    7.40    1.01
  -4   4 -13   -0.05    0.28
  -4   4 -13    0.38    0.33
  -4   4 -12    0.01    0.28
  -4   4 -11    4.43    0.74
  -4   4 -10    4.98    0.73
  -4   4  -9   14.06    1.13
  -4   4  -8   15.97    1.13
  -4   4  -7   85.21    2.71
  -4   4  -7   86.73    2.86
  -4   4  -6   19.70    1.01
  -4   4  -6   18.06    1.07
  -4   4  -5  112.46    2.93
  -4   4  -5  110.60    3.16
  -4   4  -4   84.95    2.31
  -4   4  -4   80.51    2.17
  -4   4  -4   76.82    2.40
  -4   4  -3  137.05    3.26
  -4   4  -3  147.42    3.64
  -4   4  -3  142.89    3.61
  -4   4  -3  141.31    3.66
  -4   4  -2  124.94    3.28
  -4   4  -2  129.13    2.91
  -4   4  -2  130.51    3.48
  -4   4  -2  127.58    3.34
  -4   4  -1  244.39    5.63
  -4   4  -1  249.78    5.63
  -4   4  -1  241.12    5.92
  -4   4  -1  248.98    5.18
  -4   4   0  485.93   10.08
  -4   4   0  483.56    9.65
  -4   4   1  268.96    6.69
  -4   4   1  277.96    6.21
  -4   4   2  147.02    4.19
  -4   4   2  141.08    3.66
  -4   4   3   23.77    1.22
  -4   4   3   26.03    1.20
  -4   4   4  107.06    3.46
  -4   4   4  101.22    2.97
  -4   4   5   15.04    1.17
  -4   4   5   12.96    0.98
  -4   4   5   13.83    0.93
  -4   4   6   32.98    1.58
  -4   4   6   29.21    1.61
  -4   4   6   34.43    1.84
  -4   4   7   13.73    1.15
  -4   4   7   10.93    1.01
  -4   4   7   12.67    0.99
  -4   4   8    5.39    0.70
  -4   4   8    5.76    0.78
  -4   4   9    1.31    0.39
  -4   4   9    1.84    0.53
  -4   4  10    0.92    0.40
  -4   5 -13    2.22    0.60
  -4   5 -13    2.77    0.67
  -4   5 -12    4.58    0.75
  -4   5 -12    6.05    0.84
  -4   5 -11    5.91    0.82
  -4   5 -11    4.92    0.72
  -4   5 -10    8.42    0.87
  -4   5 -10    7.84    0.89
  -4   5  -9    8.14    0.81
  -4   5  -9   10.34    0.95
  -4   5  -8   54.66    2.13
  -4   5  -8   54.79    2.23
  -4   5  -7   21.10    1.23
  -4   5  -7   20.94    1.14
  -4   5  -6    2.27    0.34
  -4   5  -6    2.73    0.44
  -4   5  -5    0.25    0.17
  -4   5  -5    0.09    0.16
  -4   5  -4    0.42    0.20
  -4   5  -4    0.32    0.20
  -4   5  -4    0.30    0.13
  -4   5  -3    4.39    0.49
  -4   5  -3    4.72    0.49
  -4   5  -3    4.83    0.39
  -4   5  -2    4.68    0.54
  -4   5  -2    4.49    0.48
  -4   5  -2    4.24    0.47
  -4   5  -2    5.02    0.38
  -4   5  -1    7.00    0.69
  -4   5  -1    7.10    0.46
  -4   5  -1    6.81    0.58
  -4   5  -1    5.70    0.54
  -4   5   0   18.87    1.19
  -4   5   0   18.92    1.02
  -4   5   0   19.01    0.84
  -4   5   1    9.22    0.86
  -4   5   1    8.12    0.67
  -4   5   1    9.05    0.60
  -4   5   2   55.79    2.33
  -4   5   2   49.66    1.88
  -4   5   3   54.23    2.36
  -4   5   3   51.30    1.98
  -4   5   4   40.60    1.82
  -4   5   4   46.44    2.21
  -4   5   4   44.62    1.87
  -4   5   5   41.19    1.86
  -4   5   5   46.24    2.24
  -4   5   6   17.03    1.21
  -4   5   6   17.08    1.24
  -4   5   7   13.83    1.18
  -4   5   7   13.97    1.14
  -4   5   8   15.92    1.28
  -4   5   8   13.70    1.24
  -4   5   9    9.62    1.10
  -4   5   9    8.65    0.98
  -4   5  10    3.91    0.74
  -4   6 -14    0.98    0.46
  -4   6 -13    2.18    0.62
  -4   6 -13    4.21    0.72
  -4   6 -12    6.16    0.83
  -4   6 -12    6.28    0.83
  -4   6 -11   13.01    1.17
  -4   6 -11   11.24    1.10
  -4   6 -10   14.94    1.17
  -4   6 -10   14.47    1.18
  -4   6  -9   36.63    1.84
  -4   6  -9   36.34    1.77
  -4   6  -8   11.52    0.90
  -4   6  -8   12.00    0.96
  -4   6  -7   52.58    2.00
  -4   6  -7   55.60    2.15
  -4   6  -6   51.00    1.86
  -4   6  -6   52.73    2.01
  -4   6  -5  134.14    3.53
  -4   6  -5  136.59    3.83
  -4   6  -5  137.01    3.76
  -4   6  -4  134.89    3.73
  -4   6  -4  133.10    3.63
  -4   6  -4  130.35    3.38
  -4   6  -3   89.95    2.73
  -4   6  -3   89.61    2.80
  -4   6  -3   91.41    2.51
  -4   6  -2   35.37    1.32
  -4   6  -2   37.15    1.57
  -4   6  -2   37.34    1.53
  -4   6  -1   56.54    1.80
  -4   6  -1   56.54    2.06
  -4   6   0   58.45    2.12
  -4   6   0   57.27    1.89
  -4   6   1   12.52    0.81
  -4   6   1   12.10    0.89
  -4   6   2   51.49    2.05
  -4   6   3    7.43    0.74
  -4   6   4   11.26    0.96
  -4   6   5    1.52    0.39
  -4   6   6    2.40    0.51
  -4   6   7    0.06    0.18
  -4   6   7   -0.23    0.24
  -4   6   8    0.41    0.36
  -4   6   8    0.07    0.24
  -4   6   9    0.17    0.27
  -4   6   9    0.52    0.34
  -4   7 -14    0.13    0.28
  -4   7 -13    3.78    0.74
  -4   7 -13    2.42    0.64
  -4   7 -12    5.68    0.82
  -4   7 -12    4.68    0.72
  -4   7 -11   -0.46    0.33
  -4   7 -11    0.04    0.19
  -4   7 -10   -0.40    0.26
  -4   7 -10    0.18    0.21
  -4   7  -9   -0.02    0.21
  -4   7  -9    0.19    0.22
  -4   7  -8   -0.09    0.19
  -4   7  -8   -0.02    0.21
  -4   7  -7    7.04    0.72
  -4   7  -7    7.88    0.71
  -4   7  -6    2.08    0.41
  -4   7  -6    2.07    0.38
  -4   7  -6    1.67    0.37
  -4   7  -5    5.64    0.59
  -4   7  -5    5.47    0.62
  -4   7  -5    6.30    0.60
  -4   7  -4    8.03    0.71
  -4   7  -4    8.90    0.78
  -4   7  -4    8.63    0.67
  -4   7  -3   27.19    1.22
  -4   7  -3   26.98    1.39
  -4   7  -3   26.29    1.31
  -4   7  -2   42.23    1.60
  -4   7  -2   41.32    1.80
  -4   7  -1   25.20    1.20
  -4   7  -1   23.70    1.34
  -4   7   0   81.37    2.76
  -4   7   0   74.62    2.47
  -4   7   1   48.13    2.07
  -4   7   1   51.05    1.97
  -4   7   2   40.26    1.92
  -4   7   3   41.47    2.01
  -4   7   4   43.56    2.13
  -4   7   5   17.49    1.36
  -4   7   6   20.31    1.54
  -4   7   7   16.05    1.42
  -4   7   8    5.00    0.84
  -4   8 -13    1.69    0.54
  -4   8 -13    1.61    0.46
  -4   8 -12    2.90    0.64
  -4   8 -12    4.04    0.70
  -4   8 -11   14.26    1.22
  -4   8 -11   14.93    1.25
  -4   8 -10    8.24    0.91
  -4   8 -10   10.31    0.99
  -4   8  -9   18.33    1.27
  -4   8  -9   16.70    1.21
  -4   8  -8   23.98    1.42
  -4   8  -8   23.75    1.38
  -4   8  -7   32.84    1.65
  -4   8  -7   34.96    1.76
  -4   8  -7   31.95    1.57
  -4   8  -6   20.47    1.30
  -4   8  -6   20.50    1.24
  -4   8  -6   20.30    1.18
  -4   8  -5   35.64    1.66
  -4   8  -5   37.02    1.77
  -4   8  -5   35.36    1.58
  -4   8  -4   25.45    1.35
  -4   8  -4   25.56    1.44
  -4   8  -4   23.94    1.25
  -4   8  -3   26.15    1.45
  -4   8  -3   26.32    1.31
  -4   8  -2   14.16    0.94
  -4   8  -2   12.48    1.01
  -4   8  -1    3.81    0.50
  -4   8  -1    3.96    0.60
  -4   8   0    8.73    0.87
  -4   8   0    8.40    0.76
  -4   8   1   -0.28    0.20
  -4   8   1   -0.11    0.22
  -4   8   2   -0.04    0.22
  -4   8   3    0.03    0.25
  -4   8   4    0.26    0.28
  -4   8   5    1.12    0.45
  -4   8   6   -0.51    0.35
  -4   8   7    0.18    0.28
  -4   9 -13    0.87    0.46
  -4   9 -13    0.48    0.33
  -4   9 -12   -0.12    0.25
  -4   9 -12    0.13    0.30
  -4   9 -11    2.16    0.52
  -4   9 -11    1.49    0.45
  -4   9 -10    3.23    0.59
  -4   9 -10    3.44    0.62
  -4   9  -9   12.15    1.06
  -4   9  -9   16.06    1.21
  -4   9  -8    8.22    0.85
  -4   9  -8    8.23    0.85
  -4   9  -7   27.24    1.51
  -4   9  -7   28.89    1.58
  -4   9  -7   31.65    1.73
  -4   9  -6   23.42    1.38
  -4   9  -6   24.83    1.51
  -4   9  -6   21.31    1.30
  -4   9  -5   37.14    1.78
  -4   9  -5   38.19    1.76
  -4   9  -5   40.61    1.96
  -4   9  -4   49.97    2.06
  -4   9  -4   51.29    2.26
  -4   9  -3   30.32    1.55
  -4   9  -3   32.46    1.77
  -4   9  -2   36.86    1.73
  -4   9  -2   33.12    1.82
  -4   9  -1   21.73    1.46
  -4   9  -1   22.93    1.38
  -4   9   0   34.44    1.90
  -4   9   0   32.17    1.73
  -4   9   1   28.95    1.78
  -4   9   2   37.72    2.11
  -4   9   3   13.89    1.29
  -4   9   4   10.95    1.20
  -4   9   5    6.59    1.00
  -4  10 -13    4.45    0.71
  -4  10 -13    4.45    0.84
  -4  10 -12    6.97    0.88
  -4  10 -12    5.09    0.84
  -4  10 -11    6.27    0.85
  -4  10 -11    5.37    0.81
  -4  10 -10    5.91    0.81
  -4  10 -10    6.22    0.82
  -4  10  -9    5.86    0.78
  -4  10  -9    6.29    0.79
  -4  10  -8    5.91    0.73
  -4  10  -8    4.97    0.69
  -4  10  -8    6.37    0.82
  -4  10  -7    5.77    0.72
  -4  10  -7    8.12    0.90
  -4  10  -7    6.56    0.78
  -4  10  -6    2.54    0.47
  -4  10  -6    2.88    0.54
  -4  10  -6    3.49    0.58
  -4  10  -5    4.27    0.62
  -4  10  -5    4.53    0.65
  -4  10  -4    0.49    0.30
  -4  10  -4    0.58    0.31
  -4  10  -3    0.16    0.19
  -4  10  -3   -0.10    0.17
  -4  10  -2    0.09    0.23
  -4  10  -2    0.19    0.26
  -4  10  -1    0.83    0.31
  -4  10  -1    0.56    0.33
  -4  10   0    0.65    0.34
  -4  10   0    1.74    0.48
  -4  10   1    0.19    0.25
  -4  10   2    0.20    0.28
  -4  10   3    1.56    0.50
  -4  11 -12    1.70    0.55
  -4  11 -11    6.74    0.94
  -4  11 -11    6.51    0.90
  -4  11 -10    4.70    0.76
  -4  11 -10    5.59    0.79
  -4  11  -9   13.30    1.20
  -4  11  -9   13.81    1.19
  -4  11  -9   15.49    1.34
  -4  11  -8   10.07    0.98
  -4  11  -8    9.28    1.04
  -4  11  -8    9.59    1.01
  -4  11  -7    9.96    1.01
  -4  11  -7   12.08    1.17
  -4  11  -6    7.14    0.90
  -4  11  -6    5.74    0.77
  -4  11  -5   10.54    1.02
  -4  11  -5   10.64    1.10
  -4  11  -4   27.30    1.69
  -4  11  -4   30.33    1.89
  -4  11  -3   24.81    1.63
  -4  11  -3   29.81    1.90
  -4  11  -2   19.40    1.44
  -4  11  -2   19.26    1.55
  -4  11  -1   10.73    1.11
  -4  11  -1   10.92    1.21
  -4  11   0   16.20    1.48
  -4  11   1    3.02    0.66
  -4  12 -11    0.69    0.38
  -4  12 -10   -0.06    0.20
  -4  12  -9    0.23    0.31
  -4  12  -9   -0.05    0.12
  -4  12  -8    0.06    0.25
  -4  12  -8    0.49    0.36
  -4  12  -7    0.97    0.40
  -4  12  -7   -0.01    0.16
  -4  12  -6    4.27    0.68
  -4  12  -6    4.27    0.74
  -4  12  -5    3.69    0.64
  -4  12  -5    5.15    0.82
  -4  12  -4    2.47    0.62
  -4  12  -4    1.66    0.46
  -4  12  -3    0.54    0.30
  -4  12  -3    0.82    0.42
  -4  12  -2    3.47    0.67
  -4  12  -2    3.95    0.76
  -4  12  -1    5.81    0.93
  -4  12  -1    4.91    0.85
  -4  13  -9   10.69    1.22
  -4  13  -8   10.34    1.17
  -4  13  -8   10.51    1.24
  -4  13  -7    9.08    1.09
  -4  13  -7    9.96    1.18
  -4  13  -6    8.96    1.12
  -4  13  -6    8.97    1.13
  -4  13  -5    9.95    1.20
  -4  13  -5    8.45    1.09
  -4  13  -4    6.06    0.89
  -3 -10   1   16.45    1.47
  -3 -10   2   16.07    1.48
  -3 -10   3   17.93    1.54
  -3 -10   4    6.79    0.94
  -3 -10   5   10.11    1.15
  -3 -10   6   17.27    1.51
  -3 -10   7   22.20    1.72
  -3 -10   8   14.04    1.36
  -3 -10   9   10.68    1.24
  -3  -9   0    0.18    0.28
  -3  -9   1    1.11    0.40
  -3  -9   2   -0.07    0.25
  -3  -9   2    0.97    0.37
  -3  -9   3    1.77    0.47
  -3  -9   4    5.71    0.82
  -3  -9   5    9.59    1.03
  -3  -9   6    7.54    0.94
  -3  -9   7    4.22    0.73
  -3  -9   8    6.74    0.92
  -3  -9   9    8.03    1.03
  -3  -9  10   16.73    1.50
  -3  -9  11   12.26    1.34
  -3  -8  -3    8.64    1.16
  -3  -8  -2   14.10    1.39
  -3  -8  -1    9.32    1.05
  -3  -8   0    7.18    0.91
  -3  -8   1   25.78    1.60
  -3  -8   1   22.49    1.59
  -3  -8   2   26.15    1.62
  -3  -8   3   25.82    1.62
  -3  -8   4   23.80    1.55
  -3  -8   5   29.54    1.74
  -3  -8   6    7.72    0.88
  -3  -8   7    4.29    0.70
  -3  -8   8    3.39    0.67
  -3  -8   9    0.47    0.26
  -3  -8  10    0.52    0.31
  -3  -8  11    0.85    0.35
  -3  -8  12   -0.10    0.23
  -3  -7  -4    0.79    0.44
  -3  -7  -3    1.24    0.42
  -3  -7  -2    1.32    0.39
  -3  -7  -2    0.59    0.35
  -3  -7  -1   13.98    1.20
  -3  -7  -1   16.66    1.33
  -3  -7   0   14.29    1.19
  -3  -7   0   14.32    1.10
  -3  -7   1   20.89    1.33
  -3  -7   1   19.18    1.36
  -3  -7   2   34.72    1.75
  -3  -7   3   77.08    2.87
  -3  -7   4   43.52    2.02
  -3  -7   5   48.35    2.17
  -3  -7   6   66.95    2.68
  -3  -7   7   43.74    2.13
  -3  -7   8   53.57    2.47
  -3  -7   9   29.77    1.82
  -3  -7  10   30.26    1.90
  -3  -7  11   17.55    1.49
  -3  -7  12   18.49    1.59
  -3  -7  13    9.02    1.18
  -3  -7  13    4.76    0.88
  -3  -6  -5   17.98    1.64
  -3  -6  -4   22.35    1.57
  -3  -6  -4   28.89    1.96
  -3  -6  -3   21.74    1.49
  -3  -6  -3   25.72    1.75
  -3  -6  -2   24.17    1.52
  -3  -6  -2   24.67    1.62
  -3  -6  -1   27.67    1.44
  -3  -6  -1   25.09    1.53
  -3  -6  -1   29.87    1.68
  -3  -6   0   23.95    1.33
  -3  -6   0   21.44    1.38
  -3  -6   1   17.99    1.13
  -3  -6   2   19.97    1.19
  -3  -6   3   22.35    1.30
  -3  -6   4    5.47    0.64
  -3  -6   5    4.84    0.62
  -3  -6   6    0.14    0.25
  -3  -6   7    0.27    0.26
  -3  -6   8    1.57    0.42
  -3  -6   9    1.07    0.38
  -3  -6  10    4.96    0.75
  -3  -6  11   10.03    1.09
  -3  -6  12    4.64    0.80
  -3  -6  12    3.94    0.75
  -3  -6  13    4.74    0.84
  -3  -6  14    1.00    0.49
  -3  -5  -7    1.08    0.47
  -3  -5  -6    0.89    0.40
  -3  -5  -5    4.14    0.68
  -3  -5  -5    4.62    0.79
  -3  -5  -4    1.90    0.45
  -3  -5  -4    2.14    0.53
  -3  -5  -3   25.06    1.61
  -3  -5  -3   23.11    1.45
  -3  -5  -2   48.65    1.87
  -3  -5  -2   47.00    2.10
  -3  -5  -2   51.12    2.27
  -3  -5  -1   70.98    2.38
  -3  -5  -1   70.96    2.64
  -3  -5  -1   75.75    2.72
  -3  -5   0   33.54    1.46
  -3  -5   0   30.21    1.57
  -3  -5   0   33.88    1.59
  -3  -5   1   97.14    2.90
  -3  -5   2   85.57    2.67
  -3  -5   3  105.40    3.14
  -3  -5   4   97.09    3.00
  -3  -5   5   80.77    2.71
  -3  -5   6  115.94    3.55
  -3  -5   7   57.69    2.32
  -3  -5   8   57.69    2.41
  -3  -5   9   29.61    1.71
  -3  -5  10   32.60    1.88
  -3  -5  11    6.50    0.85
  -3  -5  11    6.75    0.88
  -3  -5  12   12.45    1.25
  -3  -5  13    0.68    0.41
  -3  -5  14    0.32    0.38
  -3  -4  -8    9.07    1.18
  -3  -4  -7    8.33    1.08
  -3  -4  -6   17.64    1.50
  -3  -4  -6   15.84    1.28
  -3  -4  -5   10.49    1.10
  -3  -4  -5    8.91    0.91
  -3  -4  -4    7.53    0.87
  -3  -4  -4    7.77    0.82
  -3  -4  -3   17.95    1.18
  -3  -4  -3   17.58    1.25
  -3  -4  -2   63.30    2.03
  -3  -4  -2   66.30    2.48
  -3  -4  -2   61.32    2.34
  -3  -4  -1   12.77    0.76
  -3  -4  -1   12.29    0.91
  -3  -4  -1   12.27    0.91
  -3  -4   0    5.19    0.48
  -3  -4   0    5.00    0.57
  -3  -4   1    6.66    0.55
  -3  -4   2    2.85    0.39
  -3  -4   3    0.41    0.18
  -3  -4   4    4.20    0.49
  -3  -4   5   30.00    1.41
  -3  -4   6   78.60    2.65
  -3  -4   7   64.74    2.43
  -3  -4   7   65.79    1.89
  -3  -4   8   26.91    1.51
  -3  -4   9   14.14    1.12
  -3  -4  10   21.59    1.28
  -3  -4  10   23.10    1.52
  -3  -4  10   22.20    1.48
  -3  -4  11   22.20    1.55
  -3  -4  12    7.08    0.91
  -3  -4  13   15.47    1.43
  -3  -4  14   11.69    1.32
  -3  -3  -9   -0.24    0.29
  -3  -3  -8    2.33    0.60
  -3  -3  -7   11.27    1.10
  -3  -3  -7   13.50    1.29
  -3  -3  -6   17.68    1.39
  -3  -3  -6   14.55    1.18
  -3  -3  -5   40.65    2.06
  -3  -3  -5   38.73    1.90
  -3  -3  -4   46.06    2.01
  -3  -3  -4   50.46    2.20
  -3  -3  -3   95.47    2.51
  -3  -3  -3   91.02    3.06
  -3  -3  -3   87.23    2.91
  -3  -3  -2   91.80    2.43
  -3  -3  -2   88.55    2.83
  -3  -3  -2   93.12    2.93
  -3  -3  -1  211.82    5.18
  -3  -3  -1  216.18    5.23
  -3  -3  -1  203.55    4.72
  -3  -3   0   76.51    2.13
  -3  -3   0   77.98    2.45
  -3  -3   1  145.97    3.56
  -3  -3   2  179.93    4.24
  -3  -3   2  177.47    3.63
  -3  -3   3   92.37    2.60
  -3  -3   4   73.93    2.29
  -3  -3   5   86.42    2.66
  -3  -3   6  104.20    3.15
  -3  -3   6  106.23    2.52
  -3  -3   7   28.14    1.46
  -3  -3   7   30.06    1.00
  -3  -3   8   39.51    1.84
  -3  -3   8   38.13    1.77
  -3  -3   8   41.12    1.69
  -3  -3   9    0.39    0.20
  -3  -3   9    0.02    0.20
  -3  -3  10    4.92    0.70
  -3  -3  10    5.98    0.63
  -3  -3  11    0.15    0.25
  -3  -3  12    0.90    0.38
  -3  -3  13   -0.05    0.30
  -3  -3  14    0.48    0.40
  -3  -3  14   -0.01    0.27
  -3  -2 -10    1.98    0.58
  -3  -2  -9    1.39    0.46
  -3  -2  -8    2.23    0.55
  -3  -2  -8    1.36    0.49
  -3  -2  -7    7.77    0.91
  -3  -2  -7    6.37    0.83
  -3  -2  -6    9.52    0.95
  -3  -2  -6    8.49    0.87
  -3  -2  -5    0.14    0.22
  -3  -2  -5    0.39    0.29
  -3  -2  -4    0.54    0.15
  -3  -2  -4    0.27    0.21
  -3  -2  -4    0.73    0.31
  -3  -2  -3    6.66    0.42
  -3  -2  -3    6.59    0.63
  -3  -2  -3    6.90    0.68
  -3  -2  -2    0.07    0.07
  -3  -2  -2   -0.02    0.17
  -3  -2  -2    0.16    0.17
  -3  -2  -1    5.89    0.53
  -3  -2  -1    5.93    0.53
  -3  -2  -1    6.04    0.38
  -3  -2   0   36.11    1.39
  -3  -2   0   33.92    1.11
  -3  -2   1   73.11    1.64
  -3  -2   1   73.38    1.96
  -3  -2   2  122.19    2.60
  -3  -2   2  115.65    2.95
  -3  -2   3   89.47    2.46
  -3  -2   4   68.37    2.12
  -3  -2   5   52.30    1.86
  -3  -2   5   52.33    1.29
  -3  -2   6  122.37    3.45
  -3  -2   6  120.25    3.31
  -3  -2   6  118.01    2.64
  -3  -2   7   42.43    1.76
  -3  -2   7   44.76    1.69
  -3  -2   7   42.63    1.23
  -3  -2   8   64.60    2.21
  -3  -2   8   62.94    2.38
  -3  -2   9   72.26    2.74
  -3  -2   9   72.78    2.45
  -3  -2  10   41.67    2.09
  -3  -2  11   23.11    1.62
  -3  -2  12   22.43    1.67
  -3  -2  12   20.49    1.61
  -3  -2  13   10.81    1.23
  -3  -2  13   10.95    1.26
  -3  -1 -11    4.70    0.82
  -3  -1 -10    6.71    0.93
  -3  -1  -9   17.12    1.41
  -3  -1  -8   19.53    1.44
  -3  -1  -8   19.79    1.44
  -3  -1  -7   28.32    1.66
  -3  -1  -7   28.66    1.69
  -3  -1  -6   55.69    2.34
  -3  -1  -6   61.20    2.41
  -3  -1  -5   83.44    2.84
  -3  -1  -5   85.87    2.86
  -3  -1  -4   40.12    1.14
  -3  -1  -4   40.50    1.71
  -3  -1  -4   40.86    1.71
  -3  -1  -3  171.40    3.64
  -3  -1  -3  176.18    4.40
  -3  -1  -3  174.19    4.42
  -3  -1  -2  120.06    2.63
  -3  -1  -2  125.92    3.29
  -3  -1  -2  128.37    3.28
  -3  -1  -1  136.54    2.92
  -3  -1  -1  132.05    3.42
  -3  -1   0  120.96    2.72
  -3  -1   0  121.78    2.69
  -3  -1   0  121.10    3.08
  -3  -1   1  304.92    6.39
  -3  -1   1  307.18    6.09
  -3  -1   2  200.19    4.57
  -3  -1   2  209.54    4.34
  -3  -1   3   78.67    2.01
  -3  -1   3   77.24    2.16
  -3  -1   3   75.35    1.99
  -3  -1   4   67.45    2.07
  -3  -1   4   67.61    1.95
  -3  -1   5   31.77    1.25
  -3  -1   5   30.87    1.24
  -3  -1   5   27.00    0.70
  -3  -1   6   32.42    1.40
  -3  -1   6   34.54    1.38
  -3  -1   6   32.01    0.91
  -3  -1   6   31.41    0.87
  -3  -1   7    6.67    0.66
  -3  -1   7    6.58    0.58
  -3  -1   7    7.03    0.40
  -3  -1   7    6.18    0.37
  -3  -1   8    7.15    0.74
  -3  -1   8    7.41    0.65
  -3  -1   9   -0.07    0.25
  -3  -1   9    0.14    0.13
  -3  -1  10    0.18    0.24
  -3  -1  10    0.12    0.27
  -3  -1  11    2.36    0.57
  -3  -1  11    3.66    0.65
  -3  -1  12    0.23    0.34
  -3  -1  13    1.56    0.56
  -3   0 -12    0.27    0.23
  -3   0 -11    1.18    0.45
  -3   0 -11    1.35    0.41
  -3   0 -10    1.25    0.44
  -3   0  -9    0.23    0.24
  -3   0  -8    0.07    0.21
  -3   0  -8   -0.09    0.24
  -3   0  -7    0.38    0.28
  -3   0  -7    0.68    0.29
  -3   0  -6    2.46    0.46
  -3   0  -6    3.09    0.48
  -3   0  -5   23.64    1.23
  -3   0  -5   22.90    1.29
  -3   0  -4    5.62    0.54
  -3   0  -4    4.88    0.54
  -3   0  -3   14.91    0.88
  -3   0  -3   14.59    0.81
  -3   0  -2   40.31    1.44
  -3   0  -2   36.18    1.22
  -3   0  -1  229.93    5.20
  -3   0  -1  232.44    4.93
  -3   0   0   66.88    1.64
  -3   0   0   70.91    1.90
  -3   0   1  150.01    3.51
  -3   0   1  160.17    3.32
  -3   0   1  152.43    3.25
  -3   0   2  274.02    5.64
  -3   0   2  260.28    5.84
  -3   0   2  265.27    5.56
  -3   0   3   98.03    2.52
  -3   0   3   98.27    2.49
  -3   0   3  100.32    2.10
  -3   0   3   98.07    2.62
  -3   0   4  161.33    3.75
  -3   0   4  150.03    3.73
  -3   0   4  151.58    3.69
  -3   0   4  148.19    3.16
  -3   0   5   21.34    1.05
  -3   0   5   21.93    1.06
  -3   0   5   21.05    0.72
  -3   0   5   21.56    1.03
  -3   0   5   20.42    0.64
  -3   0   6   87.18    2.74
  -3   0   6   91.58    2.79
  -3   0   6   89.87    2.15
  -3   0   6   89.66    2.67
  -3   0   6   87.15    2.21
  -3   0   7   50.75    1.60
  -3   0   7   56.69    2.15
  -3   0   7   56.85    2.00
  -3   0   7   52.14    1.56
  -3   0   7   50.30    2.04
  -3   0   8   45.18    2.03
  -3   0   8   49.65    1.60
  -3   0   8   46.71    1.62
  -3   0   8   50.61    2.14
  -3   0   8   49.38    1.94
  -3   0   9   15.64    1.18
  -3   0  10   18.20    1.38
  -3   0  11    5.16    0.78
  -3   0  12    5.51    0.89
  -3   0  13    7.79    1.10
  -3   1 -12    2.88    0.67
  -3   1 -12    2.50    0.55
  -3   1 -11    6.44    0.89
  -3   1 -11    6.33    0.85
  -3   1 -10   12.88    1.18
  -3   1 -10   13.17    1.13
  -3   1  -9   22.16    1.46
  -3   1  -9   23.12    1.44
  -3   1  -8   32.97    1.66
  -3   1  -7   46.38    1.91
  -3   1  -7   46.04    2.14
  -3   1  -6   45.86    2.02
  -3   1  -6   43.25    1.73
  -3   1  -5   79.12    2.34
  -3   1  -5   79.97    2.64
  -3   1  -5   80.40    2.32
  -3   1  -4   10.51    0.68
  -3   1  -4   12.87    0.87
  -3   1  -4   10.91    0.69
  -3   1  -4   11.22    0.44
  -3   1  -3    9.05    0.43
  -3   1  -3    9.15    0.58
  -3   1  -3   10.34    0.72
  -3   1  -2   16.21    0.65
  -3   1  -2   19.23    0.91
  -3   1  -2   16.74    0.73
  -3   1  -1   47.95    1.39
  -3   1  -1   46.89    1.34
  -3   1  -1   50.64    1.54
  -3   1   0    8.84    0.51
  -3   1   0    9.44    0.44
  -3   1   0    8.94    0.49
  -3   1   1   26.03    0.87
  -3   1   1   25.52    1.00
  -3   1   1   27.15    0.82
  -3   1   1   25.24    0.83
  -3   1   2    0.09    0.06
  -3   1   2    0.12    0.10
  -3   1   2    0.09    0.11
  -3   1   2    0.08    0.05
  -3   1   3    8.35    0.59
  -3   1   3    6.70    0.50
  -3   1   3    7.26    0.38
  -3   1   4   13.21    0.77
  -3   1   4   13.96    0.82
  -3   1   4   12.69    0.58
  -3   1   5    6.87    0.46
  -3   1   5    8.33    0.67
  -3   1   5    6.76    0.40
  -3   1   5    7.17    0.62
  -3   1   6    2.03    0.25
  -3   1   6    1.83    0.37
  -3   1   6    2.26    0.39
  -3   1   6    2.13    0.29
  -3   1   7    7.48    0.54
  -3   1   7    7.19    0.57
  -3   1   7    7.20    0.72
  -3   1   7    8.39    0.73
  -3   1   8    1.96    0.43
  -3   1   8    1.87    0.39
  -3   1   8    1.42    0.29
  -3   1   8    1.43    0.28
  -3   1   9   10.87    1.02
  -3   1   9   10.21    0.80
  -3   1  10    3.64    0.66
  -3   1  11    7.43    0.97
  -3   1  12    3.55    0.68
  -3   2 -12    2.32    0.62
  -3   2 -11    2.34    0.57
  -3   2 -11    2.65    0.50
  -3   2 -10    2.67    0.60
  -3   2 -10    3.69    0.58
  -3   2  -9   11.61    1.03
  -3   2  -9   13.59    1.00
  -3   2  -8    2.04    0.44
  -3   2  -8    1.81    0.34
  -3   2  -7   23.33    1.29
  -3   2  -7   23.31    1.18
  -3   2  -6   32.49    1.47
  -3   2  -6   33.47    1.36
  -3   2  -5  100.20    2.85
  -3   2  -5  101.99    3.21
  -3   2  -5   98.67    2.69
  -3   2  -4   37.14    1.02
  -3   2  -4   36.34    1.36
  -3   2  -4   38.92    1.65
  -3   2  -3  244.77    5.85
  -3   2  -3  243.29    5.25
  -3   2  -3  254.67    5.50
  -3   2  -2  119.78    2.65
  -3   2  -2  122.56    2.91
  -3   2  -2  117.81    2.89
  -3   2  -2  123.92    3.22
  -3   2  -1  172.78    3.91
  -3   2  -1  175.44    3.96
  -3   2  -1  182.12    3.56
  -3   2  -1  172.19    4.10
  -3   2   0   24.19    0.86
  -3   2   0   24.17    0.86
  -3   2   0   23.09    0.60
  -3   2   0   27.31    1.07
  -3   2   0   25.47    0.91
  -3   2   1   45.09    1.58
  -3   2   1   45.94    1.32
  -3   2   1   46.72    1.25
  -3   2   2  354.16    6.87
  -3   2   2  305.77    7.05
  -3   2   2  341.52    6.65
  -3   2   2  298.27    6.27
  -3   2   3   84.25    2.59
  -3   2   3   84.58    2.21
  -3   2   3   85.76    2.41
  -3   2   4  128.57    3.56
  -3   2   4  125.96    3.37
  -3   2   4  124.57    3.12
  -3   2   5   50.95    1.91
  -3   2   5   49.79    1.69
  -3   2   6   88.23    2.59
  -3   2   6   82.54    2.80
  -3   2   6   86.21    2.46
  -3   2   7   18.75    1.23
  -3   2   7   20.54    1.04
  -3   2   7   21.21    1.26
  -3   2   7   20.04    1.10
  -3   2   8   65.41    2.21
  -3   2   8   60.82    2.54
  -3   2   8   59.46    2.26
  -3   2   8   68.53    2.49
  -3   2   9   13.74    1.17
  -3   2   9   14.54    1.05
  -3   2  10    2.99    0.61
  -3   2  11    1.63    0.49
  -3   2  12    0.28    0.39
  -3   3 -13    4.52    0.83
  -3   3 -12    5.32    0.82
  -3   3 -11    9.79    1.05
  -3   3 -10   17.35    1.32
  -3   3 -10   18.00    1.16
  -3   3  -9    5.37    0.70
  -3   3  -9    6.15    0.62
  -3   3  -8    0.90    0.35
  -3   3  -8    0.55    0.20
  -3   3  -7    3.05    0.38
  -3   3  -7    3.28    0.50
  -3   3  -6   35.55    1.51
  -3   3  -5   10.37    0.71
  -3   3  -4    5.76    0.43
  -3   3  -4    5.45    0.47
  -3   3  -3   19.67    0.81
  -3   3  -3   18.91    0.73
  -3   3  -3   18.46    0.85
  -3   3  -2    0.21    0.13
  -3   3  -2    0.38    0.09
  -3   3  -2    0.39    0.14
  -3   3  -2    0.24    0.12
  -3   3  -1    0.18    0.14
  -3   3  -1    0.14    0.07
  -3   3  -1    0.23    0.12
  -3   3  -1    0.29    0.13
  -3   3   0    1.47    0.22
  -3   3   0    1.67    0.31
  -3   3   0    1.58    0.16
  -3   3   0    1.33    0.22
  -3   3   1   11.08    0.61
  -3   3   1   11.32    0.78
  -3   3   2   20.10    0.94
  -3   3   2   20.67    0.91
  -3   3   2   22.38    1.17
  -3   3   3   41.86    1.48
  -3   3   3   42.17    1.56
  -3   3   3   44.30    1.80
  -3   3   4   23.08    1.09
  -3   3   4   22.95    1.16
  -3   3   5   22.11    1.22
  -3   3   5   24.03    1.18
  -3   3   5   25.42    1.39
  -3   3   6   31.45    1.59
  -3   3   6   32.95    1.51
  -3   3   7   21.71    1.33
  -3   3   7   17.34    1.22
  -3   3   7   20.02    1.20
  -3   3   8    0.38    0.25
  -3   3   8    0.21    0.27
  -3   3   9    6.65    0.88
  -3   3   9    6.24    0.75
  -3   3  10   10.93    1.14
  -3   3  10    9.72    0.99
  -3   3  11    8.02    1.06
  -3   4 -13    0.58    0.36
  -3   4 -13    0.16    0.34
  -3   4 -12    3.39    0.68
  -3   4 -12    2.22    0.56
  -3   4 -11    6.65    0.85
  -3   4 -10    4.90    0.70
  -3   4  -9   37.93    1.85
  -3   4  -9   39.30    1.54
  -3   4  -8   57.12    2.23
  -3   4  -8   59.70    2.25
  -3   4  -7   95.15    2.88
  -3   4  -7   84.69    2.73
  -3   4  -6   51.76    1.87
  -3   4  -6   49.16    1.76
  -3   4  -5  176.25    4.23
  -3   4  -5  177.06    4.36
  -3   4  -4   47.95    1.62
  -3   4  -4   45.87    1.48
  -3   4  -3  196.86    4.62
  -3   4  -3  193.91    4.57
  -3   4  -3  197.30    4.36
  -3   4  -2  215.54    5.04
  -3   4  -2  213.29    4.84
  -3   4  -2  206.36    4.86
  -3   4  -2  212.31    4.61
  -3   4  -1   99.27    2.39
  -3   4  -1   99.19    2.86
  -3   4  -1  100.25    2.62
  -3   4  -1   97.49    2.64
  -3   4   0   46.74    1.57
  -3   4   0   48.79    1.41
  -3   4   0   45.34    1.78
  -3   4   1   41.49    1.74
  -3   4   1   43.24    1.51
  -3   4   1   42.85    1.39
  -3   4   2  106.12    3.29
  -3   4   2  108.74    2.96
  -3   4   3   44.73    1.91
  -3   4   3   40.88    1.60
  -3   4   3   41.37    1.61
  -3   4   4   77.68    2.80
  -3   4   4   76.08    2.52
  -3   4   4   80.08    2.55
  -3   4   5    3.17    0.48
  -3   4   5    3.77    0.56
  -3   4   5    3.35    0.49
  -3   4   6   24.00    1.39
  -3   4   6   22.65    1.33
  -3   4   7    0.71    0.29
  -3   4   7    0.78    0.31
  -3   4   8    1.54    0.41
  -3   4   8    1.96    0.47
  -3   4   9    0.59    0.34
  -3   4   9    0.23    0.31
  -3   4  10    0.89    0.41
  -3   4  10   -0.49    0.28
  -3   4  11    0.01    0.35
  -3   5 -14    1.98    0.60
  -3   5 -14    2.37    0.67
  -3   5 -13    0.86    0.43
  -3   5 -13   -0.20    0.31
  -3   5 -12    1.05    0.41
  -3   5 -12    0.62    0.36
  -3   5 -11    4.25    0.65
  -3   5 -11    5.56    0.76
  -3   5 -10    5.62    0.72
  -3   5 -10    5.01    0.70
  -3   5  -9    0.67    0.31
  -3   5  -9    0.59    0.32
  -3   5  -8    2.06    0.41
  -3   5  -8    2.38    0.43
  -3   5  -7    1.29    0.31
  -3   5  -7    0.69    0.25
  -3   5  -6    0.38    0.17
  -3   5  -6    0.24    0.18
  -3   5  -5    3.54    0.42
  -3   5  -5    3.73    0.46
  -3   5  -5    4.36    0.44
  -3   5  -4   11.38    0.72
  -3   5  -4   11.33    0.67
  -3   5  -4   11.29    0.75
  -3   5  -3    9.93    0.69
  -3   5  -3   11.77    0.72
  -3   5  -3   10.92    0.63
  -3   5  -2   18.46    0.95
  -3   5  -2   18.47    0.92
  -3   5  -2   18.20    0.83
  -3   5  -1   35.08    1.23
  -3   5  -1   32.41    1.35
  -3   5   0   27.55    1.11
  -3   5   0   29.17    1.27
  -3   5   1   31.73    1.38
  -3   5   1   32.16    1.29
  -3   5   2   61.67    2.16
  -3   5   3   13.29    0.94
  -3   5   4   20.11    1.18
  -3   5   4   20.79    1.24
  -3   5   5   35.16    1.71
  -3   5   5   37.24    1.79
  -3   5   6   24.47    1.50
  -3   5   6   25.98    1.51
  -3   5   7   19.16    1.37
  -3   5   7   15.46    1.23
  -3   5   8   14.66    1.27
  -3   5   8   15.12    1.27
  -3   5   9    8.34    1.01
  -3   5   9    9.71    1.09
  -3   5  10    3.56    0.72
  -3   5  10    5.39    0.83
  -3   6 -14    2.44    0.66
  -3   6 -14    1.98    0.58
  -3   6 -13   11.83    1.21
  -3   6 -13   11.02    1.19
  -3   6 -12   10.48    1.10
  -3   6 -12    7.95    0.96
  -3   6 -11   10.38    1.04
  -3   6 -11   10.65    1.01
  -3   6 -10   15.49    1.19
  -3   6 -10   15.05    1.15
  -3   6  -9   31.33    1.64
  -3   6  -9   31.67    1.62
  -3   6  -8   16.78    1.09
  -3   6  -8   18.12    1.14
  -3   6  -7   74.20    2.52
  -3   6  -7   77.05    2.54
  -3   6  -6   39.49    1.62
  -3   6  -6   40.16    1.67
  -3   6  -6   39.99    1.61
  -3   6  -5   44.93    1.70
  -3   6  -5   44.89    1.75
  -3   6  -5   44.86    1.66
  -3   6  -4   29.69    1.29
  -3   6  -4   29.06    1.33
  -3   6  -4   28.32    1.22
  -3   6  -3   70.42    2.20
  -3   6  -3   66.73    2.25
  -3   6  -3   69.36    2.12
  -3   6  -2   63.91    2.02
  -3   6  -2   66.85    2.22
  -3   6  -1   40.57    1.50
  -3   6  -1   39.69    1.64
  -3   6   0   25.75    1.18
  -3   6   0   24.08    1.25
  -3   6   1   20.56    1.18
  -3   6   1   21.30    1.12
  -3   6   2   25.19    1.37
  -3   6   3    0.85    0.30
  -3   6   4    4.79    0.64
  -3   6   5   -0.12    0.24
  -3   6   6    0.30    0.24
  -3   6   6    0.29    0.29
  -3   6   7    2.71    0.57
  -3   6   7    3.49    0.63
  -3   6   8    0.11    0.36
  -3   6   8    0.22    0.29
  -3   6   9    0.66    0.35
  -3   6   9    1.32    0.48
  -3   7 -14   -0.03    0.29
  -3   7 -14   -0.03    0.26
  -3   7 -13    0.20    0.32
  -3   7 -13    1.95    0.47
  -3   7 -12   -0.32    0.29
  -3   7 -12   -0.21    0.18
  -3   7 -11   -0.03    0.26
  -3   7 -11   -0.09    0.27
  -3   7 -10    0.53    0.30
  -3   7 -10    0.60    0.33
  -3   7  -9    6.35    0.70
  -3   7  -9    6.97    0.77
  -3   7  -8    3.81    0.55
  -3   7  -8    4.34    0.56
  -3   7  -7    7.87    0.72
  -3   7  -7    8.56    0.75
  -3   7  -6   10.63    0.80
  -3   7  -6    8.26    0.75
  -3   7  -6    9.93    0.79
  -3   7  -5   51.30    1.92
  -3   7  -5   51.67    1.92
  -3   7  -5   56.02    2.08
  -3   7  -4   35.75    1.51
  -3   7  -4   33.34    1.55
  -3   7  -4   38.79    1.55
  -3   7  -3   67.83    2.25
  -3   7  -3   69.84    2.42
  -3   7  -2  106.08    3.23
  -3   7  -2  104.08    3.03
  -3   7  -1  106.39    3.12
  -3   7  -1  105.97    3.27
  -3   7   0  109.60    3.37
  -3   7   0  102.76    3.15
  -3   7   1   40.62    1.79
  -3   7   1   42.46    1.91
  -3   7   2   62.15    2.50
  -3   7   3   43.28    2.09
  -3   7   4   36.26    1.96
  -3   7   5   18.96    1.44
  -3   7   6   18.85    1.51
  -3   7   7    8.22    1.05
  -3   7   8    5.45    0.90
  -3   8 -14    2.52    0.66
  -3   8 -14    2.48    0.60
  -3   8 -13    6.39    0.94
  -3   8 -13    5.91    0.84
  -3   8 -12   10.85    1.08
  -3   8 -12   11.33    1.17
  -3   8 -11   21.03    1.44
  -3   8 -11   17.41    1.38
  -3   8 -10   20.35    1.34
  -3   8 -10   17.43    1.33
  -3   8  -9   41.61    1.93
  -3   8  -9   40.60    1.97
  -3   8  -8   28.45    1.48
  -3   8  -8   24.21    1.44
  -3   8  -7   24.95    1.35
  -3   8  -7   25.42    1.40
  -3   8  -7   25.44    1.43
  -3   8  -6   21.46    1.22
  -3   8  -6   23.10    1.34
  -3   8  -6   21.69    1.25
  -3   8  -5   20.73    1.18
  -3   8  -5   23.00    1.33
  -3   8  -5   22.76    1.25
  -3   8  -4   10.59    0.88
  -3   8  -4   10.54    0.83
  -3   8  -3   15.92    1.03
  -3   8  -3   15.28    1.08
  -3   8  -2    8.30    0.76
  -3   8  -2    9.06    0.84
  -3   8  -1    5.70    0.64
  -3   8  -1    5.23    0.65
  -3   8   0    5.22    0.68
  -3   8   0    5.06    0.62
  -3   8   1    1.44    0.40
  -3   8   1    1.59    0.41
  -3   8   2    0.76    0.32
  -3   8   3    3.27    0.62
  -3   8   4    0.01    0.19
  -3   8   5    3.08    0.65
  -3   8   6    0.94    0.36
  -3   9 -14    0.69    0.38
  -3   9 -13    1.98    0.51
  -3   9 -13    1.55    0.62
  -3   9 -12    0.71    0.35
  -3   9 -12    0.59    0.41
  -3   9 -11    4.46    0.68
  -3   9 -11    4.11    0.70
  -3   9 -10    4.51    0.63
  -3   9 -10    3.59    0.63
  -3   9  -9    8.19    0.82
  -3   9  -9    8.68    0.93
  -3   9  -8    9.25    0.85
  -3   9  -8    8.40    0.87
  -3   9  -8    8.13    0.86
  -3   9  -7   47.39    2.02
  -3   9  -7   50.71    2.20
  -3   9  -7   45.21    2.07
  -3   9  -6   45.90    1.97
  -3   9  -6   50.91    2.19
  -3   9  -6   46.38    2.05
  -3   9  -5   53.22    2.30
  -3   9  -5   58.74    2.31
  -3   9  -4   30.42    1.60
  -3   9  -4   35.31    1.78
  -3   9  -3   36.29    1.77
  -3   9  -3   36.98    1.88
  -3   9  -2   60.07    2.43
  -3   9  -2   62.35    2.57
  -3   9  -1   35.55    1.82
  -3   9  -1   36.59    1.93
  -3   9   0   38.25    1.95
  -3   9   0   39.51    2.06
  -3   9   1   28.05    1.76
  -3   9   2   31.23    1.94
  -3   9   3   12.13    1.24
  -3   9   4   18.37    1.57
  -3   9   5    5.30    0.90
  -3  10 -13    6.21    0.99
  -3  10 -12    2.16    0.61
  -3  10 -11    4.01    0.67
  -3  10 -11    5.49    0.83
  -3  10 -10    7.35    0.84
  -3  10 -10    7.55    0.93
  -3  10  -9    2.96    0.56
  -3  10  -9    2.59    0.53
  -3  10  -9    2.16    0.49
  -3  10  -8    3.29    0.59
  -3  10  -8    3.37    0.56
  -3  10  -8    4.85    0.65
  -3  10  -7    7.79    0.78
  -3  10  -7    9.55    0.96
  -3  10  -7    8.00    0.85
  -3  10  -6    9.66    0.96
  -3  10  -6    9.53    0.92
  -3  10  -5    3.75    0.62
  -3  10  -5    4.05    0.61
  -3  10  -4   -0.14    0.22
  -3  10  -4    0.10    0.24
  -3  10  -3    0.77    0.34
  -3  10  -3    1.31    0.41
  -3  10  -2    1.15    0.34
  -3  10  -2    1.30    0.41
  -3  10  -1    5.87    0.81
  -3  10  -1    5.18    0.73
  -3  10   0    4.98    0.74
  -3  10   0    4.71    0.76
  -3  10   1   10.18    1.13
  -3  10   2   15.81    1.45
  -3  10   3   12.45    1.35
  -3  11 -12    4.39    0.85
  -3  11 -11   11.06    1.21
  -3  11 -10    9.91    1.09
  -3  11  -9   20.51    1.52
  -3  11  -9   19.35    1.48
  -3  11  -8   13.56    1.19
  -3  11  -8   12.67    1.18
  -3  11  -7   27.70    1.74
  -3  11  -7   29.85    1.83
  -3  11  -6   25.63    1.67
  -3  11  -6   29.76    1.82
  -3  11  -5   26.92    1.72
  -3  11  -5   29.64    1.83
  -3  11  -4   23.82    1.60
  -3  11  -4   23.14    1.63
  -3  11  -3   19.34    1.45
  -3  11  -3   20.58    1.56
  -3  11  -2   21.22    1.61
  -3  11  -2   19.67    1.49
  -3  11  -1   13.01    1.28
  -3  11  -1   12.89    1.25
  -3  11   0   13.78    1.35
  -3  11   0   11.95    1.27
  -3  11   1    2.88    0.62
  -3  12 -10   -0.01    0.24
  -3  12  -9    0.23    0.20
  -3  12  -8    1.73    0.47
  -3  12  -8    0.99    0.42
  -3  12  -7    2.15    0.51
  -3  12  -7    1.45    0.43
  -3  12  -6    1.68    0.47
  -3  12  -6    1.84    0.53
  -3  12  -5    4.17    0.75
  -3  12  -5    2.76    0.58
  -3  12  -4    6.32    0.90
  -3  12  -4    4.91    0.80
  -3  12  -3   12.76    1.31
  -3  12  -3   11.70    1.23
  -3  12  -2   13.19    1.30
  -3  12  -2   13.13    1.35
  -3  12  -1    6.38    0.95
  -3  13  -7   13.49    1.34
  -3  13  -6    9.98    1.18
  -3  13  -5    7.05    1.02
  -2 -11   3   -0.05    0.14
  -2 -11   4    0.05    0.09
  -2 -11   5    0.00    0.30
  -2 -11   6    2.31    0.63
  -2 -11   7    3.44    0.74
  -2 -11   8    8.13    1.10
  -2 -10   1   16.47    1.49
  -2 -10   1   15.69    1.39
  -2 -10   2   18.07    1.53
  -2 -10   2   16.47    1.43
  -2 -10   3   20.03    1.59
  -2 -10   4   17.01    1.45
  -2 -10   5   17.18    1.47
  -2 -10   6   15.53    1.38
  -2 -10   7   13.37    1.30
  -2 -10   8    9.78    1.11
  -2 -10   9    8.77    1.07
  -2 -10  10    3.66    0.76
  -2 -10  11    2.05    0.56
  -2  -9  -2   -0.37    0.32
  -2  -9  -1   -0.14    0.30
  -2  -9   0   -0.52    0.27
  -2  -9   0   -0.39    0.23
  -2  -9   1    4.51    0.73
  -2  -9   1    3.80    0.65
  -2  -9   2    6.09    0.83
  -2  -9   3    8.22    0.93
  -2  -9   4   24.64    1.63
  -2  -9   5   20.56    1.50
  -2  -9   6   22.42    1.57
  -2  -9   7   32.01    1.93
  -2  -9   8   34.32    2.02
  -2  -9   9   23.15    1.68
  -2  -9  10   24.75    1.80
  -2  -9  11   17.66    1.55
  -2  -9  12   15.49    1.51
  -2  -8  -4   10.83    1.33
  -2  -8  -3   13.41    1.37
  -2  -8  -2   20.32    1.61
  -2  -8  -1   16.14    1.28
  -2  -8  -1   17.38    1.32
  -2  -8  -1   19.09    1.47
  -2  -8   0   30.47    1.77
  -2  -8   0   32.98    1.84
  -2  -8   0   31.50    1.81
  -2  -8   1   29.72    1.71
  -2  -8   1   28.44    1.59
  -2  -8   2   17.59    1.27
  -2  -8   3   19.14    1.32
  -2  -8   4   19.84    1.35
  -2  -8   5    6.70    0.80
  -2  -8   6    3.15    0.58
  -2  -8   7    5.27    0.72
  -2  -8   8   -0.27    0.27
  -2  -8   9   -0.05    0.25
  -2  -8  10    0.54    0.38
  -2  -8  11    0.57    0.32
  -2  -8  12   -0.05    0.24
  -2  -8  13    1.49    0.51
  -2  -7  -5    1.62    0.57
  -2  -7  -4    3.88    0.77
  -2  -7  -3    9.98    1.11
  -2  -7  -2   10.66    0.98
  -2  -7  -2   10.89    0.98
  -2  -7  -2   12.60    1.18
  -2  -7  -1   23.54    1.44
  -2  -7  -1   22.71    1.44
  -2  -7  -1   24.28    1.55
  -2  -7   0   35.38    1.76
  -2  -7   0   33.84    1.78
  -2  -7   0   38.78    1.86
  -2  -7   1   32.65    1.67
  -2  -7   1   34.74    1.65
  -2  -7   2   41.65    1.90
  -2  -7   3   30.77    1.58
  -2  -7   4   41.96    1.91
  -2  -7   5   66.07    2.56
  -2  -7   6   62.24    2.50
  -2  -7   7   47.72    2.17
  -2  -7   8   58.02    2.49
  -2  -7   9   31.83    1.83
  -2  -7  10   25.86    1.69
  -2  -7  11   12.58    1.24
  -2  -7  12    8.41    1.03
  -2  -7  13   10.62    1.23
  -2  -7  14   10.40    1.25
  -2  -6  -6    8.63    1.16
  -2  -6  -5    9.32    1.15
  -2  -6  -4   16.09    1.41
  -2  -6  -3   11.96    1.01
  -2  -6  -3   13.07    1.18
  -2  -6  -2   13.79    1.02
  -2  -6  -2   12.64    1.00
  -2  -6  -2   12.94    1.11
  -2  -6  -1   27.97    1.43
  -2  -6  -1   25.71    1.44
  -2  -6  -1   27.81    1.55
  -2  -6   0   20.27    1.18
  -2  -6   0   20.20    1.22
  -2  -6   1    8.33    0.73
  -2  -6   1    8.23    0.71
  -2  -6   2    7.86    0.71
  -2  -6   3    0.56    0.24
  -2  -6   4    0.86    0.28
  -2  -6   5    6.52    0.68
  -2  -6   6    6.34    0.68
  -2  -6   7    1.55    0.41
  -2  -6   8    7.66    0.82
  -2  -6   9   10.49    1.00
  -2  -6  10    7.55    0.87
  -2  -6  11    6.99    0.88
  -2  -6  12   10.43    1.12
  -2  -6  13    4.54    0.81
  -2  -6  14    2.13    0.64
  -2  -5  -7    4.90    0.88
  -2  -5  -6    7.50    1.01
  -2  -5  -5   17.88    1.47
  -2  -5  -4   18.15    1.22
  -2  -5  -4   18.22    1.40
  -2  -5  -3   20.56    1.17
  -2  -5  -3   19.84    1.37
  -2  -5  -3   18.25    1.18
  -2  -5  -2   10.29    0.85
  -2  -5  -2   12.19    0.85
  -2  -5  -2   13.34    1.04
  -2  -5  -1   17.21    1.00
  -2  -5  -1   16.83    1.06
  -2  -5  -1   18.30    1.14
  -2  -5   0   96.55    2.86
  -2  -5   0   99.95    2.98
  -2  -5   1  111.79    3.17
  -2  -5   1  115.48    3.17
  -2  -5   2   79.32    2.48
  -2  -5   3  146.59    3.89
  -2  -5   4  142.60    3.88
  -2  -5   5   46.27    1.84
  -2  -5   6   25.21    1.33
  -2  -5   7   21.39    1.27
  -2  -5   8   28.77    1.56
  -2  -5   8   30.93    1.30
  -2  -5   9   24.53    1.49
  -2  -5   9   25.26    1.19
  -2  -5  10   19.01    1.36
  -2  -5  11    6.84    0.85
  -2  -5  11    7.56    0.90
  -2  -5  12    4.12    0.70
  -2  -5  13    0.78    0.43
  -2  -5  14    1.37    0.46
  -2  -4  -9    1.84    0.58
  -2  -4  -8    6.62    1.01
  -2  -4  -7    4.55    0.81
  -2  -4  -6    6.59    0.89
  -2  -4  -5   10.91    0.93
  -2  -4  -5   12.47    1.15
  -2  -4  -4   11.20    0.80
  -2  -4  -4   10.19    0.98
  -2  -4  -4   10.27    0.85
  -2  -4  -3    0.55    0.22
  -2  -4  -3    0.22    0.13
  -2  -4  -2   11.42    0.74
  -2  -4  -2   11.62    0.82
  -2  -4  -2   10.98    0.87
  -2  -4  -1   14.94    0.82
  -2  -4  -1   13.53    0.88
  -2  -4  -1   14.52    0.94
  -2  -4   0    1.24    0.25
  -2  -4   0    0.63    0.22
  -2  -4   1    0.64    0.19
  -2  -4   1    0.46    0.17
  -2  -4   2   10.53    0.68
  -2  -4   3    2.40    0.34
  -2  -4   4   52.51    1.83
  -2  -4   5   43.17    1.68
  -2  -4   6   25.74    1.30
  -2  -4   7   33.30    1.57
  -2  -4   7   35.00    1.28
  -2  -4   8   46.38    2.01
  -2  -4   8   50.49    1.67
  -2  -4   9   26.03    1.49
  -2  -4   9   23.64    1.10
  -2  -4  10   26.19    1.58
  -2  -4  10   25.17    1.57
  -2  -4  11   18.70    1.42
  -2  -4  12   12.68    1.21
  -2  -4  13   13.91    1.37
  -2  -4  14    4.71    0.87
  -2  -3 -10    7.96    1.11
  -2  -3  -9   12.68    1.32
  -2  -3  -8   10.62    1.16
  -2  -3  -7   18.24    1.45
  -2  -3  -6   15.46    1.25
  -2  -3  -6   15.03    1.10
  -2  -3  -5   42.56    1.62
  -2  -3  -5   39.18    1.77
  -2  -3  -5   38.37    1.95
  -2  -3  -4   78.89    2.36
  -2  -3  -4   78.35    2.60
  -2  -3  -4   80.40    2.85
  -2  -3  -3   72.49    2.55
  -2  -3  -3   73.02    2.15
  -2  -3  -3   74.52    2.38
  -2  -3  -2  112.35    3.12
  -2  -3  -2  112.94    2.87
  -2  -3  -2  112.76    3.25
  -2  -3  -1  180.02    4.35
  -2  -3  -1  177.21    4.07
  -2  -3  -1  170.89    4.33
  -2  -3   0   99.34    2.53
  -2  -3   0   98.80    2.66
  -2  -3   1   74.86    2.06
  -2  -3   2   49.87    1.57
  -2  -3   3   88.42    2.43
  -2  -3   4  135.21    3.45
  -2  -3   5   77.37    2.37
  -2  -3   6   54.01    1.97
  -2  -3   6   56.57    1.61
  -2  -3   7   46.68    1.86
  -2  -3   7   45.88    1.45
  -2  -3   8   15.28    1.05
  -2  -3   8   15.34    0.88
  -2  -3   8   15.99    0.81
  -2  -3   9    3.56    0.57
  -2  -3   9    3.34    0.40
  -2  -3   9    3.76    0.44
  -2  -3  10    8.68    0.90
  -2  -3  11    0.47    0.33
  -2  -3  12   -0.16    0.27
  -2  -3  13    0.12    0.28
  -2  -3  14    0.44    0.41
  -2  -2 -11    1.08    0.50
  -2  -2 -10    4.21    0.79
  -2  -2  -9    1.68    0.51
  -2  -2  -8    2.36    0.53
  -2  -2  -7    1.70    0.48
  -2  -2  -7    0.99    0.37
  -2  -2  -6    3.34    0.57
  -2  -2  -6    3.25    0.50
  -2  -2  -5   -0.21    0.18
  -2  -2  -5    0.27    0.22
  -2  -2  -4   -0.03    0.24
  -2  -2  -4    0.12    0.15
  -2  -2  -3   15.66    0.71
  -2  -2  -3   14.74    0.94
  -2  -2  -3   14.88    0.86
  -2  -2  -2    2.60    0.25
  -2  -2  -2    3.03    0.36
  -2  -2  -2    2.50    0.35
  -2  -2  -1    5.77    0.36
  -2  -2  -1    6.47    0.49
  -2  -2  -1    5.69    0.47
  -2  -2   0   99.45    2.36
  -2  -2   0   98.64    2.52
  -2  -2   1   60.70    1.64
  -2  -2   2   83.40    2.16
  -2  -2   3  132.86    3.23
  -2  -2   4  182.08    4.31
  -2  -2   5  112.94    3.07
  -2  -2   5  114.88    2.61
  -2  -2   6  102.88    3.02
  -2  -2   6  107.48    2.55
  -2  -2   7   71.57    1.99
  -2  -2   7   74.56    2.46
  -2  -2   7   71.93    2.16
  -2  -2   8   91.60    2.48
  -2  -2   8   87.53    2.94
  -2  -2   8   88.14    2.57
  -2  -2   9   37.21    1.83
  -2  -2   9   36.91    1.48
  -2  -2   9   38.49    1.46
  -2  -2  10   23.22    1.50
  -2  -2  11   26.77    1.74
  -2  -2  12    5.32    0.82
  -2  -2  13    1.74    0.50
  -2  -2  13    1.21    0.43
  -2  -2  14    3.16    0.70
  -2  -1 -12    2.60    0.61
  -2  -1 -11    9.33    1.10
  -2  -1 -10    6.93    0.93
  -2  -1  -9   14.63    1.24
  -2  -1  -8   21.70    1.46
  -2  -1  -7   58.85    2.47
  -2  -1  -7   69.27    2.59
  -2  -1  -6   56.25    2.23
  -2  -1  -6   55.58    2.20
  -2  -1  -5   70.18    2.42
  -2  -1  -5   68.36    2.35
  -2  -1  -4  145.87    3.78
  -2  -1  -4  140.37    3.80
  -2  -1  -3  194.55    4.66
  -2  -1  -3  197.72    4.71
  -2  -1  -2   64.87    1.53
  -2  -1  -2   64.35    1.89
  -2  -1  -2   62.07    1.89
  -2  -1  -1  189.46    3.90
  -2  -1  -1  192.24    4.28
  -2  -1  -1  184.32    4.24
  -2  -1   0  222.28    4.66
  -2  -1   0  235.21    4.95
  -2  -1   1   80.12    1.67
  -2  -1   1   75.11    1.87
  -2  -1   2   42.86    1.26
  -2  -1   3   76.43    2.10
  -2  -1   3   80.14    1.69
  -2  -1   4    0.26    0.06
  -2  -1   4    0.19    0.12
  -2  -1   4    0.08    0.12
  -2  -1   5    4.61    0.44
  -2  -1   5    4.35    0.39
  -2  -1   5    4.93    0.31
  -2  -1   6   -0.02    0.13
  -2  -1   6    0.10    0.12
  -2  -1   6    0.21    0.10
  -2  -1   7    0.13    0.21
  -2  -1   7    0.23    0.14
  -2  -1   7    0.36    0.13
  -2  -1   8    0.04    0.20
  -2  -1   8    0.15    0.13
  -2  -1   8    0.21    0.12
  -2  -1   9    6.34    0.75
  -2  -1   9    7.02    0.59
  -2  -1  10    1.40    0.46
  -2  -1  11    2.23    0.52
  -2  -1  11    2.61    0.59
  -2  -1  12    5.57    0.87
  -2  -1  13    7.29    1.04
  -2   0 -12    1.69    0.53
  -2   0 -11    0.33    0.29
  -2   0 -10    0.47    0.31
  -2   0  -9    0.44    0.27
  -2   0  -8    0.41    0.26
  -2   0  -7    6.46    0.70
  -2   0  -7    6.65    0.69
  -2   0  -6    9.60    0.82
  -2   0  -6    8.14    0.72
  -2   0  -5   47.70    1.85
  -2   0  -5   46.27    1.74
  -2   0  -4   65.38    2.13
  -2   0  -4   66.07    2.05
  -2   0  -3  121.62    3.12
  -2   0  -3  118.56    3.02
  -2   0  -2  166.32    4.00
  -2   0  -2  181.72    3.96
  -2   0  -1  142.86    3.09
  -2   0  -1  139.80    3.24
  -2   0   0  181.24    3.69
  -2   0   0  183.61    3.72
  -2   0   0  176.43    3.90
  -2   0   1  267.91    5.38
  -2   0   1  268.98    5.43
  -2   0   2  109.36    2.55
  -2   0   2  114.45    2.30
  -2   0   2  112.98    2.59
  -2   0   2  111.17    2.67
  -2   0   3  157.84    3.64
  -2   0   3  152.83    3.62
  -2   0   3  159.86    3.21
  -2   0   3  156.04    3.63
  -2   0   3  160.11    3.28
  -2   0   4  351.75    7.46
  -2   0   4  337.61    7.02
  -2   0   4  345.78    7.35
  -2   0   4  350.79    6.98
  -2   0   5  168.58    4.07
  -2   0   5  159.23    3.85
  -2   0   5  156.33    3.56
  -2   0   6  148.22    3.96
  -2   0   6  149.32    3.50
  -2   0   6  144.52    3.71
  -2   0   7   55.95    2.13
  -2   0   7   52.11    1.71
  -2   0   7   52.13    1.83
  -2   0   8   17.59    0.96
  -2   0   8   17.75    1.21
  -2   0   9   15.34    1.20
  -2   0   9   17.10    1.26
  -2   0   9   16.20    0.99
  -2   0  10   23.31    1.56
  -2   0  11    9.27    1.04
  -2   0  12    3.41    0.68
  -2   0  13    2.34    0.63
  -2   1 -12    5.99    0.87
  -2   1 -12    5.19    0.78
  -2   1 -11    9.96    1.02
  -2   1 -10    8.16    0.85
  -2   1  -9   21.57    1.34
  -2   1  -8   44.08    1.88
  -2   1  -7   34.72    1.53
  -2   1  -6   13.94    0.85
  -2   1  -5   82.12    2.67
  -2   1  -5   83.86    2.39
  -2   1  -4   65.37    1.89
  -2   1  -4   65.29    2.17
  -2   1  -3   85.84    1.84
  -2   1  -3   82.47    2.21
  -2   1  -3   91.16    2.50
  -2   1  -3   86.36    2.18
  -2   1  -2   85.79    2.13
  -2   1  -2   89.74    2.34
  -2   1  -2   87.51    1.95
  -2   1  -1    4.14    0.27
  -2   1  -1    4.45    0.33
  -2   1   0   30.94    0.98
  -2   1   0   33.24    0.90
  -2   1   0   33.00    0.90
  -2   1   0   31.83    0.93
  -2   1   1    2.42    0.21
  -2   1   1    2.19    0.24
  -2   1   1    2.30    0.18
  -2   1   1    2.30    0.15
  -2   1   2    0.32    0.13
  -2   1   2    0.12    0.11
  -2   1   2    0.24    0.09
  -2   1   3    1.47    0.18
  -2   1   3    1.12    0.21
  -2   1   3    1.58    0.16
  -2   1   3    1.23    0.22
  -2   1   4    9.64    0.64
  -2   1   4   11.08    0.57
  -2   1   4    9.81    0.50
  -2   1   4   10.80    0.68
  -2   1   5   28.10    1.22
  -2   1   5   27.74    1.03
  -2   1   5   26.72    1.07
  -2   1   5   27.18    1.24
  -2   1   6    6.88    0.60
  -2   1   6    6.48    0.51
  -2   1   6    6.21    0.63
  -2   1   7   52.03    1.91
  -2   1   7   52.48    1.81
  -2   1   7   49.90    2.05
  -2   1   8   75.18    2.41
  -2   1   8   74.44    2.41
  -2   1   8   68.86    2.41
  -2   1   8   68.02    2.64
  -2   1   9   35.17    1.88
  -2   1   9   37.13    1.71
  -2   1   9   38.47    1.70
  -2   1  10    9.56    1.01
  -2   1  10   11.82    0.97
  -2   1  11   12.38    1.22
  -2   1  12    5.29    0.86
  -2   2 -13    0.26    0.32
  -2   2 -12   -0.33    0.35
  -2   2 -12   -0.27    0.22
  -2   2 -11    1.91    0.53
  -2   2 -11    3.53    0.58
  -2   2 -10    6.28    0.78
  -2   2 -10    6.03    0.70
  -2   2  -9   13.72    1.07
  -2   2  -9   15.35    1.03
  -2   2  -8   18.24    1.15
  -2   2  -8   18.44    1.06
  -2   2  -7   80.86    2.65
  -2   2  -7   84.55    2.51
  -2   2  -6   56.35    1.97
  -2   2  -6   58.98    1.84
  -2   2  -5   68.35    2.08
  -2   2  -5   66.88    1.90
  -2   2  -4  206.21    4.64
  -2   2  -4  198.49    4.40
  -2   2  -3  216.78    4.95
  -2   2  -3  233.88    4.70
  -2   2  -2  124.20    2.77
  -2   2  -2  120.26    2.65
  -2   2  -2  117.48    2.83
  -2   2  -2  120.38    2.80
  -2   2  -1  678.69   12.31
  -2   2  -1  644.97   12.31
  -2   2   0 1000.00   14.33
  -2   2   0  950.99   14.30
  -2   2   0  978.05   14.04
  -2   2   1  581.21   10.91
  -2   2   1  612.58   10.99
  -2   2   2  228.15    4.84
  -2   2   2  228.03    4.93
  -2   2   3   88.50    2.29
  -2   2   3   86.57    2.38
  -2   2   3   82.89    2.50
  -2   2   4  133.84    3.44
  -2   2   4  129.90    3.20
  -2   2   4  130.11    3.51
  -2   2   4  131.00    3.29
  -2   2   5   57.95    2.01
  -2   2   5   53.01    1.83
  -2   2   5   56.19    1.98
  -2   2   5   55.98    1.79
  -2   2   6   46.56    1.79
  -2   2   6   43.99    1.64
  -2   2   6   44.37    1.71
  -2   2   6   41.47    1.77
  -2   2   7   23.33    1.25
  -2   2   7   21.93    1.17
  -2   2   7   20.77    1.28
  -2   2   8   20.10    1.33
  -2   2   8   20.07    1.19
  -2   2   8   19.81    1.22
  -2   2   9    1.77    0.46
  -2   2   9    1.71    0.40
  -2   2   9    1.74    0.37
  -2   2  10    2.34    0.55
  -2   2  10    4.46    0.65
  -2   2  11    1.38    0.48
  -2   2  12    0.42    0.33
  -2   3 -13    5.19    0.87
  -2   3 -12    7.62    0.96
  -2   3 -11    6.85    0.87
  -2   3 -10    9.77    0.95
  -2   3 -10   10.39    0.83
  -2   3  -9   29.03    1.57
  -2   3  -9   30.96    1.39
  -2   3  -8   56.10    1.88
  -2   3  -8   54.36    2.12
  -2   3  -7   61.91    2.19
  -2   3  -7   65.40    1.94
  -2   3  -6    3.58    0.44
  -2   3  -6    3.47    0.32
  -2   3  -5    0.19    0.17
  -2   3  -5    0.52    0.12
  -2   3  -4    4.49    0.38
  -2   3  -4    4.09    0.38
  -2   3  -3    3.62    0.30
  -2   3  -3    3.32    0.33
  -2   3  -3    3.72    0.33
  -2   3  -2   19.96    0.79
  -2   3  -2   20.13    0.82
  -2   3  -2   21.38    0.74
  -2   3  -1    0.25    0.16
  -2   3  -1    0.21    0.08
  -2   3  -1    0.09    0.10
  -2   3  -1    0.06    0.10
  -2   3   0    6.71    0.53
  -2   3   0    7.57    0.41
  -2   3   0    6.79    0.45
  -2   3   1   27.62    1.20
  -2   3   1   27.53    1.04
  -2   3   1   28.63    0.98
  -2   3   2   36.98    1.51
  -2   3   2   40.58    1.38
  -2   3   2   38.90    1.34
  -2   3   3  106.10    2.89
  -2   3   3  105.12    3.10
  -2   3   3  112.42    2.94
  -2   3   4   91.49    2.81
  -2   3   4   85.78    2.60
  -2   3   4   86.01    2.58
  -2   3   5   40.62    1.69
  -2   3   5   41.37    1.68
  -2   3   5   44.01    1.66
  -2   3   6   31.70    1.55
  -2   3   6   32.83    1.48
  -2   3   6   31.18    1.50
  -2   3   7   24.66    1.36
  -2   3   7   25.71    1.47
  -2   3   7   26.33    1.44
  -2   3   8   20.33    1.29
  -2   3   8   21.83    1.38
  -2   3   8   21.58    1.42
  -2   3   9   19.63    1.35
  -2   3   9   18.81    1.42
  -2   3   9   22.10    1.46
  -2   3  10    5.53    0.81
  -2   3  10    5.95    0.79
  -2   3  11    5.38    0.87
  -2   3  11    4.71    0.79
  -2   4 -14    0.96    0.50
  -2   4 -14    1.83    0.61
  -2   4 -13    3.66    0.69
  -2   4 -13    2.63    0.65
  -2   4 -12    5.26    0.80
  -2   4 -12    4.81    0.77
  -2   4 -11   18.74    1.40
  -2   4 -11   19.69    1.39
  -2   4 -10   17.68    1.29
  -2   4 -10   19.04    1.29
  -2   4  -9   35.49    1.78
  -2   4  -9   36.25    1.72
  -2   4  -9   35.43    1.37
  -2   4  -8   31.08    1.49
  -2   4  -8   32.04    1.17
  -2   4  -8   30.45    1.52
  -2   4  -7   50.11    1.85
  -2   4  -7   48.80    1.87
  -2   4  -7   48.62    1.45
  -2   4  -6  105.37    2.98
  -2   4  -6  107.10    2.96
  -2   4  -5  253.47    5.78
  -2   4  -5  257.39    5.79
  -2   4  -4  201.84    4.61
  -2   4  -4  198.84    4.64
  -2   4  -4  200.16    4.59
  -2   4  -3  184.69    4.23
  -2   4  -3  183.85    4.28
  -2   4  -3  184.48    4.18
  -2   4  -2   77.37    2.09
  -2   4  -2   75.12    2.13
  -2   4  -2   78.98    2.05
  -2   4  -1   90.57    2.29
  -2   4  -1   88.43    2.40
  -2   4   0  140.68    3.32
  -2   4   0  137.27    3.43
  -2   4   1   58.20    1.79
  -2   4   1   59.10    1.88
  -2   4   2   50.80    1.71
  -2   4   2   54.80    1.85
  -2   4   3   47.96    1.73
  -2   4   3   49.78    1.84
  -2   4   4   26.67    1.33
  -2   4   4   24.65    1.23
  -2   4   5    3.25    0.50
  -2   4   5    2.98    0.46
  -2   4   6   11.88    0.95
  -2   4   6   12.17    0.98
  -2   4   7   -0.18    0.21
  -2   4   7   -0.29    0.28
  -2   4   8   -0.52    0.31
  -2   4   8   -0.11    0.26
  -2   4   9    0.54    0.34
  -2   4   9    0.43    0.33
  -2   4  10    0.55    0.33
  -2   4  10    2.17    0.58
  -2   4  11    0.95    0.42
  -2   4  11    0.66    0.37
  -2   5 -14    2.81    0.68
  -2   5 -14    2.88    0.70
  -2   5 -13    3.75    0.73
  -2   5 -13    4.95    0.80
  -2   5 -12    7.05    0.91
  -2   5 -12    6.38    0.82
  -2   5 -11    0.59    0.35
  -2   5 -11    1.10    0.39
  -2   5 -10    0.03    0.23
  -2   5 -10    0.30    0.29
  -2   5  -9    1.36    0.38
  -2   5  -9    1.28    0.36
  -2   5  -8    0.03    0.23
  -2   5  -8    0.22    0.19
  -2   5  -7   10.36    0.79
  -2   5  -7   10.66    0.77
  -2   5  -6    0.82    0.25
  -2   5  -6    1.15    0.28
  -2   5  -5    0.19    0.16
  -2   5  -5    0.18    0.14
  -2   5  -5    0.41    0.18
  -2   5  -4   17.80    0.86
  -2   5  -4   17.45    0.90
  -2   5  -4   17.27    0.87
  -2   5  -3   33.35    1.25
  -2   5  -3   34.86    1.33
  -2   5  -3   34.23    1.27
  -2   5  -2   50.44    1.71
  -2   5  -2   51.35    1.64
  -2   5  -2   51.28    1.64
  -2   5  -1   81.75    2.29
  -2   5  -1   80.07    2.38
  -2   5   0   93.55    2.63
  -2   5   0   96.99    2.76
  -2   5   1  112.86    3.23
  -2   5   1  118.05    3.16
  -2   5   2   75.76    2.51
  -2   5   3   70.46    2.48
  -2   5   4   90.95    3.00
  -2   5   4   82.16    2.72
  -2   5   5   39.29    1.77
  -2   5   5   39.78    1.92
  -2   5   6   27.20    1.54
  -2   5   6   31.24    1.74
  -2   5   7   27.99    1.66
  -2   5   7   34.43    1.91
  -2   5   8   14.49    1.28
  -2   5   8   14.48    1.23
  -2   5   9    4.04    0.69
  -2   5   9    5.07    0.81
  -2   5  10    3.91    0.70
  -2   5  10    3.57    0.72
  -2   6 -14    3.71    0.80
  -2   6 -14    2.87    0.68
  -2   6 -13    3.09    0.67
  -2   6 -13    3.47    0.68
  -2   6 -12    3.88    0.69
  -2   6 -12    3.93    0.68
  -2   6 -11   21.43    1.51
  -2   6 -11   20.81    1.39
  -2   6 -10   23.28    1.47
  -2   6 -10   22.53    1.36
  -2   6  -9   27.29    1.52
  -2   6  -9   27.30    1.43
  -2   6  -8   45.50    1.83
  -2   6  -8   45.66    1.94
  -2   6  -7   78.19    2.48
  -2   6  -7   75.88    2.56
  -2   6  -6   34.53    1.42
  -2   6  -6   33.89    1.45
  -2   6  -6   35.81    1.51
  -2   6  -5   74.71    2.28
  -2   6  -5   75.72    2.38
  -2   6  -5   75.72    2.37
  -2   6  -4   82.86    2.42
  -2   6  -4   84.06    2.53
  -2   6  -4   83.25    2.50
  -2   6  -3   41.24    1.50
  -2   6  -3   40.37    1.59
  -2   6  -3   42.20    1.57
  -2   6  -2   35.28    1.41
  -2   6  -2   34.58    1.46
  -2   6  -1   28.68    1.27
  -2   6  -1   27.27    1.30
  -2   6   0    9.90    0.74
  -2   6   0    9.44    0.76
  -2   6   1    1.29    0.32
  -2   6   1    1.71    0.37
  -2   6   2    0.77    0.29
  -2   6   3    0.46    0.27
  -2   6   4   -0.40    0.29
  -2   6   5    2.45    0.53
  -2   6   6   -0.35    0.29
  -2   6   6    0.19    0.30
  -2   6   7    0.20    0.32
  -2   6   7   -0.22    0.33
  -2   6   8    0.57    0.40
  -2   6   8    0.97    0.41
  -2   6   9    3.79    0.74
  -2   7 -14   -0.32    0.39
  -2   7 -14   -0.05    0.23
  -2   7 -13   -0.93    0.46
  -2   7 -13    0.38    0.26
  -2   7 -12    0.64    0.39
  -2   7 -12    0.71    0.36
  -2   7 -11    1.09    0.45
  -2   7 -11    1.12    0.39
  -2   7 -10    5.86    0.70
  -2   7 -10    6.16    0.78
  -2   7  -9   16.78    1.10
  -2   7  -9   16.08    1.17
  -2   7  -8   15.37    1.00
  -2   7  -8   15.25    1.09
  -2   7  -7   34.75    1.51
  -2   7  -7   36.47    1.60
  -2   7  -7   31.36    1.55
  -2   7  -6   53.17    1.92
  -2   7  -6   54.16    2.02
  -2   7  -6   54.38    2.05
  -2   7  -5   60.52    2.04
  -2   7  -5   62.03    2.17
  -2   7  -5   59.74    2.15
  -2   7  -4   71.92    2.27
  -2   7  -4   75.45    2.46
  -2   7  -4   69.88    2.37
  -2   7  -3   92.77    2.82
  -2   7  -3   91.20    2.87
  -2   7  -2   38.63    1.62
  -2   7  -2   37.45    1.65
  -2   7  -1   46.73    1.86
  -2   7  -1   46.62    1.92
  -2   7   0   66.70    2.40
  -2   7   0   67.29    2.49
  -2   7   1   60.89    2.39
  -2   7   1   58.02    2.29
  -2   7   2   66.43    2.63
  -2   7   3   37.41    1.96
  -2   7   4   23.62    1.58
  -2   7   5   12.90    1.21
  -2   7   6    9.91    1.11
  -2   7   7    2.01    0.54
  -2   8 -14    3.69    0.78
  -2   8 -14    2.75    0.55
  -2   8 -13    8.16    1.06
  -2   8 -13    8.63    0.98
  -2   8 -12   11.13    1.07
  -2   8 -12   12.96    1.25
  -2   8 -11   13.55    1.09
  -2   8 -11   11.31    1.14
  -2   8 -10    9.14    0.86
  -2   8 -10    7.61    0.89
  -2   8  -9   20.25    1.23
  -2   8  -9   18.76    1.31
  -2   8  -8   13.40    0.96
  -2   8  -8   14.06    1.03
  -2   8  -8   12.93    1.04
  -2   8  -7   14.64    0.96
  -2   8  -7   14.25    1.05
  -2   8  -7   14.28    1.02
  -2   8  -6   14.33    0.93
  -2   8  -6   13.78    0.98
  -2   8  -6   13.56    1.00
  -2   8  -5    7.39    0.66
  -2   8  -5    8.83    0.78
  -2   8  -5    7.64    0.74
  -2   8  -4    5.39    0.62
  -2   8  -4    5.70    0.64
  -2   8  -3    1.65    0.38
  -2   8  -3    1.97    0.39
  -2   8  -2   -0.04    0.17
  -2   8  -2    0.11    0.20
  -2   8  -1    0.66    0.27
  -2   8  -1    0.04    0.20
  -2   8   0   -0.03    0.21
  -2   8   0    0.36    0.25
  -2   8   1    0.12    0.28
  -2   8   1   -0.80    0.34
  -2   8   2    2.63    0.55
  -2   8   3    0.72    0.39
  -2   8   4    7.32    0.96
  -2   8   5    7.60    1.02
  -2   8   6    3.63    0.73
  -2   9 -13    1.64    0.50
  -2   9 -12    1.35    0.47
  -2   9 -11    9.60    0.93
  -2   9 -11   10.34    1.10
  -2   9 -10   10.93    0.97
  -2   9 -10   11.55    1.11
  -2   9  -9   18.67    1.19
  -2   9  -9   15.60    1.24
  -2   9  -8   23.83    1.34
  -2   9  -8   24.57    1.45
  -2   9  -8   24.50    1.51
  -2   9  -7   17.00    1.23
  -2   9  -7   19.07    1.15
  -2   9  -7   18.87    1.25
  -2   9  -6    7.59    0.79
  -2   9  -6    7.46    0.80
  -2   9  -5   32.26    1.70
  -2   9  -5   35.68    1.76
  -2   9  -4   50.77    2.19
  -2   9  -4   51.24    2.22
  -2   9  -3   59.75    2.43
  -2   9  -3   59.99    2.47
  -2   9  -2   42.59    2.03
  -2   9  -2   43.66    2.09
  -2   9  -1   28.76    1.70
  -2   9  -1   31.42    1.74
  -2   9   0   28.29    1.73
  -2   9   0   28.01    1.70
  -2   9   1    9.34    1.00
  -2   9   1   10.31    1.03
  -2   9   2    3.49    0.66
  -2   9   3    2.81    0.65
  -2   9   4    6.67    0.95
  -2  10 -13    2.38    0.63
  -2  10 -12    2.08    0.56
  -2  10 -11    4.66    0.76
  -2  10 -10    1.33    0.44
  -2  10  -9    1.80    0.44
  -2  10  -9    0.84    0.33
  -2  10  -8    1.73    0.45
  -2  10  -8    1.79    0.40
  -2  10  -7    1.41    0.43
  -2  10  -7    2.27    0.46
  -2  10  -6    7.00    0.82
  -2  10  -6    6.10    0.76
  -2  10  -5    6.98    0.81
  -2  10  -5    5.81    0.75
  -2  10  -4    1.39    0.41
  -2  10  -4    1.78    0.44
  -2  10  -3    2.45    0.54
  -2  10  -3    1.60    0.45
  -2  10  -2    2.78    0.55
  -2  10  -2    3.97    0.66
  -2  10  -1   11.43    1.14
  -2  10  -1   12.21    1.18
  -2  10   0   11.78    1.20
  -2  10   0   12.31    1.22
  -2  10   1   10.03    1.13
  -2  10   2   12.20    1.29
  -2  11 -12    5.33    0.91
  -2  11 -11    7.15    0.96
  -2  11 -10    9.93    1.10
  -2  11  -9   21.10    1.58
  -2  11  -8   18.14    1.40
  -2  11  -8   19.88    1.50
  -2  11  -7   23.89    1.66
  -2  11  -7   26.76    1.68
  -2  11  -6   22.58    1.55
  -2  11  -6   20.62    1.53
  -2  11  -5   21.69    1.59
  -2  11  -5   25.02    1.65
  -2  11  -4   14.50    1.29
  -2  11  -4   15.25    1.31
  -2  11  -3    8.42    1.00
  -2  11  -3    7.86    0.97
  -2  11  -2    8.14    1.00
  -2  11  -2    7.79    1.00
  -2  11  -1    9.84    1.13
  -2  11  -1    9.58    1.13
  -2  11   0    6.42    0.97
  -2  11   0    8.09    1.05
  -2  12 -10    1.75    0.49
  -2  12  -9    0.13    0.25
  -2  12  -8    0.79    0.38
  -2  12  -7    3.36    0.68
  -2  12  -7    2.33    0.55
  -2  12  -6    3.76    0.72
  -2  12  -6    3.58    0.67
  -2  12  -5    6.61    0.91
  -2  12  -5    6.77    0.91
  -2  12  -4    6.54    0.94
  -2  12  -4    6.71    0.92
  -2  12  -3   11.26    1.24
  -2  12  -3   13.51    1.34
  -2  12  -2    9.65    1.19
  -2  12  -2    8.53    1.11
  -2  13  -6    7.78    0.99
  -1 -11   1   -0.04    0.27
  -1 -11   2    0.47    0.32
  -1 -11   3    0.38    0.35
  -1 -11   4    3.06    0.67
  -1 -11   5    5.58    0.87
  -1 -11   6    5.68    0.91
  -1 -11   7    1.89    0.57
  -1 -11   8    5.64    0.89
  -1 -11   9    6.88    0.99
  -1 -11  10    9.18    1.16
  -1 -10   0    8.57    1.04
  -1 -10   1   11.99    1.23
  -1 -10   2   26.94    1.84
  -1 -10   3   15.39    1.35
  -1 -10   4   18.36    1.46
  -1 -10   5   20.24    1.53
  -1 -10   6   12.16    1.21
  -1 -10   7    2.60    0.61
  -1 -10   8    5.50    0.79
  -1 -10   9    2.49    0.60
  -1 -10  10    0.13    0.22
  -1 -10  11   -0.15    0.28
  -1 -10  12   -0.25    0.28
  -1  -9  -3    0.51    0.36
  -1  -9  -2    1.63    0.44
  -1  -9  -1    4.42    0.73
  -1  -9  -1    3.64    0.65
  -1  -9   0   10.99    1.04
  -1  -9   0   10.96    1.10
  -1  -9   0   12.37    1.13
  -1  -9   1    9.99    1.04
  -1  -9   2   27.95    1.74
  -1  -9   3   32.31    1.86
  -1  -9   4   42.62    2.15
  -1  -9   5   21.95    1.49
  -1  -9   6   52.17    2.45
  -1  -9   7   41.75    2.17
  -1  -9   8   31.64    1.88
  -1  -9   9   28.80    1.85
  -1  -9  10   26.11    1.80
  -1  -9  11   18.21    1.53
  -1  -9  12   13.18    1.33
  -1  -9  13   10.38    1.24
  -1  -8  -4   13.96    1.45
  -1  -8  -3   20.24    1.67
  -1  -8  -2   23.03    1.58
  -1  -8  -2   23.91    1.70
  -1  -8  -1   18.77    1.38
  -1  -8  -1   18.82    1.29
  -1  -8  -1   20.02    1.46
  -1  -8   0   18.28    1.34
  -1  -8   0   21.00    1.35
  -1  -8   0   22.57    1.43
  -1  -8   1   17.36    1.26
  -1  -8   1   20.06    1.25
  -1  -8   2   17.49    1.24
  -1  -8   2   18.40    1.09
  -1  -8   3   20.63    1.35
  -1  -8   4   14.38    1.10
  -1  -8   5    1.60    0.39
  -1  -8   6    1.49    0.44
  -1  -8   7    0.47    0.27
  -1  -8   8   -0.01    0.21
  -1  -8   9   -0.34    0.31
  -1  -8  10    5.12    0.66
  -1  -8  10    5.03    0.74
  -1  -8  11    4.88    0.74
  -1  -8  12    3.30    0.67
  -1  -8  13    1.90    0.55
  -1  -8  14    1.29    0.54
  -1  -7  -6   -0.18    0.36
  -1  -7  -5    1.97    0.54
  -1  -7  -4    3.71    0.77
  -1  -7  -3   11.70    1.06
  -1  -7  -3   10.27    1.09
  -1  -7  -2   34.46    1.82
  -1  -7  -2   33.29    1.68
  -1  -7  -2   34.74    1.95
  -1  -7  -1   35.30    1.79
  -1  -7  -1   35.54    1.72
  -1  -7  -1   36.64    1.89
  -1  -7   0   38.77    1.85
  -1  -7   0   41.78    1.88
  -1  -7   1   40.69    1.86
  -1  -7   1   42.45    1.77
  -1  -7   2  113.70    3.50
  -1  -7   2  113.00    3.19
  -1  -7   3   50.43    2.07
  -1  -7   4   90.51    3.01
  -1  -7   5   81.21    2.83
  -1  -7   6   83.31    2.93
  -1  -7   7   61.47    2.45
  -1  -7   8   52.55    2.29
  -1  -7   9   32.89    1.82
  -1  -7   9   35.60    1.67
  -1  -7  10   24.83    1.58
  -1  -7  10   21.14    1.29
  -1  -7  11   22.05    1.57
  -1  -7  12    7.67    0.96
  -1  -7  13    3.45    0.69
  -1  -7  14    0.50    0.39
  -1  -6  -7    9.25    1.22
  -1  -6  -6   13.46    1.39
  -1  -6  -5    7.52    1.02
  -1  -6  -4    9.25    0.90
  -1  -6  -4    9.20    1.03
  -1  -6  -3   23.69    1.39
  -1  -6  -3   23.35    1.55
  -1  -6  -3   19.39    1.20
  -1  -6  -2   42.60    1.88
  -1  -6  -2   39.63    1.76
  -1  -6  -2   43.16    2.04
  -1  -6  -1   30.23    1.49
  -1  -6  -1   29.58    1.44
  -1  -6  -1   29.18    1.55
  -1  -6   0    2.41    0.40
  -1  -6   0    1.92    0.37
  -1  -6   1    7.56    0.68
  -1  -6   1    7.77    0.64
  -1  -6   2    0.70    0.23
  -1  -6   2    0.87    0.21
  -1  -6   3    1.76    0.36
  -1  -6   4    1.43    0.33
  -1  -6   5   12.19    0.91
  -1  -6   6   74.52    2.59
  -1  -6   7   40.91    1.83
  -1  -6   8   16.52    1.16
  -1  -6   8   18.53    1.06
  -1  -6   9   15.43    1.17
  -1  -6   9   16.60    1.03
  -1  -6  10   20.21    1.39
  -1  -6  10   21.08    1.21
  -1  -6  11   14.91    1.24
  -1  -6  12   10.57    1.10
  -1  -6  13   11.15    1.24
  -1  -6  14   15.45    1.52
  -1  -5  -8    1.19    0.52
  -1  -5  -7    8.36    1.08
  -1  -5  -6   12.15    1.24
  -1  -5  -5   33.97    1.72
  -1  -5  -5   32.65    1.96
  -1  -5  -4   41.22    2.09
  -1  -5  -4   38.63    1.78
  -1  -5  -4   35.52    1.63
  -1  -5  -3   68.25    2.41
  -1  -5  -3   63.69    2.26
  -1  -5  -3   70.47    2.71
  -1  -5  -2  108.77    3.23
  -1  -5  -2  111.19    3.21
  -1  -5  -2  112.60    3.50
  -1  -5  -1   89.75    2.73
  -1  -5  -1   89.42    2.72
  -1  -5  -1   91.01    2.88
  -1  -5   0  154.92    4.03
  -1  -5   0  157.36    4.06
  -1  -5   1   77.63    2.40
  -1  -5   1   79.66    2.31
  -1  -5   2  186.21    4.45
  -1  -5   2  171.64    4.10
  -1  -5   3   91.00    2.68
  -1  -5   4   77.21    2.43
  -1  -5   5   79.14    2.53
  -1  -5   6  144.39    3.96
  -1  -5   7   45.11    1.86
  -1  -5   8   19.91    1.22
  -1  -5   8   20.59    1.07
  -1  -5   9   11.56    0.97
  -1  -5   9   16.44    0.97
  -1  -5  10    0.57    0.21
  -1  -5  10    0.96    0.36
  -1  -5  11    4.95    0.69
  -1  -5  12    0.78    0.39
  -1  -5  13    0.95    0.40
  -1  -5  14   -0.41    0.36
  -1  -4  -9    1.45    0.52
  -1  -4  -8    5.86    0.90
  -1  -4  -7    5.64    0.84
  -1  -4  -6   14.20    1.25
  -1  -4  -5    0.69    0.35
  -1  -4  -5    1.16    0.28
  -1  -4  -4    0.23    0.15
  -1  -4  -4    0.66    0.31
  -1  -4  -3    2.89    0.40
  -1  -4  -3    2.60    0.36
  -1  -4  -3    3.36    0.53
  -1  -4  -2    2.62    0.36
  -1  -4  -2    2.13    0.32
  -1  -4  -2    3.44    0.49
  -1  -4  -1   -0.12    0.10
  -1  -4  -1    0.05    0.10
  -1  -4   0   20.20    0.93
  -1  -4   0   18.87    0.93
  -1  -4   1   49.86    1.63
  -1  -4   1   48.97    1.54
  -1  -4   2  106.74    2.82
  -1  -4   2  106.55    2.57
  -1  -4   3   33.30    1.29
  -1  -4   4   88.18    2.54
  -1  -4   5   52.49    1.83
  -1  -4   6   74.97    2.40
  -1  -4   7   81.51    2.62
  -1  -4   7   77.79    2.30
  -1  -4   8   61.72    2.29
  -1  -4   8   61.76    2.01
  -1  -4   9   71.05    2.60
  -1  -4   9   69.69    2.29
  -1  -4  10   56.79    2.33
  -1  -4  10   51.68    2.33
  -1  -4  10   50.92    1.97
  -1  -4  11   25.39    1.65
  -1  -4  12   19.77    1.51
  -1  -4  13   18.05    1.54
  -1  -4  14    2.79    0.70
  -1  -3 -10    4.89    0.85
  -1  -3  -9   15.94    1.44
  -1  -3  -8   15.48    1.35
  -1  -3  -7   37.02    2.05
  -1  -3  -6   36.03    1.65
  -1  -3  -6   35.88    1.91
  -1  -3  -5   80.57    2.59
  -1  -3  -5   83.17    2.97
  -1  -3  -4   67.84    2.19
  -1  -3  -4   69.47    2.52
  -1  -3  -3   89.10    2.53
  -1  -3  -3   89.66    2.83
  -1  -3  -2  225.58    5.24
  -1  -3  -2  231.38    4.99
  -1  -3  -1   90.69    2.40
  -1  -3  -1   86.08    2.32
  -1  -3  -1   89.19    2.50
  -1  -3   0  173.41    3.92
  -1  -3   0  168.80    3.97
  -1  -3   1  313.40    6.60
  -1  -3   1  307.44    6.48
  -1  -3   2  298.77    6.41
  -1  -3   3   48.82    1.55
  -1  -3   4  144.73    3.55
  -1  -3   5   53.24    1.77
  -1  -3   6   10.95    0.74
  -1  -3   6   11.24    0.62
  -1  -3   7    3.29    0.36
  -1  -3   7    2.95    0.42
  -1  -3   8    0.88    0.23
  -1  -3   8    0.81    0.28
  -1  -3   8    0.79    0.19
  -1  -3   9    3.19    0.42
  -1  -3   9    3.76    0.56
  -1  -3  10    1.32    0.31
  -1  -3  10    1.29    0.40
  -1  -3  11    0.76    0.37
  -1  -3  12   -0.72    0.33
  -1  -3  13    0.26    0.31
  -1  -3  14    3.99    0.80
  -1  -2 -11    0.29    0.32
  -1  -2 -10    4.89    0.81
  -1  -2  -9    0.83    0.40
  -1  -2  -8    2.04    0.52
  -1  -2  -7    0.10    0.22
  -1  -2  -7    0.07    0.22
  -1  -2  -6    0.10    0.22
  -1  -2  -6   -0.18    0.27
  -1  -2  -5    1.30    0.28
  -1  -2  -5    2.62    0.48
  -1  -2  -4   18.40    0.94
  -1  -2  -4   17.97    1.07
  -1  -2  -3    1.81    0.33
  -1  -2  -3    1.44    0.23
  -1  -2  -2   67.37    1.89
  -1  -2  -2   68.03    2.05
  -1  -2  -1  105.16    2.49
  -1  -2  -1  107.83    2.61
  -1  -2  -1  105.18    2.67
  -1  -2   0  229.31    4.74
  -1  -2   0  218.16    4.80
  -1  -2   1   24.77    0.83
  -1  -2   1   24.55    0.77
  -1  -2   2  416.71    8.53
  -1  -2   3  156.34    3.59
  -1  -2   4   58.38    1.77
  -1  -2   4   62.31    1.58
  -1  -2   5   67.92    2.03
  -1  -2   5   67.94    1.80
  -1  -2   6   97.25    2.73
  -1  -2   6   92.44    2.40
  -1  -2   6   97.20    2.47
  -1  -2   7   72.53    2.42
  -1  -2   7   70.28    1.97
  -1  -2   7   72.59    2.11
  -1  -2   8   50.26    2.05
  -1  -2   8   50.47    1.61
  -1  -2   8   54.25    1.82
  -1  -2   9   36.38    1.78
  -1  -2   9   35.13    1.51
  -1  -2  10   12.64    1.10
  -1  -2  10   14.07    0.96
  -1  -2  11   16.29    1.34
  -1  -2  11   15.95    1.10
  -1  -2  12    9.33    1.03
  -1  -2  13   11.42    1.26
  -1  -2  14    2.94    0.74
  -1  -1 -12    5.58    0.88
  -1  -1 -11    5.20    0.80
  -1  -1 -10   10.95    1.11
  -1  -1  -9   28.83    1.74
  -1  -1  -8   24.01    1.50
  -1  -1  -7   53.82    2.25
  -1  -1  -6   69.72    2.35
  -1  -1  -6   61.59    2.35
  -1  -1  -5   58.06    2.10
  -1  -1  -5   60.03    2.04
  -1  -1  -4   27.15    1.23
  -1  -1  -4   27.66    1.15
  -1  -1  -3   15.86    0.75
  -1  -1  -3   15.06    0.80
  -1  -1  -2   31.88    1.05
  -1  -1  -2   31.91    1.12
  -1  -1  -1   60.76    1.62
  -1  -1  -1   61.32    1.65
  -1  -1   0   72.28    1.58
  -1  -1   0   67.46    1.65
  -1  -1   1    0.46    0.10
  -1  -1   2   29.47    0.90
  -1  -1   3    0.34    0.08
  -1  -1   3    0.24    0.12
  -1  -1   4    0.86    0.13
  -1  -1   4    0.85    0.18
  -1  -1   4    0.91    0.14
  -1  -1   5    4.75    0.45
  -1  -1   5    4.94    0.35
  -1  -1   5    4.84    0.36
  -1  -1   6    5.55    0.54
  -1  -1   6    5.18    0.39
  -1  -1   6    4.99    0.41
  -1  -1   7    3.82    0.36
  -1  -1   7    3.95    0.51
  -1  -1   7    3.56    0.39
  -1  -1   8    1.40    0.39
  -1  -1   8    1.23    0.22
  -1  -1   8    1.73    0.31
  -1  -1   9    6.26    0.74
  -1  -1   9    6.91    0.65
  -1  -1  10   12.51    1.11
  -1  -1  10   12.02    0.93
  -1  -1  11    3.91    0.70
  -1  -1  11    4.51    0.58
  -1  -1  12    5.15    0.83
  -1  -1  13    1.34    0.48
  -1   0 -13   -0.05    0.24
  -1   0 -12   -1.10    0.48
  -1   0 -11    6.80    0.87
  -1   0 -10   -0.07    0.21
  -1   0  -9    9.44    0.92
  -1   0  -8    4.43    0.61
  -1   0  -7   12.05    0.91
  -1   0  -6   37.24    1.58
  -1   0  -5   84.36    2.53
  -1   0  -5   78.75    2.42
  -1   0  -4   88.94    2.50
  -1   0  -4   84.42    2.39
  -1   0  -3  118.05    2.88
  -1   0  -3  111.50    2.79
  -1   0  -2  480.21   10.27
  -1   0  -2  510.67   10.24
  -1   0   2  372.16    7.73
  -1   0   2  390.48    7.70
  -1   0   2  399.09    7.53
  -1   0   3  216.98    5.06
  -1   0   3  225.06    4.85
  -1   0   4  143.53    3.44
  -1   0   4  135.34    3.22
  -1   0   4  141.17    3.19
  -1   0   5  105.27    2.88
  -1   0   5  101.77    2.62
  -1   0   5  103.27    2.62
  -1   0   6   99.00    2.99
  -1   0   6   95.29    2.72
  -1   0   7   80.10    2.66
  -1   0   7   74.06    2.33
  -1   0   7   75.62    2.19
  -1   0   8   53.77    2.22
  -1   0   8   51.91    1.94
  -1   0   9   51.85    2.29
  -1   0   9   48.16    1.98
  -1   0  10    2.81    0.53
  -1   0  10    2.19    0.43
  -1   0  11    2.51    0.50
  -1   0  11    1.96    0.54
  -1   0  12    1.90    0.51
  -1   0  13    0.83    0.47
  -1   1 -12    7.22    0.88
  -1   1 -11   13.68    1.15
  -1   1 -10   17.39    1.23
  -1   1  -9    7.20    0.75
  -1   1  -8    0.48    0.27
  -1   1  -7    7.02    0.64
  -1   1  -6   46.67    1.66
  -1   1  -5   52.85    1.67
  -1   1  -4    0.37    0.13
  -1   1  -3   73.16    1.81
  -1   1  -2   35.00    1.00
  -1   1  -2   36.22    0.93
  -1   1   2   81.24    2.01
  -1   1   2   84.22    1.96
  -1   1   2   85.09    1.93
  -1   1   3   28.83    1.05
  -1   1   3   30.25    0.98
  -1   1   3   28.59    1.06
  -1   1   4   20.40    0.93
  -1   1   4   19.81    0.88
  -1   1   4   19.90    0.84
  -1   1   5   46.41    1.56
  -1   1   5   45.03    1.66
  -1   1   5   45.30    1.53
  -1   1   6   36.57    1.57
  -1   1   6   37.88    1.38
  -1   1   6   35.84    1.44
  -1   1   7   17.49    1.11
  -1   1   7   16.28    0.98
  -1   1   8    1.92    0.41
  -1   1   8    1.64    0.34
  -1   1   9    3.38    0.58
  -1   1   9    4.00    0.56
  -1   1  10   18.71    1.42
  -1   1  10   20.80    1.36
  -1   1  11   11.30    1.16
  -1   1  11   11.57    1.08
  -1   1  12    3.65    0.74
  -1   2 -13    3.06    0.68
  -1   2 -12    1.34    0.45
  -1   2 -11    6.37    0.74
  -1   2 -10    5.56    0.65
  -1   2  -9   46.35    1.87
  -1   2  -8   63.76    2.15
  -1   2  -7  105.77    2.89
  -1   2  -6   88.54    2.39
  -1   2  -5  111.32    2.86
  -1   2  -5  109.45    2.66
  -1   2  -4  234.07    5.13
  -1   2  -4  233.34    4.89
  -1   2  -3   91.13    2.26
  -1   2  -3   89.52    2.24
  -1   2  -3   94.98    2.01
  -1   2  -2  484.34    9.73
  -1   2  -2  500.58    9.76
  -1   2  -2  477.74    9.76
  -1   2  -1  115.61    2.53
  -1   2  -1  109.48    2.54
  -1   2  -1  117.78    2.50
  -1   2   0   44.86    1.17
  -1   2   0   46.11    1.23
  -1   2   1   54.86    1.63
  -1   2   1   58.13    1.53
  -1   2   1   55.76    1.48
  -1   2   1   55.46    1.46
  -1   2   2  270.68    5.57
  -1   2   2  274.33    5.57
  -1   2   2  259.29    5.59
  -1   2   3   88.43    2.35
  -1   2   3   88.83    2.34
  -1   2   3   87.08    2.38
  -1   2   3   84.84    2.42
  -1   2   4   77.63    2.29
  -1   2   4   78.60    2.26
  -1   2   5   52.82    1.89
  -1   2   5   54.76    1.87
  -1   2   6   11.15    0.84
  -1   2   6   10.65    0.78
  -1   2   7   11.46    0.91
  -1   2   7   12.90    0.93
  -1   2   8    2.06    0.44
  -1   2   8    2.04    0.40
  -1   2   9    2.85    0.53
  -1   2   9    3.21    0.55
  -1   2   9    2.21    0.44
  -1   2  10    1.04    0.42
  -1   2  10    1.12    0.39
  -1   2  10    1.29    0.41
  -1   2  11    1.56    0.44
  -1   2  11    1.52    0.46
  -1   2  11    1.52    0.44
  -1   2  12   -0.36    0.35
  -1   3 -14    3.82    0.78
  -1   3 -13    0.85    0.46
  -1   3 -12    4.18    0.70
  -1   3 -11    3.91    0.62
  -1   3 -10   14.67    1.11
  -1   3 -10   13.95    0.93
  -1   3  -9    1.88    0.42
  -1   3  -9    2.14    0.34
  -1   3  -8    0.57    0.24
  -1   3  -8    0.49    0.19
  -1   3  -7    5.76    0.56
  -1   3  -7    6.51    0.46
  -1   3  -6    2.62    0.39
  -1   3  -6    3.19    0.38
  -1   3  -6    3.38    0.28
  -1   3  -5    0.11    0.13
  -1   3  -5    0.19    0.08
  -1   3  -4   11.25    0.62
  -1   3  -4   11.43    0.59
  -1   3  -3    7.50    0.43
  -1   3  -3    7.96    0.46
  -1   3  -3    8.76    0.49
  -1   3  -2   29.13    0.93
  -1   3  -2   29.35    0.97
  -1   3  -2   29.52    0.97
  -1   3  -1    7.04    0.40
  -1   3  -1    7.58    0.44
  -1   3  -1    8.00    0.44
  -1   3   0   76.07    1.95
  -1   3   0   75.22    2.01
  -1   3   1   39.55    1.34
  -1   3   1   40.54    1.30
  -1   3   2   39.97    1.32
  -1   3   2   41.08    1.43
  -1   3   3   41.42    1.44
  -1   3   3   38.80    1.50
  -1   3   3   39.82    1.47
  -1   3   4   13.57    0.88
  -1   3   4   14.24    0.84
  -1   3   4   13.65    0.85
  -1   3   5   55.30    2.00
  -1   3   5   54.65    2.02
  -1   3   5   55.00    2.07
  -1   3   6   55.11    2.15
  -1   3   6   58.62    2.21
  -1   3   6   57.89    2.25
  -1   3   7   24.92    1.42
  -1   3   7   24.55    1.43
  -1   3   7   26.44    1.50
  -1   3   8   23.73    1.48
  -1   3   8   26.55    1.58
  -1   3   8   24.23    1.50
  -1   3   9   19.28    1.42
  -1   3   9   20.78    1.45
  -1   3   9   22.44    1.53
  -1   3  10    5.34    0.82
  -1   3  10    6.82    0.90
  -1   3  10    6.36    0.85
  -1   3  11    4.71    0.78
  -1   3  11    4.19    0.74
  -1   4 -14    2.47    0.66
  -1   4 -14    2.03    0.62
  -1   4 -13   11.63    1.26
  -1   4 -13   13.07    1.26
  -1   4 -12    9.75    1.03
  -1   4 -12    9.69    1.07
  -1   4 -11   15.74    1.20
  -1   4 -11   13.57    1.21
  -1   4 -10   12.09    1.07
  -1   4 -10   11.86    0.97
  -1   4  -9   44.04    2.03
  -1   4  -9   47.21    1.94
  -1   4  -9   48.64    1.59
  -1   4  -8   34.58    1.63
  -1   4  -8   37.46    1.57
  -1   4  -8   34.56    1.18
  -1   4  -7   61.09    2.16
  -1   4  -7   61.44    2.04
  -1   4  -7   61.22    1.59
  -1   4  -6  119.66    3.26
  -1   4  -6  116.50    2.55
  -1   4  -5   29.70    1.21
  -1   4  -5   29.25    1.12
  -1   4  -5   28.73    1.10
  -1   4  -4   56.83    1.65
  -1   4  -4   55.10    1.67
  -1   4  -4   59.88    1.79
  -1   4  -3  139.70    3.28
  -1   4  -3  142.42    3.36
  -1   4  -3  142.10    3.40
  -1   4  -2  174.22    3.96
  -1   4  -2  184.20    4.09
  -1   4  -2  173.62    4.06
  -1   4  -1   41.37    1.34
  -1   4  -1   39.12    1.35
  -1   4   0  131.02    3.22
  -1   4   0  128.13    3.27
  -1   4   1   43.87    1.57
  -1   4   1   42.21    1.50
  -1   4   2   35.37    1.29
  -1   4   2   35.69    1.45
  -1   4   3    5.74    0.59
  -1   4   3    4.97    0.48
  -1   4   4    0.88    0.26
  -1   4   4    1.61    0.38
  -1   4   5    2.55    0.42
  -1   4   5    2.98    0.47
  -1   4   5    3.10    0.51
  -1   4   6    0.81    0.29
  -1   4   6    1.54    0.43
  -1   4   6    0.77    0.30
  -1   4   7    2.00    0.43
  -1   4   7    1.68    0.45
  -1   4   7    2.25    0.47
  -1   4   8    0.84    0.36
  -1   4   8    0.37    0.26
  -1   4   8    0.37    0.29
  -1   4   9    0.48    0.29
  -1   4   9    0.78    0.35
  -1   4   9   -0.15    0.29
  -1   4  10    3.07    0.63
  -1   4  10    2.44    0.58
  -1   5 -14    2.01    0.60
  -1   5 -14    1.78    0.55
  -1   5 -13   -0.06    0.36
  -1   5 -13   -0.08    0.26
  -1   5 -12    0.22    0.35
  -1   5 -12    0.68    0.33
  -1   5 -11   -0.18    0.30
  -1   5 -11    0.01    0.18
  -1   5 -10   -0.29    0.30
  -1   5 -10   -0.07    0.21
  -1   5  -9    0.35    0.32
  -1   5  -9    1.02    0.31
  -1   5  -8   14.60    1.02
  -1   5  -8   14.67    0.93
  -1   5  -7    1.25    0.35
  -1   5  -7    1.04    0.25
  -1   5  -6   16.43    0.85
  -1   5  -6   16.47    0.87
  -1   5  -6   16.15    0.95
  -1   5  -5   57.63    1.79
  -1   5  -5   60.62    1.87
  -1   5  -5   59.83    1.96
  -1   5  -4  101.81    2.63
  -1   5  -4  100.69    2.71
  -1   5  -4  104.40    2.81
  -1   5  -3   42.11    1.37
  -1   5  -3   42.64    1.48
  -1   5  -3   43.30    1.52
  -1   5  -2  249.37    5.86
  -1   5  -2  274.19    5.93
  -1   5  -1  205.36    4.84
  -1   5  -1  204.33    4.87
  -1   5   0  115.47    3.16
  -1   5   0  118.70    3.23
  -1   5   1  121.75    3.41
  -1   5   1  119.71    3.33
  -1   5   2   92.55    2.93
  -1   5   3   83.56    2.83
  -1   5   4   55.33    2.02
  -1   5   4   56.46    2.29
  -1   5   5   41.44    2.00
  -1   5   5   39.55    1.76
  -1   5   6   29.85    1.75
  -1   5   6   29.23    1.56
  -1   5   7   19.99    1.35
  -1   5   7   19.65    1.47
  -1   5   8    6.58    0.83
  -1   5   8    7.76    0.99
  -1   5   9    8.34    1.06
  -1   6 -15    1.13    0.46
  -1   6 -14    3.01    0.70
  -1   6 -14    3.80    0.70
  -1   6 -13   12.02    1.26
  -1   6 -13   11.01    1.09
  -1   6 -12   12.35    1.22
  -1   6 -12   13.13    1.12
  -1   6 -11   31.19    1.85
  -1   6 -11   31.54    1.68
  -1   6 -10   33.53    1.81
  -1   6 -10   33.29    1.63
  -1   6  -9   55.69    2.09
  -1   6  -9   52.91    2.25
  -1   6  -8   58.37    2.07
  -1   6  -8   59.52    2.29
  -1   6  -7   43.43    1.62
  -1   6  -7   43.16    1.81
  -1   6  -6   43.43    1.54
  -1   6  -6   43.03    1.60
  -1   6  -6   40.61    1.68
  -1   6  -5   50.32    1.67
  -1   6  -5   51.45    1.77
  -1   6  -5   48.72    1.83
  -1   6  -4   32.45    1.23
  -1   6  -4   30.82    1.31
  -1   6  -4   32.48    1.39
  -1   6  -3   19.54    1.01
  -1   6  -3   18.88    1.02
  -1   6  -2   60.27    2.06
  -1   6  -2   61.36    2.06
  -1   6  -1   12.45    0.84
  -1   6  -1   11.46    0.82
  -1   6   0    9.37    0.75
  -1   6   0   10.00    0.79
  -1   6   1    0.19    0.21
  -1   6   1    0.06    0.27
  -1   6   2    1.75    0.43
  -1   6   3    0.61    0.32
  -1   6   4    0.14    0.29
  -1   6   5    2.11    0.52
  -1   6   6    6.40    0.88
  -1   6   7    4.45    0.76
  -1   6   8    5.05    0.84
  -1   7 -14   -0.10    0.34
  -1   7 -13    1.80    0.45
  -1   7 -13    1.39    0.48
  -1   7 -12    0.98    0.45
  -1   7 -12    1.69    0.41
  -1   7 -11    2.72    0.56
  -1   7 -11    2.76    0.48
  -1   7 -10    6.32    0.67
  -1   7 -10    5.54    0.77
  -1   7  -9    8.34    0.86
  -1   7  -9    9.20    0.75
  -1   7  -8   19.30    1.06
  -1   7  -8   16.14    1.14
  -1   7  -7   49.16    1.78
  -1   7  -7   49.22    1.86
  -1   7  -7   47.19    1.99
  -1   7  -6  117.83    3.17
  -1   7  -6  117.21    3.32
  -1   7  -6  114.15    3.46
  -1   7  -5   55.64    1.83
  -1   7  -5   54.89    1.97
  -1   7  -5   51.74    2.02
  -1   7  -4   82.33    2.58
  -1   7  -4   76.40    2.58
  -1   7  -3   60.05    2.21
  -1   7  -3   67.18    2.27
  -1   7  -2   96.80    3.04
  -1   7  -2   98.54    3.03
  -1   7  -1   90.10    2.92
  -1   7  -1   87.13    2.89
  -1   7   0   67.22    2.49
  -1   7   0   68.81    2.54
  -1   7   1   67.30    2.59
  -1   7   1   63.82    2.51
  -1   7   2   62.70    2.59
  -1   7   3   37.05    1.99
  -1   7   4   23.58    1.63
  -1   7   5   19.42    1.54
  -1   7   6    5.29    0.87
  -1   7   7    2.76    0.65
  -1   8 -14    8.85    1.16
  -1   8 -13   11.82    1.27
  -1   8 -12    5.93    0.90
  -1   8 -11    7.98    0.82
  -1   8 -11    8.41    0.98
  -1   8 -10   13.38    0.99
  -1   8 -10   12.53    1.13
  -1   8  -9   11.18    0.85
  -1   8  -9   10.11    0.98
  -1   8  -8    4.08    0.48
  -1   8  -8    4.23    0.53
  -1   8  -8    4.09    0.62
  -1   8  -7   31.52    1.38
  -1   8  -7   31.46    1.51
  -1   8  -6   31.04    1.33
  -1   8  -6   29.58    1.45
  -1   8  -5    6.37    0.67
  -1   8  -5    5.52    0.64
  -1   8  -4    1.32    0.32
  -1   8  -4    2.01    0.41
  -1   8  -3    0.20    0.21
  -1   8  -3    0.87    0.31
  -1   8  -2    1.64    0.41
  -1   8  -2    2.03    0.44
  -1   8  -1    4.56    0.62
  -1   8  -1    4.00    0.59
  -1   8   0    6.31    0.75
  -1   8   0    6.30    0.76
  -1   8   1   18.71    1.37
  -1   8   1   18.94    1.37
  -1   8   2   26.69    1.71
  -1   8   3   20.37    1.55
  -1   8   4    8.20    1.03
  -1   8   5    5.26    0.88
  -1   9 -13    0.91    0.48
  -1   9 -12    8.41    1.06
  -1   9 -11   15.97    1.38
  -1   9 -10   15.70    1.30
  -1   9  -9   25.59    1.62
  -1   9  -8   43.19    1.91
  -1   9  -8   38.01    1.99
  -1   9  -7   36.88    1.74
  -1   9  -7   31.86    1.76
  -1   9  -6   71.73    2.60
  -1   9  -6   62.91    2.59
  -1   9  -5   48.96    2.21
  -1   9  -5   57.20    2.28
  -1   9  -4   40.77    1.99
  -1   9  -4   46.55    2.06
  -1   9  -3   47.44    2.16
  -1   9  -3   44.68    2.08
  -1   9  -2   50.36    2.30
  -1   9  -2   47.65    2.21
  -1   9  -1   25.66    1.62
  -1   9  -1   26.10    1.63
  -1   9   0   20.96    1.51
  -1   9   0   22.30    1.55
  -1   9   1   17.43    1.43
  -1   9   1   17.55    1.43
  -1   9   2   13.89    1.31
  -1   9   3    8.14    1.02
  -1   9   4    1.39    0.33
  -1  10 -12    1.43    0.56
  -1  10 -11    3.34    0.68
  -1  10 -10   -0.22    0.34
  -1  10  -9   -0.20    0.34
  -1  10  -8    1.10    0.43
  -1  10  -7    1.78    0.51
  -1  10  -7    2.86    0.49
  -1  10  -6    1.10    0.34
  -1  10  -6    0.75    0.36
  -1  10  -5    4.18    0.67
  -1  10  -5    4.60    0.66
  -1  10  -4   11.46    1.09
  -1  10  -4   12.45    1.10
  -1  10  -3   15.65    1.30
  -1  10  -3   18.88    1.38
  -1  10  -2   15.99    1.34
  -1  10  -2   16.06    1.31
  -1  10  -1   14.73    1.31
  -1  10  -1   16.02    1.39
  -1  10   0   10.06    1.11
  -1  10   0   10.29    1.15
  -1  10   1   16.55    1.48
  -1  10   2   14.27    1.44
  -1  11 -11   12.61    1.29
  -1  11 -10   18.20    1.52
  -1  11  -9   12.75    1.24
  -1  11  -8   20.44    1.57
  -1  11  -7   23.77    1.68
  -1  11  -6   23.55    1.67
  -1  11  -6   23.35    1.58
  -1  11  -5   15.35    1.28
  -1  11  -5   15.75    1.37
  -1  11  -4   18.04    1.48
  -1  11  -4   18.81    1.45
  -1  11  -3   15.11    1.34
  -1  11  -3   15.30    1.39
  -1  11  -2   12.74    1.29
  -1  11  -2   11.07    1.18
  -1  11  -1    5.08    0.83
  -1  11  -1    5.58    0.88
  -1  11   0    3.04    0.67
  -1  12  -9    1.77    0.55
  -1  12  -8    4.28    0.79
  -1  12  -7    2.82    0.66
  -1  12  -6    8.40    1.07
  -1  12  -5   13.51    1.36
  -1  12  -5   11.14    1.15
  -1  12  -4   14.92    1.43
  -1  12  -4   12.25    1.27
  -1  12  -3   13.40    1.33
   0 -12   5   10.41    1.23
   0 -12   6   15.18    1.48
   0 -11   0    0.48    0.30
   0 -11   1    0.35    0.32
   0 -11   2    3.72    0.71
   0 -11   3    2.62    0.61
   0 -11   4   11.44    1.21
   0 -11   5   11.21    1.19
   0 -11   6   13.30    1.30
   0 -11   7   17.77    1.53
   0 -11   8   26.25    1.87
   0 -11   9   15.19    1.38
   0 -11  10   16.65    1.52
   0 -11  11   17.84    1.60
   0 -10  -2    6.64    0.96
   0 -10  -1   14.66    1.41
   0 -10   0   17.71    1.51
   0 -10   1   20.22    1.59
   0 -10   2   14.85    1.33
   0 -10   3   13.19    1.23
   0 -10   4   15.09    1.28
   0 -10   5    7.48    0.92
   0 -10   6    5.77    0.80
   0 -10   7    2.64    0.57
   0 -10   8    2.79    0.58
   0 -10   9    0.21    0.30
   0 -10  10    2.19    0.57
   0 -10  11    1.83    0.57
   0 -10  12   -0.72    0.41
   0  -9  -4    0.14    0.31
   0  -9  -3    5.29    0.86
   0  -9  -3    5.08    0.90
   0  -9  -2    5.96    0.86
   0  -9  -2    6.70    0.92
   0  -9  -1   10.30    1.10
   0  -9  -1   10.58    1.09
   0  -9   0   21.75    1.55
   0  -9   0   22.13    1.49
   0  -9   1   17.01    1.32
   0  -9   2   19.99    1.43
   0  -9   3   17.53    1.31
   0  -9   4   39.85    2.03
   0  -9   5   27.52    1.65
   0  -9   6   60.32    2.58
   0  -9   7   28.72    1.74
   0  -9   8   41.28    2.13
   0  -9   9   34.25    1.96
   0  -9  10   18.66    1.46
   0  -9  10   17.92    1.33
   0  -9  11   10.07    1.11
   0  -9  11   10.39    1.02
   0  -9  12    8.29    1.03
   0  -9  13   10.94    1.22
   0  -8  -5    6.17    1.01
   0  -8  -4    8.43    1.03
   0  -8  -4   12.66    1.29
   0  -8  -3   13.00    1.23
   0  -8  -3   14.65    1.39
   0  -8  -2   11.05    1.09
   0  -8  -2   11.23    1.12
   0  -8  -1   17.23    1.31
   0  -8  -1   18.40    1.35
   0  -8   0   21.01    1.42
   0  -8   0   24.51    1.47
   0  -8   1   13.62    1.08
   0  -8   1   12.24    0.94
   0  -8   2    5.22    0.54
   0  -8   2    5.21    0.66
   0  -8   3    2.97    0.48
   0  -8   4    0.00    0.24
   0  -8   5    4.16    0.59
   0  -8   6   16.21    1.17
   0  -8   7    0.15    0.26
   0  -8   8    3.02    0.54
   0  -8   9    3.86    0.58
   0  -8   9    3.74    0.63
   0  -8  10    5.32    0.70
   0  -8  10    4.81    0.72
   0  -8  11    5.23    0.71
   0  -8  11    6.19    0.83
   0  -8  12    6.60    0.92
   0  -8  13    3.04    0.61
   0  -8  14    1.84    0.58
   0  -7  -6    1.44    0.56
   0  -7  -5   10.37    1.10
   0  -7  -5   11.56    1.27
   0  -7  -4   10.30    1.03
   0  -7  -4    9.96    1.13
   0  -7  -3   10.08    0.97
   0  -7  -3   11.68    1.15
   0  -7  -2    8.34    0.87
   0  -7  -2    7.52    0.70
   0  -7  -2    8.91    0.93
   0  -7  -1   18.44    1.25
   0  -7  -1   16.85    1.06
   0  -7  -1   17.61    1.24
   0  -7   0   59.71    2.36
   0  -7   0   63.97    2.37
   0  -7   1   59.88    2.32
   0  -7   1   63.55    2.21
   0  -7   2   92.48    3.00
   0  -7   2   90.35    2.64
   0  -7   3   56.47    2.18
   0  -7   3   58.24    1.76
   0  -7   4  160.11    4.42
   0  -7   5   25.07    1.37
   0  -7   6   23.30    1.35
   0  -7   7   22.40    1.34
   0  -7   8   31.41    1.66
   0  -7   9   19.88    1.34
   0  -7   9   21.99    1.30
   0  -7  10   20.15    1.38
   0  -7  10   19.06    1.25
   0  -7  11   11.25    1.08
   0  -7  11   13.25    1.05
   0  -7  12    1.56    0.43
   0  -7  13    5.54    0.81
   0  -7  14    0.81    0.44
   0  -6  -7    3.64    0.75
   0  -6  -6    6.07    0.94
   0  -6  -5    9.02    0.95
   0  -6  -5   11.66    1.18
   0  -6  -4   12.39    1.07
   0  -6  -4   15.40    1.31
   0  -6  -3    0.22    0.19
   0  -6  -3    0.09    0.12
   0  -6  -2    3.62    0.53
   0  -6  -2    3.44    0.43
   0  -6  -2    4.01    0.58
   0  -6  -1    0.99    0.32
   0  -6  -1    1.16    0.33
   0  -6   0    1.88    0.37
   0  -6   0    1.28    0.31
   0  -6   1    3.04    0.44
   0  -6   1    3.15    0.40
   0  -6   2    5.80    0.58
   0  -6   2    5.77    0.46
   0  -6   3    4.65    0.52
   0  -6   3    4.89    0.36
   0  -6   4   12.47    0.86
   0  -6   5   29.47    1.40
   0  -6   6   26.33    1.35
   0  -6   7   18.35    1.14
   0  -6   8   36.56    1.72
   0  -6   8   36.09    1.61
   0  -6   9   27.79    1.54
   0  -6   9   26.47    1.40
   0  -6  10   15.00    1.15
   0  -6  10   13.09    1.00
   0  -6  11   19.15    1.37
   0  -6  11   19.34    1.26
   0  -6  12   16.42    1.32
   0  -6  13    9.56    1.16
   0  -6  14    7.40    1.04
   0  -5  -9   10.54    1.29
   0  -5  -8    4.24    0.85
   0  -5  -7   13.46    1.34
   0  -5  -6   14.14    1.32
   0  -5  -5   28.57    1.79
   0  -5  -4   40.99    1.63
   0  -5  -4   45.36    2.17
   0  -5  -3   72.98    2.29
   0  -5  -3   76.61    2.82
   0  -5  -2   83.18    2.69
   0  -5  -2   85.68    2.49
   0  -5  -2   83.56    2.85
   0  -5  -1  113.46    3.23
   0  -5  -1  114.53    3.33
   0  -5   0  153.03    3.92
   0  -5   0  150.29    3.89
   0  -5   1   16.64    0.92
   0  -5   1   18.31    0.87
   0  -5   2  110.07    2.95
   0  -5   2  101.93    2.57
   0  -5   3   65.06    2.06
   0  -5   3   63.73    1.60
   0  -5   4  146.95    3.80
   0  -5   5   60.05    2.05
   0  -5   6   99.72    2.94
   0  -5   7   22.49    1.21
   0  -5   7   25.09    1.19
   0  -5   8   27.86    1.42
   0  -5   8   28.88    1.34
   0  -5   9   12.61    0.97
   0  -5   9   12.66    0.90
   0  -5  10    1.57    0.37
   0  -5  10    2.42    0.47
   0  -5  11    5.37    0.72
   0  -5  11    4.82    0.63
   0  -5  12    0.77    0.29
   0  -5  12    1.28    0.37
   0  -5  13    0.80    0.37
   0  -5  14    0.26    0.38
   0  -4 -10    4.35    0.80
   0  -4  -9    1.12    0.48
   0  -4  -8    3.38    0.70
   0  -4  -7    1.76    0.54
   0  -4  -6   -0.66    0.38
   0  -4  -5    0.17    0.13
   0  -4  -5    0.33    0.29
   0  -4  -4    0.72    0.19
   0  -4  -4    0.70    0.31
   0  -4  -3    0.18    0.11
   0  -4  -3    0.40    0.29
   0  -4  -2   16.94    0.83
   0  -4  -2   18.64    1.09
   0  -4  -1    2.04    0.31
   0  -4  -1    2.04    0.34
   0  -4   0   77.87    2.21
   0  -4   0   75.06    2.19
   0  -4   1   42.16    1.44
   0  -4   1   43.23    1.33
   0  -4   2   66.40    1.93
   0  -4   2   64.54    1.63
   0  -4   3   64.04    1.92
   0  -4   4  223.66    5.15
   0  -4   5   60.00    1.93
   0  -4   6   95.91    2.77
   0  -4   6   96.93    2.67
   0  -4   7   98.75    2.93
   0  -4   7  100.90    2.83
   0  -4   8   59.87    2.17
   0  -4   8   60.36    2.06
   0  -4   9   45.85    1.94
   0  -4   9   49.36    1.90
   0  -4  10   24.84    1.42
   0  -4  10   26.05    1.38
   0  -4  11   27.39    1.71
   0  -4  11   28.07    1.53
   0  -4  12    7.75    0.94
   0  -4  12    7.66    0.83
   0  -4  13    3.17    0.68
   0  -4  14    1.53    0.50
   0  -3 -11    8.68    1.13
   0  -3 -10    5.47    0.90
   0  -3  -9    8.95    1.09
   0  -3  -8   26.49    1.77
   0  -3  -7   47.99    2.34
   0  -3  -6   39.75    1.62
   0  -3  -6   41.06    2.04
   0  -3  -5   90.42    3.12
   0  -3  -5   88.60    2.57
   0  -3  -4  106.50    2.83
   0  -3  -4  108.06    3.36
   0  -3  -3  136.50    3.33
   0  -3  -3  144.73    3.89
   0  -3  -2  134.80    3.16
   0  -3  -2  130.01    3.53
   0  -3  -1   88.29    2.46
   0  -3   0  289.11    6.11
   0  -3   0  280.89    6.10
   0  -3   1   52.84    1.51
   0  -3   1   52.78    1.38
   0  -3   2   83.01    2.17
   0  -3   2   86.19    1.86
   0  -3   3   34.66    1.17
   0  -3   4   36.02    1.25
   0  -3   5   28.37    1.14
   0  -3   5   30.14    1.10
   0  -3   6    7.83    0.59
   0  -3   6    8.39    0.57
   0  -3   7    3.71    0.44
   0  -3   7    3.33    0.39
   0  -3   8    1.94    0.33
   0  -3   8    1.94    0.35
   0  -3   8    1.50    0.20
   0  -3   9   -0.07    0.16
   0  -3   9    0.13    0.24
   0  -3  10    2.34    0.43
   0  -3  10    2.41    0.47
   0  -3  11    0.56    0.31
   0  -3  11    0.07    0.17
   0  -3  12   10.69    1.14
   0  -3  12    9.57    0.94
   0  -3  13    5.39    0.86
   0  -3  14    8.78    1.15
   0  -2 -12    3.51    0.72
   0  -2 -11    0.22    0.39
   0  -2 -10    2.61    0.59
   0  -2  -9    0.40    0.30
   0  -2  -8    2.47    0.54
   0  -2  -7   11.08    1.02
   0  -2  -6    6.94    0.60
   0  -2  -6    6.58    0.75
   0  -2  -5   16.74    1.11
   0  -2  -5   17.38    0.90
   0  -2  -4   85.91    2.32
   0  -2  -4   85.79    2.71
   0  -2  -3   52.93    1.52
   0  -2  -3   53.21    1.86
   0  -2  -2  177.36    3.84
   0  -2  -2  173.42    4.20
   0  -2  -1   57.52    1.66
   0  -2   0  328.32    6.59
   0  -2   0  314.04    6.59
   0  -2   1   38.88    1.07
   0  -2   1   37.56    0.93
   0  -2   2  383.31    7.79
   0  -2   3   51.31    1.43
   0  -2   4  435.70    9.01
   0  -2   4  437.58    8.95
   0  -2   5  286.20    6.29
   0  -2   5  290.58    6.24
   0  -2   6  113.62    2.99
   0  -2   6  109.67    2.56
   0  -2   6  118.73    2.98
   0  -2   7   73.47    2.40
   0  -2   7   67.70    1.75
   0  -2   7   73.23    2.23
   0  -2   8   27.51    1.43
   0  -2   8   24.73    1.23
   0  -2   9   30.52    1.62
   0  -2   9   30.77    1.49
   0  -2  10   21.21    1.42
   0  -2  10   20.56    1.25
   0  -2  11   29.75    1.81
   0  -2  11   25.65    1.53
   0  -2  12    1.66    0.50
   0  -2  12    1.20    0.36
   0  -2  13    5.36    0.86
   0  -1 -12    6.23    0.94
   0  -1 -11    6.21    0.89
   0  -1 -10   13.99    1.25
   0  -1  -9   20.02    1.43
   0  -1  -8   34.69    1.82
   0  -1  -7   49.91    2.13
   0  -1  -6   17.51    1.12
   0  -1  -5   68.30    2.08
   0  -1  -5   65.51    2.27
   0  -1  -4  141.81    3.41
   0  -1  -4  136.06    3.62
   0  -1  -3   86.80    2.16
   0  -1  -3   83.98    2.38
   0  -1  -2   89.45    2.35
   0  -1  -2   94.30    2.13
   0  -1   3    7.94    0.41
   0  -1   3    8.66    0.42
   0  -1   4    2.08    0.24
   0  -1   4    2.01    0.16
   0  -1   4    2.10    0.24
   0  -1   5    5.81    0.50
   0  -1   5    7.17    0.36
   0  -1   6   14.76    0.59
   0  -1   6   13.63    0.85
   0  -1   6   16.26    0.85
   0  -1   7   47.95    1.87
   0  -1   7   48.02    1.32
   0  -1   7   47.11    1.75
   0  -1   8   84.83    2.88
   0  -1   8   86.80    2.74
   0  -1   9   39.44    1.92
   0  -1   9   41.91    1.83
   0  -1  10   15.76    1.24
   0  -1  10   13.70    1.06
   0  -1  11    8.11    0.95
   0  -1  11    6.92    0.80
   0  -1  12   12.68    1.13
   0  -1  13    2.69    0.64
   0   0 -13   -0.63    0.42
   0   0 -12   -0.01    0.23
   0   0 -11    5.98    0.84
   0   0 -10    0.61    0.35
   0   0  -9   18.56    1.28
   0   0  -8   14.44    1.06
   0   0  -7   59.14    2.22
   0   0  -6   71.41    2.36
   0   0  -5   75.48    2.31
   0   0  -4  191.49    4.48
   0   0  -3  154.30    3.57
   0   0  -2  293.41    6.43
   0   0  -2  345.60    6.54
   0   0   2  390.64    7.93
   0   0   2  412.06    7.91
   0   0   3  155.74    3.47
   0   0   3  157.47    3.43
   0   0   4  187.33    4.27
   0   0   4  195.79    4.22
   0   0   5   70.93    2.18
   0   0   5   70.87    1.79
   0   0   5   72.29    2.11
   0   0   6   65.34    2.22
   0   0   6   67.28    2.15
   0   0   7   58.34    2.18
   0   0   7   58.60    2.08
   0   0   8   12.16    0.98
   0   0   8   13.42    0.95
   0   0   9   20.63    1.28
   0   0  10    0.49    0.24
   0   0  11    5.23    0.79
   0   0  11    5.86    0.79
   0   0  12    0.27    0.30
   0   0  12    0.39    0.29
   0   0  13    0.77    0.40
   0   1 -12   13.02    1.17
   0   1 -11    7.94    0.86
   0   1 -10   14.17    1.10
   0   1  -9   41.47    1.87
   0   1  -8   87.64    2.84
   0   1  -7   49.15    1.84
   0   1  -6   15.86    0.87
   0   1  -5    6.57    0.50
   0   1  -4    2.03    0.25
   0   1  -3    8.98    0.43
   0   1   1   29.10    0.85
   0   1   2   93.92    2.21
   0   1   2   92.61    2.26
   0   1   3   85.13    2.24
   0   1   4  133.41    3.36
   0   1   5   61.40    2.01
   0   1   6   17.02    1.00
   0   1   7   45.60    1.88
   0   1   8   32.10    1.66
   0   1   8   35.88    1.72
   0   1   9   18.31    1.29
   0   1   9   16.75    1.22
   0   1  10   13.93    1.17
   0   1  10   11.78    1.11
   0   1  11    4.69    0.75
   0   1  11    5.14    0.77
   0   1  12    5.06    0.77
   0   1  12    6.04    0.86
   0   2 -14   -0.08    0.33
   0   2 -13    5.25    0.82
   0   2 -11   26.51    1.51
   0   2 -10   22.65    1.31
   0   2  -9   31.40    1.48
   0   2  -8   28.21    1.30
   0   2  -7   81.79    2.40
   0   2  -6  115.41    2.94
   0   2  -5  281.60    5.99
   0   2  -4  443.07    9.12
   0   2  -4  448.78    8.96
   0   2  -4  427.70    8.80
   0   2  -3   52.00    1.46
   0   2  -3   51.92    1.32
   0   2  -3   51.24    1.35
   0   2  -3   53.95    1.20
   0   2  -2  381.00    7.57
   0   2  -2  374.47    7.59
   0   2  -2  388.57    7.74
   0   2  -1   37.18    1.04
   0   2  -1   38.28    1.06
   0   2   0  345.66    7.16
   0   2   0  357.49    7.19
   0   2   0  346.78    6.93
   0   2   1   57.88    1.44
   0   2   1   58.19    1.61
   0   2   1   57.60    1.59
   0   2   2  175.91    3.92
   0   2   2  180.28    4.11
   0   2   3   53.07    1.60
   0   2   3   52.23    1.71
   0   2   4   80.92    2.33
   0   2   4   82.23    2.46
   0   2   5   15.16    0.89
   0   2   5   16.45    0.98
   0   2   6    5.73    0.62
   0   2   6    5.76    0.59
   0   2   7   10.44    0.87
   0   2   7   11.42    0.93
   0   2   8    2.55    0.48
   0   2   8    2.59    0.47
   0   2   9    0.00    0.21
   0   2   9    0.54    0.31
   0   2  10    1.72    0.44
   0   2  10    1.38    0.44
   0   2  11    0.33    0.31
   0   2  11    0.53    0.33
   0   2  11    0.44    0.30
   0   2  12    2.16    0.61
   0   2  12    1.57    0.53
   0   2  12    2.60    0.68
   0   3 -14    4.10    0.75
   0   3 -14    4.76    0.82
   0   3 -13    5.45    0.80
   0   3 -12    9.38    0.99
   0   3 -11    0.65    0.31
   0   3 -10    2.47    0.45
   0   3 -10    2.24    0.39
   0   3  -9    0.07    0.13
   0   3  -9    0.17    0.19
   0   3  -8    1.68    0.28
   0   3  -8    1.69    0.33
   0   3  -7    3.44    0.41
   0   3  -7    3.70    0.35
   0   3  -7    3.21    0.45
   0   3  -6    8.37    0.65
   0   3  -6    8.17    0.56
   0   3  -6    9.14    0.48
   0   3  -5   30.30    1.21
   0   3  -5   30.80    1.08
   0   3  -5   29.73    0.87
   0   3  -4   34.73    1.22
   0   3  -4   34.27    1.05
   0   3  -4   34.96    1.07
   0   3  -4   33.28    0.81
   0   3  -3   35.67    1.02
   0   3  -3   35.14    1.05
   0   3  -3   35.40    1.18
   0   3  -2   82.40    1.93
   0   3  -2   81.34    2.02
   0   3  -2   86.24    2.14
   0   3  -1   54.66    1.54
   0   3  -1   53.30    1.44
   0   3  -1   53.80    1.51
   0   3   0  291.19    6.27
   0   3   0  303.75    6.31
   0   3   0  289.79    5.93
   0   3   1   83.90    2.30
   0   3   1   86.74    2.28
   0   3   1   81.66    1.75
   0   3   2  127.63    3.32
   0   3   2  130.07    3.35
   0   3   2  126.68    3.04
   0   3   3  136.86    3.41
   0   3   3  143.90    3.71
   0   3   4   98.43    2.72
   0   3   4  103.35    2.98
   0   3   4   93.49    2.04
   0   3   5   85.25    2.63
   0   3   5   84.67    2.81
   0   3   6   38.63    1.68
   0   3   6   36.60    1.78
   0   3   7   44.54    1.96
   0   3   7   44.57    2.08
   0   3   8   23.16    1.45
   0   3   8   23.51    1.54
   0   3   9    8.13    0.89
   0   3   9    8.78    0.98
   0   3   9    9.92    1.08
   0   3  10    6.62    0.93
   0   3  10    5.43    0.82
   0   3  10    4.30    0.69
   0   3  11    8.46    1.09
   0   3  11    6.60    0.94
   0   4 -14    1.57    0.53
   0   4 -14    1.84    0.59
   0   4 -13    2.20    0.52
   0   4 -13    2.50    0.62
   0   4 -12    5.66    0.76
   0   4 -12    6.62    0.92
   0   4 -11   23.86    1.62
   0   4 -11   25.14    1.49
   0   4 -10   24.77    1.52
   0   4 -10   24.08    1.37
   0   4  -9   44.70    2.02
   0   4  -9   47.89    1.89
   0   4  -8   53.64    2.16
   0   4  -8   57.79    2.00
   0   4  -8   59.49    1.67
   0   4  -7  102.16    3.07
   0   4  -7  100.06    2.79
   0   4  -7  103.64    2.40
   0   4  -6   95.14    2.75
   0   4  -6   93.57    2.48
   0   4  -6   91.90    2.04
   0   4  -5   58.26    1.68
   0   4  -5   60.01    1.70
   0   4  -5   62.38    1.95
   0   4  -4  219.78    4.72
   0   4  -4  214.57    4.78
   0   4  -4  220.60    5.02
   0   4  -3   65.40    1.69
   0   4  -3   64.99    1.80
   0   4  -3   66.36    1.93
   0   4  -2   66.85    1.91
   0   4  -2   72.51    2.02
   0   4  -1   42.68    1.44
   0   4  -1   41.55    1.41
   0   4   0   74.00    2.16
   0   4   0   72.57    2.17
   0   4   1    2.07    0.34
   0   4   1    1.90    0.30
   0   4   2   16.46    0.78
   0   4   2   15.73    0.96
   0   4   3    0.11    0.22
   0   4   3    0.64    0.25
   0   4   3    0.12    0.13
   0   4   4    0.79    0.23
   0   4   4    0.63    0.33
   0   4   4    0.75    0.29
   0   4   5    0.08    0.14
   0   4   5    0.05    0.26
   0   4   5    0.16    0.23
   0   4   6    0.23    0.21
   0   4   6    0.43    0.34
   0   4   6    0.55    0.27
   0   4   7    1.98    0.44
   0   4   7    1.23    0.42
   0   4   7    1.71    0.44
   0   4   8    2.18    0.47
   0   4   8    1.82    0.53
   0   4   8    2.30    0.53
   0   4   9    1.28    0.50
   0   4   9    2.10    0.55
   0   4  10    4.85    0.84
   0   4  10    3.55    0.70
   0   5 -15    0.19    0.36
   0   5 -14    0.27    0.33
   0   5 -14    0.53    0.36
   0   5 -13    0.40    0.42
   0   5 -13    0.59    0.32
   0   5 -12    0.55    0.40
   0   5 -12    0.52    0.29
   0   5 -11    3.72    0.66
   0   5 -11    4.32    0.60
   0   5 -10    1.43    0.44
   0   5 -10    2.31    0.44
   0   5  -9   10.50    0.93
   0   5  -9   12.65    0.87
   0   5  -8   26.77    1.43
   0   5  -8   27.70    1.24
   0   5  -7   26.29    1.12
   0   5  -7   24.84    1.30
   0   5  -6   95.37    2.54
   0   5  -6   94.62    2.56
   0   5  -6   98.79    2.90
   0   5  -5   61.14    1.73
   0   5  -5   60.38    1.81
   0   5  -5   58.71    2.00
   0   5  -4  141.97    3.34
   0   5  -4  144.97    3.51
   0   5  -4  146.26    3.71
   0   5  -3   64.11    1.95
   0   5  -3   69.65    2.11
   0   5  -2  116.43    3.13
   0   5  -2  116.99    3.06
   0   5  -1   16.90    0.93
   0   5  -1   17.80    0.94
   0   5   0  149.01    3.94
   0   5   0  154.46    3.98
   0   5   1  105.28    3.15
   0   5   1  107.63    3.15
   0   5   2   80.58    2.71
   0   5   3   74.24    2.68
   0   5   4   41.39    1.65
   0   5   4   42.79    2.01
   0   5   5   25.75    1.34
   0   5   5   27.76    1.65
   0   5   6   13.15    0.98
   0   5   6   10.66    1.09
   0   5   7   12.92    1.23
   0   5   8    4.29    0.76
   0   5   9    8.96    1.16
   0   6 -14    6.03    0.99
   0   6 -13    9.29    1.13
   0   6 -13    7.47    0.90
   0   6 -12   13.40    1.27
   0   6 -12   12.70    1.07
   0   6 -11   19.33    1.43
   0   6 -11   18.48    1.21
   0   6 -10   13.70    1.14
   0   6 -10   12.90    0.93
   0   6  -9   28.15    1.32
   0   6  -9   24.95    1.48
   0   6  -8   35.32    1.46
   0   6  -8   46.57    1.95
   0   6  -7   17.82    0.89
   0   6  -7   17.75    0.92
   0   6  -7   17.45    1.10
   0   6  -6   25.00    1.04
   0   6  -6   25.43    1.12
   0   6  -6   25.64    1.31
   0   6  -5   28.75    1.09
   0   6  -5   28.75    1.21
   0   6  -5   28.69    1.36
   0   6  -4   11.75    0.74
   0   6  -4   13.23    0.86
   0   6  -3    4.01    0.44
   0   6  -3    4.81    0.52
   0   6  -2    4.73    0.53
   0   6  -2    5.64    0.54
   0   6  -1    3.22    0.46
   0   6  -1    3.16    0.45
   0   6   0    1.28    0.34
   0   6   0    1.53    0.35
   0   6   1    1.10    0.34
   0   6   1    1.07    0.36
   0   6   2    4.75    0.64
   0   6   3   -0.13    0.27
   0   6   4   11.88    1.09
   0   6   5    9.04    1.01
   0   6   6    5.49    0.84
   0   6   7    3.29    0.72
   0   6   8    6.06    0.97
   0   7 -14    1.41    0.52
   0   7 -13    4.72    0.83
   0   7 -12    1.29    0.48
   0   7 -11   11.57    1.12
   0   7 -10   16.09    1.03
   0   7 -10   16.98    1.30
   0   7  -9   20.57    1.10
   0   7  -9   17.83    1.27
   0   7  -8   31.66    1.34
   0   7  -8   32.74    1.68
   0   7  -7   21.72    1.03
   0   7  -7   21.15    1.09
   0   7  -7   20.31    1.26
   0   7  -6   24.20    1.05
   0   7  -6   23.00    1.15
   0   7  -6   21.66    1.27
   0   7  -5   25.47    1.24
   0   7  -5   26.20    1.37
   0   7  -4  161.23    4.20
   0   7  -4  158.46    4.35
   0   7  -3   55.99    2.18
   0   7  -3   63.69    2.20
   0   7  -2   86.93    2.90
   0   7  -2   91.21    2.89
   0   7  -1   59.29    2.33
   0   7  -1   63.42    2.36
   0   7   0   60.33    2.40
   0   7   0   60.90    2.41
   0   7   1   16.00    1.20
   0   7   1   17.14    1.23
   0   7   2    7.59    0.86
   0   7   3   10.63    1.07
   0   7   4    8.55    1.01
   0   7   5   11.27    1.21
   0   7   6    2.26    0.64
   0   8 -14    2.66    0.69
   0   8 -13    2.43    0.67
   0   8 -12    5.99    0.89
   0   8 -11    5.00    0.77
   0   8 -10    4.39    0.69
   0   8  -9    3.66    0.62
   0   8  -8    2.40    0.51
   0   8  -7    0.00    0.19
   0   8  -7    0.13    0.14
   0   8  -6   18.02    1.07
   0   8  -6   15.43    1.12
   0   8  -5    3.76    0.56
   0   8  -5    3.81    0.52
   0   8  -4    0.53    0.21
   0   8  -4   -0.28    0.25
   0   8  -3    3.05    0.51
   0   8  -3    2.86    0.47
   0   8  -2    4.90    0.63
   0   8  -2    4.52    0.62
   0   8  -1   11.66    1.02
   0   8  -1   11.29    0.98
   0   8   0   22.36    1.47
   0   8   0   21.89    1.46
   0   8   1   18.77    1.39
   0   8   1   16.59    1.33
   0   8   2   12.14    1.18
   0   8   3   15.55    1.39
   0   8   4   10.63    1.18
   0   8   5    6.02    0.95
   0   9 -13   12.93    1.38
   0   9 -12    8.16    1.04
   0   9 -11   10.35    1.13
   0   9 -10   17.75    1.41
   0   9  -9   30.90    1.83
   0   9  -8   37.70    1.98
   0   9  -7   29.11    1.49
   0   9  -7   25.74    1.60
   0   9  -6   61.72    2.35
   0   9  -6   56.02    2.45
   0   9  -5   26.30    1.59
   0   9  -5   30.51    1.59
   0   9  -4   35.35    1.88
   0   9  -4   39.09    1.87
   0   9  -3   17.89    1.30
   0   9  -3   14.48    1.13
   0   9  -2   20.50    1.44
   0   9  -2   19.43    1.36
   0   9  -1   16.53    1.29
   0   9  -1   16.76    1.34
   0   9   0   22.22    1.57
   0   9   0   21.72    1.59
   0   9   1   10.33    1.12
   0   9   2    6.00    0.89
   0   9   3    5.28    0.89
   0  10 -12    0.40    0.41
   0  10 -11    2.32    0.59
   0  10 -10    1.73    0.49
   0  10  -9    0.21    0.25
   0  10  -8    1.40    0.44
   0  10  -7    2.95    0.58
   0  10  -6    5.14    0.67
   0  10  -6    4.68    0.71
   0  10  -5    6.91    0.85
   0  10  -5    6.99    0.81
   0  10  -4   16.68    1.35
   0  10  -4   17.22    1.29
   0  10  -3   13.63    1.23
   0  10  -3   12.27    1.13
   0  10  -2   18.87    1.51
   0  10  -2   18.52    1.44
   0  10  -1   19.04    1.51
   0  10  -1   19.01    1.56
   0  10   0   17.96    1.52
   0  10   0   16.46    1.52
   0  10   1   17.74    1.57
   0  11 -11   16.08    1.49
   0  11 -10   13.97    1.32
   0  11  -9   13.44    1.29
   0  11  -8   25.59    1.79
   0  11  -7   16.85    1.44
   0  11  -6   14.23    1.32
   0  11  -5   11.75    1.21
   0  11  -5   10.49    1.06
   0  11  -4   12.88    1.27
   0  11  -4   10.41    1.08
   0  11  -3    3.11    0.69
   0  11  -3    3.12    0.61
   0  11  -2    3.37    0.64
   0  11  -2    4.00    0.77
   0  11  -1    0.30    0.22
   0  11  -1    0.35    0.36
   0  12  -4   11.43    1.21
   0  12  -3   11.79    1.28
   1 -12   3   11.96    1.34
   1 -12   4   13.09    1.37
   1 -12   5   10.06    1.20
   1 -12   6    7.48    1.03
   1 -12   7    2.99    0.69
   1 -12   8    4.00    0.78
   1 -12   9    2.94    0.65
   1 -12  11    0.38    0.31
   1 -11  -1    3.33    0.74
   1 -11   0    2.43    0.67
   1 -11   1    6.55    0.93
   1 -11   2   12.82    1.33
   1 -11   3   15.22    1.40
   1 -11   4   17.43    1.47
   1 -11   5   15.20    1.37
   1 -11   6   24.22    1.73
   1 -11   7   26.26    1.80
   1 -11   8   18.64    1.54
   1 -11   9   14.02    1.33
   1 -11  10   20.52    1.64
   1 -11  11   13.16    1.34
   1 -11  11   12.42    1.24
   1 -10  -3    8.07    1.11
   1 -10  -3   10.45    1.25
   1 -10  -2   14.63    1.43
   1 -10  -2   13.62    1.39
   1 -10  -1   13.57    1.35
   1 -10   0    8.70    1.05
   1 -10   1   13.87    1.29
   1 -10   2   14.81    1.29
   1 -10   3   16.74    1.35
   1 -10   4   11.49    1.10
   1 -10   5    3.92    0.66
   1 -10   6    1.53    0.43
   1 -10   7    1.81    0.49
   1 -10   8    1.45    0.49
   1 -10   9    0.13    0.24
   1 -10  10    0.30    0.28
   1 -10  10    0.71    0.33
   1 -10  11    3.82    0.72
   1 -10  11    2.02    0.48
   1 -10  12    1.04    0.39
   1 -10  12    2.11    0.55
   1 -10  13    0.33    0.29
   1  -9  -4    0.94    0.50
   1  -9  -4    0.73    0.38
   1  -9  -3    7.40    0.98
   1  -9  -3    6.63    0.96
   1  -9  -2   10.22    1.12
   1  -9  -2   11.35    1.19
   1  -9  -1   18.09    1.45
   1  -9  -1   19.25    1.46
   1  -9   0   22.70    1.56
   1  -9   0   22.19    1.47
   1  -9   1   26.18    1.65
   1  -9   2   45.84    2.21
   1  -9   3   40.35    2.02
   1  -9   4   44.79    2.12
   1  -9   5   52.79    2.34
   1  -9   6   68.93    2.75
   1  -9   7   34.58    1.86
   1  -9   8   42.19    2.14
   1  -9   9   25.60    1.63
   1  -9  10   16.17    1.33
   1  -9  10   17.56    1.33
   1  -9  11   17.30    1.42
   1  -9  11   19.26    1.42
   1  -9  12    7.08    0.94
   1  -9  12    7.90    0.94
   1  -9  13    1.06    0.36
   1  -9  14   -0.15    0.24
   1  -8  -5    4.40    0.77
   1  -8  -5    4.89    0.88
   1  -8  -4    6.48    0.94
   1  -8  -4    7.12    1.02
   1  -8  -3   21.26    1.56
   1  -8  -3   22.39    1.69
   1  -8  -2   25.92    1.66
   1  -8  -2   24.61    1.66
   1  -8  -1   20.58    1.43
   1  -8  -1   21.40    1.44
   1  -8   0    5.99    0.74
   1  -8   0    7.45    0.78
   1  -8   1    3.99    0.59
   1  -8   1    4.86    0.58
   1  -8   2    1.63    0.41
   1  -8   2    2.10    0.34
   1  -8   3    0.38    0.23
   1  -8   4    1.97    0.42
   1  -8   5    4.97    0.64
   1  -8   6   31.22    1.63
   1  -8   7   32.83    1.72
   1  -8   8    5.09    0.67
   1  -8   9   11.38    1.02
   1  -8   9   10.01    0.95
   1  -8  10   13.64    1.16
   1  -8  10   14.57    1.16
   1  -8  11    8.45    0.94
   1  -8  11    9.56    0.97
   1  -8  12    6.62    0.84
   1  -8  12    5.96    0.82
   1  -8  13   11.75    1.18
   1  -8  14    8.73    1.03
   1  -7  -7    3.57    0.77
   1  -7  -6    4.27    0.73
   1  -7  -6    6.25    1.01
   1  -7  -5   18.48    1.49
   1  -7  -5   22.13    1.75
   1  -7  -4   23.54    1.61
   1  -7  -4   25.35    1.77
   1  -7  -3   40.68    2.07
   1  -7  -3   40.07    2.17
   1  -7  -2   63.26    2.59
   1  -7  -2   64.80    2.71
   1  -7  -1   66.44    2.60
   1  -7  -1   73.00    2.72
   1  -7   0   68.86    2.56
   1  -7   0   70.69    2.52
   1  -7   1   88.19    2.95
   1  -7   1   92.56    2.80
   1  -7   2   94.16    3.04
   1  -7   2   98.58    2.72
   1  -7   3   64.24    2.30
   1  -7   3   61.11    1.78
   1  -7   4   76.67    2.60
   1  -7   5   52.34    2.05
   1  -7   6  119.82    3.58
   1  -7   7   50.84    2.10
   1  -7   8   19.47    1.24
   1  -7   8   20.66    1.25
   1  -7   9    8.72    0.85
   1  -7   9    8.89    0.83
   1  -7  10    5.15    0.69
   1  -7  10    5.99    0.70
   1  -7  11    3.19    0.54
   1  -7  11    2.64    0.53
   1  -7  12    1.60    0.49
   1  -7  12    2.37    0.50
   1  -7  13    2.12    0.53
   1  -7  14   -0.06    0.32
   1  -6  -8    4.91    0.92
   1  -6  -7    5.36    0.89
   1  -6  -6    5.95    0.91
   1  -6  -5    3.17    0.65
   1  -6  -4    0.52    0.35
   1  -6  -3    1.20    0.43
   1  -6  -2    2.98    0.53
   1  -6  -2    2.13    0.42
   1  -6  -2    2.04    0.30
   1  -6  -1    0.05    0.25
   1  -6  -1    0.30    0.24
   1  -6   0   10.05    0.80
   1  -6   0   10.64    0.80
   1  -6   1   12.75    0.86
   1  -6   1   12.39    0.79
   1  -6   2   57.04    2.06
   1  -6   2   62.58    1.82
   1  -6   3   19.74    1.07
   1  -6   3   20.19    0.75
   1  -6   4   33.65    1.45
   1  -6   5   48.62    1.84
   1  -6   6   42.69    1.74
   1  -6   7   44.30    1.82
   1  -6   7   44.62    1.81
   1  -6   8   60.00    2.27
   1  -6   8   62.03    2.28
   1  -6   9   57.54    2.26
   1  -6   9   55.80    2.22
   1  -6  10   37.05    1.80
   1  -6  10   34.92    1.74
   1  -6  11   32.32    1.74
   1  -6  11   28.40    1.63
   1  -6  12   13.48    1.16
   1  -6  12   14.18    1.17
   1  -6  13   12.57    1.28
   1  -6  13   11.54    1.11
   1  -6  14    4.02    0.77
   1  -5  -9    8.66    1.17
   1  -5  -8   11.22    1.28
   1  -5  -7   26.58    1.88
   1  -5  -6   33.02    2.02
   1  -5  -5   43.09    2.24
   1  -5  -4   59.33    2.57
   1  -5  -3   85.26    2.35
   1  -5  -3   90.10    3.13
   1  -5  -2   99.54    2.60
   1  -5  -2   96.63    3.17
   1  -5  -1  117.60    3.42
   1  -5   0  123.53    3.28
   1  -5   0  113.50    3.21
   1  -5   1  201.93    4.80
   1  -5   1  198.66    4.65
   1  -5   2  258.00    5.88
   1  -5   2  256.21    5.51
   1  -5   3   43.46    1.55
   1  -5   3   43.11    1.11
   1  -5   4  104.56    2.88
   1  -5   5   61.38    2.01
   1  -5   6   16.93    0.96
   1  -5   7    0.80    0.25
   1  -5   7    1.43    0.30
   1  -5   8   15.08    0.98
   1  -5   8   14.47    0.96
   1  -5   9    0.80    0.28
   1  -5   9    0.80    0.27
   1  -5  10    0.17    0.20
   1  -5  10   -0.08    0.15
   1  -5  11    0.03    0.25
   1  -5  11   -0.02    0.20
   1  -5  12    0.31    0.28
   1  -5  12   -0.08    0.37
   1  -5  13   -0.30    0.29
   1  -5  13    0.17    0.31
   1  -5  14    2.18    0.61
   1  -4 -10    3.39    0.74
   1  -4  -9   -0.21    0.31
   1  -4  -8    0.94    0.42
   1  -4  -7    2.60    0.63
   1  -4  -6    1.02    0.43
   1  -4  -5    3.08    0.60
   1  -4  -4    1.05    0.37
   1  -4  -4    1.12    0.19
   1  -4  -3    5.44    0.39
   1  -4  -3    5.45    0.65
   1  -4  -2   38.33    1.20
   1  -4  -2   36.80    1.62
   1  -4  -1   43.67    1.65
   1  -4   0  129.28    3.22
   1  -4   0  121.93    3.20
   1  -4   1   41.75    1.40
   1  -4   1   40.36    1.30
   1  -4   2  182.37    4.14
   1  -4   2  175.57    3.81
   1  -4   3  143.34    3.46
   1  -4   4   56.41    1.74
   1  -4   5   28.72    1.16
   1  -4   5   29.01    1.19
   1  -4   6  125.07    3.29
   1  -4   6  128.03    3.37
   1  -4   7   61.32    2.05
   1  -4   7   64.04    2.13
   1  -4   8   35.40    1.51
   1  -4   8   35.48    1.56
   1  -4   9   47.03    1.88
   1  -4   9   47.92    1.96
   1  -4  10   12.47    0.99
   1  -4  11   16.40    1.31
   1  -4  11   16.87    1.23
   1  -4  12   11.35    1.14
   1  -4  12   11.57    1.08
   1  -4  13   13.85    1.32
   1  -4  13   11.21    1.12
   1  -4  14    2.05    0.60
   1  -3 -11    4.73    0.85
   1  -3 -10    7.87    1.06
   1  -3  -9   22.86    1.72
   1  -3  -8   28.21    1.83
   1  -3  -7   29.89    1.80
   1  -3  -6   61.21    2.57
   1  -3  -5   59.80    1.82
   1  -3  -5   62.74    2.47
   1  -3  -4   14.25    0.66
   1  -3  -4   14.36    1.03
   1  -3  -3   41.03    1.19
   1  -3  -3   41.96    1.73
   1  -3  -2   41.42    1.14
   1  -3  -2   40.55    1.59
   1  -3  -1   37.44    1.39
   1  -3   0   73.10    2.00
   1  -3   1    7.93    0.46
   1  -3   1    7.70    0.41
   1  -3   2   28.40    0.97
   1  -3   2   28.77    0.75
   1  -3   3    7.92    0.46
   1  -3   4   12.48    0.63
   1  -3   4   11.58    0.63
   1  -3   5    0.00    0.12
   1  -3   5    0.07    0.10
   1  -3   6    3.26    0.35
   1  -3   6    2.91    0.37
   1  -3   7    5.68    0.51
   1  -3   7    6.13    0.30
   1  -3   7    5.92    0.56
   1  -3   8    0.36    0.22
   1  -3   8    0.82    0.23
   1  -3   9    2.00    0.38
   1  -3   9    2.79    0.51
   1  -3  10   12.83    1.09
   1  -3  10   14.64    1.08
   1  -3  11    4.30    0.68
   1  -3  11    3.95    0.58
   1  -3  12    4.19    0.72
   1  -3  12    3.92    0.66
   1  -3  13    1.12    0.47
   1  -3  13    1.53    0.44
   1  -3  14    4.47    0.79
   1  -2 -12   -0.50    0.26
   1  -2 -11    1.53    0.49
   1  -2 -10    0.83    0.37
   1  -2  -9    3.44    0.64
   1  -2  -8    1.93    0.49
   1  -2  -7   13.89    1.14
   1  -2  -6   10.95    0.96
   1  -2  -5   54.07    2.14
   1  -2  -4   78.24    2.02
   1  -2  -4   78.06    2.56
   1  -2  -3   95.24    2.15
   1  -2  -3   85.83    2.67
   1  -2  -2  277.09    5.35
   1  -2  -2  229.54    5.87
   1  -2  -1   51.77    1.54
   1  -2   0   45.52    1.24
   1  -2   1  116.99    2.65
   1  -2   1  123.01    2.54
   1  -2   2  508.11   10.11
   1  -2   3   93.38    2.17
   1  -2   3   89.82    2.27
   1  -2   4  236.93    5.06
   1  -2   4  237.03    5.23
   1  -2   5  107.53    2.69
   1  -2   5  112.18    2.89
   1  -2   6   88.39    2.42
   1  -2   6   91.36    2.61
   1  -2   7  104.39    3.11
   1  -2   7  107.06    3.09
   1  -2   8   63.88    2.34
   1  -2   8   63.53    2.30
   1  -2   9   45.57    2.03
   1  -2   9   46.52    1.99
   1  -2  10    5.22    0.71
   1  -2  10    4.96    0.65
   1  -2  11    5.97    0.80
   1  -2  11    5.82    0.76
   1  -2  12    1.72    0.45
   1  -2  12    1.39    0.45
   1  -2  13    3.69    0.72
   1  -2  13    3.19    0.61
   1  -1 -13    4.38    0.78
   1  -1 -12    4.89    0.86
   1  -1 -11   12.07    1.21
   1  -1 -10   19.63    1.48
   1  -1  -9    3.66    0.64
   1  -1  -8    2.21    0.48
   1  -1  -7   16.22    1.15
   1  -1  -6   37.23    1.70
   1  -1  -5   45.37    1.80
   1  -1  -4   20.92    1.06
   1  -1  -3   28.63    0.90
   1  -1  -3   28.56    1.14
   1  -1  -2   80.33    1.79
   1  -1  -2   80.73    2.10
   1  -1   2   35.43    0.86
   1  -1   2   34.63    1.02
   1  -1   3   71.01    1.68
   1  -1   3   70.88    1.88
   1  -1   4    0.15    0.11
   1  -1   5   51.67    1.72
   1  -1   5   54.32    1.77
   1  -1   6   44.90    1.68
   1  -1   6   46.74    1.71
   1  -1   7    7.15    0.66
   1  -1   7    6.43    0.62
   1  -1   8    0.84    0.30
   1  -1   8    0.70    0.27
   1  -1   9    6.81    0.77
   1  -1   9    7.11    0.76
   1  -1  10   19.49    1.39
   1  -1  10   19.27    1.33
   1  -1  11   15.65    1.28
   1  -1  12    6.59    0.86
   1  -1  13    3.35    0.70
   1  -1  13    0.89    0.34
   1   0 -13    0.86    0.38
   1   0 -12    2.54    0.55
   1   0 -11    3.07    0.59
   1   0 -10    2.72    0.54
   1   0  -9   49.86    2.21
   1   0  -8   51.46    2.15
   1   0  -7   76.75    2.63
   1   0  -6   95.82    2.92
   1   0  -5  102.40    2.89
   1   0  -4  135.17    3.29
   1   0  -4  141.97    3.43
   1   0  -3  208.75    4.52
   1   0  -3  210.13    4.61
   1   0  -2  363.28    7.26
   1   0  -2  355.90    7.30
   1   0   2  511.33   10.22
   1   0   2  514.06   10.38
   1   0   3  106.92    2.64
   1   0   3  116.18    2.80
   1   0   4   84.98    2.29
   1   0   4   83.39    2.36
   1   0   5   76.41    2.31
   1   0   5   80.38    2.40
   1   0   6   38.01    1.56
   1   0   6   37.55    1.58
   1   0   7   10.12    0.82
   1   0   7   10.66    0.85
   1   0   8    4.93    0.62
   1   0   9    8.83    0.88
   1   0  10   -0.01    0.23
   1   0  11    5.93    0.83
   1   0  11    6.13    0.83
   1   0  12   -0.23    0.30
   1   0  12   -0.07    0.30
   1   0  13    0.19    0.24
   1   0  13   -0.07    0.24
   1   1 -12    5.56    0.81
   1   1 -11    3.98    0.63
   1   1 -10   12.96    1.06
   1   1  -9    7.63    0.77
   1   1  -8    1.44    0.36
   1   1  -7    4.74    0.53
   1   1  -6    5.24    0.51
   1   1  -5    4.68    0.41
   1   1  -4    0.85    0.17
   1   1  -4    0.83    0.21
   1   1  -3    0.40    0.10
   1   1  -3    0.57    0.16
   1   1  -2   29.74    0.86
   1   1  -2   29.74    0.93
   1   1  -1    0.41    0.09
   1   1   0   68.18    1.58
   1   1   0   66.20    1.61
   1   1   0   68.43    1.56
   1   1   1   60.39    1.63
   1   1   1   61.20    1.58
   1   1   1   63.86    1.47
   1   1   2   29.94    1.07
   1   1   3   13.15    0.73
   1   1   4   22.69    1.08
   1   1   5   54.38    1.97
   1   1   6   68.06    2.41
   1   1   7   52.96    2.17
   1   1   8   22.59    1.35
   1   1   8   24.00    1.46
   1   1   9   29.14    1.65
   1   1   9   28.33    1.70
   1   1  10   11.25    1.08
   1   1  10   11.02    1.11
   1   1  11    4.18    0.71
   1   1  11    4.50    0.78
   1   1  12    4.56    0.81
   1   1  12    4.07    0.78
   1   2 -14    3.23    0.64
   1   2 -11   17.59    1.23
   1   2 -10   15.13    1.07
   1   2  -9   39.06    1.71
   1   2  -8   54.72    1.98
   1   2  -7   70.95    2.22
   1   2  -6   95.93    2.56
   1   2  -5   70.63    2.07
   1   2  -5   65.66    2.14
   1   2  -5   67.55    1.83
   1   2  -4   62.26    1.79
   1   2  -4   59.43    1.87
   1   2  -4   62.11    1.57
   1   2  -3  164.05    3.67
   1   2  -3  163.99    3.35
   1   2  -3  163.48    3.39
   1   2  -3  156.81    3.77
   1   2  -2  424.85    8.66
   1   2  -2  417.10    8.78
   1   2  -2  427.97    8.99
   1   2  -1   24.40    0.78
   1   2  -1   25.02    0.82
   1   2  -1   24.67    0.83
   1   2   0  223.86    4.42
   1   2   0  221.62    4.47
   1   2   1  105.44    2.30
   1   2   1  105.68    2.67
   1   2   1  104.90    2.62
   1   2   1  106.18    2.35
   1   2   2   66.23    1.69
   1   2   2   65.37    1.99
   1   2   2   66.80    1.61
   1   2   3    1.83    0.24
   1   2   3    1.57    0.29
   1   2   4   16.89    0.84
   1   2   4   17.40    1.01
   1   2   5    1.24    0.27
   1   2   5    1.01    0.29
   1   2   6    0.36    0.19
   1   2   6    0.35    0.25
   1   2   7    0.20    0.21
   1   2   7   -0.12    0.23
   1   2   8    1.81    0.41
   1   2   8    1.57    0.44
   1   2   9    0.13    0.19
   1   2   9    0.03    0.20
   1   2  10    4.71    0.72
   1   2  10    5.17    0.81
   1   2  11   -0.22    0.26
   1   3 -14    2.58    0.60
   1   3 -14    1.91    0.63
   1   3 -13   -0.35    0.32
   1   3 -13   -1.07    0.47
   1   3 -12    0.08    0.27
   1   3 -12    0.52    0.35
   1   3 -11    0.57    0.29
   1   3 -11    0.44    0.29
   1   3 -10    1.27    0.31
   1   3 -10    1.01    0.38
   1   3  -9    3.57    0.43
   1   3  -9    3.39    0.54
   1   3  -8    0.87    0.24
   1   3  -8    0.98    0.32
   1   3  -7    3.23    0.46
   1   3  -7    3.00    0.36
   1   3  -7    3.25    0.35
   1   3  -6   10.57    0.73
   1   3  -6   12.02    0.64
   1   3  -6   11.02    0.56
   1   3  -5   54.25    1.76
   1   3  -5   52.81    1.48
   1   3  -5   53.66    1.91
   1   3  -5   52.05    1.39
   1   3  -4  149.04    3.19
   1   3  -4  142.14    3.18
   1   3  -4  153.81    3.58
   1   3  -4  146.15    3.72
   1   3  -3   48.38    1.18
   1   3  -3   48.51    1.29
   1   3  -3   50.54    1.52
   1   3  -3   48.54    1.58
   1   3  -2  295.50    6.18
   1   3  -2  307.50    6.37
   1   3  -2  286.93    6.32
   1   3  -1  326.26    6.91
   1   3  -1  326.14    6.83
   1   3  -1  322.88    6.77
   1   3   0  174.67    4.04
   1   3   0  172.41    4.03
   1   3   0  171.67    3.75
   1   3   1   85.87    2.47
   1   3   1   88.98    2.44
   1   3   1   87.12    2.04
   1   3   2  223.19    4.81
   1   3   2  223.86    5.32
   1   3   2  221.74    4.63
   1   3   3   84.66    2.30
   1   3   3   89.87    2.73
   1   3   3   84.91    2.00
   1   3   4   65.53    2.02
   1   3   4   67.71    2.40
   1   3   4   63.79    1.64
   1   3   5   79.71    2.47
   1   3   5   77.11    2.78
   1   3   6   37.54    1.62
   1   3   6   37.10    1.87
   1   3   7   34.83    1.66
   1   3   7   31.45    1.81
   1   3   8   12.83    1.05
   1   3   8   14.35    1.24
   1   3   9   14.03    1.30
   1   3  10    5.87    0.89
   1   3  10    3.52    0.68
   1   4 -14    2.88    0.82
   1   4 -14    2.63    0.63
   1   4 -13   15.21    1.42
   1   4 -13   14.56    1.23
   1   4 -12   16.68    1.42
   1   4 -12   19.85    1.35
   1   4 -11   24.26    1.62
   1   4 -11   25.41    1.45
   1   4 -10   49.12    2.27
   1   4 -10   52.77    2.05
   1   4  -9   69.47    2.63
   1   4  -9   69.75    2.33
   1   4  -8   61.41    2.31
   1   4  -8   61.31    2.00
   1   4  -8   60.29    1.81
   1   4  -7   72.05    2.43
   1   4  -7   73.21    2.10
   1   4  -7   70.96    1.90
   1   4  -6   69.45    1.93
   1   4  -6   73.57    2.33
   1   4  -6   72.72    1.78
   1   4  -5   50.78    1.42
   1   4  -5   52.40    1.46
   1   4  -5   53.26    1.79
   1   4  -5   50.02    1.92
   1   4  -4   84.78    2.02
   1   4  -4   86.36    2.16
   1   4  -4   86.06    2.44
   1   4  -4   89.32    2.61
   1   4  -3   31.70    1.08
   1   4  -3   32.02    1.28
   1   4  -3   33.03    1.25
   1   4  -2  107.30    2.73
   1   4  -2  106.83    2.79
   1   4  -2  111.68    2.88
   1   4  -1   51.81    1.68
   1   4  -1   48.75    1.61
   1   4  -1   48.37    1.49
   1   4   0   22.10    1.02
   1   4   0   19.30    0.97
   1   4   0   18.59    0.74
   1   4   1    0.20    0.09
   1   4   1    0.38    0.20
   1   4   1    0.18    0.19
   1   4   2    2.37    0.43
   1   4   2    2.33    0.20
   1   4   2    2.75    0.43
   1   4   3    2.96    0.34
   1   4   3    3.19    0.52
   1   4   3    2.66    0.45
   1   4   4    1.05    0.33
   1   4   4    0.35    0.16
   1   4   5    0.34    0.20
   1   4   5    0.41    0.29
   1   4   6   11.66    0.89
   1   4   6   11.45    1.07
   1   4   6   11.72    1.09
   1   4   7    3.82    0.71
   1   4   7    3.33    0.61
   1   4   8    5.84    0.87
   1   4   8    4.11    0.74
   1   4   9    1.53    0.49
   1   4   9    1.37    0.47
   1   5 -14    0.28    0.47
   1   5 -13    0.82    0.46
   1   5 -12   -0.12    0.26
   1   5 -12    0.78    0.32
   1   5 -11    5.09    0.74
   1   5 -11    4.48    0.59
   1   5 -10    0.37    0.26
   1   5 -10    0.41    0.19
   1   5  -9   11.67    0.99
   1   5  -9   15.01    0.89
   1   5  -8   21.27    1.00
   1   5  -8   18.92    1.20
   1   5  -7   47.14    1.47
   1   5  -7   36.73    1.70
   1   5  -6  138.29    3.28
   1   5  -6  143.65    3.35
   1   5  -6  139.56    3.80
   1   5  -6  139.88    3.01
   1   5  -5   76.47    1.94
   1   5  -5   75.09    2.07
   1   5  -5   76.85    2.59
   1   5  -5   77.15    2.41
   1   5  -4   74.09    2.10
   1   5  -4   80.46    2.51
   1   5  -4   75.64    2.36
   1   5  -3   97.53    2.76
   1   5  -3   92.40    2.53
   1   5  -3   92.60    2.71
   1   5  -2  183.16    4.56
   1   5  -2  184.62    4.45
   1   5  -2  186.90    4.44
   1   5  -1   76.04    2.43
   1   5  -1   77.94    2.40
   1   5  -1   79.78    2.19
   1   5   0  154.96    4.14
   1   5   0  155.91    4.12
   1   5   0  156.66    3.61
   1   5   1   84.93    2.77
   1   5   1   85.36    2.77
   1   5   2  109.10    3.42
   1   5   3   63.65    2.53
   1   5   4   33.64    1.84
   1   5   4   35.05    1.87
   1   5   5   31.38    1.86
   1   5   5   31.75    1.86
   1   5   6   12.78    1.20
   1   5   6   11.52    1.17
   1   5   7    8.96    1.07
   1   5   7    9.55    1.09
   1   5   8    1.11    0.45
   1   6 -14   11.32    1.34
   1   6 -13   10.38    1.20
   1   6 -12    9.42    1.09
   1   6 -11   13.74    1.22
   1   6 -10   18.88    1.37
   1   6  -9   14.46    0.86
   1   6  -9   14.77    1.14
   1   6  -8   17.16    0.87
   1   6  -8   16.77    1.15
   1   6  -7   37.75    1.30
   1   6  -7   38.61    1.37
   1   6  -7   36.23    1.68
   1   6  -6   74.19    2.00
   1   6  -6   74.13    2.16
   1   6  -6   71.54    2.49
   1   6  -5   12.79    0.74
   1   6  -5   12.17    0.88
   1   6  -4    1.03    0.29
   1   6  -4    1.30    0.25
   1   6  -4    0.96    0.32
   1   6  -3    1.07    0.26
   1   6  -3    1.44    0.32
   1   6  -3    1.34    0.31
   1   6  -2    0.64    0.26
   1   6  -2    0.57    0.22
   1   6  -1    7.67    0.72
   1   6  -1    6.30    0.64
   1   6  -1    7.74    0.57
   1   6   0    2.30    0.42
   1   6   0    2.21    0.43
   1   6   1   27.59    1.52
   1   6   1   29.94    1.58
   1   6   2   38.94    1.92
   1   6   3   21.81    1.46
   1   6   4    8.97    0.99
   1   6   5    7.83    0.97
   1   6   6   12.48    1.30
   1   6   7    8.89    1.16
   1   7 -14    0.95    0.44
   1   7 -13    3.09    0.68
   1   7 -12    6.38    0.90
   1   7 -11   19.13    1.47
   1   7 -10   22.51    1.50
   1   7  -9   30.91    1.72
   1   7  -8   53.87    2.27
   1   7  -7   56.75    2.28
   1   7  -6   88.24    2.59
   1   7  -6   83.37    2.89
   1   7  -5   81.27    2.51
   1   7  -5   77.64    2.72
   1   7  -4   85.87    2.91
   1   7  -4   91.71    2.76
   1   7  -3   47.03    1.98
   1   7  -3   47.81    1.88
   1   7  -2  113.55    3.56
   1   7  -2  115.56    3.46
   1   7  -1   37.42    1.83
   1   7  -1   42.83    1.89
   1   7   0   36.73    1.83
   1   7   0   36.27    1.84
   1   7   1   36.85    1.91
   1   7   1   34.54    1.87
   1   7   2   33.59    1.91
   1   7   3   13.36    1.25
   1   7   4    2.10    0.54
   1   7   5    2.06    0.60
   1   7   6    0.29    0.40
   1   8 -13    2.75    0.69
   1   8 -12    3.46    0.72
   1   8 -11    4.80    0.78
   1   8 -10    3.82    0.67
   1   8  -9   -0.10    0.24
   1   8  -8   -0.29    0.26
   1   8  -7    0.31    0.26
   1   8  -6    1.19    0.37
   1   8  -6    1.35    0.29
   1   8  -5    1.13    0.30
   1   8  -5    1.68    0.42
   1   8  -4   13.14    1.06
   1   8  -4   15.43    1.03
   1   8  -3   21.28    1.38
   1   8  -3   22.46    1.31
   1   8  -2   17.94    1.28
   1   8  -2   18.71    1.25
   1   8  -1   16.92    1.28
   1   8  -1   19.28    1.32
   1   8   0   21.35    1.47
   1   8   0   22.73    1.55
   1   8   1   18.82    1.44
   1   8   1   20.34    1.52
   1   8   2   24.58    1.73
   1   8   3   16.80    1.49
   1   8   4   13.03    1.35
   1   9 -13   11.51    1.30
   1   9 -12   13.28    1.34
   1   9 -11   17.39    1.49
   1   9 -10   24.61    1.71
   1   9  -9   25.77    1.68
   1   9  -8   26.41    1.65
   1   9  -7   37.94    2.00
   1   9  -6   50.51    2.34
   1   9  -5   21.66    1.46
   1   9  -5   22.65    1.35
   1   9  -4   40.33    2.08
   1   9  -4   44.01    2.00
   1   9  -3   32.39    1.86
   1   9  -3   29.42    1.67
   1   9  -2   27.78    1.75
   1   9  -2   25.94    1.61
   1   9  -1   11.04    1.08
   1   9  -1    9.93    1.08
   1   9   0   10.69    1.11
   1   9   0   11.25    1.17
   1   9   1    4.22    0.76
   1   9   2    1.06    0.44
   1  10 -12    0.03    0.29
   1  10 -11   -0.24    0.39
   1  10 -10    0.01    0.28
   1  10  -9    2.13    0.55
   1  10  -8    4.59    0.74
   1  10  -7    2.68    0.56
   1  10  -6   12.28    1.16
   1  10  -5   18.47    1.44
   1  10  -4   21.49    1.59
   1  10  -4   19.80    1.39
   1  10  -3   15.95    1.38
   1  10  -3   14.94    1.24
   1  10  -2   25.93    1.74
   1  10  -2   27.21    1.87
   1  10  -1   11.79    1.20
   1  10  -1   15.34    1.44
   1  10   0    9.29    1.12
   1  10   0    9.32    1.09
   1  10   1    7.13    1.05
   1  11 -10    9.03    1.12
   1  11  -9    5.55    0.85
   1  11  -8    4.00    0.75
   1  11  -7    0.91    0.40
   1  11  -6    4.30    0.75
   1  11  -5    6.40    0.90
   1  11  -4    2.51    0.56
   1  11  -3    0.56    0.33
   1  11  -3    0.75    0.31
   1  11  -2    0.29    0.23
   2 -12   2    8.77    1.16
   2 -12   3   10.52    1.24
   2 -12   4    6.33    0.95
   2 -12   5    6.99    0.98
   2 -12   6    3.95    0.75
   2 -12   7    3.17    0.68
   2 -12   8    1.53    0.48
   2 -12   9    0.41    0.33
   2 -12  10    1.90    0.51
   2 -12  11    1.33    0.49
   2 -11  -1    3.04    0.68
   2 -11   0    6.43    0.99
   2 -11   1    9.11    1.10
   2 -11   2    9.57    1.10
   2 -11   3    7.23    0.96
   2 -11   4   16.52    1.42
   2 -11   5   20.24    1.55
   2 -11   6   19.25    1.51
   2 -11   7   24.99    1.73
   2 -11   8   19.85    1.56
   2 -11   9   22.97    1.71
   2 -11  10   12.25    1.25
   2 -11  10   12.52    1.26
   2 -11  11    6.03    0.90
   2 -11  11    5.38    0.84
   2 -11  12    4.13    0.75
   2 -11  12    5.07    0.85
   2 -11  13    8.12    1.08
   2 -10  -3    7.07    1.08
   2 -10  -3    7.66    1.11
   2 -10  -2    8.88    1.11
   2 -10  -2   11.50    1.25
   2 -10  -1    9.71    1.14
   2 -10   0   10.26    1.14
   2 -10   1   11.86    1.17
   2 -10   2    3.44    0.62
   2 -10   3    1.97    0.52
   2 -10   4    1.80    0.45
   2 -10   5    4.27    0.65
   2 -10   6    7.00    0.86
   2 -10   7    1.25    0.40
   2 -10   8    1.70    0.47
   2 -10   9    1.36    0.42
   2 -10  10    0.56    0.34
   2 -10  10    0.90    0.41
   2 -10  11    3.64    0.63
   2 -10  11    4.34    0.73
   2 -10  12    3.33    0.66
   2 -10  12    3.04    0.64
   2 -10  13    1.68    0.47
   2 -10  13    1.72    0.52
   2  -9  -5    1.07    0.50
   2  -9  -5    2.10    0.64
   2  -9  -4    5.94    0.96
   2  -9  -4    7.78    1.08
   2  -9  -3    2.56    0.60
   2  -9  -3    2.79    0.74
   2  -9  -2    3.41    0.65
   2  -9  -2    2.88    0.62
   2  -9  -1    9.25    1.02
   2  -9  -1   11.03    1.09
   2  -9   0   31.21    1.85
   2  -9   0   31.12    1.76
   2  -9   1   29.22    1.73
   2  -9   2   43.97    2.13
   2  -9   3   53.29    2.35
   2  -9   4   53.24    2.32
   2  -9   5   31.82    1.71
   2  -9   6    8.98    0.88
   2  -9   7   16.79    1.23
   2  -9   8   27.28    1.64
   2  -9   9   17.44    1.30
   2  -9   9   17.20    1.32
   2  -9  10   11.18    1.06
   2  -9  10   12.60    1.14
   2  -9  11   10.21    1.04
   2  -9  11    9.32    1.02
   2  -9  12    3.24    0.63
   2  -9  12    2.36    0.58
   2  -9  13    2.28    0.56
   2  -9  13    3.03    0.60
   2  -8  -6    3.53    0.75
   2  -8  -6    2.87    0.71
   2  -8  -5    5.70    0.87
   2  -8  -5    8.55    1.13
   2  -8  -4    7.04    0.94
   2  -8  -4    9.31    1.15
   2  -8  -3    0.26    0.25
   2  -8  -3    0.59    0.37
   2  -8  -2    2.58    0.53
   2  -8  -2    3.15    0.61
   2  -8  -1    0.58    0.31
   2  -8  -1    0.17    0.19
   2  -8   0    0.03    0.20
   2  -8   0    0.38    0.25
   2  -8   1    0.40    0.26
   2  -8   1    0.38    0.23
   2  -8   2    0.02    0.16
   2  -8   2    0.15    0.16
   2  -8   3    2.06    0.42
   2  -8   4    6.70    0.71
   2  -8   5    6.13    0.68
   2  -8   6   14.58    1.06
   2  -8   7   15.47    1.10
   2  -8   8   12.91    1.03
   2  -8   8   13.21    1.07
   2  -8   9   24.23    1.46
   2  -8   9   21.40    1.42
   2  -8  10    8.79    0.90
   2  -8  10    9.30    0.95
   2  -8  11   12.64    1.11
   2  -8  11   12.95    1.15
   2  -8  12   10.43    1.05
   2  -8  12   12.71    1.18
   2  -8  13    7.63    0.96
   2  -7  -7    3.81    0.82
   2  -7  -6   11.80    1.32
   2  -7  -5   14.96    1.43
   2  -7  -4   26.40    1.82
   2  -7  -3   42.71    2.26
   2  -7  -2   66.18    2.69
   2  -7  -2   73.68    2.91
   2  -7  -1   61.63    2.48
   2  -7  -1   66.77    2.60
   2  -7   0   69.25    2.56
   2  -7   0   69.86    2.55
   2  -7   1   48.53    1.98
   2  -7   1   46.06    1.84
   2  -7   2   37.99    1.69
   2  -7   2   39.18    1.51
   2  -7   3   86.69    2.86
   2  -7   3   95.40    2.45
   2  -7   4   70.26    2.41
   2  -7   5   58.90    2.16
   2  -7   6   57.32    2.15
   2  -7   7   36.23    1.66
   2  -7   8   16.32    1.10
   2  -7   8   15.53    1.11
   2  -7   9   17.17    1.16
   2  -7   9   16.41    1.18
   2  -7  10    5.74    0.73
   2  -7  10    4.89    0.65
   2  -7  11    1.14    0.40
   2  -7  11    1.76    0.43
   2  -7  12    0.18    0.24
   2  -7  12    0.31    0.20
   2  -7  13   -0.14    0.33
   2  -7  14    0.37    0.35
   2  -7  14   -0.26    0.42
   2  -6  -8   -0.07    0.33
   2  -6  -7   -0.10    0.40
   2  -6  -6   -0.40    0.36
   2  -6  -5    4.08    0.72
   2  -6  -4    0.24    0.31
   2  -6  -3    1.32    0.41
   2  -6  -2    0.76    0.34
   2  -6  -2    1.27    0.21
   2  -6  -1    2.08    0.44
   2  -6   0   10.15    0.81
   2  -6   0   10.85    0.83
   2  -6   1   29.94    1.38
   2  -6   1   29.31    1.31
   2  -6   2   35.86    1.48
   2  -6   2   33.27    1.28
   2  -6   3   43.03    1.64
   2  -6   3   41.01    1.28
   2  -6   4   84.68    2.56
   2  -6   4   83.72    1.86
   2  -6   5   74.16    2.37
   2  -6   6   35.09    1.49
   2  -6   7   79.82    2.57
   2  -6   7   77.43    2.65
   2  -6   8   51.50    1.99
   2  -6   8   48.12    2.03
   2  -6   9   29.07    1.46
   2  -6   9   27.04    1.51
   2  -6  10   23.74    1.37
   2  -6  10   22.80    1.42
   2  -6  11   23.57    1.41
   2  -6  11   22.15    1.48
   2  -6  12    3.32    0.60
   2  -6  13    3.39    0.67
   2  -6  13    5.23    0.83
   2  -6  14    2.97    0.60
   2  -6  14    2.72    0.67
   2  -5  -9    5.00    0.91
   2  -5  -8   15.60    1.50
   2  -5  -7   32.58    2.10
   2  -5  -6   36.45    2.13
   2  -5  -5   44.52    2.27
   2  -5  -4   97.78    3.49
   2  -5  -3   73.99    2.80
   2  -5  -2   79.09    2.78
   2  -5  -1  109.90    3.32
   2  -5   0   89.08    2.70
   2  -5   1   81.12    2.37
   2  -5   1   75.17    2.27
   2  -5   2   52.72    1.73
   2  -5   2   49.43    1.54
   2  -5   3   31.70    1.26
   2  -5   3   31.62    0.98
   2  -5   4   16.84    0.86
   2  -5   4   15.55    0.47
   2  -5   5    0.17    0.12
   2  -5   6    1.30    0.32
   2  -5   6    1.51    0.30
   2  -5   7   10.73    0.75
   2  -5   7   10.92    0.83
   2  -5   8   -0.25    0.22
   2  -5   8   -0.04    0.13
   2  -5   9    1.24    0.35
   2  -5   9    1.50    0.33
   2  -5  10    0.28    0.24
   2  -5  10    0.09    0.14
   2  -5  11    1.02    0.35
   2  -5  12    5.51    0.76
   2  -5  12    7.48    0.95
   2  -5  13    4.44    0.71
   2  -5  13    5.46    0.85
   2  -5  14    2.31    0.65
   2  -5  14    2.05    0.55
   2  -4 -10    1.02    0.55
   2  -4  -9    0.05    0.25
   2  -4  -8   -0.36    0.39
   2  -4  -7   -0.60    0.38
   2  -4  -6   12.98    1.17
   2  -4  -5    3.97    0.66
   2  -4  -4   27.69    1.58
   2  -4  -3   49.56    1.28
   2  -4  -3   53.46    2.15
   2  -4  -2   54.02    2.05
   2  -4  -1   58.26    2.00
   2  -4  -1   58.88    1.35
   2  -4   0  128.62    3.28
   2  -4   1   88.62    2.42
   2  -4   1   92.75    2.35
   2  -4   2   76.88    2.12
   2  -4   2   79.11    1.93
   2  -4   3  169.51    3.95
   2  -4   3  171.28    3.57
   2  -4   4  192.98    4.41
   2  -4   5  254.56    5.66
   2  -4   5  252.80    5.87
   2  -4   6  105.07    2.82
   2  -4   6  109.97    3.09
   2  -4   7   48.96    1.68
   2  -4   7   48.08    1.87
   2  -4   8   29.79    1.32
   2  -4   8   35.04    1.60
   2  -4   9   37.60    1.57
   2  -4   9   37.29    1.78
   2  -4  10   20.90    1.38
   2  -4  10   19.39    1.32
   2  -4  11   19.92    1.45
   2  -4  11   21.66    1.46
   2  -4  12    5.44    0.75
   2  -4  12    3.93    0.68
   2  -4  13    4.48    0.77
   2  -4  13    3.40    0.65
   2  -4  14    0.80    0.45
   2  -4  14    1.33    0.47
   2  -3 -11    5.18    0.92
   2  -3 -10    7.43    1.05
   2  -3  -9   20.93    1.65
   2  -3  -8   23.68    1.67
   2  -3  -7   28.82    1.75
   2  -3  -6   33.92    1.84
   2  -3  -5   45.26    2.07
   2  -3  -4   88.27    2.97
   2  -3  -3   99.65    2.18
   2  -3  -3   97.48    2.12
   2  -3  -3  106.09    3.07
   2  -3  -2   35.25    0.86
   2  -3  -2   38.09    0.92
   2  -3  -2   37.70    1.48
   2  -3  -1   27.76    1.13
   2  -3  -1   28.55    0.78
   2  -3   0    7.58    0.47
   2  -3   1    0.06    0.08
   2  -3   2   21.14    0.78
   2  -3   3    4.05    0.31
   2  -3   3    4.02    0.37
   2  -3   4    5.58    0.37
   2  -3   4    3.86    0.40
   2  -3   5    0.45    0.20
   2  -3   5    0.55    0.14
   2  -3   6    3.52    0.34
   2  -3   6    3.79    0.45
   2  -3   7   59.15    1.86
   2  -3   7   59.84    2.15
   2  -3   8   56.99    2.21
   2  -3   9   30.72    1.60
   2  -3   9   29.81    1.60
   2  -3  10   10.63    0.98
   2  -3  10   11.23    1.00
   2  -3  11    8.52    0.94
   2  -3  11    6.90    0.85
   2  -3  12    9.46    1.05
   2  -3  12    7.58    0.94
   2  -3  13    5.49    0.88
   2  -3  13    5.31    0.85
   2  -3  14    2.58    0.69
   2  -3  14    2.76    0.66
   2  -2 -12    0.14    0.30
   2  -2 -11    1.64    0.56
   2  -2 -10    4.19    0.72
   2  -2  -9    1.28    0.49
   2  -2  -8   21.62    1.50
   2  -2  -7   23.80    1.51
   2  -2  -6   44.04    2.02
   2  -2  -5   54.85    2.17
   2  -2  -4  120.95    2.86
   2  -2  -4  125.69    3.49
   2  -2  -3   81.09    1.96
   2  -2  -3   87.16    2.50
   2  -2  -2  230.82    4.69
   2  -2  -2  217.60    5.11
   2  -2  -1  633.78   10.94
   2  -2  -1  542.01   11.19
   2  -2   2  124.00    2.64
   2  -2   2  117.83    2.86
   2  -2   3  169.03    3.81
   2  -2   3  215.94    4.29
   2  -2   4  186.32    4.05
   2  -2   4  196.18    4.48
   2  -2   5   66.50    1.77
   2  -2   5   70.00    2.15
   2  -2   6   56.02    1.99
   2  -2   7   79.68    2.52
   2  -2   7   72.87    2.54
   2  -2   8   17.45    1.12
   2  -2   8   23.29    1.32
   2  -2   9   14.74    1.08
   2  -2   9   15.81    1.16
   2  -2  10    7.49    0.84
   2  -2  10    7.51    0.85
   2  -2  11    3.00    0.58
   2  -2  11    4.21    0.69
   2  -2  12   -0.08    0.31
   2  -2  12    0.06    0.22
   2  -2  13    0.10    0.28
   2  -2  14   -0.37    0.39
   2  -1 -13    2.51    0.66
   2  -1 -12    5.68    0.89
   2  -1 -11   12.95    1.27
   2  -1 -10   11.36    1.13
   2  -1  -9   37.25    2.01
   2  -1  -8   73.12    2.85
   2  -1  -7   48.74    2.13
   2  -1  -6    7.27    0.73
   2  -1  -5   25.89    1.09
   2  -1  -5   34.14    1.44
   2  -1  -4    9.65    0.54
   2  -1  -4   10.58    0.70
   2  -1  -3    1.21    0.17
   2  -1  -3    1.30    0.24
   2  -1  -2    0.20    0.09
   2  -1  -2    0.28    0.13
   2  -1  -1    2.35    0.20
   2  -1   0   32.81    0.88
   2  -1   1    4.06    0.28
   2  -1   2   85.71    2.17
   2  -1   3   84.56    2.29
   2  -1   4   62.55    1.80
   2  -1   4   64.70    2.00
   2  -1   5   76.79    2.23
   2  -1   5   76.86    2.41
   2  -1   6   13.29    0.82
   2  -1   6   13.59    0.91
   2  -1   7   35.29    1.55
   2  -1   7   34.59    1.63
   2  -1   8   45.46    1.93
   2  -1   8   42.57    1.96
   2  -1   9   23.56    1.43
   2  -1   9   19.26    1.34
   2  -1  10    9.73    0.97
   2  -1  10    8.16    0.94
   2  -1  11   12.28    1.18
   2  -1  12    5.68    0.87
   2  -1  13    3.29    0.70
   2  -1  13    2.68    0.68
   2   0 -13    2.04    0.54
   2   0 -12    4.19    0.69
   2   0 -11    9.67    1.04
   2   0 -10   25.85    1.62
   2   0  -9   16.82    1.24
   2   0  -8   16.21    1.15
   2   0  -7   50.41    2.03
   2   0  -6  137.00    3.73
   2   0  -6  155.78    3.97
   2   0  -5  158.18    3.87
   2   0  -5  158.25    3.97
   2   0  -4  323.10    7.04
   2   0  -4  338.96    7.15
   2   0  -3  154.07    3.54
   2   0  -3  156.45    3.58
   2   0  -2  107.58    2.54
   2   0  -1  264.42    5.29
   2   0  -1  278.61    5.33
   2   0  -1  266.99    5.59
   2   0   0  180.74    3.65
   2   0   0  178.46    3.80
   2   0   0  185.16    3.92
   2   0   1  145.30    2.90
   2   0   1  136.96    3.23
   2   0   2  174.72    3.72
   2   0   2  180.05    4.06
   2   0   3  116.69    2.76
   2   0   3  117.55    3.04
   2   0   4   62.80    1.87
   2   0   4   68.25    2.13
   2   0   5   45.58    1.61
   2   0   5   45.96    1.78
   2   0   6    9.82    0.73
   2   0   6   10.63    0.85
   2   0   7    7.79    0.78
   2   0   8   -0.02    0.15
   2   0   9    0.11    0.23
   2   0  10    0.28    0.28
   2   0  11    0.37    0.21
   2   0  11   -0.17    0.26
   2   0  12    2.01    0.52
   2   0  12    1.87    0.53
   2   1 -12    6.22    0.79
   2   1 -11    2.69    0.54
   2   1 -10    1.90    0.47
   2   1  -9    6.22    0.71
   2   1  -8    0.25    0.24
   2   1  -7    0.03    0.19
   2   1  -6    0.16    0.15
   2   1  -6    0.25    0.21
   2   1  -5    4.86    0.47
   2   1  -5    5.11    0.44
   2   1  -4    0.20    0.11
   2   1  -4    0.48    0.14
   2   1  -4    0.25    0.16
   2   1  -3   77.82    1.94
   2   1  -3   74.03    2.05
   2   1  -2   46.73    1.23
   2   1  -2   43.44    1.34
   2   1  -1   74.43    1.74
   2   1  -1   74.45    1.91
   2   1  -1   74.54    1.75
   2   1   0  227.99    4.85
   2   1   0  234.64    4.96
   2   1   0  236.83    4.97
   2   1   1  182.57    4.16
   2   1   1  182.28    4.04
   2   1   1  186.34    4.04
   2   1   2   74.12    2.15
   2   1   3  189.52    4.61
   2   1   4  142.60    3.84
   2   1   5   70.93    2.47
   2   1   6   56.28    2.25
   2   1   7   60.94    2.48
   2   1   8   24.08    1.55
   2   1   9   13.47    1.09
   2   1   9   15.10    1.28
   2   1  10    6.13    0.80
   2   1  10    7.30    0.93
   2   1  11    7.32    0.99
   2   1  12    2.54    0.62
   2   2 -14    2.35    0.63
   2   2 -11   28.12    1.61
   2   2 -10   22.67    1.36
   2   2  -9   36.50    1.69
   2   2  -8   92.09    2.83
   2   2  -7   72.59    2.43
   2   2  -7   69.61    2.50
   2   2  -7   72.20    2.23
   2   2  -6  111.27    3.09
   2   2  -6  108.66    3.20
   2   2  -6  111.02    2.87
   2   2  -5  107.10    2.89
   2   2  -5  110.69    3.07
   2   2  -5  110.35    2.72
   2   2  -4  190.15    4.26
   2   2  -4  179.02    4.40
   2   2  -3  128.78    2.64
   2   2  -3  132.22    2.69
   2   2  -3  133.63    3.26
   2   2  -3  138.37    3.12
   2   2  -2   81.47    1.89
   2   2  -2   85.13    2.10
   2   2  -2   81.89    2.19
   2   2  -1   60.96    1.64
   2   2  -1   59.07    1.63
   2   2  -1   61.50    1.70
   2   2   0   95.64    2.48
   2   2   0   98.03    2.43
   2   2   0   95.87    2.38
   2   2   1    5.93    0.25
   2   2   1    5.94    0.48
   2   2   1    5.78    0.44
   2   2   1    6.41    0.40
   2   2   2    2.75    0.23
   2   2   2    2.56    0.36
   2   2   2    2.96    0.28
   2   2   3   14.51    0.67
   2   2   3   15.50    0.94
   2   2   3   14.75    0.69
   2   2   4    0.12    0.12
   2   2   4    0.01    0.21
   2   2   5    0.17    0.15
   2   2   5    0.09    0.22
   2   2   6    3.57    0.46
   2   2   6    3.10    0.54
   2   2   7    0.94    0.27
   2   2   7    1.05    0.37
   2   2   8    1.45    0.36
   2   2   8    2.07    0.51
   2   2   9    1.66    0.48
   2   2  10    2.81    0.63
   2   2  11    1.21    0.40
   2   3 -14    0.62    0.39
   2   3 -14   -0.32    0.35
   2   3 -13   -0.32    0.28
   2   3 -13    0.16    0.29
   2   3 -12    0.21    0.29
   2   3 -12   -0.21    0.35
   2   3 -11   -0.39    0.35
   2   3 -10    8.13    0.89
   2   3 -10    9.57    0.80
   2   3  -9    3.32    0.53
   2   3  -9    4.38    0.50
   2   3  -8   15.20    1.04
   2   3  -8   14.87    0.87
   2   3  -7   44.98    1.79
   2   3  -7   44.11    1.47
   2   3  -7   44.05    1.93
   2   3  -7   45.89    1.53
   2   3  -6   55.79    1.92
   2   3  -6   52.99    1.55
   2   3  -6   53.95    2.08
   2   3  -6   57.42    1.66
   2   3  -5   76.42    1.84
   2   3  -5   76.18    2.26
   2   3  -5   75.74    2.44
   2   3  -4  130.27    2.76
   2   3  -4  135.00    2.84
   2   3  -4  136.65    3.33
   2   3  -4  130.92    3.48
   2   3  -3   87.47    2.06
   2   3  -3   89.65    2.36
   2   3  -3   84.50    2.43
   2   3  -2   46.23    1.37
   2   3  -2   49.61    1.58
   2   3  -2   51.15    1.55
   2   3  -1   77.98    2.17
   2   3  -1   76.39    2.10
   2   3  -1   79.59    2.13
   2   3   0  101.08    2.74
   2   3   0  102.45    2.71
   2   3   0   98.78    2.52
   2   3   1  173.77    4.33
   2   3   1  173.23    4.26
   2   3   1  173.28    3.92
   2   3   2  107.80    2.50
   2   3   2  108.56    3.17
   2   3   2  109.07    2.65
   2   3   3   72.78    1.99
   2   3   3   75.74    2.57
   2   3   3   74.52    1.98
   2   3   4   73.96    2.15
   2   3   4   73.27    2.68
   2   3   5   38.22    1.50
   2   3   5   40.35    1.95
   2   3   6   14.75    1.20
   2   3   7   21.36    1.55
   2   3   8   10.95    1.16
   2   3   9   10.88    1.20
   2   3  10    8.40    1.14
   2   4 -14    4.78    0.89
   2   4 -13   11.78    1.26
   2   4 -12   10.35    1.14
   2   4 -12   11.53    1.00
   2   4 -11   18.80    1.43
   2   4 -11   18.90    1.19
   2   4 -10   25.08    1.56
   2   4 -10   25.45    1.30
   2   4  -9   22.86    1.39
   2   4  -9   23.88    1.15
   2   4  -8   46.20    1.95
   2   4  -8   45.16    1.57
   2   4  -8   47.33    1.57
   2   4  -7   32.01    1.50
   2   4  -7   34.50    1.18
   2   4  -7   31.45    1.67
   2   4  -7   36.31    1.22
   2   4  -6   28.09    0.92
   2   4  -6   26.98    1.28
   2   4  -6   29.40    1.49
   2   4  -5   40.31    1.07
   2   4  -5   42.15    1.17
   2   4  -5   40.25    1.55
   2   4  -5   43.08    1.75
   2   4  -4   51.13    1.44
   2   4  -4   50.48    1.85
   2   4  -4   53.28    1.78
   2   4  -3    2.24    0.25
   2   4  -3    2.84    0.38
   2   4  -3    2.68    0.34
   2   4  -2   10.20    0.67
   2   4  -2    8.80    0.57
   2   4  -2    9.91    0.65
   2   4  -1    0.67    0.19
   2   4  -1    0.60    0.20
   2   4  -1    0.45    0.20
   2   4   0    0.32    0.13
   2   4   0    0.43    0.20
   2   4   0    0.44    0.20
   2   4   1   15.05    0.97
   2   4   1   13.73    0.91
   2   4   1   13.58    0.89
   2   4   1   13.27    0.67
   2   4   2   11.47    0.91
   2   4   2   11.05    0.58
   2   4   3    0.52    0.28
   2   4   4    8.98    0.89
   2   4   5   11.81    1.08
   2   4   6    6.20    0.85
   2   4   7    4.69    0.78
   2   4   8    5.06    0.83
   2   4   8    5.67    0.88
   2   4   9    2.48    0.66
   2   4   9    0.66    0.41
   2   5 -14    1.79    0.58
   2   5 -13    1.07    0.42
   2   5 -12    3.52    0.65
   2   5 -11    6.91    0.88
   2   5 -10   15.13    1.20
   2   5  -9   23.25    1.43
   2   5  -8   24.72    1.40
   2   5  -7   21.00    0.81
   2   5  -7   18.31    1.13
   2   5  -7   21.20    1.38
   2   5  -6   30.08    0.90
   2   5  -6   27.19    0.97
   2   5  -6   25.27    1.30
   2   5  -6   27.10    1.50
   2   5  -5   45.69    1.40
   2   5  -5   45.80    1.90
   2   5  -5   42.52    1.71
   2   5  -4  147.74    4.06
   2   5  -4  135.54    3.86
   2   5  -3  145.70    3.86
   2   5  -3  145.97    3.63
   2   5  -3  149.73    3.90
   2   5  -2   72.70    2.38
   2   5  -2   74.36    2.28
   2   5  -2   76.22    2.31
   2   5  -1  109.99    3.22
   2   5  -1  113.89    3.17
   2   5  -1  109.91    2.96
   2   5   0   96.20    2.98
   2   5   0   97.54    2.96
   2   5   0   93.78    2.55
   2   5   1   16.95    1.11
   2   5   1   15.95    1.07
   2   5   2   11.98    0.99
   2   5   3   22.08    1.44
   2   5   3   20.87    1.40
   2   5   4   18.29    1.37
   2   5   4   19.33    1.40
   2   5   5   15.49    1.33
   2   5   5   15.68    1.35
   2   5   6    7.61    0.98
   2   5   6    6.74    0.92
   2   5   7    3.71    0.73
   2   5   7    4.12    0.78
   2   5   8    1.49    0.47
   2   6 -14    2.10    0.62
   2   6 -13    4.93    0.80
   2   6 -12   10.97    1.14
   2   6 -11    7.49    0.91
   2   6 -10    5.80    0.78
   2   6  -9   10.24    0.95
   2   6  -8    6.23    0.70
   2   6  -7    1.38    0.47
   2   6  -7    1.77    0.39
   2   6  -6    6.27    0.75
   2   6  -6    5.72    0.63
   2   6  -5    5.70    0.48
   2   6  -5    6.10    0.70
   2   6  -5    6.13    0.63
   2   6  -4    0.99    0.28
   2   6  -4    1.54    0.27
   2   6  -4    0.87    0.32
   2   6  -3    0.79    0.24
   2   6  -3    0.50    0.22
   2   6  -2    7.62    0.72
   2   6  -2    8.16    0.70
   2   6  -2    8.79    0.70
   2   6  -1    8.47    0.78
   2   6  -1    7.98    0.73
   2   6  -1    8.35    0.64
   2   6   0   19.40    1.23
   2   6   0   19.36    1.24
   2   6   1   23.86    1.44
   2   6   1   24.99    1.49
   2   6   2   12.59    1.08
   2   6   3   12.87    1.16
   2   6   4   18.42    1.48
   2   6   5    8.44    1.05
   2   6   6    7.17    1.03
   2   7 -14   11.75    1.37
   2   7 -13    9.69    1.19
   2   7 -12    6.83    0.97
   2   7 -11   12.80    1.20
   2   7 -10   25.10    1.62
   2   7  -9   30.90    1.75
   2   7  -8   49.87    2.21
   2   7  -7   44.19    2.00
   2   7  -6   56.80    2.28
   2   7  -5   68.46    2.21
   2   7  -5   68.14    2.66
   2   7  -5   65.22    2.49
   2   7  -4   38.47    1.83
   2   7  -4   41.86    1.91
   2   7  -3   27.78    1.52
   2   7  -3   29.17    1.43
   2   7  -3   30.37    1.51
   2   7  -2   37.01    1.84
   2   7  -2   41.74    1.82
   2   7  -1   32.06    1.72
   2   7  -1   33.05    1.69
   2   7   0   36.21    1.86
   2   7   0   34.53    1.86
   2   7   1   21.98    1.51
   2   7   1   24.28    1.58
   2   7   2   11.05    1.10
   2   7   3    8.54    1.05
   2   7   4    3.79    0.79
   2   7   5    1.71    0.57
   2   8 -13    1.65    0.58
   2   8 -12   -0.61    0.37
   2   8 -11    0.87    0.43
   2   8 -10    0.25    0.29
   2   8  -9   -0.02    0.22
   2   8  -8   -0.44    0.28
   2   8  -7    4.32    0.64
   2   8  -6    3.21    0.57
   2   8  -5    6.56    0.76
   2   8  -4   18.58    1.31
   2   8  -4   19.84    1.19
   2   8  -3   16.47    1.25
   2   8  -3   20.02    1.25
   2   8  -2   18.76    1.35
   2   8  -2   17.07    1.23
   2   8  -1   26.60    1.61
   2   8  -1   25.46    1.64
   2   8   0   30.03    1.82
   2   8   0   29.28    1.85
   2   8   1   17.49    1.43
   2   8   2   18.30    1.53
   2   8   3   15.60    1.49
   2   9 -12   14.16    1.41
   2   9 -11   16.34    1.45
   2   9 -10   21.68    1.64
   2   9  -9   22.12    1.58
   2   9  -8   32.15    1.90
   2   9  -7   29.30    1.77
   2   9  -6   20.64    1.46
   2   9  -5   20.05    1.44
   2   9  -4   22.02    1.54
   2   9  -3    8.88    0.99
   2   9  -3    7.58    0.84
   2   9  -2    3.71    0.64
   2   9  -2    5.42    0.74
   2   9  -1    4.00    0.75
   2   9  -1    4.18    0.69
   2   9   0    0.33    0.33
   2   9   0    0.08    0.21
   2   9   1   -0.30    0.22
   2   9   2    0.25    0.34
   2  10 -11    3.23    0.67
   2  10 -10    3.42    0.71
   2  10  -9    8.78    1.03
   2  10  -8    8.22    1.02
   2  10  -7   11.09    1.16
   2  10  -6   16.05    1.39
   2  10  -5   15.50    1.36
   2  10  -4   18.37    1.51
   2  10  -3   21.91    1.68
   2  10  -2   17.70    1.45
   2  10  -2   23.62    1.78
   2  10  -1   14.56    1.37
   2  10  -1   17.41    1.58
   2  10   0   23.27    1.83
   2  11  -8    7.26    1.01
   2  11  -7    3.71    0.72
   2  11  -6    2.91    0.69
   2  11  -5    0.74    0.38
   3 -12   2   10.85    1.25
   3 -12   3   10.40    1.20
   3 -12   4    5.80    0.91
   3 -12   5    4.13    0.74
   3 -12   6    1.94    0.51
   3 -12   7    2.58    0.57
   3 -12   8    0.87    0.38
   3 -12   9   -0.09    0.24
   3 -12  10    0.10    0.24
   3 -12  10    0.34    0.38
   3 -12  11    0.35    0.31
   3 -12  11    0.68    0.39
   3 -11  -1    3.52    0.74
   3 -11   0   11.28    1.25
   3 -11   1   10.56    1.20
   3 -11   2   20.76    1.64
   3 -11   3   18.42    1.52
   3 -11   4   21.55    1.59
   3 -11   5   27.61    1.80
   3 -11   6   27.07    1.78
   3 -11   7   26.54    1.76
   3 -11   8   13.76    1.27
   3 -11   9   20.86    1.58
   3 -11  10   10.42    1.12
   3 -11  10   10.30    1.15
   3 -11  11    9.71    1.11
   3 -11  11   11.35    1.25
   3 -11  12    5.62    0.92
   3 -11  12    5.14    0.79
   3 -11  13    0.10    0.24
   3 -10  -4    2.91    0.72
   3 -10  -4    3.35    0.74
   3 -10  -3   12.98    1.43
   3 -10  -3   12.36    1.38
   3 -10  -2   12.13    1.32
   3 -10  -2   16.41    1.49
   3 -10  -1    9.64    1.13
   3 -10  -1   10.76    1.14
   3 -10   0    4.73    0.76
   3 -10   1    6.41    0.87
   3 -10   2    1.04    0.39
   3 -10   3    0.75    0.31
   3 -10   4    0.07    0.21
   3 -10   5    3.78    0.63
   3 -10   6   11.32    1.05
   3 -10   7    9.15    0.96
   3 -10   8    3.89    0.62
   3 -10   9    3.02    0.64
   3 -10   9    2.88    0.58
   3 -10  10    7.63    0.93
   3 -10  10    7.39    0.94
   3 -10  11    4.70    0.80
   3 -10  11    4.85    0.75
   3 -10  12    2.32    0.57
   3 -10  12    2.53    0.60
   3 -10  13    7.04    1.00
   3  -9  -5    5.43    0.95
   3  -9  -5    5.64    0.99
   3  -9  -4   16.76    1.55
   3  -9  -4   20.47    1.76
   3  -9  -3   11.07    1.23
   3  -9  -3   12.64    1.32
   3  -9  -2   32.71    2.04
   3  -9  -2   35.99    2.17
   3  -9  -1   30.37    1.88
   3  -9  -1   32.52    1.95
   3  -9   0   39.36    2.12
   3  -9   0   42.39    2.13
   3  -9   1   41.92    2.10
   3  -9   1   37.30    1.86
   3  -9   2   59.98    2.54
   3  -9   3   37.05    1.89
   3  -9   4   31.32    1.69
   3  -9   5   62.81    2.51
   3  -9   6   47.14    2.12
   3  -9   7   47.41    2.14
   3  -9   8    9.82    0.94
   3  -9   9    9.79    0.95
   3  -9   9    7.43    0.89
   3  -9  10    3.44    0.66
   3  -9  10    3.28    0.57
   3  -9  11    3.95    0.67
   3  -9  11    4.34    0.65
   3  -9  12    1.54    0.46
   3  -9  12    0.46    0.28
   3  -9  13    1.28    0.45
   3  -9  14    0.43    0.42
   3  -8  -6    1.57    0.55
   3  -8  -5    4.64    0.89
   3  -8  -4   -0.54    0.39
   3  -8  -3    3.45    0.67
   3  -8  -3    3.26    0.63
   3  -8  -2    1.55    0.44
   3  -8  -2    1.25    0.43
   3  -8  -1    1.62    0.46
   3  -8  -1    1.92    0.48
   3  -8   0    5.26    0.71
   3  -8   0    6.72    0.76
   3  -8   1    5.49    0.69
   3  -8   1    5.68    0.66
   3  -8   2    9.46    0.85
   3  -8   2    9.26    0.75
   3  -8   3   15.12    1.06
   3  -8   4    9.40    0.83
   3  -8   5   20.45    1.23
   3  -8   6   21.48    1.28
   3  -8   7   24.53    1.38
   3  -8   8   31.87    1.65
   3  -8   8   30.65    1.72
   3  -8   9   42.00    1.96
   3  -8   9   42.85    2.12
   3  -8  10   22.56    1.42
   3  -8  10   19.20    1.42
   3  -8  11   19.77    1.36
   3  -8  11   18.99    1.46
   3  -8  12   10.92    1.15
   3  -8  13    5.47    0.82
   3  -8  14    2.54    0.66
   3  -7  -7    6.75    1.07
   3  -7  -6   24.44    1.94
   3  -7  -5   23.35    1.80
   3  -7  -4   39.51    2.26
   3  -7  -3   47.35    2.40
   3  -7  -2   69.29    2.87
   3  -7  -1   44.63    2.10
   3  -7   0  105.40    3.38
   3  -7   0  105.17    3.41
   3  -7   1  108.71    3.35
   3  -7   1  106.80    3.28
   3  -7   2  103.98    3.13
   3  -7   2   96.65    2.92
   3  -7   3   67.06    2.31
   3  -7   3   64.39    2.02
   3  -7   4   35.16    1.55
   3  -7   5   52.79    1.98
   3  -7   6   10.04    0.79
   3  -7   7    8.45    0.74
   3  -7   7    8.41    0.82
   3  -7   8    4.53    0.56
   3  -7   8    4.26    0.61
   3  -7   9    7.89    0.74
   3  -7   9    7.17    0.82
   3  -7  10    0.20    0.24
   3  -7  10    0.27    0.20
   3  -7  11    0.11    0.26
   3  -7  11    0.69    0.26
   3  -7  12   -0.08    0.28
   3  -7  13   -0.05    0.30
   3  -7  14    0.59    0.36
   3  -7  14    0.09    0.23
   3  -6  -8    0.44    0.36
   3  -6  -7    5.14    0.90
   3  -6  -6    0.33    0.34
   3  -6  -5    0.12    0.27
   3  -6  -4    5.67    0.81
   3  -6  -3    0.56    0.37
   3  -6  -2   27.95    1.62
   3  -6  -1   21.50    1.32
   3  -6   0   29.23    1.45
   3  -6   1   43.98    1.74
   3  -6   1   43.40    1.69
   3  -6   2   67.56    2.20
   3  -6   2   63.60    2.02
   3  -6   3   68.62    2.20
   3  -6   3   67.35    1.93
   3  -6   4   27.59    1.24
   3  -6   4   27.95    0.94
   3  -6   5   42.90    1.61
   3  -6   5   40.64    1.09
   3  -6   6   40.51    1.60
   3  -6   6   40.52    1.76
   3  -6   7   78.98    2.52
   3  -6   7   80.45    2.76
   3  -6   8   18.87    1.07
   3  -6   8   18.36    1.22
   3  -6   9   32.58    1.51
   3  -6   9   32.40    1.73
   3  -6  10   16.97    1.09
   3  -6  10   16.97    1.26
   3  -6  11   11.83    1.11
   3  -6  12   10.52    1.10
   3  -6  13    9.81    1.13
   3  -6  13   10.60    1.16
   3  -6  14    1.96    0.56
   3  -6  14    1.64    0.54
   3  -5  -9   10.74    1.30
   3  -5  -8   18.63    1.65
   3  -5  -7   19.51    1.62
   3  -5  -6   29.74    1.92
   3  -5  -5   40.30    2.19
   3  -5  -4   23.47    1.55
   3  -5  -3   12.28    1.05
   3  -5  -2   54.22    1.29
   3  -5  -2   60.48    2.30
   3  -5  -1   31.22    1.48
   3  -5  -1   31.15    0.93
   3  -5   0   29.17    1.30
   3  -5   1   36.65    1.37
   3  -5   2   18.55    0.92
   3  -5   2   17.84    0.80
   3  -5   3   10.70    0.66
   3  -5   3   10.61    0.53
   3  -5   4   10.94    0.67
   3  -5   5    3.94    0.40
   3  -5   5    3.55    0.46
   3  -5   6    0.12    0.21
   3  -5   6    0.00    0.11
   3  -5   7    1.09    0.31
   3  -5   7    1.15    0.25
   3  -5   8    2.16    0.42
   3  -5   8    2.51    0.37
   3  -5   9    1.08    0.35
   3  -5   9    1.09    0.27
   3  -5  10    5.48    0.72
   3  -5  11    5.71    0.77
   3  -5  12    1.09    0.39
   3  -5  12    1.33    0.48
   3  -5  13    1.09    0.48
   3  -5  13    0.90    0.40
   3  -5  14    2.86    0.66
   3  -5  14    1.64    0.53
   3  -4 -10    0.12    0.34
   3  -4  -9    0.05    0.31
   3  -4  -8    2.93    0.65
   3  -4  -7    0.69    0.40
   3  -4  -6   24.15    1.65
   3  -4  -5    2.88    0.58
   3  -4  -4   80.15    2.92
   3  -4  -3   39.96    1.09
   3  -4  -3   42.29    1.84
   3  -4  -2  105.47    2.41
   3  -4  -2  108.67    3.17
   3  -4  -1   45.20    1.64
   3  -4  -1   42.02    1.21
   3  -4   0   49.77    1.64
   3  -4   1   95.98    2.48
   3  -4   2  205.69    4.63
   3  -4   3  188.91    4.28
   3  -4   4   44.75    1.41
   3  -4   4   47.18    1.68
   3  -4   5  199.36    4.36
   3  -4   5  175.13    4.66
   3  -4   6   48.97    1.55
   3  -4   6   47.84    1.87
   3  -4   7   88.21    2.47
   3  -4   7   94.38    2.97
   3  -4   8   57.72    1.89
   3  -4   8   58.76    2.32
   3  -4   9   39.27    1.93
   3  -4  10    4.50    0.67
   3  -4  10    4.63    0.65
   3  -4  11    6.58    0.83
   3  -4  11    7.75    0.91
   3  -4  12    3.69    0.68
   3  -4  12    3.21    0.64
   3  -4  13    1.59    0.49
   3  -4  13    1.63    0.51
   3  -4  14    0.30    0.34
   3  -4  14    0.67    0.40
   3  -3 -11    7.48    1.11
   3  -3 -10   10.04    1.18
   3  -3  -9    7.79    1.00
   3  -3  -8    0.24    0.36
   3  -3  -7   19.40    1.46
   3  -3  -6   31.57    1.78
   3  -3  -5   21.12    0.88
   3  -3  -5   23.68    1.40
   3  -3  -4   23.41    0.86
   3  -3  -4   25.60    1.37
   3  -3  -3   40.26    1.20
   3  -3  -3   43.94    1.71
   3  -3  -2   20.38    0.74
   3  -3  -2   21.66    1.05
   3  -3  -1   10.45    0.51
   3  -3  -1   11.00    0.66
   3  -3   2    0.48    0.14
   3  -3   2    0.32    0.10
   3  -3   3   17.81    0.67
   3  -3   3   17.45    0.86
   3  -3   4    6.21    0.37
   3  -3   4    5.10    0.48
   3  -3   5   10.63    0.52
   3  -3   5   10.70    0.76
   3  -3   6   34.44    1.15
   3  -3   6   37.14    1.59
   3  -3   7    2.94    0.48
   3  -3   8    0.43    0.28
   3  -3   8    0.84    0.29
   3  -3   9    4.93    0.68
   3  -3   9    5.68    0.67
   3  -3  10   19.22    1.32
   3  -3  10   15.52    1.26
   3  -3  11   10.84    1.05
   3  -3  11    9.68    1.04
   3  -3  12    4.99    0.77
   3  -3  12    5.30    0.83
   3  -3  13    4.69    0.77
   3  -3  13    4.58    0.80
   3  -2 -12    0.56    0.42
   3  -2 -11    0.46    0.39
   3  -2 -10    2.25    0.58
   3  -2  -9   14.56    1.32
   3  -2  -8   63.41    2.77
   3  -2  -7   19.39    1.37
   3  -2  -6   83.52    2.44
   3  -2  -6   86.43    3.00
   3  -2  -5   50.56    1.61
   3  -2  -5   52.74    2.06
   3  -2  -4  118.26    2.94
   3  -2  -4  129.11    3.47
   3  -2  -3   82.32    2.13
   3  -2  -3   86.06    2.49
   3  -2  -2  346.76    7.11
   3  -2  -2  334.04    7.38
   3  -2  -1   45.37    1.33
   3  -2   1  175.89    3.94
   3  -2   2  126.66    2.69
   3  -2   2  123.14    3.06
   3  -2   3  256.33    5.17
   3  -2   3  257.27    5.77
   3  -2   4   35.53    0.95
   3  -2   4   38.60    1.47
   3  -2   5  101.73    3.00
   3  -2   6   31.49    1.33
   3  -2   6   34.08    1.56
   3  -2   7   23.10    1.19
   3  -2   7   22.23    1.31
   3  -2   8    1.36    0.41
   3  -2   8    1.42    0.32
   3  -2   9   13.63    1.05
   3  -2   9   12.82    1.11
   3  -2  10    3.28    0.58
   3  -2  10    3.46    0.64
   3  -2  11    2.52    0.52
   3  -2  11    2.49    0.55
   3  -2  12    2.17    0.53
   3  -2  13    0.60    0.34
   3  -1 -13    1.11    0.48
   3  -1 -12    3.82    0.76
   3  -1 -11    8.49    1.05
   3  -1 -10    2.58    0.57
   3  -1  -9   12.22    1.14
   3  -1  -8    1.47    0.44
   3  -1  -7    7.67    0.67
   3  -1  -7    7.33    0.78
   3  -1  -6    1.98    0.40
   3  -1  -6    2.19    0.35
   3  -1  -5    6.88    0.53
   3  -1  -5    6.88    0.63
   3  -1  -4   13.44    0.70
   3  -1  -4   12.51    0.77
   3  -1  -3    7.43    0.48
   3  -1  -3    7.47    0.54
   3  -1  -2    0.09    0.09
   3  -1  -1   26.67    0.64
   3  -1  -1   26.87    0.76
   3  -1  -1   25.74    0.94
   3  -1   0    9.85    0.45
   3  -1   0    8.59    0.50
   3  -1   1   47.70    1.41
   3  -1   2   17.01    0.80
   3  -1   3    9.16    0.63
   3  -1   4   11.04    0.60
   3  -1   4   11.89    0.79
   3  -1   5   77.38    2.25
   3  -1   5   82.55    2.63
   3  -1   6   44.87    1.67
   3  -1   6   47.30    1.96
   3  -1   7   45.83    1.82
   3  -1   7   47.10    2.06
   3  -1   8   34.08    1.65
   3  -1   8   31.64    1.75
   3  -1   9   22.15    1.39
   3  -1   9   23.53    1.56
   3  -1  10   13.47    1.24
   3  -1  11    4.81    0.80
   3  -1  12    2.82    0.66
   3   0 -13    8.38    1.05
   3   0 -12    6.52    0.88
   3   0 -11    7.44    0.94
   3   0 -10   18.35    1.40
   3   0  -9   17.50    1.29
   3   0  -8   53.41    2.23
   3   0  -7   54.86    2.04
   3   0  -7   53.40    2.09
   3   0  -6   90.03    2.71
   3   0  -6   91.49    2.78
   3   0  -5   21.23    1.02
   3   0  -5   22.05    1.07
   3   0  -4  150.15    3.71
   3   0  -4  154.68    3.75
   3   0  -3  102.94    2.42
   3   0  -3   97.36    2.60
   3   0  -2  279.35    5.65
   3   0  -2  272.61    6.00
   3   0  -1  152.16    3.32
   3   0  -1  150.89    3.63
   3   0   0   65.80    1.76
   3   0   0   70.63    1.58
   3   0   0   68.38    1.90
   3   0   1  229.77    5.10
   3   0   1  231.97    5.13
   3   0   2   37.63    1.37
   3   0   3   13.04    0.59
   3   0   3   15.45    0.87
   3   0   4    5.52    0.43
   3   0   4    5.60    0.57
   3   0   5   25.19    1.34
   3   0   6    2.81    0.48
   3   0   7    0.64    0.30
   3   0   8   -0.33    0.30
   3   0   9    0.06    0.20
   3   0  10    0.57    0.36
   3   0  11    1.55    0.53
   3   0  12    0.68    0.51
   3   1 -12   -0.47    0.32
   3   1 -11    2.75    0.57
   3   1 -10    0.37    0.30
   3   1  -9   -0.09    0.24
   3   1  -8    6.92    0.74
   3   1  -8    7.05    0.70
   3   1  -7    6.46    0.67
   3   1  -7    7.01    0.64
   3   1  -6   33.37    1.48
   3   1  -6   36.39    1.44
   3   1  -5   33.06    1.27
   3   1  -5   31.84    1.35
   3   1  -5   31.11    1.24
   3   1  -4   72.47    1.97
   3   1  -4   67.16    2.11
   3   1  -3   79.41    2.01
   3   1  -3   77.77    2.24
   3   1  -2  197.74    4.15
   3   1  -2  206.72    4.30
   3   1  -2  198.38    4.60
   3   1  -1  308.59    6.20
   3   1  -1  294.95    6.24
   3   1  -1  295.35    6.48
   3   1   0  124.38    3.00
   3   1   0  124.68    2.86
   3   1   0  125.56    3.07
   3   1   1  128.16    3.28
   3   1   1  135.43    3.25
   3   1   2  151.13    3.60
   3   1   2  123.15    3.27
   3   1   3  172.81    4.45
   3   1   4   40.34    1.74
   3   1   5   88.03    2.99
   3   1   6   59.61    2.45
   3   1   7   29.66    1.73
   3   1   8   19.49    1.47
   3   1   9   16.29    1.42
   3   1  10    7.05    1.00
   3   1  11    3.60    0.75
   3   2 -14    3.54    0.79
   3   2 -13    9.54    1.16
   3   2 -12   18.09    1.50
   3   2 -11   18.45    1.45
   3   2 -11   22.06    1.45
   3   2 -10   36.85    1.95
   3   2 -10   39.00    1.89
   3   2  -9   56.49    2.44
   3   2  -9   79.22    2.61
   3   2  -8   61.81    2.36
   3   2  -8   66.21    2.55
   3   2  -8   64.88    2.25
   3   2  -7   46.27    1.82
   3   2  -7   45.21    1.94
   3   2  -7   45.54    1.69
   3   2  -6  123.25    3.35
   3   2  -6  122.97    3.54
   3   2  -6  123.99    3.23
   3   2  -5   52.94    1.72
   3   2  -5   51.33    1.89
   3   2  -4   75.00    2.09
   3   2  -4   70.82    2.25
   3   2  -3   91.60    2.15
   3   2  -3   87.22    2.37
   3   2  -2  115.06    3.03
   3   2  -2  118.17    2.83
   3   2  -1   78.04    2.04
   3   2  -1   75.63    2.06
   3   2  -1   74.84    2.16
   3   2   0   35.11    1.30
   3   2   0   36.46    1.24
   3   2   0   34.13    1.26
   3   2   1    5.88    0.52
   3   2   1    5.84    0.48
   3   2   1    5.94    0.46
   3   2   2    0.24    0.13
   3   2   2    0.01    0.04
   3   2   2    0.21    0.17
   3   2   3    6.98    0.42
   3   2   3    6.87    0.67
   3   2   3    6.94    0.54
   3   2   4    0.39    0.18
   3   2   4    0.47    0.15
   3   2   4    0.21    0.23
   3   2   5    0.31    0.16
   3   2   5    0.67    0.19
   3   2   5    0.84    0.36
   3   2   6    9.69    0.96
   3   2   7    6.83    0.86
   3   2   8    3.16    0.62
   3   2   9    1.66    0.53
   3   2  10    2.44    0.61
   3   3 -14    0.42    0.37
   3   3 -13    0.19    0.30
   3   3 -12    0.73    0.42
   3   3 -11   -0.06    0.31
   3   3 -10    4.40    0.68
   3   3 -10    5.35    0.61
   3   3  -9    0.01    0.23
   3   3  -9   -0.18    0.22
   3   3  -8   37.48    1.73
   3   3  -8   36.08    1.87
   3   3  -8   41.30    1.58
   3   3  -7   29.14    1.39
   3   3  -7   27.95    1.04
   3   3  -7   30.08    1.57
   3   3  -7   30.72    1.25
   3   3  -6  100.52    2.91
   3   3  -6  102.07    2.37
   3   3  -6   97.25    3.14
   3   3  -5   80.22    1.77
   3   3  -5   84.82    2.43
   3   3  -5   83.12    2.65
   3   3  -4   68.45    1.60
   3   3  -4   71.47    2.09
   3   3  -4   72.12    2.31
   3   3  -3   87.33    2.19
   3   3  -3   94.25    2.71
   3   3  -2  186.01    4.28
   3   3  -2  175.38    4.08
   3   3  -2  185.05    4.42
   3   3  -1  156.41    3.82
   3   3  -1  160.85    3.85
   3   3   0   74.88    2.35
   3   3   0   77.79    2.31
   3   3   0   80.16    2.27
   3   3   1  213.58    5.23
   3   3   1  210.00    5.08
   3   3   1  207.50    4.85
   3   3   2   90.60    2.95
   3   3   2   94.33    2.56
   3   3   3   92.53    3.09
   3   3   3   90.95    2.54
   3   3   4   44.98    2.08
   3   3   5   39.69    2.04
   3   3   6   16.97    1.36
   3   3   7   14.45    1.34
   3   3   8    2.98    0.67
   3   3   9    0.26    0.26
   3   4 -14   10.15    1.22
   3   4 -13   14.20    1.39
   3   4 -12    5.43    0.84
   3   4 -11   22.19    1.55
   3   4 -10   21.31    1.43
   3   4  -9   13.63    1.06
   3   4  -9   14.11    1.24
   3   4  -8   25.66    1.41
   3   4  -8   29.31    1.70
   3   4  -8   29.30    1.23
   3   4  -7   62.08    2.26
   3   4  -7   65.58    2.56
   3   4  -6   76.08    2.46
   3   4  -6   78.40    2.76
   3   4  -5   28.49    0.86
   3   4  -5   29.31    1.30
   3   4  -5   30.78    1.49
   3   4  -4    3.75    0.30
   3   4  -4    3.75    0.50
   3   4  -4    4.28    0.46
   3   4  -3    0.45    0.22
   3   4  -3    0.42    0.19
   3   4  -3    0.35    0.14
   3   4  -2    3.01    0.39
   3   4  -2    2.88    0.34
   3   4  -2    3.07    0.41
   3   4  -1    5.80    0.55
   3   4  -1    7.13    0.59
   3   4  -1    5.98    0.53
   3   4   0    5.28    0.54
   3   4   0    5.17    0.48
   3   4   1   12.96    0.95
   3   4   1   11.45    0.86
   3   4   1   13.27    0.76
   3   4   2   63.06    2.48
   3   4   2   69.14    2.06
   3   4   3   19.28    1.32
   3   4   4    6.79    0.82
   3   4   5   10.17    1.06
   3   4   6   17.17    1.45
   3   4   7    7.70    1.03
   3   4   8    7.22    1.05
   3   5 -14    0.89    0.44
   3   5 -13    0.66    0.42
   3   5 -12   14.05    1.34
   3   5 -11    5.99    0.82
   3   5 -10   28.86    1.70
   3   5  -9   28.24    1.60
   3   5  -9   29.11    1.84
   3   5  -8   60.67    2.36
   3   5  -8   61.02    2.67
   3   5  -7   53.87    2.13
   3   5  -7   58.28    2.47
   3   5  -6  118.70    3.73
   3   5  -6  114.09    3.39
   3   5  -5   82.62    2.82
   3   5  -5   78.34    2.57
   3   5  -4   94.66    2.54
   3   5  -4  101.10    3.09
   3   5  -4   95.27    2.89
   3   5  -3  104.25    3.06
   3   5  -3  103.78    2.82
   3   5  -3  101.80    3.09
   3   5  -2   83.87    2.67
   3   5  -2   83.06    2.53
   3   5  -2   83.23    2.60
   3   5  -1   95.69    3.01
   3   5  -1   95.84    2.93
   3   5  -1   99.99    2.86
   3   5   0   31.09    1.52
   3   5   0   32.45    1.56
   3   5   0   31.95    1.33
   3   5   1   74.12    2.69
   3   5   1   69.44    2.61
   3   5   2   50.68    2.25
   3   5   3   22.81    1.55
   3   5   3   24.24    1.57
   3   5   4    2.40    0.53
   3   5   4    2.04    0.53
   3   5   5    5.29    0.81
   3   5   5    5.39    0.81
   3   5   6    1.37    0.50
   3   5   6    0.36    0.31
   3   5   7    0.24    0.34
   3   5   7    1.78    0.58
   3   6 -14    0.82    0.54
   3   6 -13    4.04    0.77
   3   6 -12    5.12    0.85
   3   6 -11    7.92    0.96
   3   6 -10    4.77    0.73
   3   6  -9    1.78    0.43
   3   6  -8    1.10    0.35
   3   6  -8    0.76    0.43
   3   6  -7    0.26    0.35
   3   6  -7    0.43    0.27
   3   6  -6    0.11    0.20
   3   6  -6    0.39    0.33
   3   6  -5    5.97    0.70
   3   6  -5    4.98    0.59
   3   6  -4    5.81    0.63
   3   6  -4    5.52    0.50
   3   6  -4    6.05    0.69
   3   6  -3   20.60    1.24
   3   6  -3   23.58    1.17
   3   6  -3   24.24    1.32
   3   6  -2   17.17    1.14
   3   6  -2   18.98    1.12
   3   6  -2   19.46    1.13
   3   6  -1   15.40    1.10
   3   6  -1   16.05    1.09
   3   6  -1   15.66    0.96
   3   6   0   22.24    1.36
   3   6   0   21.02    1.36
   3   6   1   26.29    1.58
   3   6   1   25.43    1.57
   3   6   2   26.15    1.66
   3   6   3   22.35    1.62
   3   6   4   23.78    1.75
   3   6   5   17.77    1.57
   3   7 -13    6.64    0.99
   3   7 -12   15.38    1.40
   3   7 -11   16.71    1.40
   3   7 -10   26.95    1.71
   3   7  -9   25.35    1.60
   3   7  -8   50.35    2.26
   3   7  -7   42.67    2.23
   3   7  -7   40.56    1.95
   3   7  -6   63.38    2.71
   3   7  -6   62.63    2.48
   3   7  -5   42.36    1.97
   3   7  -5   49.26    2.23
   3   7  -4   37.88    1.87
   3   7  -4   45.96    2.06
   3   7  -3   66.31    2.63
   3   7  -3   72.57    2.52
   3   7  -3   72.31    2.65
   3   7  -2   34.16    1.79
   3   7  -2   33.86    1.67
   3   7  -1   19.58    1.32
   3   7  -1   20.90    1.39
   3   7   0   13.28    1.13
   3   7   0   11.91    1.09
   3   7   1   14.54    1.25
   3   7   2    1.24    0.43
   3   7   3    1.05    0.47
   3   7   4   -0.13    0.36
   3   8 -13    0.12    0.41
   3   8 -12   -0.59    0.39
   3   8 -11    1.10    0.44
   3   8 -10    0.02    0.29
   3   8  -9    0.41    0.33
   3   8  -8    3.05    0.56
   3   8  -7    4.89    0.69
   3   8  -6    7.43    0.84
   3   8  -6    8.62    0.98
   3   8  -5   26.06    1.59
   3   8  -5   28.66    1.74
   3   8  -4   20.05    1.39
   3   8  -3   19.46    1.42
   3   8  -3   22.84    1.37
   3   8  -2   26.30    1.68
   3   8  -2   27.62    1.61
   3   8  -1   26.76    1.67
   3   8  -1   27.33    1.76
   3   8   0    8.04    0.94
   3   8   0    7.92    0.95
   3   8   1   11.73    1.19
   3   8   2   14.45    1.40
   3   9 -12   11.75    1.31
   3   9 -11    9.41    1.13
   3   9 -10   16.34    1.44
   3   9  -9    8.72    1.00
   3   9  -8    6.39    0.85
   3   9  -7    4.74    0.73
   3   9  -6    8.22    0.95
   3   9  -5    8.93    1.00
   3   9  -4    4.47    0.69
   3   9  -3    1.63    0.45
   3   9  -2    0.60    0.26
   3   9  -2    0.88    0.37
   3   9  -1    0.95    0.38
   3   9  -1    0.44    0.31
   3   9   0    0.00    0.25
   3   9   1   -0.35    0.30
   3  10 -10    7.52    1.04
   3  10  -9   11.71    1.26
   3  10  -8   14.25    1.36
   3  10  -7   18.51    1.53
   3  10  -6   18.31    1.52
   3  10  -5    8.65    1.05
   3  10  -4    6.44    0.92
   3  10  -3   20.48    1.66
   4 -12   1    7.30    1.04
   4 -12   2    4.19    0.81
   4 -12   3    1.08    0.43
   4 -12   4    1.92    0.52
   4 -12   5    4.93    0.80
   4 -12   6    3.59    0.71
   4 -12   7    1.00    0.44
   4 -12   8   -0.01    0.14
   4 -12   9    0.37    0.37
   4 -12   9    0.22    0.22
   4 -12  10    1.59    0.49
   4 -12  10    0.50    0.26
   4 -12  11    0.58    0.30
   4 -11  -1    2.83    0.71
   4 -11   0   12.68    1.36
   4 -11   1   11.92    1.26
   4 -11   2   19.23    1.56
   4 -11   3   28.28    1.86
   4 -11   4   27.06    1.79
   4 -11   5    9.26    1.03
   4 -11   6    7.24    0.91
   4 -11   7   10.94    1.11
   4 -11   8   11.35    1.15
   4 -11   9   13.99    1.28
   4 -11   9   14.03    1.35
   4 -11  10    4.86    0.80
   4 -11  10    5.39    0.79
   4 -11  11    7.56    1.04
   4 -11  11    6.42    0.91
   4 -11  12    0.81    0.47
   4 -10  -4    1.49    0.55
   4 -10  -4    3.30    0.87
   4 -10  -3    1.01    0.41
   4 -10  -3    1.73    0.63
   4 -10  -2    0.37    0.34
   4 -10  -2    0.48    0.35
   4 -10  -1   -0.77    0.32
   4 -10  -1    0.41    0.34
   4 -10   0    1.14    0.42
   4 -10   1    0.73    0.35
   4 -10   2   -0.25    0.27
   4 -10   3   -0.31    0.27
   4 -10   4    1.42    0.38
   4 -10   5    4.38    0.66
   4 -10   6    2.58    0.51
   4 -10   7    7.80    0.86
   4 -10   8    7.51    0.86
   4 -10   8    6.37    0.86
   4 -10   9    6.69    0.84
   4 -10   9    7.06    0.91
   4 -10  10    5.18    0.85
   4 -10  10    6.38    0.84
   4 -10  11    4.70    0.78
   4 -10  11    4.46    0.75
   4 -10  12    7.35    1.00
   4 -10  13    4.43    0.82
   4  -9  -5    7.61    1.14
   4  -9  -5    7.60    1.06
   4  -9  -4   12.82    1.35
   4  -9  -4   12.03    1.38
   4  -9  -3   15.57    1.45
   4  -9  -3   16.57    1.53
   4  -9  -2   40.86    2.30
   4  -9  -2   42.23    2.39
   4  -9  -1   29.25    1.85
   4  -9  -1   31.48    1.95
   4  -9   0   34.91    1.97
   4  -9   0   33.59    1.92
   4  -9   1   20.37    1.43
   4  -9   1   21.22    1.40
   4  -9   2   36.68    1.91
   4  -9   3   31.22    1.70
   4  -9   4   51.65    2.24
   4  -9   5   35.05    1.78
   4  -9   6   23.01    1.39
   4  -9   7   30.24    1.64
   4  -9   8    9.79    0.91
   4  -9   8   10.01    1.01
   4  -9   9   15.30    1.17
   4  -9   9   13.39    1.22
   4  -9  10    3.54    0.66
   4  -9  10    3.39    0.60
   4  -9  11    2.17    0.58
   4  -9  12    0.34    0.36
   4  -9  13    1.12    0.39
   4  -8  -6   -0.04    0.35
   4  -8  -5    2.52    0.72
   4  -8  -4   -0.80    0.46
   4  -8  -3    1.50    0.47
   4  -8  -2    0.31    0.29
   4  -8  -1    0.16    0.31
   4  -8  -1    0.03    0.25
   4  -8   0    9.30    0.90
   4  -8   0    8.87    0.92
   4  -8   1    3.71    0.57
   4  -8   1    4.08    0.60
   4  -8   2   14.12    1.05
   4  -8   2   14.43    1.01
   4  -8   3   25.75    1.41
   4  -8   4   26.87    1.43
   4  -8   5   38.07    1.73
   4  -8   6   20.94    1.24
   4  -8   7   33.06    1.61
   4  -8   7   31.20    1.74
   4  -8   8   24.84    1.41
   4  -8   8   24.86    1.57
   4  -8   9   18.62    1.22
   4  -8   9   20.31    1.45
   4  -8  10   11.16    0.95
   4  -8  10   10.53    1.07
   4  -8  11   15.45    1.35
   4  -8  12    3.98    0.75
   4  -8  13    0.79    0.41
   4  -8  14    2.70    0.63
   4  -7  -7   17.93    1.70
   4  -7  -6   20.71    1.78
   4  -7  -5   20.26    1.67
   4  -7  -4   50.81    2.64
   4  -7  -3   45.73    2.40
   4  -7  -2   40.42    2.13
   4  -7  -1   51.48    2.32
   4  -7   0   79.99    2.86
   4  -7   1   25.66    1.38
   4  -7   1   24.73    1.34
   4  -7   2   42.46    1.78
   4  -7   2   42.16    1.69
   4  -7   3   27.00    1.33
   4  -7   3   25.64    1.16
   4  -7   4    8.28    0.70
   4  -7   4    9.11    0.59
   4  -7   5    6.28    0.61
   4  -7   6    1.84    0.42
   4  -7   6    2.25    0.39
   4  -7   7    6.81    0.64
   4  -7   7    6.78    0.76
   4  -7   8   -0.26    0.24
   4  -7   8   -0.11    0.14
   4  -7   9    0.12    0.26
   4  -7   9   -0.11    0.15
   4  -7  10    0.64    0.33
   4  -7  11   -0.11    0.27
   4  -7  12    6.43    0.91
   4  -7  13    2.77    0.64
   4  -7  14    0.05    0.24
   4  -7  14    0.05    0.26
   4  -6  -8    0.33    0.31
   4  -6  -7   -0.08    0.34
   4  -6  -6    3.15    0.71
   4  -6  -5    2.64    0.64
   4  -6  -4   13.10    1.23
   4  -6  -3    6.52    0.84
   4  -6  -2   51.58    2.27
   4  -6  -1   13.90    1.02
   4  -6  -1   11.79    0.59
   4  -6   0   59.99    2.19
   4  -6   1   55.97    1.98
   4  -6   2   39.56    1.57
   4  -6   2   37.29    1.44
   4  -6   3   88.51    2.64
   4  -6   3   90.98    2.47
   4  -6   4  130.39    3.46
   4  -6   5  134.52    3.53
   4  -6   5  132.61    3.84
   4  -6   6   52.85    1.85
   4  -6   6   53.68    2.15
   4  -6   7   54.23    1.89
   4  -6   7   52.26    2.20
   4  -6   8   12.54    0.83
   4  -6   8   14.21    1.11
   4  -6   9   36.47    1.92
   4  -6  10   13.56    1.19
   4  -6  11   11.37    1.15
   4  -6  12    5.18    0.83
   4  -6  12    6.74    0.91
   4  -6  13    1.94    0.56
   4  -6  13    3.19    0.69
   4  -6  14    0.87    0.38
   4  -6  14    1.43    0.49
   4  -5  -9    9.50    1.24
   4  -5  -8   16.86    1.57
   4  -5  -7   15.58    1.45
   4  -5  -6   19.29    1.56
   4  -5  -5   39.66    2.18
   4  -5  -4   41.58    2.09
   4  -5  -3   51.89    2.24
   4  -5  -2   47.22    1.39
   4  -5  -2   50.72    2.04
   4  -5  -1    8.84    0.74
   4  -5  -1    8.22    0.49
   4  -5   0   18.65    1.01
   4  -5   1    7.54    0.57
   4  -5   2    5.01    0.46
   4  -5   3    4.67    0.43
   4  -5   4    0.40    0.21
   4  -5   4    0.48    0.16
   4  -5   5    0.30    0.20
   4  -5   5    0.22    0.14
   4  -5   6    2.93    0.34
   4  -5   6    3.09    0.49
   4  -5   7   21.05    0.98
   4  -5   7   21.73    1.31
   4  -5   8   55.67    2.34
   4  -5   9    8.34    0.90
   4  -5  10    7.45    0.89
   4  -5  11    5.42    0.79
   4  -5  11    5.20    0.76
   4  -5  12    5.23    0.83
   4  -5  12    5.42    0.81
   4  -5  13    3.43    0.74
   4  -5  13    2.74    0.66
   4  -5  14    1.82    0.60
   4  -4 -10    1.18    0.52
   4  -4  -9    1.41    0.53
   4  -4  -8    5.07    0.87
   4  -4  -7   15.04    1.36
   4  -4  -6   31.93    1.91
   4  -4  -5   14.22    1.16
   4  -4  -4   94.59    2.41
   4  -4  -4   97.58    3.25
   4  -4  -3   24.85    0.94
   4  -4  -3   27.57    1.42
   4  -4  -2  138.86    3.33
   4  -4  -2  146.06    3.90
   4  -4  -1  278.75    6.04
   4  -4  -1  280.48    6.46
   4  -4   2  122.93    3.02
   4  -4   3  138.52    3.28
   4  -4   3  140.59    3.64
   4  -4   4   77.00    2.03
   4  -4   4   78.91    2.48
   4  -4   5  105.85    2.57
   4  -4   5   97.15    3.04
   4  -4   6   17.91    0.78
   4  -4   6   17.67    1.12
   4  -4   7   83.65    2.27
   4  -4   7   91.98    3.03
   4  -4   8   17.06    1.23
   4  -4   9   15.09    1.23
   4  -4  10    5.62    0.78
   4  -4  10    5.73    0.72
   4  -4  11    4.94    0.76
   4  -4  11    5.88    0.74
   4  -4  12   -0.15    0.25
   4  -4  12   -0.02    0.26
   4  -4  13    0.00    0.19
   4  -3 -11    4.15    0.82
   4  -3 -10   12.83    1.37
   4  -3  -9   25.89    1.85
   4  -3  -8   38.39    2.22
   4  -3  -7   42.72    2.22
   4  -3  -6    5.99    0.76
   4  -3  -5   16.12    0.82
   4  -3  -5   19.12    1.26
   4  -3  -4   16.54    0.80
   4  -3  -4   17.66    1.12
   4  -3  -3    0.14    0.11
   4  -3  -3    0.10    0.18
   4  -3  -2    0.22    0.17
   4  -3  -2    0.03    0.09
   4  -3  -1   27.73    1.05
   4  -3   1    2.95    0.33
   4  -3   2   10.73    0.51
   4  -3   2   11.34    0.68
   4  -3   3   60.33    1.54
   4  -3   3   60.78    1.98
   4  -3   4   30.14    0.91
   4  -3   4   32.29    1.38
   4  -3   5   27.92    0.87
   4  -3   5   31.83    1.45
   4  -3   6   18.41    0.69
   4  -3   6   20.28    1.21
   4  -3   7   19.11    1.26
   4  -3   8   31.59    1.53
   4  -3   8   30.97    1.72
   4  -3   9   20.33    1.27
   4  -3   9   19.41    1.41
   4  -3  10    6.68    0.78
   4  -3  10    8.20    0.95
   4  -3  11    8.46    0.92
   4  -3  11    6.59    0.91
   4  -3  12    8.43    1.05
   4  -3  13    2.99    0.72
   4  -2 -12    1.96    0.59
   4  -2 -11    7.03    1.02
   4  -2 -10   10.58    1.19
   4  -2  -9    7.73    0.98
   4  -2  -8   12.35    1.16
   4  -2  -7   16.11    0.98
   4  -2  -7   18.85    1.32
   4  -2  -6  122.17    3.32
   4  -2  -6  124.57    3.82
   4  -2  -5   82.73    2.41
   4  -2  -5   84.76    2.80
   4  -2  -4  191.51    4.56
   4  -2  -4  202.29    5.00
   4  -2  -3   86.71    2.39
   4  -2  -3   88.95    2.63
   4  -2  -2  148.48    3.58
   4  -2  -1   66.46    1.71
   4  -2  -1   65.17    1.91
   4  -2   0  216.31    4.72
   4  -2   0  213.59    4.91
   4  -2   1  116.04    2.90
   4  -2   2   65.65    1.52
   4  -2   2   63.46    1.96
   4  -2   3  188.25    3.79
   4  -2   3  198.40    4.67
   4  -2   4   23.07    1.18
   4  -2   5   65.04    2.33
   4  -2   6    7.07    0.58
   4  -2   6    6.78    0.71
   4  -2   7   12.70    0.86
   4  -2   7   14.34    1.11
   4  -2   8    0.36    0.23
   4  -2   8   -0.15    0.26
   4  -2   9    2.05    0.44
   4  -2   9    1.46    0.45
   4  -2  10    0.87    0.31
   4  -2  10    0.50    0.31
   4  -2  11    0.18    0.24
   4  -2  12    0.30    0.22
   4  -1 -13    3.32    0.71
   4  -1 -12    7.29    1.00
   4  -1 -11    3.54    0.71
   4  -1 -10    1.29    0.45
   4  -1  -9    8.10    0.94
   4  -1  -8    0.04    0.23
   4  -1  -8    0.42    0.27
   4  -1  -7    0.82    0.32
   4  -1  -7    0.47    0.25
   4  -1  -6    1.02    0.33
   4  -1  -6    0.99    0.29
   4  -1  -5   10.77    0.73
   4  -1  -5   12.06    0.85
   4  -1  -4    7.92    0.59
   4  -1  -4    8.45    0.66
   4  -1  -3    0.57    0.17
   4  -1  -2   62.66    1.44
   4  -1  -2   58.00    1.40
   4  -1  -2   60.24    1.84
   4  -1  -1   47.22    1.28
   4  -1  -1   46.50    1.55
   4  -1   0   83.58    2.14
   4  -1   0   83.06    2.34
   4  -1   1  153.03    3.73
   4  -1   1  161.95    3.88
   4  -1   2   45.15    1.59
   4  -1   3  134.96    3.06
   4  -1   3  143.96    3.71
   4  -1   4  104.68    2.65
   4  -1   4  114.05    3.26
   4  -1   5   69.54    2.07
   4  -1   5   70.99    2.53
   4  -1   6   32.24    1.36
   4  -1   6   31.50    1.65
   4  -1   7   67.67    2.31
   4  -1   7   64.39    2.65
   4  -1   8   24.02    1.58
   4  -1   9   10.97    1.11
   4  -1  10   11.03    1.21
   4  -1  11    5.69    0.90
   4  -1  12    2.26    0.57
   4   0 -13    1.05    0.44
   4   0 -12    4.64    0.79
   4   0 -11   13.86    1.31
   4   0 -10   26.19    1.71
   4   0  -9   18.50    1.27
   4   0  -9   16.67    1.25
   4   0  -8   75.48    2.72
   4   0  -8   77.83    2.81
   4   0  -7   59.99    2.25
   4   0  -7   64.82    2.36
   4   0  -6   67.76    2.34
   4   0  -6   76.57    2.48
   4   0  -5   87.07    2.63
   4   0  -5   87.50    2.64
   4   0  -4  211.92    4.67
   4   0  -4  201.05    4.95
   4   0  -3   47.86    1.33
   4   0  -3   45.73    1.62
   4   0  -2  113.90    2.49
   4   0  -2  120.74    2.57
   4   0  -2  113.18    3.04
   4   0  -1   72.61    1.62
   4   0  -1   65.81    1.76
   4   0  -1   70.45    2.10
   4   0   0   50.00    1.53
   4   0   0   52.47    1.31
   4   0   0   51.04    1.69
   4   0   1   40.79    1.44
   4   0   1   41.09    1.49
   4   0   2    0.79    0.21
   4   0   2    0.90    0.23
   4   0   3   27.12    1.31
   4   0   4    0.23    0.22
   4   0   5    3.10    0.51
   4   0   6    0.13    0.23
   4   0   7   11.46    1.07
   4   0   8    5.24    0.78
   4   0   9    1.95    0.54
   4   0  10    0.83    0.44
   4   0  11    1.88    0.57
   4   1 -13   -0.49    0.38
   4   1 -12    0.23    0.29
   4   1 -12   -0.05    0.24
   4   1 -11    0.18    0.28
   4   1 -10    3.38    0.60
   4   1  -9    2.71    0.48
   4   1  -9    2.36    0.48
   4   1  -9    2.38    0.52
   4   1  -8    9.72    0.84
   4   1  -8   11.00    0.95
   4   1  -8   11.15    0.89
   4   1  -7    9.82    0.79
   4   1  -7   10.52    0.87
   4   1  -7    9.83    0.78
   4   1  -6   83.31    2.54
   4   1  -6   82.88    2.72
   4   1  -6   87.83    2.65
   4   1  -5   12.01    0.71
   4   1  -5   11.10    0.81
   4   1  -4  118.98    2.93
   4   1  -4  118.52    3.28
   4   1  -3   66.39    1.75
   4   1  -3   61.06    2.05
   4   1  -2   25.99    0.85
   4   1  -2   27.20    1.18
   4   1  -2   27.19    0.90
   4   1  -1   61.75    1.64
   4   1  -1   61.46    1.73
   4   1  -1   63.41    1.98
   4   1   0  102.14    2.73
   4   1   0  105.94    2.55
   4   1   0  104.71    2.86
   4   1   1  143.24    3.73
   4   1   1  149.73    3.75
   4   1   2   75.12    2.43
   4   1   2   76.47    2.33
   4   1   3  123.91    3.62
   4   1   3  124.91    3.41
   4   1   4   40.85    1.86
   4   1   4   40.54    1.65
   4   1   5   64.98    2.59
   4   1   6   13.07    1.13
   4   1   7   16.37    1.34
   4   1   8   15.63    1.39
   4   1   9   13.71    1.35
   4   1  10    9.22    1.18
   4   2 -14    3.97    0.82
   4   2 -13    7.75    1.08
   4   2 -12   14.30    1.33
   4   2 -11   10.17    1.07
   4   2 -11   12.53    1.11
   4   2 -10   20.44    1.43
   4   2 -10   21.75    1.37
   4   2  -9   28.11    1.59
   4   2  -9   33.02    1.83
   4   2  -9   30.74    1.57
   4   2  -8   30.82    1.55
   4   2  -8   33.41    1.75
   4   2  -8   32.37    1.52
   4   2  -7   38.01    1.61
   4   2  -7   37.57    1.78
   4   2  -7   35.70    1.54
   4   2  -6   46.52    1.72
   4   2  -6   46.35    1.93
   4   2  -5   37.67    1.37
   4   2  -5   30.65    1.49
   4   2  -4   71.04    2.02
   4   2  -4   66.49    2.29
   4   2  -3   15.80    0.93
   4   2  -3   15.59    0.74
   4   2  -2    2.83    0.30
   4   2  -2    2.29    0.35
   4   2  -2    2.81    0.29
   4   2  -1    7.81    0.52
   4   2  -1    8.21    0.56
   4   2  -1    8.05    0.62
   4   2   0    6.52    0.55
   4   2   0    6.99    0.51
   4   2   0    6.02    0.53
   4   2   1   13.92    0.89
   4   2   1   14.50    0.85
   4   2   2   16.08    1.04
   4   2   2   16.43    0.92
   4   2   3    1.10    0.27
   4   2   3    0.65    0.27
   4   2   4   21.53    1.38
   4   2   4   20.94    1.13
   4   2   5    1.90    0.46
   4   2   6    7.21    0.89
   4   2   7    4.29    0.74
   4   2   8    3.93    0.78
   4   2   9    1.11    0.51
   4   3 -14    1.04    0.52
   4   3 -13   -0.37    0.45
   4   3 -12    0.70    0.40
   4   3 -11    5.63    0.79
   4   3 -10   16.51    1.26
   4   3 -10   15.97    1.37
   4   3  -9    5.54    0.69
   4   3  -9    7.46    0.89
   4   3  -9    6.21    0.64
   4   3  -8   46.52    1.98
   4   3  -8   48.97    2.26
   4   3  -8   52.86    1.95
   4   3  -7    4.64    0.54
   4   3  -7    4.63    0.66
   4   3  -6   32.53    1.41
   4   3  -6   33.45    1.66
   4   3  -5   44.53    1.63
   4   3  -5   45.08    1.89
   4   3  -4  131.35    2.88
   4   3  -4  135.26    3.77
   4   3  -4  135.15    3.42
   4   3  -3  115.77    2.78
   4   3  -3  119.12    3.37
   4   3  -3  119.48    3.09
   4   3  -2  109.16    2.90
   4   3  -2  105.93    3.09
   4   3  -1  110.71    3.06
   4   3  -1  112.41    3.02
   4   3  -1  111.40    3.15
   4   3   0   78.66    2.52
   4   3   0   82.14    2.46
   4   3   0   76.71    2.43
   4   3   1   45.04    1.86
   4   3   1   44.47    1.68
   4   3   1   44.48    1.75
   4   3   2    0.73    0.22
   4   3   2    0.74    0.28
   4   3   3   48.32    2.18
   4   3   3   51.26    1.85
   4   3   4   17.76    1.32
   4   3   5   22.72    1.58
   4   3   6    8.35    1.00
   4   3   7    8.82    1.10
   4   3   8    0.86    0.41
   4   4 -14    3.51    0.79
   4   4 -13    3.07    0.74
   4   4 -12    9.63    1.10
   4   4 -11    9.14    1.01
   4   4 -10    3.89    0.62
   4   4 -10    4.56    0.80
   4   4  -9   16.05    1.17
   4   4  -9   17.25    1.41
   4   4  -8    9.87    0.87
   4   4  -8   11.43    1.08
   4   4  -8   10.97    0.77
   4   4  -7    1.42    0.35
   4   4  -7    2.06    0.50
   4   4  -6    7.78    0.68
   4   4  -6    9.14    0.89
   4   4  -5    0.31    0.29
   4   4  -5   -0.01    0.13
   4   4  -4    0.46    0.26
   4   4  -4    0.60    0.21
   4   4  -4    0.63    0.14
   4   4  -3    0.02    0.20
   4   4  -3    0.11    0.12
   4   4  -3   -0.16    0.15
   4   4  -2    1.22    0.30
   4   4  -2    1.19    0.27
   4   4  -2    1.04    0.24
   4   4  -1   11.05    0.80
   4   4  -1   13.16    0.85
   4   4  -1   11.84    0.83
   4   4   0   10.98    0.87
   4   4   0   11.81    0.85
   4   4   0   12.38    0.84
   4   4   1   20.78    1.29
   4   4   1   19.21    1.06
   4   4   1   20.98    1.22
   4   4   2   14.57    1.14
   4   4   3    7.59    0.86
   4   4   4   18.23    1.42
   4   4   5    9.08    1.05
   4   4   6    6.55    0.94
   4   4   7    8.64    1.14
   4   5 -14    7.03    1.05
   4   5 -13    8.62    1.12
   4   5 -12    6.56    0.92
   4   5 -11    6.23    0.81
   4   5 -10   35.94    1.94
   4   5 -10   39.02    2.30
   4   5  -9   20.67    1.35
   4   5  -9   21.66    1.62
   4   5  -8   51.75    2.18
   4   5  -8   57.18    2.61
   4   5  -7   53.61    2.42
   4   5  -7   50.82    2.07
   4   5  -6   79.50    2.94
   4   5  -6   74.87    2.58
   4   5  -5   52.22    2.22
   4   5  -5   50.32    1.96
   4   5  -4   67.11    2.38
   4   5  -4   79.92    2.72
   4   5  -3   31.56    1.48
   4   5  -3   33.40    1.35
   4   5  -3   33.05    1.60
   4   5  -2   36.67    1.65
   4   5  -2   36.00    1.53
   4   5  -2   40.27    1.73
   4   5  -1   73.92    2.60
   4   5  -1   74.20    2.55
   4   5  -1   75.76    2.54
   4   5   0   30.12    1.58
   4   5   0   31.48    1.60
   4   5   0   32.25    1.47
   4   5   1   50.19    2.22
   4   5   2   11.73    1.09
   4   5   2   12.36    1.10
   4   5   3   18.91    1.48
   4   5   3   21.70    1.56
   4   5   4    4.37    0.73
   4   5   4    3.62    0.68
   4   5   5    5.86    0.91
   4   5   5    5.28    0.85
   4   5   6    0.63    0.48
   4   5   6    0.37    0.28
   4   6 -13    3.08    0.68
   4   6 -12    0.06    0.26
   4   6 -11    0.12    0.28
   4   6 -10   -0.28    0.25
   4   6  -9    1.46    0.41
   4   6  -9    2.09    0.61
   4   6  -8    0.41    0.40
   4   6  -8   -0.14    0.24
   4   6  -7    0.13    0.24
   4   6  -7    0.09    0.31
   4   6  -6    5.39    0.65
   4   6  -6    5.90    0.79
   4   6  -5    2.96    0.49
   4   6  -5    3.52    0.61
   4   6  -4    9.94    0.86
   4   6  -4   10.97    0.97
   4   6  -3   28.91    1.52
   4   6  -3   26.34    1.31
   4   6  -3   25.68    1.47
   4   6  -2   13.29    1.03
   4   6  -2   13.86    0.98
   4   6  -2   14.00    1.02
   4   6  -1   30.75    1.60
   4   6  -1   28.99    1.61
   4   6   0   34.26    1.78
   4   6   0   30.59    1.73
   4   6   1   22.43    1.52
   4   6   2   15.69    1.32
   4   6   3   22.26    1.68
   4   6   4   14.26    1.39
   4   6   5    7.16    1.04
   4   7 -13    5.56    0.92
   4   7 -12   18.78    1.56
   4   7 -11   19.32    1.52
   4   7 -10   21.40    1.53
   4   7  -9   27.86    1.99
   4   7  -9   27.80    1.70
   4   7  -8   48.73    2.56
   4   7  -8   42.17    2.10
   4   7  -7   27.00    1.80
   4   7  -7   26.22    1.56
   4   7  -6   37.96    1.89
   4   7  -6   37.79    2.09
   4   7  -5   23.90    1.48
   4   7  -5   29.78    1.76
   4   7  -4   26.81    1.58
   4   7  -4   31.38    1.75
   4   7  -3   17.77    1.28
   4   7  -3   21.21    1.37
   4   7  -2    4.58    0.67
   4   7  -2    6.17    0.71
   4   7  -1   10.38    0.98
   4   7  -1    7.42    0.87
   4   7   0    1.19    0.37
   4   7   0   -0.04    0.15
   4   7   1    0.56    0.39
   4   7   2    0.08    0.27
   4   7   3    1.73    0.52
   4   8 -12    0.02    0.29
   4   8 -11    1.16    0.45
   4   8 -10    7.16    0.92
   4   8  -9    2.32    0.50
   4   8  -8   13.98    1.42
   4   8  -8   11.71    1.10
   4   8  -7   10.80    1.05
   4   8  -7   11.20    1.21
   4   8  -6   14.23    1.20
   4   8  -6   14.91    1.35
   4   8  -5   18.61    1.38
   4   8  -5   18.84    1.46
   4   8  -4   18.94    1.39
   4   8  -3   22.71    1.57
   4   8  -2   21.03    1.54
   4   8  -1   27.42    1.75
   4   8  -1   29.87    1.90
   4   8   0   24.50    1.74
   4   8   1   28.44    1.97
   4   9 -11    7.54    0.99
   4   9 -10    8.40    1.05
   4   9  -9    8.59    1.06
   4   9  -8   14.07    1.28
   4   9  -7    7.14    0.90
   4   9  -6    3.55    0.66
   4   9  -5    1.72    0.47
   4   9  -4   -0.09    0.15
   4   9  -3    0.03    0.06
   4   9  -2    0.67    0.29
   4   9  -1    0.30    0.36
   4  10  -7   16.30    1.45
   4  10  -6   24.94    1.83
   5 -12   1    2.52    0.68
   5 -12   2    2.01    0.65
   5 -12   3    1.15    0.41
   5 -12   4    0.28    0.29
   5 -12   5    1.08    0.37
   5 -12   6    2.89    0.58
   5 -12   7    2.01    0.54
   5 -12   8    0.78    0.40
   5 -12   9    1.32    0.45
   5 -12   9    1.74    0.47
   5 -12  10    1.37    0.58
   5 -12  10    1.65    0.44
   5 -11  -1   12.06    1.37
   5 -11   0   14.63    1.44
   5 -11   1   18.11    1.56
   5 -11   2   23.14    1.69
   5 -11   3   20.38    1.57
   5 -11   4   17.89    1.43
   5 -11   5   25.60    1.70
   5 -11   6   36.05    2.03
   5 -11   7   16.24    1.34
   5 -11   8    7.64    0.93
   5 -11   8    7.54    0.99
   5 -11   9    4.96    0.83
   5 -11   9    4.31    0.71
   5 -11  10    2.67    0.61
   5 -11  10    2.96    0.60
   5 -11  11    2.16    0.59
   5 -10  -4    0.81    0.49
   5 -10  -3    2.59    0.64
   5 -10  -3    2.66    0.69
   5 -10  -2    1.45    0.51
   5 -10  -2    1.77    0.59
   5 -10  -1    1.47    0.50
   5 -10  -1    0.76    0.45
   5 -10   0    0.24    0.27
   5 -10   1    2.64    0.56
   5 -10   2    2.05    0.51
   5 -10   3    3.61    0.61
   5 -10   4    6.20    0.79
   5 -10   5    6.86    0.82
   5 -10   6    6.57    0.77
   5 -10   7   11.37    1.05
   5 -10   8   12.68    1.08
   5 -10   8   12.56    1.23
   5 -10   9   19.42    1.39
   5 -10   9   17.61    1.49
   5 -10  10   13.19    1.31
   5 -10  11    8.02    1.08
   5 -10  12    8.87    1.12
   5  -9  -5   11.70    1.38
   5  -9  -4   16.10    1.56
   5  -9  -3   23.60    1.85
   5  -9  -2   27.88    1.89
   5  -9  -2   29.04    1.98
   5  -9  -1   26.36    1.75
   5  -9  -1   27.52    1.86
   5  -9   0   46.34    2.29
   5  -9   0   42.21    2.25
   5  -9   1   60.28    2.60
   5  -9   1   58.24    2.56
   5  -9   2   45.74    2.15
   5  -9   3   29.51    1.63
   5  -9   4   33.71    1.73
   5  -9   5   18.05    1.22
   5  -9   6   11.55    0.97
   5  -9   7    7.09    0.77
   5  -9   7    6.02    0.80
   5  -9   8    3.34    0.65
   5  -9   8    4.72    0.62
   5  -9   9    3.66    0.70
   5  -9   9    4.80    0.63
   5  -9  10    0.25    0.26
   5  -9  11   -0.08    0.23
   5  -9  12   -0.32    0.30
   5  -9  13    0.00    0.28
   5  -8  -6    0.76    0.43
   5  -8  -5    0.09    0.37
   5  -8  -4   -0.40    0.36
   5  -8  -3   -0.01    0.26
   5  -8  -2    2.44    0.59
   5  -8  -1   11.38    1.10
   5  -8   0    9.43    0.92
   5  -8   0    9.77    0.96
   5  -8   1   10.14    0.93
   5  -8   1    9.97    0.92
   5  -8   2   30.37    1.59
   5  -8   2   31.34    1.54
   5  -8   3   26.61    1.43
   5  -8   3   26.18    1.30
   5  -8   4   12.37    0.93
   5  -8   5   24.43    1.33
   5  -8   6   25.42    1.35
   5  -8   6   23.30    1.50
   5  -8   7   30.39    1.50
   5  -8   7   28.87    1.71
   5  -8   8   14.10    1.02
   5  -8   8   15.62    1.26
   5  -8   9   16.94    1.35
   5  -8  10   11.14    1.15
   5  -8  11    8.24    1.03
   5  -8  12    6.63    0.95
   5  -8  13    5.12    0.87
   5  -7  -7   10.36    1.32
   5  -7  -6   14.81    1.52
   5  -7  -5   15.64    1.49
   5  -7  -4   14.20    1.38
   5  -7  -3   10.88    1.14
   5  -7  -2   24.49    1.61
   5  -7  -1   33.91    1.80
   5  -7   0   20.79    1.29
   5  -7   0   19.01    0.93
   5  -7   1   16.14    1.07
   5  -7   1   14.09    1.00
   5  -7   2   24.92    1.32
   5  -7   2   28.29    1.35
   5  -7   3    7.63    0.68
   5  -7   3    6.69    0.59
   5  -7   4    6.74    0.63
   5  -7   4    5.83    0.51
   5  -7   5    4.19    0.49
   5  -7   5    4.14    0.59
   5  -7   6   -0.02    0.22
   5  -7   6    0.39    0.15
   5  -7   7    0.04    0.25
   5  -7   7    0.45    0.19
   5  -7   8    0.17    0.28
   5  -7   9    0.65    0.34
   5  -7  10    2.94    0.63
   5  -7  11    1.03    0.46
   5  -7  12    0.81    0.38
   5  -7  13   -0.17    0.23
   5  -7  13    0.13    0.27
   5  -6  -8    1.40    0.56
   5  -6  -7    0.20    0.40
   5  -6  -6    3.74    0.74
   5  -6  -5    6.28    0.91
   5  -6  -4   14.76    1.29
   5  -6  -3   32.85    1.83
   5  -6  -2   39.99    1.94
   5  -6  -1   16.42    0.82
   5  -6  -1   16.84    1.14
   5  -6   0   39.22    1.71
   5  -6   1   63.02    2.19
   5  -6   2   87.13    2.65
   5  -6   2   85.08    2.57
   5  -6   3   91.26    2.68
   5  -6   4   47.67    1.70
   5  -6   4   46.13    1.93
   5  -6   5   58.31    1.92
   5  -6   5   59.80    2.31
   5  -6   6   56.26    1.87
   5  -6   6   55.83    2.29
   5  -6   7   60.21    1.94
   5  -6   7   52.65    2.34
   5  -6   8   33.12    1.82
   5  -6   9   31.23    1.83
   5  -6  10    3.39    0.67
   5  -6  11    5.24    0.85
   5  -6  12    2.68    0.64
   5  -6  12    3.03    0.59
   5  -6  13    0.49    0.31
   5  -5  -9    2.74    0.72
   5  -5  -8    2.35    0.65
   5  -5  -7    6.14    0.95
   5  -5  -6   24.21    1.74
   5  -5  -5   17.19    1.38
   5  -5  -4   13.16    1.13
   5  -5  -3   29.76    1.15
   5  -5  -3   33.61    1.72
   5  -5  -2   20.82    0.94
   5  -5  -2   22.80    1.31
   5  -5  -1    2.69    0.43
   5  -5  -1    2.64    0.33
   5  -5   0    9.56    0.73
   5  -5   2    0.06    0.12
   5  -5   3    0.33    0.20
   5  -5   3    0.47    0.16
   5  -5   4    2.28    0.39
   5  -5   4    2.12    0.28
   5  -5   5    8.58    0.55
   5  -5   5    8.10    0.76
   5  -5   6    7.02    0.50
   5  -5   6    7.27    0.76
   5  -5   7    0.75    0.32
   5  -5   8    0.64    0.34
   5  -5   9    1.37    0.44
   5  -5  10   15.43    1.36
   5  -5  11    5.29    0.83
   5  -5  11    4.22    0.67
   5  -5  12    2.19    0.60
   5  -5  13    3.84    0.79
   5  -4 -10    3.38    0.81
   5  -4  -9    7.72    1.12
   5  -4  -8   21.83    1.74
   5  -4  -7   19.48    1.55
   5  -4  -6   22.02    1.54
   5  -4  -5   36.62    1.92
   5  -4  -4   59.68    1.89
   5  -4  -4   61.76    2.46
   5  -4  -3   53.93    1.75
   5  -4  -3   54.20    2.16
   5  -4  -2  120.82    3.15
   5  -4  -2  123.73    3.55
   5  -4  -1   48.40    1.65
   5  -4   0   21.44    1.02
   5  -4   1   82.64    2.42
   5  -4   2  125.03    3.37
   5  -4   3   85.15    2.20
   5  -4   3   86.17    2.65
   5  -4   4   49.65    1.44
   5  -4   4   51.79    1.97
   5  -4   5   67.78    1.78
   5  -4   5   68.94    2.47
   5  -4   6   22.62    1.35
   5  -4   7   21.91    1.40
   5  -4   8    2.10    0.50
   5  -4   9   10.86    0.91
   5  -4   9    9.08    0.99
   5  -4  10    5.16    0.80
   5  -4  10    5.26    0.68
   5  -4  11    3.11    0.68
   5  -4  12    1.21    0.50
   5  -3 -11    4.74    0.93
   5  -3 -10    5.74    0.92
   5  -3  -9    3.33    0.71
   5  -3  -8    3.52    0.68
   5  -3  -7    5.13    0.76
   5  -3  -6    3.51    0.59
   5  -3  -6    4.14    0.48
   5  -3  -5    2.38    0.35
   5  -3  -5    2.38    0.50
   5  -3  -4    0.75    0.20
   5  -3  -4    0.41    0.25
   5  -3  -3    0.00    0.09
   5  -3  -3    0.03    0.18
   5  -3  -2    3.54    0.39
   5  -3  -1    5.01    0.46
   5  -3   0   19.05    0.87
   5  -3   0   20.15    0.99
   5  -3   1    6.34    0.51
   5  -3   2    4.88    0.48
   5  -3   3   12.61    0.51
   5  -3   3   12.98    0.85
   5  -3   4    4.83    0.25
   5  -3   4    5.95    0.61
   5  -3   5   47.25    1.98
   5  -3   6   39.93    1.89
   5  -3   7   25.95    1.27
   5  -3   7   26.83    1.60
   5  -3   8   26.14    1.36
   5  -3   8   28.28    1.72
   5  -3   9   17.37    1.40
   5  -3  10    9.01    1.06
   5  -3  11    4.23    0.82
   5  -3  12    3.84    0.75
   5  -2 -12    5.30    0.93
   5  -2 -11    2.24    0.65
   5  -2 -10    7.30    1.01
   5  -2  -9   14.14    1.33
   5  -2  -8   24.70    1.64
   5  -2  -7   30.93    1.47
   5  -2  -7   29.32    1.71
   5  -2  -6   53.00    1.96
   5  -2  -6   55.57    2.30
   5  -2  -5   23.29    1.15
   5  -2  -5   22.29    1.31
   5  -2  -4   74.63    2.34
   5  -2  -4   78.04    2.58
   5  -2  -3  109.40    2.50
   5  -2  -3  112.27    3.05
   5  -2  -2  112.62    2.67
   5  -2  -2  120.74    3.14
   5  -2  -1   90.53    2.28
   5  -2  -1   87.76    2.57
   5  -2   0  111.58    2.83
   5  -2   0  113.02    3.09
   5  -2   1   80.64    2.34
   5  -2   1   83.32    2.50
   5  -2   2   47.88    1.72
   5  -2   3   19.29    1.08
   5  -2   4    4.40    0.55
   5  -2   5   24.03    1.01
   5  -2   5   24.92    1.41
   5  -2   6   -0.25    0.22
   5  -2   6    0.22    0.13
   5  -2   7    0.91    0.37
   5  -2   8    0.59    0.32
   5  -2   9    0.51    0.32
   5  -2  10    1.50    0.47
   5  -2  11   -0.12    0.35
   5  -1 -13    0.86    0.45
   5  -1 -12   -0.07    0.38
   5  -1 -11    0.52    0.44
   5  -1 -10    0.31    0.32
   5  -1  -9   -0.52    0.36
   5  -1  -9    0.38    0.27
   5  -1  -8    0.16    0.25
   5  -1  -8    0.24    0.28
   5  -1  -7    0.64    0.28
   5  -1  -7    0.23    0.21
   5  -1  -6    2.58    0.43
   5  -1  -6    2.66    0.47
   5  -1  -5   35.60    1.52
   5  -1  -5   35.21    1.61
   5  -1  -4   23.89    0.95
   5  -1  -4   24.37    1.19
   5  -1  -3   26.89    0.86
   5  -1  -3   24.67    1.18
   5  -1  -2  138.05    3.11
   5  -1  -2  144.65    2.99
   5  -1  -1  109.83    2.69
   5  -1  -1  116.11    3.12
   5  -1   0   62.29    1.87
   5  -1   0   66.28    2.13
   5  -1   1  101.64    2.82
   5  -1   1  104.49    2.99
   5  -1   2   79.10    2.36
   5  -1   2   84.52    2.48
   5  -1   3  101.70    2.33
   5  -1   3  108.39    3.17
   5  -1   4   42.73    1.32
   5  -1   4   46.41    1.93
   5  -1   5   63.55    2.50
   5  -1   6   51.10    2.30
   5  -1   7   33.71    1.91
   5  -1   8   13.96    1.26
   5  -1   9   18.40    1.55
   5  -1  10    9.27    1.14
   5  -1  11    2.64    0.67
   5   0 -13    5.45    0.92
   5   0 -13    7.02    0.98
   5   0 -12   11.31    1.24
   5   0 -11   15.46    1.40
   5   0 -10   32.43    1.89
   5   0 -10   37.36    2.07
   5   0  -9   42.38    2.07
   5   0  -9   40.94    2.08
   5   0  -8   66.12    2.54
   5   0  -8   59.52    2.47
   5   0  -7   30.14    1.47
   5   0  -7   33.25    1.63
   5   0  -7   33.17    1.65
   5   0  -6   76.70    2.40
   5   0  -6   75.29    2.60
   5   0  -6   77.99    2.64
   5   0  -5   73.07    2.12
   5   0  -5   70.43    2.42
   5   0  -4   45.58    1.40
   5   0  -4   43.23    1.74
   5   0  -3   64.26    1.65
   5   0  -3   61.92    2.14
   5   0  -2  136.03    3.08
   5   0  -2  139.59    3.72
   5   0  -2  142.20    3.04
   5   0  -1   53.69    1.33
   5   0  -1   51.26    1.54
   5   0  -1   50.16    1.84
   5   0   0   30.40    1.19
   5   0   0   29.89    1.33
   5   0   1   18.56    0.99
   5   0   1   20.23    1.08
   5   0   2    0.96    0.27
   5   0   2    0.86    0.25
   5   0   3    8.17    0.75
   5   0   3    7.84    0.70
   5   0   4    1.89    0.41
   5   0   5    0.22    0.22
   5   0   6    6.30    0.81
   5   0   7    3.25    0.61
   5   0   8    3.31    0.64
   5   0   9    0.04    0.29
   5   0  10    3.90    0.81
   5   1 -13   -0.50    0.40
   5   1 -12    0.83    0.39
   5   1 -12   -0.45    0.40
   5   1 -11    0.25    0.30
   5   1 -11   -0.23    0.29
   5   1 -10    0.70    0.31
   5   1 -10    0.73    0.35
   5   1 -10    0.16    0.29
   5   1  -9    0.80    0.37
   5   1  -9    0.85    0.32
   5   1  -9    0.73    0.40
   5   1  -8    8.15    0.78
   5   1  -8   10.01    0.94
   5   1  -8    8.79    0.83
   5   1  -7   29.74    1.41
   5   1  -7   30.88    1.62
   5   1  -7   31.67    1.55
   5   1  -6   58.36    1.97
   5   1  -6   57.79    2.25
   5   1  -5   36.73    1.34
   5   1  -5   35.44    1.64
   5   1  -4   77.38    2.08
   5   1  -4   72.53    2.50
   5   1  -3   66.22    1.80
   5   1  -3   65.91    2.27
   5   1  -2  119.84    2.80
   5   1  -2  114.30    2.80
   5   1  -2  123.07    3.39
   5   1  -1  125.86    3.20
   5   1  -1  131.98    3.05
   5   1  -1  128.57    3.55
   5   1   0   79.03    2.38
   5   1   0   82.50    2.17
   5   1   0   78.87    2.53
   5   1   1  140.28    3.81
   5   1   1  144.54    3.88
   5   1   2  119.53    3.53
   5   1   2  121.33    3.47
   5   1   3   75.47    2.73
   5   1   3   79.59    2.63
   5   1   4   33.53    1.76
   5   1   4   32.75    1.59
   5   1   5   58.17    2.52
   5   1   5   53.75    2.21
   5   1   6   15.89    1.31
   5   1   6   13.51    1.06
   5   1   7   16.35    1.41
   5   1   8    3.46    0.70
   5   1   9   -0.26    0.33
   5   2 -13    7.01    1.00
   5   2 -12    9.07    1.10
   5   2 -11    9.23    1.02
   5   2 -11   10.02    1.02
   5   2 -10   24.42    1.57
   5   2 -10   26.84    1.79
   5   2 -10   30.48    1.68
   5   2  -9   10.77    0.96
   5   2  -9   11.41    1.12
   5   2  -9   12.23    0.99
   5   2  -8   23.51    1.32
   5   2  -8   23.49    1.51
   5   2  -8   24.86    1.38
   5   2  -7   72.34    2.43
   5   2  -7   74.41    2.78
   5   2  -6   72.56    2.31
   5   2  -6   74.97    2.70
   5   2  -5   20.57    0.99
   5   2  -5   20.30    1.24
   5   2  -4   12.17    0.70
   5   2  -4   12.83    0.94
   5   2  -3    3.30    0.47
   5   2  -3    3.45    0.35
   5   2  -2    1.48    0.33
   5   2  -2    1.68    0.26
   5   2  -2    1.26    0.23
   5   2  -1    0.06    0.17
   5   2  -1    0.24    0.14
   5   2   0    5.01    0.53
   5   2   0    5.63    0.49
   5   2   0    5.44    0.57
   5   2   1   13.99    0.96
   5   2   1   14.68    0.95
   5   2   2   30.71    1.58
   5   2   2   32.51    1.51
   5   2   3   21.50    1.38
   5   2   3   20.86    1.20
   5   2   4    4.33    0.56
   5   2   4    4.65    0.68
   5   2   5    4.57    0.72
   5   2   6   20.10    1.56
   5   2   7    6.10    0.95
   5   2   8    7.21    1.05
   5   3 -14    0.20    0.33
   5   3 -13   -0.25    0.34
   5   3 -12    6.26    0.93
   5   3 -11    6.99    0.87
   5   3 -11   10.09    1.19
   5   3 -10   13.38    1.14
   5   3 -10   13.48    1.30
   5   3  -9   30.23    1.65
   5   3  -9   33.65    1.97
   5   3  -9   33.87    1.65
   5   3  -8   54.42    2.16
   5   3  -8   53.34    2.45
   5   3  -8   53.38    2.10
   5   3  -7   35.32    1.58
   5   3  -7   36.64    1.90
   5   3  -6   98.95    2.94
   5   3  -6  101.66    3.39
   5   3  -5   78.66    2.79
   5   3  -5   76.25    2.37
   5   3  -4   74.43    2.67
   5   3  -4   77.63    2.32
   5   3  -3  101.26    2.82
   5   3  -3  101.47    2.58
   5   3  -3  103.83    3.22
   5   3  -2  104.00    2.90
   5   3  -2  104.59    3.22
   5   3  -1   63.97    2.13
   5   3  -1   60.36    2.02
   5   3   0   55.54    2.09
   5   3   0   53.07    1.95
   5   3   0   54.09    2.07
   5   3   1   81.16    2.82
   5   3   1   79.82    2.67
   5   3   2   53.11    2.28
   5   3   2   50.52    2.01
   5   3   3   38.88    2.01
   5   3   3   37.04    1.67
   5   3   4    1.88    0.47
   5   3   5    7.76    0.98
   5   3   6    1.69    0.53
   5   3   7    1.59    0.59
   5   4 -14    2.10    0.61
   5   4 -13    2.23    0.65
   5   4 -12    8.19    1.01
   5   4 -11    7.93    0.93
   5   4 -11    8.06    1.11
   5   4 -10    4.98    0.71
   5   4 -10    6.57    0.97
   5   4  -9    2.32    0.47
   5   4  -9    2.38    0.62
   5   4  -8    0.04    0.19
   5   4  -8   -0.33    0.36
   5   4  -7    0.97    0.29
   5   4  -7    0.95    0.39
   5   4  -6    2.55    0.54
   5   4  -6    2.27    0.39
   5   4  -5    2.05    0.45
   5   4  -5    1.08    0.27
   5   4  -4    9.49    0.72
   5   4  -4    9.43    0.87
   5   4  -3    5.37    0.54
   5   4  -3    4.74    0.62
   5   4  -2   15.77    0.98
   5   4  -2   16.03    0.93
   5   4  -2   15.35    1.07
   5   4  -1   15.37    1.01
   5   4  -1   16.41    1.09
   5   4   0   12.99    1.00
   5   4   0   12.30    0.92
   5   4   0   13.07    0.95
   5   4   1   27.96    1.59
   5   4   1   24.37    1.34
   5   4   2   24.46    1.58
   5   4   3   23.97    1.66
   5   4   4   26.19    1.82
   5   4   5   23.37    1.79
   5   4   6   14.38    1.46
   5   5 -13    6.84    1.02
   5   5 -12    9.47    1.11
   5   5 -11   13.10    1.21
   5   5 -11   18.36    1.67
   5   5 -10   28.49    1.72
   5   5 -10   32.41    2.15
   5   5  -9   21.38    1.41
   5   5  -9   27.86    1.89
   5   5  -8   50.99    2.54
   5   5  -8   47.26    2.09
   5   5  -7   51.04    2.46
   5   5  -7   51.29    2.11
   5   5  -6   60.39    2.58
   5   5  -6   51.37    2.10
   5   5  -5   51.71    2.04
   5   5  -5   51.42    2.31
   5   5  -4   61.73    2.28
   5   5  -4   63.74    2.56
   5   5  -3   55.86    2.19
   5   5  -3   63.21    2.47
   5   5  -2   52.13    2.13
   5   5  -2   54.22    2.03
   5   5  -2   57.44    2.30
   5   5  -1   26.56    1.43
   5   5  -1   26.12    1.45
   5   5  -1   26.06    1.45
   5   5   0   15.12    1.13
   5   5   0   13.29    1.05
   5   5   1   24.39    1.55
   5   5   2    1.67    0.47
   5   5   3    2.11    0.54
   5   5   3    1.45    0.48
   5   5   4    0.37    0.31
   5   5   4    1.54    0.50
   5   5   5    1.41    0.52
   5   5   5    1.31    0.44
   5   6 -13   -0.15    0.32
   5   6 -12    0.11    0.29
   5   6 -11    1.74    0.47
   5   6 -10    0.59    0.32
   5   6 -10    0.59    0.45
   5   6  -9    1.54    0.42
   5   6  -9    1.98    0.63
   5   6  -8    1.50    0.39
   5   6  -8    2.15    0.63
   5   6  -7    1.30    0.32
   5   6  -7    1.37    0.52
   5   6  -6   17.90    1.40
   5   6  -6   13.93    1.06
   5   6  -5   14.15    1.07
   5   6  -5   15.46    1.26
   5   6  -4   21.84    1.34
   5   6  -4   22.68    1.48
   5   6  -3   20.04    1.30
   5   6  -3   22.17    1.43
   5   6  -2   24.04    1.46
   5   6  -2   25.54    1.51
   5   6  -1   23.63    1.44
   5   6  -1   22.88    1.47
   5   6   0    8.43    0.90
   5   6   0    8.47    0.92
   5   6   1    9.63    1.03
   5   6   2   16.14    1.41
   5   6   3   14.12    1.39
   5   6   4    5.12    0.92
   5   7 -12   15.09    1.45
   5   7 -11    9.97    1.10
   5   7 -10   14.18    1.54
   5   7 -10   15.34    1.30
   5   7  -9   13.92    1.46
   5   7  -9   12.59    1.16
   5   7  -8    4.98    0.69
   5   7  -8    3.85    0.80
   5   7  -7    5.46    0.71
   5   7  -7    6.88    0.97
   5   7  -6   14.20    1.14
   5   7  -6   15.63    1.39
   5   7  -5   10.15    0.97
   5   7  -5   11.22    1.14
   5   7  -4    7.78    0.85
   5   7  -4    8.82    0.97
   5   7  -3    4.79    0.68
   5   7  -2    1.03    0.34
   5   7  -1    2.11    0.49
   5   7   0    0.08    0.25
   5   7   1    0.74    0.42
   5   7   2    0.61    0.33
   5   8 -11    4.32    0.80
   5   8 -10    5.47    0.82
   5   8  -9    7.68    0.95
   5   8  -9    6.43    1.03
   5   8  -8   20.43    1.50
   5   8  -8   18.40    1.68
   5   8  -7   13.66    1.22
   5   8  -7   16.31    1.55
   5   8  -6   16.19    1.32
   5   8  -6   17.35    1.55
   5   8  -5    9.50    1.01
   5   8  -4    8.14    0.94
   5   8  -3   17.90    1.43
   5   8  -2   24.07    1.73
   5   8  -1   20.33    1.62
   5   9  -9    4.73    0.78
   5   9  -8    2.94    0.62
   5   9  -7    1.76    0.47
   5   9  -6    1.72    0.46
   5   9  -5    0.31    0.23
   5   9  -4    0.96    0.38
   5   9  -3   -0.06    0.24
   6 -12   1    0.08    0.26
   6 -12   2    0.51    0.30
   6 -12   3    0.29    0.34
   6 -12   4   -0.40    0.27
   6 -12   5    1.25    0.43
   6 -12   6    1.60    0.46
   6 -12   7    1.84    0.52
   6 -12   8    3.05    0.65
   6 -12   8    2.60    0.57
   6 -12   9    2.38    0.61
   6 -12   9    3.12    0.60
   6 -11  -1   16.11    1.57
   6 -11   0   11.66    1.27
   6 -11   1   12.64    1.29
   6 -11   2   14.69    1.35
   6 -11   3   18.76    1.49
   6 -11   4   17.33    1.40
   6 -11   5   20.69    1.52
   6 -11   6   11.74    1.10
   6 -11   7   10.03    1.04
   6 -11   7    9.22    1.08
   6 -11   8   10.59    1.02
   6 -11   8    9.33    1.13
   6 -11   9    5.22    0.86
   6 -11  10    3.53    0.77
   6 -10  -4    1.05    0.43
   6 -10  -3    0.52    0.38
   6 -10  -3    0.76    0.47
   6 -10  -2   -0.51    0.39
   6 -10  -2    0.22    0.30
   6 -10  -1    0.47    0.29
   6 -10  -1   -0.51    0.35
   6 -10   0    0.29    0.29
   6 -10   1    3.81    0.67
   6 -10   2    1.37    0.45
   6 -10   3   10.42    1.02
   6 -10   4    9.22    0.95
   6 -10   5    9.01    0.92
   6 -10   6    9.27    0.93
   6 -10   7   12.85    1.08
   6 -10   7   13.01    1.24
   6 -10   8    8.06    0.86
   6 -10   8    8.74    1.04
   6 -10   9    7.84    1.01
   6 -10  10    7.22    1.01
   6 -10  11    5.01    0.86
   6  -9  -5   10.11    1.33
   6  -9  -4   14.45    1.54
   6  -9  -3   21.46    1.82
   6  -9  -2   18.48    1.60
   6  -9  -1   24.60    1.78
   6  -9   0   28.67    1.79
   6  -9   0   29.38    1.86
   6  -9   1   20.82    1.45
   6  -9   1   22.38    1.50
   6  -9   2   11.74    1.04
   6  -9   3   18.69    1.28
   6  -9   4    6.77    0.77
   6  -9   5    2.49    0.46
   6  -9   6    5.51    0.65
   6  -9   6    5.70    0.78
   6  -9   7    2.36    0.55
   6  -9   7    2.98    0.50
   6  -9   8    0.40    0.29
   6  -9   9    0.09    0.23
   6  -9  10   -0.32    0.30
   6  -9  11   -0.02    0.28
   6  -9  12    1.56    0.54
   6  -8  -6    0.43    0.35
   6  -8  -5    0.33    0.24
   6  -8  -4    2.47    0.65
   6  -8  -3    5.24    0.89
   6  -8  -2    6.31    0.87
   6  -8  -1   18.06    1.40
   6  -8   0   10.83    1.01
   6  -8   1   32.08    1.69
   6  -8   1   29.05    1.62
   6  -8   2   19.89    1.27
   6  -8   2   20.03    1.24
   6  -8   3   35.39    1.70
   6  -8   3   37.93    1.67
   6  -8   4   57.53    2.22
   6  -8   5   64.00    2.36
   6  -8   5   65.83    2.68
   6  -8   6   27.48    1.40
   6  -8   6   26.48    1.64
   6  -8   7   20.47    1.18
   6  -8   7   18.52    1.40
   6  -8   8   15.75    1.31
   6  -8   9   12.70    1.24
   6  -8  10   12.35    1.24
   6  -8  11    5.53    0.86
   6  -8  12    3.04    0.68
   6  -7  -7   10.04    1.30
   6  -7  -6   10.57    1.30
   6  -7  -5   17.03    1.58
   6  -7  -4   28.94    1.95
   6  -7  -3   22.84    1.64
   6  -7  -2   21.00    1.47
   6  -7  -1   13.21    1.11
   6  -7   0    6.32    0.74
   6  -7   0    6.13    0.57
   6  -7   1    9.13    0.81
   6  -7   2    6.53    0.65
   6  -7   2    6.34    0.64
   6  -7   3    1.30    0.29
   6  -7   3    1.42    0.33
   6  -7   4    1.64    0.41
   6  -7   4    2.87    0.41
   6  -7   5    0.65    0.31
   6  -7   5    0.55    0.19
   6  -7   6    1.04    0.37
   6  -7   6    1.07    0.25
   6  -7   7   11.23    1.04
   6  -7   8   16.39    1.32
   6  -7   9    8.82    1.01
   6  -7  10    0.84    0.44
   6  -7  11    3.71    0.78
   6  -7  12    3.35    0.76
   6  -6  -8    3.85    0.85
   6  -6  -7    2.65    0.66
   6  -6  -6    9.94    1.18
   6  -6  -5   11.70    1.20
   6  -6  -4   15.40    1.33
   6  -6  -3   40.45    2.08
   6  -6  -2   33.93    1.39
   6  -6  -2   40.05    1.94
   6  -6  -1  143.50    3.82
   6  -6  -1  156.82    4.40
   6  -6   0  176.90    4.70
   6  -6   0  166.64    4.34
   6  -6   1  119.99    3.49
   6  -6   2   49.90    1.85
   6  -6   3   81.56    2.47
   6  -6   3   80.91    2.75
   6  -6   4   46.53    1.67
   6  -6   4   46.97    2.02
   6  -6   5   41.99    1.52
   6  -6   5   39.63    1.90
   6  -6   6   31.37    1.70
   6  -6   7   28.51    1.68
   6  -6   8   24.60    1.62
   6  -6   9    7.29    0.92
   6  -6  10    6.05    0.90
   6  -6  11    1.56    0.50
   6  -6  12    0.91    0.46
   6  -5  -9   16.21    1.67
   6  -5  -8   22.32    1.88
   6  -5  -7   15.80    1.48
   6  -5  -6   11.45    1.17
   6  -5  -5    6.60    0.86
   6  -5  -4   11.99    1.08
   6  -5  -3    1.85    0.45
   6  -5  -3    1.60    0.28
   6  -5  -2    1.41    0.37
   6  -5  -2    0.88    0.23
   6  -5  -1    8.33    0.66
   6  -5  -1    8.82    0.79
   6  -5   0   15.17    0.92
   6  -5   1    2.29    0.38
   6  -5   2    3.21    0.45
   6  -5   3   11.19    0.67
   6  -5   3   11.86    0.90
   6  -5   4   19.68    0.88
   6  -5   4   20.14    1.23
   6  -5   5   10.73    0.92
   6  -5   6    6.44    0.75
   6  -5   7   15.70    1.23
   6  -5   8   15.83    1.29
   6  -5   9   11.62    1.16
   6  -5  10    6.19    0.93
   6  -5  11    4.10    0.79
   6  -5  12    5.19    0.87
   6  -4 -10    6.75    1.05
   6  -4  -9    1.56    0.61
   6  -4  -8    5.66    0.88
   6  -4  -7   10.46    1.14
   6  -4  -6   38.83    2.12
   6  -4  -5   66.80    2.25
   6  -4  -5   70.50    2.82
   6  -4  -4   59.65    2.06
   6  -4  -4   62.03    2.50
   6  -4  -3   72.25    2.31
   6  -4  -3   72.48    2.67
   6  -4  -2   56.53    1.97
   6  -4  -1   81.68    2.53
   6  -4   0   60.60    1.98
   6  -4   0   61.38    2.12
   6  -4   1   99.90    2.90
   6  -4   2   49.24    1.87
   6  -4   3   69.67    1.89
   6  -4   3   71.88    2.45
   6  -4   4   53.19    2.11
   6  -4   5   18.89    1.24
   6  -4   6   14.85    1.15
   6  -4   7    5.87    0.78
   6  -4   8    1.13    0.43
   6  -4   9   -0.15    0.26
   6  -4  10   -0.05    0.21
   6  -4  11    1.10    0.51
   6  -3 -11    4.90    0.94
   6  -3 -10    1.62    0.62
   6  -3  -9    2.35    0.63
   6  -3  -8    2.37    0.55
   6  -3  -7    0.35    0.30
   6  -3  -6    3.02    0.44
   6  -3  -6    2.95    0.57
   6  -3  -5    3.63    0.59
   6  -3  -5    4.32    0.52
   6  -3  -4    0.02    0.14
   6  -3  -4    0.28    0.20
   6  -3  -3    9.12    0.52
   6  -3  -3   10.66    0.77
   6  -3  -2    1.66    0.31
   6  -3  -2    2.01    0.26
   6  -3  -1   41.28    1.43
   6  -3  -1   42.67    1.67
   6  -3   0   32.46    1.28
   6  -3   0   31.74    1.43
   6  -3   1   45.17    1.66
   6  -3   1   44.77    1.81
   6  -3   2   46.37    1.79
   6  -3   3   68.41    2.40
   6  -3   4   59.58    2.31
   6  -3   5   44.47    2.02
   6  -3   6   25.16    1.55
   6  -3   7   32.87    1.88
   6  -3   8   22.38    1.62
   6  -3   9    6.54    0.90
   6  -3  10    8.19    1.06
   6  -3  11    8.10    1.12
   6  -2 -12    4.38    0.94
   6  -2 -11    5.04    0.91
   6  -2 -10   15.18    1.47
   6  -2  -9   14.64    1.35
   6  -2  -8   34.61    1.72
   6  -2  -8   29.40    1.85
   6  -2  -7   44.10    1.92
   6  -2  -7   43.64    2.16
   6  -2  -6   47.08    1.93
   6  -2  -6   45.41    2.12
   6  -2  -5   57.90    2.15
   6  -2  -5   58.17    2.35
   6  -2  -4   93.51    2.89
   6  -2  -3   64.95    1.63
   6  -2  -3   65.82    2.25
   6  -2  -2   27.62    0.96
   6  -2  -2   27.19    1.31
   6  -2  -1   89.28    2.37
   6  -2  -1   88.47    2.75
   6  -2   0   34.57    1.33
   6  -2   0   35.96    1.55
   6  -2   1   18.67    1.00
   6  -2   1   18.05    1.09
   6  -2   2   16.55    1.00
   6  -2   2   15.73    1.05
   6  -2   3   11.88    0.90
   6  -2   4    2.60    0.47
   6  -2   5    2.52    0.49
   6  -2   6    6.90    0.84
   6  -2   7    4.24    0.68
   6  -2   8   -0.08    0.24
   6  -2   9    2.11    0.59
   6  -2  10    0.01    0.27
   6  -1 -12    0.01    0.26
   6  -1 -11   -0.02    0.25
   6  -1 -10    0.77    0.39
   6  -1  -9    0.85    0.40
   6  -1  -9    0.45    0.31
   6  -1  -8    3.89    0.65
   6  -1  -8    3.47    0.56
   6  -1  -7    8.57    0.82
   6  -1  -7    7.53    0.83
   6  -1  -6   13.24    0.85
   6  -1  -6   16.52    1.10
   6  -1  -6   17.12    1.18
   6  -1  -5   31.10    1.21
   6  -1  -5   31.50    1.53
   6  -1  -4   13.15    0.62
   6  -1  -4   13.71    0.95
   6  -1  -3   57.66    1.45
   6  -1  -3   59.59    2.15
   6  -1  -2   14.12    0.60
   6  -1  -2   14.04    0.93
   6  -1  -1   27.96    1.07
   6  -1  -1   28.88    1.38
   6  -1   0   64.92    2.08
   6  -1   0   76.05    2.47
   6  -1   1   90.03    2.73
   6  -1   1   94.88    2.97
   6  -1   2   49.32    1.94
   6  -1   2   52.54    2.08
   6  -1   3   73.37    2.61
   6  -1   3   73.04    2.64
   6  -1   4   58.49    2.39
   6  -1   5   30.56    1.73
   6  -1   6   18.31    1.40
   6  -1   7   11.53    1.16
   6  -1   8   15.13    1.40
   6  -1   9   14.98    1.45
   6  -1  10    9.06    1.17
   6   0 -12    7.63    1.06
   6   0 -12    7.11    0.96
   6   0 -11    8.60    1.00
   6   0 -11    9.85    1.11
   6   0 -10   11.86    1.10
   6   0 -10   13.26    1.21
   6   0 -10   13.05    1.22
   6   0  -9   17.37    1.25
   6   0  -9   20.79    1.46
   6   0  -9   18.78    1.40
   6   0  -8   29.33    1.54
   6   0  -8   34.85    1.83
   6   0  -8   32.30    1.77
   6   0  -7   18.93    1.10
   6   0  -7   19.47    1.29
   6   0  -7   20.67    1.33
   6   0  -6   38.58    1.49
   6   0  -6   39.91    1.85
   6   0  -5   36.99    1.33
   6   0  -5   39.68    1.78
   6   0  -4   31.56    1.09
   6   0  -4   34.19    1.60
   6   0  -3   27.06    1.41
   6   0  -3   30.60    0.95
   6   0  -2    4.06    0.27
   6   0  -2    4.51    0.34
   6   0  -2    4.97    0.57
   6   0  -1    4.58    0.41
   6   0  -1    5.10    0.31
   6   0  -1    4.30    0.53
   6   0   0   13.28    0.81
   6   0   0   13.86    0.96
   6   0   1   19.85    1.11
   6   0   1   21.45    1.23
   6   0   2   10.42    0.84
   6   0   2   10.63    0.87
   6   0   3    1.68    0.38
   6   0   3    1.75    0.38
   6   0   4    7.11    0.80
   6   0   4    6.98    0.76
   6   0   5    3.84    0.59
   6   0   5    5.76    0.76
   6   0   6    0.49    0.27
   6   0   6    1.23    0.41
   6   0   7    4.60    0.70
   6   0   7    4.78    0.77
   6   0   8    3.07    0.69
   6   0   9    0.27    0.26
   6   1 -12    1.09    0.42
   6   1 -11    1.53    0.48
   6   1 -11    1.06    0.39
   6   1 -11    1.76    0.52
   6   1 -10    9.38    0.97
   6   1 -10    9.78    1.09
   6   1 -10    8.51    0.96
   6   1  -9    6.02    0.77
   6   1  -9    6.68    0.74
   6   1  -9    5.88    0.82
   6   1  -8    9.52    0.83
   6   1  -8   10.49    1.01
   6   1  -8   10.32    0.94
   6   1  -7   16.12    0.99
   6   1  -7   15.88    1.20
   6   1  -6    6.14    0.54
   6   1  -6    6.72    0.76
   6   1  -5   49.92    1.62
   6   1  -5   47.14    2.06
   6   1  -4   79.39    2.16
   6   1  -4   79.92    2.78
   6   1  -3   85.01    2.23
   6   1  -3   91.31    2.95
   6   1  -2   63.78    1.75
   6   1  -2   62.16    1.82
   6   1  -2   61.11    2.31
   6   1  -1  110.55    2.99
   6   1  -1  110.22    2.74
   6   1  -1  111.11    3.38
   6   1   0   53.90    1.94
   6   1   0   52.83    2.10
   6   1   1   20.21    1.18
   6   1   1   23.75    1.32
   6   1   2    7.85    0.77
   6   1   2    8.02    0.77
   6   1   3   21.32    1.38
   6   1   3   21.40    1.32
   6   1   4   35.42    1.93
   6   1   4   33.94    1.76
   6   1   5   18.15    1.42
   6   1   5   14.99    1.16
   6   1   6   11.57    1.18
   6   1   7    7.71    1.03
   6   1   8    2.07    0.57
   6   2 -12    4.68    0.77
   6   2 -11    6.50    0.85
   6   2 -11    7.11    1.02
   6   2 -10   10.35    1.01
   6   2 -10   11.20    1.19
   6   2 -10   10.21    1.01
   6   2  -9    6.93    0.77
   6   2  -9    6.96    0.81
   6   2  -9    6.28    0.87
   6   2  -8   12.08    0.93
   6   2  -8   14.17    1.21
   6   2  -8   12.34    1.01
   6   2  -7    0.50    0.33
   6   2  -7    0.35    0.17
   6   2  -6    4.30    0.46
   6   2  -6    5.54    0.71
   6   2  -5    0.28    0.29
   6   2  -5    0.33    0.15
   6   2  -4    6.64    0.73
   6   2  -4    6.88    0.53
   6   2  -3    0.12    0.23
   6   2  -3   -0.09    0.11
   6   2  -2    0.35    0.22
   6   2  -2    0.43    0.15
   6   2  -2    0.05    0.11
   6   2  -1    0.79    0.27
   6   2  -1    1.66    0.28
   6   2  -1    0.94    0.26
   6   2   0   14.73    0.97
   6   2   0   13.84    1.01
   6   2   1    7.74    0.76
   6   2   1    6.66    0.72
   6   2   2    8.88    0.88
   6   2   2    9.81    0.87
   6   2   3   10.43    1.02
   6   2   3   10.24    0.92
   6   2   4    9.78    1.03
   6   2   4    8.73    0.86
   6   2   5    9.32    1.06
   6   2   6    4.78    0.82
   6   2   7    7.20    1.05
   6   3 -12    5.39    0.83
   6   3 -11    5.99    0.82
   6   3 -11    5.82    0.93
   6   3 -10   14.50    1.20
   6   3 -10   20.35    1.64
   6   3  -9   23.04    1.41
   6   3  -9   25.51    1.77
   6   3  -9   24.84    1.48
   6   3  -8   23.50    1.35
   6   3  -8   30.57    1.84
   6   3  -7   48.80    1.93
   6   3  -7   51.45    2.40
   6   3  -6   63.75    2.62
   6   3  -6   56.54    2.05
   6   3  -5   53.86    2.34
   6   3  -5   51.98    1.87
   6   3  -4   38.58    1.51
   6   3  -4   39.30    1.91
   6   3  -3   48.06    1.74
   6   3  -3   49.73    2.14
   6   3  -2   28.53    1.28
   6   3  -2   29.02    1.56
   6   3  -1   66.14    2.32
   6   3  -1   64.89    2.19
   6   3  -1   61.56    2.44
   6   3   0   67.75    2.47
   6   3   0   56.73    2.35
   6   3   1   29.64    1.62
   6   3   1   27.00    1.52
   6   3   2   23.02    1.51
   6   3   2   21.18    1.33
   6   3   3   17.96    1.41
   6   3   4    8.05    0.99
   6   3   5    4.87    0.82
   6   3   6    1.77    0.49
   6   4 -12    0.74    0.44
   6   4 -11    0.23    0.28
   6   4 -11    0.08    0.36
   6   4 -10    0.22    0.28
   6   4 -10    0.23    0.37
   6   4  -9    2.06    0.43
   6   4  -9    1.55    0.51
   6   4  -8    0.63    0.25
   6   4  -8    0.58    0.40
   6   4  -7    0.27    0.33
   6   4  -7   -0.22    0.21
   6   4  -6    0.10    0.30
   6   4  -6    0.15    0.16
   6   4  -5    4.43    0.70
   6   4  -5    3.61    0.46
   6   4  -4    7.02    0.64
   6   4  -4    6.41    0.79
   6   4  -3   10.75    0.81
   6   4  -3    8.87    0.91
   6   4  -2   17.45    1.08
   6   4  -2   19.56    1.31
   6   4  -1   16.49    1.08
   6   4  -1   17.01    1.21
   6   4   0   29.89    1.65
   6   4   0   29.01    1.60
   6   4   1   20.88    1.46
   6   4   1   22.78    1.40
   6   4   2   13.16    1.20
   6   4   3   17.07    1.46
   6   4   4   14.15    1.39
   6   4   5    6.83    1.02
   6   5 -12   11.85    1.21
   6   5 -11   17.73    1.44
   6   5 -11   21.71    1.89
   6   5 -10   21.42    1.81
   6   5 -10   19.77    1.43
   6   5  -9   24.96    1.86
   6   5  -9   22.92    1.48
   6   5  -8   48.62    2.56
   6   5  -8   40.65    1.96
   6   5  -7   38.55    2.16
   6   5  -7   31.40    1.64
   6   5  -6   24.80    1.67
   6   5  -6   23.55    1.34
   6   5  -5   41.67    1.85
   6   5  -5   42.96    2.19
   6   5  -4   22.18    1.30
   6   5  -4   25.88    1.62
   6   5  -3   18.01    1.17
   6   5  -3   17.57    1.31
   6   5  -2   10.49    0.89
   6   5  -2   11.08    1.02
   6   5  -1    8.59    0.84
   6   5  -1    9.33    0.92
   6   5   0    1.97    0.44
   6   5   1    0.36    0.30
   6   5   2    1.71    0.48
   6   5   3    1.48    0.55
   6   5   4    0.04    0.35
   6   5   4    1.31    0.49
   6   6 -11    0.22    0.34
   6   6 -11    0.67    0.58
   6   6 -10    2.68    0.58
   6   6 -10    3.93    0.90
   6   6  -9    5.26    0.70
   6   6  -9    6.25    1.03
   6   6  -8    2.49    0.49
   6   6  -8    4.19    0.80
   6   6  -7   13.68    1.10
   6   6  -7   14.39    1.36
   6   6  -6   11.19    0.98
   6   6  -6   12.57    1.24
   6   6  -5   11.16    0.97
   6   6  -5   11.71    1.17
   6   6  -4   24.24    1.47
   6   6  -4   24.88    1.67
   6   6  -3   17.25    1.26
   6   6  -3   22.05    1.51
   6   6  -2   18.03    1.30
   6   6  -1   31.10    1.81
   6   6   1   25.40    1.77
   6   6   2   12.73    1.31
   6   7 -10   11.81    1.47
   6   7 -10    9.43    1.05
   6   7  -9   11.96    1.41
   6   7  -9   11.23    1.11
   6   7  -8   13.06    1.17
   6   7  -8   14.49    1.49
   6   7  -7   13.63    1.15
   6   7  -7   15.07    1.48
   6   7  -6    2.95    0.53
   6   7  -6    3.13    0.70
   6   7  -5    3.11    0.58
   6   7  -5    2.77    0.65
   6   7  -4    1.79    0.44
   6   7  -4    1.99    0.54
   6   7  -3    0.94    0.33
   6   7  -2    1.08    0.34
   6   8  -9   10.71    1.40
   6   8  -8   12.54    1.21
   6   8  -8   14.23    1.55
   6   8  -7   15.13    1.32
   6   8  -7   14.91    1.55
   6   8  -6   28.07    1.81
   6   8  -6   28.76    2.08
   6   8  -5   42.55    2.29
   7 -12   2    0.66    0.44
   7 -12   3    0.50    0.31
   7 -12   4    1.35    0.45
   7 -12   5    3.51    0.64
   7 -12   6    1.59    0.45
   7 -12   7    4.22    0.76
   7 -12   7    3.44    0.64
   7 -12   8    6.73    1.01
   7 -11  -1   12.21    1.39
   7 -11   0   18.22    1.60
   7 -11   1   26.68    1.91
   7 -11   2   17.39    1.46
   7 -11   3   15.38    1.35
   7 -11   4   10.37    1.09
   7 -11   5   13.07    1.19
   7 -11   6    2.42    0.65
   7 -11   6    2.89    0.54
   7 -11   7    4.05    0.76
   7 -11   7    4.48    0.67
   7 -11   8    2.71    0.64
   7 -11   9    1.05    0.46
   7 -10  -4    0.39    0.39
   7 -10  -3   -0.01    0.26
   7 -10  -2    0.47    0.38
   7 -10  -2    0.49    0.39
   7 -10  -1    1.36    0.53
   7 -10  -1    2.35    0.63
   7 -10   0    2.01    0.54
   7 -10   1    4.96    0.76
   7 -10   2    5.63    0.80
   7 -10   3   12.10    1.12
   7 -10   4    2.57    0.53
   7 -10   5    9.37    0.94
   7 -10   5   10.29    1.10
   7 -10   6   11.10    1.01
   7 -10   6   12.33    1.21
   7 -10   7   10.61    1.15
   7 -10   8    5.77    0.89
   7 -10   9    8.22    1.06
   7 -10  10    5.83    0.91
   7  -9  -5    6.14    1.03
   7  -9  -4    6.33    1.07
   7  -9  -3    7.31    1.06
   7  -9  -2   10.52    1.21
   7  -9  -1   13.51    1.32
   7  -9   0   11.61    1.12
   7  -9   0   11.57    1.15
   7  -9   1    9.95    1.01
   7  -9   1   10.71    1.03
   7  -9   2    8.53    0.90
   7  -9   3    9.39    0.90
   7  -9   4    2.47    0.46
   7  -9   5    2.42    0.53
   7  -9   5    2.03    0.41
   7  -9   6    0.82    0.38
   7  -9   6    0.82    0.30
   7  -9   7    0.44    0.30
   7  -9   8   -0.56    0.29
   7  -9   9    0.71    0.34
   7  -9  10    0.92    0.45
   7  -9  11    1.25    0.51
   7  -8  -6    0.74    0.49
   7  -8  -5    1.70    0.60
   7  -8  -4    8.44    1.12
   7  -8  -3    8.93    1.11
   7  -8  -2   11.54    1.20
   7  -8  -1   13.86    1.26
   7  -8   0    7.34    0.85
   7  -8   1   42.13    1.99
   7  -8   1   40.76    2.01
   7  -8   1   40.64    1.78
   7  -8   2   22.64    1.37
   7  -8   2   23.34    1.40
   7  -8   3   41.36    1.86
   7  -8   3   41.80    1.86
   7  -8   4   20.59    1.23
   7  -8   4   22.17    1.46
   7  -8   5   30.08    1.48
   7  -8   5   30.57    1.78
   7  -8   6   23.35    1.58
   7  -8   7   28.93    1.83
   7  -8   8   20.41    1.57
   7  -8   9    9.86    1.13
   7  -8  10    6.62    0.97
   7  -8  11    2.01    0.55
   7  -7  -7    6.18    1.06
   7  -7  -6    7.32    1.10
   7  -7  -5    7.89    1.10
   7  -7  -4   10.33    1.16
   7  -7  -3   11.24    1.17
   7  -7  -2   15.92    1.30
   7  -7  -1    3.81    0.62
   7  -7   0    2.71    0.50
   7  -7   0    2.64    0.42
   7  -7   1    3.11    0.49
   7  -7   1    2.92    0.45
   7  -7   2    0.25    0.19
   7  -7   2    0.23    0.21
   7  -7   3    0.20    0.22
   7  -7   3   -0.04    0.07
   7  -7   4   -0.02    0.20
   7  -7   4   -0.02    0.14
   7  -7   5    2.76    0.51
   7  -7   6    1.73    0.43
   7  -7   7    0.25    0.26
   7  -7   8   -0.27    0.28
   7  -7   9    1.68    0.51
   7  -7  10    3.34    0.75
   7  -7  11    4.32    0.80
   7  -6  -8   10.34    1.36
   7  -6  -7    5.02    0.88
   7  -6  -6   15.68    1.49
   7  -6  -5   11.27    1.19
   7  -6  -4   23.36    1.65
   7  -6  -3   38.02    2.04
   7  -6  -2   24.31    1.25
   7  -6  -2   25.42    1.56
   7  -6  -1   41.34    1.72
   7  -6  -1   42.99    2.02
   7  -6   0    9.18    0.78
   7  -6   0    9.72    0.87
   7  -6   1   51.75    2.07
   7  -6   1   54.06    2.11
   7  -6   2   50.19    1.86
   7  -6   2   49.40    2.06
   7  -6   3   61.96    2.06
   7  -6   3   61.64    2.42
   7  -6   4   19.63    1.29
   7  -6   5   42.21    2.04
   7  -6   6   20.85    1.43
   7  -6   7    4.57    0.73
   7  -6   8    6.18    0.85
   7  -6   9    3.01    0.65
   7  -6  10    5.71    0.93
   7  -6  11    1.75    0.55
   7  -5  -9    5.10    0.98
   7  -5  -8    0.56    0.42
   7  -5  -7    5.95    0.95
   7  -5  -6    3.41    0.68
   7  -5  -5    1.59    0.51
   7  -5  -4    2.39    0.39
   7  -5  -4    2.32    0.52
   7  -5  -3    1.26    0.36
   7  -5  -3    1.15    0.28
   7  -5  -2    1.90    0.41
   7  -5  -2    1.22    0.29
   7  -5  -1    1.90    0.37
   7  -5  -1    1.00    0.23
   7  -5   0    2.81    0.44
   7  -5   0    2.66    0.40
   7  -5   1    7.45    0.69
   7  -5   1    7.58    0.73
   7  -5   2    0.01    0.09
   7  -5   3    4.73    0.59
   7  -5   3    4.80    0.43
   7  -5   4    9.46    0.88
   7  -5   5   13.92    1.12
   7  -5   6   25.12    1.59
   7  -5   7   17.11    1.35
   7  -5   8   12.14    1.20
   7  -5   9    9.51    1.12
   7  -5  10    5.79    0.91
   7  -5  11    3.07    0.72
   7  -4 -10    2.89    0.75
   7  -4  -9    4.43    0.90
   7  -4  -8   16.25    1.50
   7  -4  -7   11.87    1.23
   7  -4  -6   22.25    1.61
   7  -4  -5   22.87    1.27
   7  -4  -5   22.76    1.55
   7  -4  -4   24.72    1.32
   7  -4  -4   26.87    1.62
   7  -4  -3   68.78    2.41
   7  -4  -3   70.52    2.70
   7  -4  -2   47.77    1.66
   7  -4  -2   49.56    1.95
   7  -4  -1   63.39    2.07
   7  -4  -1   63.85    2.30
   7  -4   0   39.84    1.58
   7  -4   0   38.27    1.72
   7  -4   1   77.07    2.52
   7  -4   1   76.55    2.69
   7  -4   2   11.26    0.87
   7  -4   3   20.60    1.26
   7  -4   4    9.59    0.90
   7  -4   5    5.89    0.74
   7  -4   6    1.90    0.47
   7  -4   7   -0.11    0.23
   7  -4   8    1.38    0.46
   7  -4   9   -0.48    0.33
   7  -4  10   -0.06    0.31
   7  -4  11    1.33    0.54
   7  -3 -11    1.98    0.66
   7  -3 -10    0.20    0.23
   7  -3  -9    1.41    0.48
   7  -3  -8    0.25    0.34
   7  -3  -7    0.23    0.30
   7  -3  -7    0.24    0.28
   7  -3  -6    0.74    0.32
   7  -3  -6    1.10    0.40
   7  -3  -5    9.40    0.82
   7  -3  -5    8.72    0.92
   7  -3  -4    8.85    0.78
   7  -3  -4    9.63    0.91
   7  -3  -3   19.90    1.17
   7  -3  -2   25.35    1.34
   7  -3  -1   85.53    2.45
   7  -3  -1   84.90    2.81
   7  -3   0   12.35    0.80
   7  -3   0   12.73    0.95
   7  -3   1   54.98    2.01
   7  -3   1   54.45    2.19
   7  -3   2   53.63    2.09
   7  -3   2   53.46    2.22
   7  -3   3   44.38    1.96
   7  -3   4   30.12    1.65
   7  -3   5   39.67    2.03
   7  -3   6   36.85    2.02
   7  -3   7   19.22    1.50
   7  -3   8   16.44    1.45
   7  -3   9    8.10    1.07
   7  -3  10    8.27    1.14
   7  -2 -11    7.31    1.10
   7  -2 -10   21.48    1.76
   7  -2  -9   22.67    1.71
   7  -2  -8   28.44    1.64
   7  -2  -8   25.83    1.76
   7  -2  -7   28.41    1.60
   7  -2  -7   28.97    1.79
   7  -2  -6   38.55    1.85
   7  -2  -6   39.53    2.03
   7  -2  -5   42.93    1.90
   7  -2  -5   38.88    1.95
   7  -2  -4   35.38    1.68
   7  -2  -3   48.56    2.00
   7  -2  -2   60.76    2.29
   7  -2  -1   66.02    2.03
   7  -2  -1   71.30    2.50
   7  -2   0    6.81    0.58
   7  -2   0    7.08    0.72
   7  -2   1   22.49    1.19
   7  -2   1   20.62    1.29
   7  -2   2    5.03    0.58
   7  -2   2    4.66    0.63
   7  -2   3    3.62    0.55
   7  -2   3    3.54    0.57
   7  -2   4    2.74    0.54
   7  -2   5    0.15    0.24
   7  -2   6    2.39    0.55
   7  -2   7    2.80    0.63
   7  -2   8   -0.11    0.33
   7  -2   9    1.25    0.49
   7  -1 -12    0.15    0.38
   7  -1 -11    0.69    0.40
   7  -1 -10    0.37    0.30
   7  -1  -9   -0.14    0.32
   7  -1  -9    0.31    0.31
   7  -1  -8    5.92    0.81
   7  -1  -8    6.57    0.82
   7  -1  -7   11.27    1.01
   7  -1  -7   10.86    1.05
   7  -1  -6   25.39    1.48
   7  -1  -6   22.74    1.47
   7  -1  -5   30.32    1.60
   7  -1  -4   15.13    1.08
   7  -1  -3   78.24    2.75
   7  -1  -2   36.01    1.70
   7  -1  -1   83.41    2.40
   7  -1  -1   88.40    2.95
   7  -1   0   51.74    1.85
   7  -1   0   51.61    2.14
   7  -1   1   96.93    2.99
   7  -1   1   95.17    3.20
   7  -1   2   69.47    2.56
   7  -1   2   73.21    2.73
   7  -1   3   57.95    2.38
   7  -1   3   54.06    2.36
   7  -1   4   29.07    1.70
   7  -1   4   29.53    1.72
   7  -1   5   29.28    1.78
   7  -1   5   24.10    1.60
   7  -1   6   26.78    1.80
   7  -1   6   23.53    1.64
   7  -1   7    5.08    0.78
   7  -1   7    7.06    0.97
   7  -1   8    5.30    0.81
   7  -1   8    5.36    0.92
   7  -1   9   -0.96    0.47
   7   0 -12    5.85    0.96
   7   0 -11   10.17    1.22
   7   0 -11   10.55    1.18
   7   0 -10   11.30    1.20
   7   0 -10   10.07    1.14
   7   0  -9   12.44    1.19
   7   0  -9   14.51    1.27
   7   0  -8   22.37    1.51
   7   0  -8   19.61    1.45
   7   0  -7   43.82    2.14
   7   0  -7   43.66    2.12
   7   0  -6   65.81    2.65
   7   0  -5   15.24    1.14
   7   0  -4    6.87    0.74
   7   0  -3   12.10    0.98
   7   0  -2    1.18    0.34
   7   0  -1    0.32    0.24
   7   0  -1    0.47    0.16
   7   0   0    0.81    0.30
   7   0   0    0.77    0.23
   7   0   1    8.83    0.77
   7   0   1    8.22    0.82
   7   0   2   20.15    1.27
   7   0   2   19.24    1.30
   7   0   3    4.88    0.69
   7   0   3    5.17    0.70
   7   0   4    3.07    0.55
   7   0   4    3.30    0.61
   7   0   5    4.21    0.68
   7   0   5    4.46    0.73
   7   0   6    6.59    0.86
   7   0   6    9.07    1.08
   7   0   7    8.14    1.07
   7   0   8    3.14    0.72
   7   1 -12    4.56    0.86
   7   1 -11    2.93    0.65
   7   1 -11    2.72    0.68
   7   1 -10   11.47    1.25
   7   1 -10   12.14    1.19
   7   1  -9   13.08    1.24
   7   1  -9   14.96    1.26
   7   1  -8   30.41    1.86
   7   1  -8   35.40    1.90
   7   1  -7   35.04    1.94
   7   1  -6   35.09    1.88
   7   1  -5   81.74    3.03
   7   1  -4   37.45    1.88
   7   1  -3   93.92    3.24
   7   1  -2   64.92    2.54
   7   1  -1   64.60    2.15
   7   1  -1   66.36    2.57
   7   1   0   27.90    1.38
   7   1   0   25.78    1.51
   7   1   1   91.34    3.03
   7   1   1   86.45    3.13
   7   1   2   54.26    2.32
   7   1   2   50.53    2.29
   7   1   3   20.16    1.43
   7   1   3   19.09    1.35
   7   1   4    7.20    0.89
   7   1   4    8.17    0.91
   7   1   5    2.33    0.50
   7   1   5    2.26    0.55
   7   1   6    5.77    0.91
   7   1   7    1.61    0.48
   7   2 -12    5.41    0.95
   7   2 -11   10.51    1.28
   7   2 -10    5.36    0.76
   7   2 -10    4.38    0.81
   7   2  -9    0.97    0.35
   7   2  -9    1.23    0.48
   7   2  -8    2.32    0.58
   7   2  -7    1.03    0.40
   7   2  -6    3.03    0.59
   7   2  -5   -0.07    0.27
   7   2  -4    2.33    0.48
   7   2  -3    5.96    0.75
   7   2  -2    2.63    0.51
   7   2  -1   11.28    0.82
   7   2  -1   11.10    0.98
   7   2   0   12.75    0.97
   7   2   1    9.20    0.87
   7   2   1    8.51    0.88
   7   2   2   22.75    1.51
   7   2   2   21.93    1.46
   7   2   3   18.35    1.42
   7   2   3   15.58    1.25
   7   2   4   20.41    1.60
   7   2   5   20.44    1.69
   7   2   6   12.27    1.37
   7   3 -12    9.34    1.28
   7   3 -11    8.12    1.18
   7   3 -10   22.33    1.82
   7   3  -9   26.65    1.90
   7   3  -9   28.09    1.68
   7   3  -8   30.60    1.96
   7   3  -7   49.20    2.46
   7   3  -6   38.77    2.10
   7   3  -5   51.75    2.44
   7   3  -4   47.21    2.27
   7   3  -3   79.02    3.06
   7   3  -2   28.54    1.68
   7   3  -1   38.34    1.75
   7   3  -1   37.49    1.95
   7   3   0   14.54    1.10
   7   3   0   13.92    1.15
   7   3   1   15.87    1.23
   7   3   1   15.84    1.24
   7   3   2    6.23    0.82
   7   3   2    7.36    0.85
   7   3   3    0.89    0.41
   7   3   4    3.52    0.66
   7   3   5    0.51    0.40
   7   4 -11    1.86    0.66
   7   4 -10    1.00    0.54
   7   4  -9    0.90    0.47
   7   4  -8    0.47    0.42
   7   4  -7    1.90    0.52
   7   4  -6    3.52    0.67
   7   4  -5   20.57    1.52
   7   4  -4    6.66    0.86
   7   4  -3   16.78    1.33
   7   4  -2   21.31    1.50
   7   4  -1   13.59    1.16
   7   4   0    8.88    0.95
   7   4   1    8.83    0.99
   7   4   2   16.77    1.39
   7   4   3    8.28    1.07
   7   4   4    9.32    1.17
   7   5 -11   11.39    1.43
   7   5 -10   11.17    1.36
   7   5  -9   12.18    1.38
   7   5  -8    6.35    0.97
   7   5  -7    6.32    0.93
   7   5  -6   12.81    1.26
   7   5  -5   16.96    1.42
   7   5  -4    4.53    0.74
   7   5  -3   12.95    1.21
   7   5  -2    3.48    0.64
   7   5   2    0.94    0.37
   7   5   3   -0.13    0.35
   7   6 -10    4.22    0.91
   7   6  -9    7.12    1.10
   7   6  -8    9.09    1.20
   7   6  -7   21.35    1.75
   7   6  -6    7.90    1.06
   7   6  -5   11.02    1.20
   7   6  -4   10.55    1.15
   7   6  -3   18.75    1.52
   7   7  -8    4.05    0.96
   7   7  -7    4.87    0.90
   7   7  -6    2.40    0.65
   7   7  -5    1.24    0.49
   8 -12   2    0.38    0.25
   8 -12   3    1.95    0.54
   8 -12   4    2.40    0.59
   8 -12   5    2.67    0.61
   8 -12   5    2.62    0.58
   8 -12   6    2.42    0.64
   8 -12   6    2.82    0.57
   8 -11   0    9.17    1.15
   8 -11   1    8.05    1.04
   8 -11   2    6.00    0.85
   8 -11   3    7.00    0.93
   8 -11   4    3.87    0.67
   8 -11   5    2.12    0.57
   8 -11   5    2.24    0.50
   8 -11   6    1.20    0.40
   8 -11   7    2.68    0.64
   8 -11   8    0.49    0.39
   8 -10  -3    0.88    0.42
   8 -10  -2    2.35    0.64
   8 -10  -1    2.71    0.70
   8 -10  -1    3.46    0.71
   8 -10   0    4.98    0.86
   8 -10   1    7.95    0.98
   8 -10   2    7.93    0.92
   8 -10   3   16.23    1.29
   8 -10   4   16.42    1.26
   8 -10   4   14.65    1.33
   8 -10   5   24.16    1.54
   8 -10   5   28.47    1.89
   8 -10   6   10.59    1.17
   8 -10   7    6.63    0.95
   8 -10   8    7.22    1.01
   8 -10   9    8.37    1.11
   8  -9  -4   11.49    1.43
   8  -9  -3   10.84    1.29
   8  -9  -2    9.22    1.17
   8  -9  -1    6.71    0.95
   8  -9   0    5.61    0.83
   8  -9   1    3.20    0.64
   8  -9   1    4.28    0.64
   8  -9   2    3.18    0.51
   8  -9   2    3.79    0.61
   8  -9   3    1.69    0.47
   8  -9   3    1.83    0.40
   8  -9   4    1.09    0.36
   8  -9   4    0.77    0.30
   8  -9   5    2.19    0.51
   8  -9   6    0.29    0.26
   8  -9   7    3.97    0.72
   8  -9   8    5.43    0.87
   8  -9   9    2.12    0.55
   8  -9  10    1.77    0.58
   8  -8  -6    2.21    0.71
   8  -8  -5    3.87    0.85
   8  -8  -4    6.52    1.03
   8  -8  -3    8.68    1.08
   8  -8  -2   24.08    1.76
   8  -8  -1   47.64    2.42
   8  -8   0   56.76    2.61
   8  -8   1   48.44    2.31
   8  -8   1   52.29    2.19
   8  -8   2   18.63    1.25
   8  -8   2   18.64    1.34
   8  -8   2   17.65    1.27
   8  -8   3   35.39    1.72
   8  -8   3   38.35    2.01
   8  -8   3   37.79    1.85
   8  -8   4   19.32    1.43
   8  -8   5   18.90    1.43
   8  -8   6   14.53    1.28
   8  -8   7   18.78    1.51
   8  -8   8    9.19    1.08
   8  -8   9    5.62    0.90
   8  -8  10    4.79    0.84
   8  -7  -7    7.98    1.15
   8  -7  -6    4.13    0.86
   8  -7  -5    7.91    1.12
   8  -7  -4    4.32    0.79
   8  -7  -3    1.64    0.45
   8  -7  -2    2.32    0.56
   8  -7  -1    5.33    0.76
   8  -7  -1    4.77    0.60
   8  -7   0    7.81    0.77
   8  -7   0    8.07    0.87
   8  -7   1    0.09    0.22
   8  -7   1    0.03    0.18
   8  -7   1    0.31    0.18
   8  -7   2    2.36    0.45
   8  -7   2    1.32    0.33
   8  -7   3    1.81    0.42
   8  -7   3    2.59    0.42
   8  -7   4    3.92    0.62
   8  -7   5    4.30    0.65
   8  -7   6    2.55    0.54
   8  -7   7    4.56    0.75
   8  -7   8    9.38    1.10
   8  -7   9    3.43    0.72
   8  -7  10    2.58    0.67
   8  -6  -8    1.34    0.50
   8  -6  -7    5.43    0.97
   8  -6  -6   18.73    1.67
   8  -6  -5   17.37    1.53
   8  -6  -4   31.09    1.97
   8  -6  -3   29.01    1.83
   8  -6  -2   25.79    1.41
   8  -6  -2   26.87    1.68
   8  -6  -1   38.27    1.75
   8  -6  -1   42.60    1.88
   8  -6  -1   45.00    2.15
   8  -6   0   25.51    1.39
   8  -6   0   25.28    1.43
   8  -6   1   47.92    2.05
   8  -6   1   45.89    2.07
   8  -6   2   25.78    1.27
   8  -6   2   27.24    1.53
   8  -6   2   26.85    1.57
   8  -6   3   39.47    1.93
   8  -6   4   18.44    1.31
   8  -6   5   21.30    1.48
   8  -6   6    3.62    0.64
   8  -6   7    5.30    0.80
   8  -6   8    2.78    0.66
   8  -6   9    0.14    0.33
   8  -6  10   -0.72    0.46
   8  -5  -8    0.78    0.43
   8  -5  -7    2.71    0.68
   8  -5  -6    0.94    0.42
   8  -5  -5    2.18    0.57
   8  -5  -4    1.02    0.31
   8  -5  -4    0.76    0.36
   8  -5  -3    1.28    0.40
   8  -5  -3    1.45    0.35
   8  -5  -2    2.20    0.41
   8  -5  -1    8.33    0.80
   8  -5   0   12.04    0.88
   8  -5   0   12.07    0.97
   8  -5   1   19.91    1.21
   8  -5   1   21.84    1.36
   8  -5   2   12.09    0.96
   8  -5   2   13.17    1.07
   8  -5   3   36.65    1.85
   8  -5   4   23.01    1.48
   8  -5   5   18.74    1.39
   8  -5   6   18.22    1.43
   8  -5   7   14.53    1.32
   8  -5   8   10.70    1.21
   8  -5   9    4.47    0.83
   8  -5  10    5.33    0.93
   8  -4  -9    7.38    1.11
   8  -4  -8   17.10    1.60
   8  -4  -7   16.24    1.48
   8  -4  -6   27.68    1.86
   8  -4  -5   30.77    1.63
   8  -4  -5   31.00    1.90
   8  -4  -4   36.82    1.79
   8  -4  -4   36.75    2.01
   8  -4  -3   39.88    1.85
   8  -4  -2   20.76    1.28
   8  -4  -1   37.84    1.80
   8  -4   0   23.24    1.21
   8  -4   0   22.64    1.38
   8  -4   1   18.11    1.12
   8  -4   1   18.56    1.27
   8  -4   2    5.68    0.66
   8  -4   2    5.37    0.70
   8  -4   3   22.30    1.39
   8  -4   3   20.64    1.43
   8  -4   4    1.20    0.38
   8  -4   5    3.22    0.59
   8  -4   6    6.87    0.90
   8  -4   7    3.14    0.63
   8  -4   8   -0.37    0.26
   8  -4   9    0.90    0.46
   8  -4  10    0.18    0.26
   8  -3 -10    1.08    0.46
   8  -3  -9   -0.19    0.33
   8  -3  -8    0.95    0.43
   8  -3  -7    2.40    0.50
   8  -3  -7    2.38    0.57
   8  -3  -6    6.71    0.88
   8  -3  -6    5.19    0.70
   8  -3  -5    7.31    0.79
   8  -3  -5    8.84    0.95
   8  -3  -4    9.99    0.90
   8  -3  -3   13.73    1.05
   8  -3  -2    7.06    0.76
   8  -3  -1   21.63    1.35
   8  -3   0   15.57    0.97
   8  -3   0   18.92    1.25
   8  -3   1   63.73    2.32
   8  -3   1   60.44    2.51
   8  -3   2   24.93    1.43
   8  -3   2   23.96    1.52
   8  -3   3   37.24    1.88
   8  -3   3   35.97    1.96
   8  -3   4   36.80    1.95
   8  -3   4   34.03    1.96
   8  -3   5   18.94    1.43
   8  -3   6    8.53    1.01
   8  -3   7    7.22    0.98
   8  -3   8   12.39    1.35
   8  -3   9    7.99    1.11
   8  -2 -11    5.86    0.99
   8  -2 -10   11.59    1.31
   8  -2  -9    9.92    1.20
   8  -2  -8   16.98    1.34
   8  -2  -8   16.46    1.45
   8  -2  -7   17.24    1.31
   8  -2  -7   17.13    1.42
   8  -2  -6   14.85    1.18
   8  -2  -6   17.76    1.38
   8  -2  -5   30.00    1.67
   8  -2  -4   25.15    1.50
   8  -2  -3   13.51    1.07
   8  -2  -2    5.82    0.70
   8  -2  -1    5.84    0.71
   8  -2   0    5.71    0.58
   8  -2   0    5.42    0.69
   8  -2   1   24.64    1.34
   8  -2   1   23.49    1.50
   8  -2   2    5.33    0.72
   8  -2   2    5.49    0.66
   8  -2   3    0.74    0.34
   8  -2   3    0.80    0.29
   8  -2   4    1.41    0.43
   8  -2   4    1.22    0.40
   8  -2   5    1.86    0.51
   8  -2   5    1.65    0.44
   8  -2   6    0.83    0.39
   8  -2   6    0.84    0.41
   8  -2   7    1.05    0.49
   8  -2   7    2.08    0.59
   8  -2   8    0.63    0.31
   8  -2   8    1.41    0.55
   8  -2   9    0.36    0.40
   8  -1 -11    0.93    0.47
   8  -1 -10    4.70    0.83
   8  -1 -10    4.22    0.78
   8  -1  -9    3.25    0.68
   8  -1  -9    3.39    0.67
   8  -1  -8    5.04    0.78
   8  -1  -8    4.55    0.78
   8  -1  -7    3.57    0.65
   8  -1  -7    3.66    0.66
   8  -1  -6   10.08    0.99
   8  -1  -5   18.36    1.32
   8  -1  -4   37.99    1.92
   8  -1  -3   56.10    2.40
   8  -1  -2   25.80    1.53
   8  -1  -1   79.24    2.96
   8  -1   0   24.80    1.27
   8  -1   0   25.82    1.55
   8  -1   1   12.18    0.93
   8  -1   1   12.39    1.08
   8  -1   2    2.83    0.52
   8  -1   2    4.24    0.59
   8  -1   3   24.49    1.56
   8  -1   3   22.88    1.57
   8  -1   4   19.73    1.47
   8  -1   4   17.37    1.41
   8  -1   5   13.40    1.25
   8  -1   5   13.73    1.29
   8  -1   6    9.78    1.15
   8  -1   6    8.97    1.08
   8  -1   7    1.94    0.55
   8  -1   7    2.57    0.63
   8  -1   8    4.35    0.86
   8   0 -12    3.62    0.78
   8   0 -11    5.20    0.84
   8   0 -11    4.13    0.87
   8   0 -10    5.57    0.88
   8   0 -10    3.81    0.78
   8   0  -9   11.89    1.21
   8   0  -9   10.97    1.16
   8   0  -8    2.40    0.55
   8   0  -8    2.98    0.59
   8   0  -7    0.16    0.26
   8   0  -6    0.78    0.37
   8   0  -5    0.06    0.16
   8   0  -4    7.35    0.84
   8   0  -3    0.56    0.29
   8   0  -2   -0.11    0.22
   8   0  -1    0.08    0.21
   8   0   0    2.91    0.55
   8   0   0    2.69    0.42
   8   0   1    7.71    0.78
   8   0   1    6.66    0.83
   8   0   2    1.86    0.48
   8   0   2    3.03    0.52
   8   0   3    3.85    0.66
   8   0   3    3.71    0.62
   8   0   4    7.63    0.94
   8   0   4    8.25    0.97
   8   0   5    3.02    0.64
   8   0   5    2.77    0.61
   8   0   6    2.72    0.62
   8   0   6    3.79    0.78
   8   0   7    5.50    0.91
   8   1 -12    2.80    0.79
   8   1 -11    5.05    0.84
   8   1 -11    4.09    0.87
   8   1 -10   11.30    1.26
   8   1 -10   12.03    1.21
   8   1  -9    9.68    1.15
   8   1  -9    9.37    1.05
   8   1  -8   22.48    1.67
   8   1  -8   24.27    1.65
   8   1  -7   31.51    1.93
   8   1  -6   39.79    2.14
   8   1  -5   45.18    2.25
   8   1  -4   18.00    1.34
   8   1  -3   36.85    1.97
   8   1  -2   22.25    1.49
   8   1  -1   55.82    2.49
   8   1   0   32.72    1.85
   8   1   1   38.33    1.89
   8   1   1   34.02    1.94
   8   1   2   10.77    1.04
   8   1   2   10.60    1.07
   8   1   3   20.30    1.52
   8   1   3   20.68    1.52
   8   1   4   10.42    1.15
   8   1   4    9.91    1.06
   8   1   5    1.57    0.49
   8   1   6    3.27    0.74
   8   2 -11    0.00    0.45
   8   2 -10    0.01    0.22
   8   2 -10    1.08    0.51
   8   2  -9    2.74    0.57
   8   2  -9    3.10    0.75
   8   2  -8    0.91    0.43
   8   2  -7    0.09    0.34
   8   2  -6    0.24    0.33
   8   2  -5    0.95    0.38
   8   2  -4    4.63    0.71
   8   2  -3    7.72    0.89
   8   2  -2    5.30    0.75
   8   2  -1   18.40    1.39
   8   2   0   13.65    1.22
   8   2   1   13.22    1.13
   8   2   1   12.35    1.16
   8   2   2   13.58    1.21
   8   2   2   13.00    1.19
   8   2   3   10.51    1.12
   8   2   3   10.43    1.08
   8   2   4   11.95    1.28
   8   2   5    4.10    0.84
   8   3 -11   12.70    1.51
   8   3 -10   22.16    1.88
   8   3  -9   18.35    1.64
   8   3  -8   29.00    2.01
   8   3  -7   36.73    2.22
   8   3  -6   20.23    1.58
   8   3  -5   33.47    2.02
   8   3  -4   22.95    1.63
   8   3  -3   15.82    1.34
   8   3  -2    7.22    0.90
   8   3  -1   15.43    1.31
   8   3   0    0.27    0.27
   8   3   1    2.44    0.56
   8   3   1    2.43    0.53
   8   3   2    1.90    0.52
   8   3   3    0.94    0.37
   8   3   4   -0.06    0.20
   8   4 -10    1.79    0.65
   8   4  -9    2.07    0.66
   8   4  -8    2.42    0.67
   8   4  -7    6.22    0.94
   8   4  -6    8.28    1.05
   8   4  -5   11.09    1.20
   8   4  -4    8.93    1.04
   8   4  -3   22.43    1.66
   8   4  -2   10.82    1.15
   8   4  -1   26.77    1.80
   8   4   0   30.59    1.94
   8   4   2    8.71    1.08
   8   4   3    6.24    0.95
   8   5  -9   15.27    1.61
   8   5  -8   16.92    1.63
   8   5  -7   12.35    1.37
   8   5  -6    7.23    1.04
   8   5  -5    3.43    0.73
   8   5  -4    2.37    0.67
   8   5  -3    3.51    0.68
   8   5  -2    0.29    0.34
   8   6  -7   17.04    1.67
   8   6  -6   22.36    1.87
   8   6  -5   46.79    2.70
   8   6  -4   37.18    2.33
   9 -12   3    0.53    0.28
   9 -12   4    1.26    0.43
   9 -12   4    1.54    0.44
   9 -11   0    4.51    0.83
   9 -11   1    4.37    0.79
   9 -11   2    4.30    0.72
   9 -11   3    3.29    0.66
   9 -11   3    2.46    0.57
   9 -11   4    1.99    0.54
   9 -11   5    1.33    0.47
   9 -11   6    1.09    0.46
   9 -11   7    0.17    0.36
   9 -10  -3    3.35    0.79
   9 -10  -2    3.47    0.77
   9 -10  -1    4.08    0.78
   9 -10  -1    4.06    0.74
   9 -10   0    4.06    0.74
   9 -10   1    7.61    0.96
   9 -10   2   10.45    1.08
   9 -10   2   12.59    1.24
   9 -10   3   10.93    1.04
   9 -10   3    9.96    1.12
   9 -10   4    9.91    1.13
   9 -10   5   10.64    1.19
   9 -10   6   10.17    1.20
   9 -10   7   11.48    1.28
   9 -10   8   10.04    1.20
   9  -9  -4    5.84    1.06
   9  -9  -3    3.88    0.79
   9  -9  -2    4.97    0.88
   9  -9  -1    2.34    0.57
   9  -9   0    1.41    0.46
   9  -9   1    1.51    0.42
   9  -9   1    1.20    0.34
   9  -9   1    1.83    0.47
   9  -9   2    0.82    0.34
   9  -9   2    0.55    0.26
   9  -9   2    1.28    0.36
   9  -9   3    0.03    0.23
   9  -9   4    0.36    0.18
   9  -9   5   -0.31    0.26
   9  -9   6    0.00    0.24
   9  -9   7    0.01    0.31
   9  -9   8    0.36    0.33
   9  -9   9    0.56    0.33
   9  -8  -5    5.72    0.98
   9  -8  -4    5.80    0.97
   9  -8  -3   12.56    1.36
   9  -8  -2   11.65    1.24
   9  -8  -1    8.52    1.02
   9  -8   0   10.00    1.08
   9  -8   1   17.06    1.29
   9  -8   1   14.68    1.17
   9  -8   1   14.01    1.23
   9  -8   2   20.63    1.33
   9  -8   2   20.64    1.48
   9  -8   2   21.64    1.48
   9  -8   2   19.96    1.43
   9  -8   3   20.97    1.51
   9  -8   4   14.15    1.25
   9  -8   5   14.49    1.31
   9  -8   6    9.71    1.06
   9  -8   7    2.76    0.65
   9  -8   8    1.92    0.52
   9  -8   9    2.71    0.71
   9  -7  -6    2.73    0.71
   9  -7  -5    1.15    0.53
   9  -7  -4    0.79    0.39
   9  -7  -3    2.26    0.58
   9  -7  -2    1.03    0.43
   9  -7  -1    0.67    0.33
   9  -7  -1    0.55    0.27
   9  -7   0    0.36    0.30
   9  -7   0    0.72    0.28
   9  -7   1    0.34    0.15
   9  -7   1    0.71    0.24
   9  -7   2   -0.38    0.29
   9  -7   2    0.09    0.12
   9  -7   3    0.79    0.33
   9  -7   3    0.25    0.24
   9  -7   4    3.92    0.66
   9  -7   5    5.06    0.78
   9  -7   6    6.20    0.89
   9  -7   7    8.32    1.05
   9  -7   8    8.02    1.05
   9  -7   9    3.38    0.72
   9  -6  -7    7.84    1.15
   9  -6  -6    6.19    0.98
   9  -6  -5    8.58    1.11
   9  -6  -4   18.35    1.55
   9  -6  -3   18.62    1.27
   9  -6  -3   19.21    1.55
   9  -6  -2   24.89    1.50
   9  -6  -2   28.06    1.79
   9  -6  -1   25.18    1.52
   9  -6   0   23.82    1.50
   9  -6   1   25.64    1.50
   9  -6   1   26.31    1.61
   9  -6   2   11.56    1.01
   9  -6   2   10.33    1.03
   9  -6   3    6.33    0.79
   9  -6   3    7.24    0.89
   9  -6   4    7.57    0.87
   9  -6   5    4.61    0.76
   9  -6   6    0.72    0.40
   9  -6   7    0.87    0.43
   9  -6   8    0.93    0.46
   9  -6   9    1.43    0.51
   9  -5  -8    1.14    0.46
   9  -5  -7    0.83    0.46
   9  -5  -6    0.84    0.39
   9  -5  -5    2.79    0.63
   9  -5  -4    2.92    0.54
   9  -5  -4    2.40    0.63
   9  -5  -3    5.71    0.83
   9  -5  -3    6.12    0.74
   9  -5  -2   10.65    0.97
   9  -5  -1   16.81    1.23
   9  -5   0   14.05    1.14
   9  -5   1   12.92    1.02
   9  -5   1   13.32    1.14
   9  -5   2   22.51    1.44
   9  -5   2   24.93    1.63
   9  -5   3   21.12    1.44
   9  -5   3   20.02    1.49
   9  -5   4   12.12    1.11
   9  -5   4   12.79    1.23
   9  -5   5   20.03    1.53
   9  -5   6   20.12    1.60
   9  -5   7    9.41    1.14
   9  -5   8    8.04    1.05
   9  -5   9    5.73    0.99
   9  -4  -8   10.01    1.26
   9  -4  -7   13.30    1.40
   9  -4  -6   21.60    1.46
   9  -4  -6   20.47    1.67
   9  -4  -5   18.35    1.33
   9  -4  -5   17.52    1.47
   9  -4  -4   17.49    1.28
   9  -4  -4   17.28    1.42
   9  -4  -3   28.40    1.65
   9  -4  -2   33.40    1.81
   9  -4  -1   27.77    1.64
   9  -4   0   10.95    1.01
   9  -4   1    6.70    0.73
   9  -4   1    7.32    0.86
   9  -4   2    7.82    0.83
   9  -4   2    7.05    0.88
   9  -4   3    3.95    0.63
   9  -4   3    5.02    0.76
   9  -4   4    0.73    0.34
   9  -4   4    0.71    0.38
   9  -4   5    0.83    0.36
   9  -4   5    0.60    0.37
   9  -4   6    0.32    0.28
   9  -4   7    1.79    0.55
   9  -4   8    0.21    0.29
   9  -3  -9   -0.35    0.37
   9  -3  -8    1.70    0.58
   9  -3  -7    3.98    0.69
   9  -3  -7    5.12    0.87
   9  -3  -6    5.30    0.75
   9  -3  -6    6.10    0.89
   9  -3  -5   11.76    1.07
   9  -3  -5   11.78    1.16
   9  -3  -4   12.55    1.10
   9  -3  -3   20.14    1.40
   9  -3  -2   28.16    1.66
   9  -3  -1   24.84    1.57
   9  -3   0   31.60    1.80
   9  -3   1   48.44    2.34
   9  -3   2   35.08    1.82
   9  -3   2   34.16    1.97
   9  -3   3   29.29    1.73
   9  -3   3   25.50    1.74
   9  -3   4   21.84    1.55
   9  -3   4   19.42    1.57
   9  -3   5   14.45    1.33
   9  -3   5   12.55    1.31
   9  -3   6   14.62    1.39
   9  -3   6   15.30    1.48
   9  -3   7    4.58    0.85
   9  -3   7    8.00    1.07
   9  -3   8    2.48    0.70
   9  -3   8    2.39    0.62
   9  -3   9   -0.25    0.23
   9  -2 -10    6.40    1.05
   9  -2  -9    5.46    0.93
   9  -2  -8   15.07    1.33
   9  -2  -8   15.05    1.46
   9  -2  -7   23.55    1.65
   9  -2  -7   26.02    1.86
   9  -2  -6   22.52    1.58
   9  -2  -6   26.73    1.81
   9  -2  -5   17.42    1.33
   9  -2  -4    3.11    0.58
   9  -2  -3    6.53    0.81
   9  -2  -2    3.72    0.61
   9  -2  -1   -0.04    0.22
   9  -2   0   -0.16    0.26
   9  -2   1    2.04    0.50
   9  -2   2    9.41    0.91
   9  -2   2    9.38    1.03
   9  -2   3    1.79    0.52
   9  -2   3    1.47    0.44
   9  -2   4    0.91    0.44
   9  -2   4    1.03    0.37
   9  -2   5    3.07    0.69
   9  -2   5    3.32    0.69
   9  -2   6    4.26    0.82
   9  -2   6    4.96    0.82
   9  -2   7    1.44    0.53
   9  -2   7    2.52    0.70
   9  -2   8    2.68    0.73
   9  -1 -10    3.64    0.82
   9  -1 -10    3.97    0.77
   9  -1  -9    8.26    1.10
   9  -1  -9    9.99    1.15
   9  -1  -8   11.72    1.20
   9  -1  -8   11.43    1.26
   9  -1  -7   17.76    1.45
   9  -1  -7   19.09    1.53
   9  -1  -6   19.99    1.51
   9  -1  -5   27.58    1.75
   9  -1  -4   32.11    1.88
   9  -1  -3   37.37    2.02
   9  -1  -2   39.38    2.08
   9  -1  -1   36.82    2.01
   9  -1   0   23.80    1.61
   9  -1   1   48.25    2.41
   9  -1   2   40.81    2.06
   9  -1   2   41.06    2.24
   9  -1   3   11.02    1.10
   9  -1   3   12.86    1.24
   9  -1   4    4.04    0.72
   9  -1   4    5.01    0.79
   9  -1   5    7.13    0.98
   9  -1   5    4.05    0.74
   9  -1   6    2.41    0.64
   9  -1   6    4.16    0.75
   9  -1   7    1.98    0.62
   9  -1   7    0.50    0.34
   9   0 -11    2.56    0.65
   9   0 -11    3.71    0.85
   9   0 -10    5.08    0.89
   9   0 -10    4.88    0.86
   9   0  -9    1.83    0.53
   9   0  -9    1.74    0.53
   9   0  -8    1.08    0.48
   9   0  -8    0.84    0.39
   9   0  -7    4.56    0.77
   9   0  -6    1.96    0.52
   9   0  -5   -0.07    0.24
   9   0  -4    0.89    0.37
   9   0  -3    1.48    0.46
   9   0  -2    1.98    0.49
   9   0  -1    2.99    0.60
   9   0   0    6.43    0.84
   9   0   1    5.52    0.82
   9   0   2    7.92    0.98
   9   0   2    7.79    0.91
   9   0   3   13.61    1.25
   9   0   3   15.16    1.38
   9   0   4   10.56    1.18
   9   0   4   12.30    1.28
   9   0   5   10.70    1.26
   9   0   5   10.44    1.19
   9   0   6   10.35    1.32
   9   1 -10    7.14    0.99
   9   1 -10    7.77    1.07
   9   1  -9   19.65    1.68
   9   1  -9   17.63    1.53
   9   1  -8   18.66    1.59
   9   1  -7   23.18    1.75
   9   1  -6   27.33    1.85
   9   1  -5   33.47    2.03
   9   1  -4   36.66    2.13
   9   1  -3   49.50    2.48
   9   1  -2   27.40    1.79
   9   1  -1   16.57    1.39
   9   1   0   16.78    1.42
   9   1   1   11.91    1.19
   9   1   2    4.14    0.76
   9   1   3    2.61    0.59
   9   1   3    2.95    0.60
   9   1   4    1.99    0.60
   9   1   4    1.58    0.51
   9   1   5    1.00    0.54
   9   2 -10    0.99    0.45
   9   2  -9   -0.45    0.32
   9   2  -9   -0.07    0.37
   9   2  -8    1.04    0.48
   9   2  -7    0.52    0.34
   9   2  -6    1.98    0.59
   9   2  -5    6.27    0.89
   9   2  -4    7.33    0.95
   9   2  -3    6.75    0.90
   9   2  -2   15.31    1.36
   9   2  -1   10.04    1.13
   9   2   0    2.30    0.57
   9   2   1    8.56    1.03
   9   2   2    8.39    1.05
   9   2   3    6.30    0.94
   9   2   4    5.88    0.92
   9   3  -9    7.09    1.11
   9   3  -8    4.34    0.84
   9   3  -7    8.53    1.10
   9   3  -6    8.03    1.09
   9   3  -5   13.05    1.33
   9   3  -4    6.18    0.93
   9   3  -3    4.27    0.78
   9   3  -2    6.55    0.91
   9   3  -1    1.10    0.41
   9   3   0    0.71    0.34
   9   4  -8    8.33    1.18
   9   4  -7   10.84    1.31
   9   4  -6    7.90    1.09
   9   4  -5    3.50    0.78
   9   4  -4    5.58    0.92
   9   4  -3   15.63    1.48
   9   4  -2   16.15    1.50
   9   4  -1   14.93    1.43
   9   5  -5    0.87    0.42
   9   5  -4    0.53    0.37
   9   5  -3    0.48    0.39
  10 -11   1    1.51    0.54
  10 -11   2    0.95    0.43
  10 -11   3    0.84    0.37
  10 -11   4    1.07    0.40
  10 -11   5    0.07    0.11
  10 -10  -2    5.11    0.94
  10 -10  -1   19.01    1.62
  10 -10  -1   18.10    1.67
  10 -10   0   13.51    1.33
  10 -10   1   12.92    1.22
  10 -10   3    8.74    1.07
  10 -10   4   10.54    1.19
  10 -10   4    9.88    1.11
  10 -10   5    4.73    0.82
  10 -10   6    7.25    1.05
  10 -10   7    6.86    1.01
  10  -9  -3    0.90    0.43
  10  -9  -2    2.06    0.61
  10  -9  -1    4.08    0.77
  10  -9   0    2.12    0.61
  10  -9   1    0.21    0.32
  10  -9   2    0.18    0.24
  10  -9   3    1.19    0.42
  10  -9   3    0.62    0.34
  10  -9   4    1.83    0.54
  10  -9   4    0.56    0.26
  10  -9   5    2.53    0.57
  10  -9   6    1.69    0.54
  10  -9   7    1.65    0.52
  10  -8  -4    7.04    1.09
  10  -8  -3   14.38    1.53
  10  -8  -2    7.77    1.09
  10  -8  -1   13.53    1.35
  10  -8   0   12.77    1.15
  10  -8   0   13.74    1.33
  10  -8   1   10.89    1.09
  10  -8   1   13.27    1.23
  10  -8   2   14.00    1.26
  10  -8   3   10.99    1.12
  10  -8   3   11.74    1.19
  10  -8   4   11.57    1.20
  10  -8   4   12.87    1.30
  10  -8   5    5.07    0.82
  10  -8   6    4.58    0.78
  10  -8   7    0.97    0.51
  10  -8   8    1.38    0.52
  10  -7  -5    0.01    0.26
  10  -7  -4    0.04    0.27
  10  -7  -3    0.23    0.33
  10  -7  -2    0.86    0.36
  10  -7  -1    2.53    0.57
  10  -7  -1    2.28    0.51
  10  -7   0    2.35    0.51
  10  -7   1    5.18    0.75
  10  -7   2    7.86    0.96
  10  -7   3    8.49    0.97
  10  -7   3    7.39    0.95
  10  -7   4   11.26    1.17
  10  -7   4   11.55    1.23
  10  -7   5    3.73    0.71
  10  -7   6    7.44    1.04
  10  -7   7    7.02    1.06
  10  -7   8    3.92    0.84
  10  -6  -6    7.32    1.11
  10  -6  -5   16.85    1.61
  10  -6  -4   13.80    1.41
  10  -6  -3   13.25    1.16
  10  -6  -3   13.81    1.37
  10  -6  -2   12.79    1.13
  10  -6  -2   13.03    1.27
  10  -6  -1   15.79    1.28
  10  -6   0   12.66    1.14
  10  -6   1    8.67    0.98
  10  -6   2    7.91    0.97
  10  -6   3    4.62    0.74
  10  -6   3    5.18    0.85
  10  -6   4    4.72    0.75
  10  -6   4    5.68    0.91
  10  -6   5    1.06    0.43
  10  -6   5    1.53    0.55
  10  -6   6    6.48    0.93
  10  -6   7    1.15    0.49
  10  -6   8   -0.48    0.36
  10  -5  -7    2.48    0.72
  10  -5  -6    0.09    0.22
  10  -5  -5    2.46    0.65
  10  -5  -4    2.26    0.49
  10  -5  -4    1.94    0.55
  10  -5  -3    6.01    0.79
  10  -5  -2    2.20    0.49
  10  -5  -1    7.16    0.87
  10  -5   0   12.99    1.18
  10  -5   1   12.73    1.20
  10  -5   2   19.60    1.54
  10  -5   3   11.63    1.14
  10  -5   3   12.38    1.25
  10  -5   4   15.09    1.35
  10  -5   4   17.48    1.55
  10  -5   5    6.93    0.95
  10  -5   5    8.11    1.09
  10  -5   6    3.96    0.80
  10  -5   6    3.33    0.72
  10  -5   7    3.27    0.70
  10  -5   7    3.92    0.83
  10  -5   8    6.93    1.03
  10  -4  -7   10.08    1.28
  10  -4  -6    7.98    0.95
  10  -4  -6   10.98    1.29
  10  -4  -5   11.52    1.11
  10  -4  -5   10.55    1.21
  10  -4  -4   12.97    1.19
  10  -4  -3    6.85    0.85
  10  -4  -2    2.08    0.49
  10  -4  -1    4.47    0.71
  10  -4   0    6.52    0.87
  10  -4   1    7.91    0.96
  10  -4   2    7.29    0.95
  10  -4   3   -0.58    0.29
  10  -4   3   -0.13    0.27
  10  -4   4   -0.04    0.21
  10  -4   4    0.12    0.27
  10  -4   5    0.15    0.35
  10  -4   5    0.11    0.25
  10  -4   6    0.91    0.42
  10  -4   6    0.26    0.31
  10  -4   7    1.50    0.53
  10  -4   7    1.36    0.46
  10  -3  -8    1.57    0.58
  10  -3  -7    1.68    0.47
  10  -3  -7    2.00    0.58
  10  -3  -6    1.20    0.43
  10  -3  -6    1.34    0.49
  10  -3  -5   12.88    1.20
  10  -3  -4   11.07    1.11
  10  -3  -3   20.22    1.51
  10  -3  -2   20.85    1.53
  10  -3  -1   20.96    1.55
  10  -3   0   18.91    1.49
  10  -3   1    1.86    0.45
  10  -3   2    4.47    0.76
  10  -3   3    8.79    0.95
  10  -3   3    9.67    1.12
  10  -3   4   17.47    1.47
  10  -3   4   17.20    1.56
  10  -3   5    5.28    0.90
  10  -3   5    5.38    0.87
  10  -3   6    7.26    1.06
  10  -3   6    7.30    1.03
  10  -3   7    2.09    0.58
  10  -3   7    2.20    0.65
  10  -2  -9    4.13    0.83
  10  -2  -8    3.35    0.71
  10  -2  -8    2.41    0.65
  10  -2  -7    0.16    0.35
  10  -2  -7    1.25    0.46
  10  -2  -6    0.00    0.30
  10  -2  -5    2.20    0.53
  10  -2  -4    3.17    0.64
  10  -2  -3    1.54    0.45
  10  -2  -2   -0.07    0.25
  10  -2  -1    0.15    0.25
  10  -2   0    0.18    0.25
  10  -2   1    2.80    0.61
  10  -2   2    1.64    0.48
  10  -2   3    1.02    0.43
  10  -2   4    2.86    0.67
  10  -2   4    1.68    0.47
  10  -2   5    1.84    0.57
  10  -2   5    2.81    0.63
  10  -2   6    1.14    0.45
  10  -2   6    1.32    0.43
  10  -1  -9    5.60    0.92
  10  -1  -9    5.60    0.98
  10  -1  -8    6.82    0.98
  10  -1  -8    7.26    1.02
  10  -1  -7   27.95    1.94
  10  -1  -7   24.06    1.84
  10  -1  -6   16.16    1.44
  10  -1  -5   19.29    1.55
  10  -1  -4   15.77    1.38
  10  -1  -3   15.64    1.37
  10  -1  -2   19.37    1.54
  10  -1  -1   23.52    1.71
  10  -1   0   26.54    1.84
  10  -1   1   15.55    1.41
  10  -1   2   13.77    1.39
  10  -1   3    6.55    0.95
  10  -1   4    8.60    1.07
  10  -1   4   10.76    1.27
  10  -1   5    2.16    0.57
  10  -1   5    2.37    0.60
  10  -1   6    1.38    0.50
  10   0  -9    0.65    0.47
  10   0  -9    0.66    0.35
  10   0  -8    2.04    0.58
  10   0  -8    0.96    0.44
  10   0  -7    0.54    0.40
  10   0  -6   -0.40    0.37
  10   0  -5   -0.95    0.42
  10   0  -4    2.09    0.53
  10   0  -3    2.04    0.53
  10   0  -2    4.64    0.79
  10   0  -1    4.74    0.82
  10   0   0    8.69    1.08
  10   0   1    5.83    0.90
  10   0   2    6.02    0.93
  10   0   3    8.06    1.04
  10   0   4    3.45    0.76
  10   1  -9   13.78    1.40
  10   1  -8   12.31    1.39
  10   1  -7   20.68    1.73
  10   1  -6   14.90    1.46
  10   1  -5   20.45    1.68
  10   1  -4   14.99    1.42
  10   1  -3   10.69    1.19
  10   1  -2    6.78    0.98
  10   1  -1    7.57    1.03
  10   1   0    5.20    0.86
  10   1   1    0.70    0.33
  10   1   2    3.04    0.67
  10   1   3    1.78    0.53
  10   2  -9   -0.27    0.40
  10   2  -7    2.55    0.67
  10   2  -6    3.85    0.76
  10   2  -5    5.31    0.88
  10   2  -4    7.47    1.04
  10   2  -3    7.70    1.04
  10   2  -2   12.66    1.34
  10   2  -1   11.83    1.31
  10   2   0   25.18    1.93
  10   2   1   15.91    1.55
  10   3  -5    4.55    0.89
  10   3  -4    2.02    0.65
  10   3  -3    1.66    0.54
  10   3  -2    2.10    0.57
  10   3  -1    1.47    0.52
  10   3   0    0.66    0.34
  11 -10   4    6.58    0.97
  11 -10   5    4.57    0.86
  11 -10   5    5.21    0.86
  11  -9  -2    0.96    0.48
  11  -9  -1   -0.04    0.19
  11  -9   0   -0.67    0.42
  11  -9   1   -0.10    0.24
  11  -9   2    0.19    0.27
  11  -9   3    0.41    0.36
  11  -9   4    0.57    0.30
  11  -9   5    2.19    0.63
  11  -9   5    1.86    0.51
  11  -9   6    2.08    0.60
  11  -8  -3    9.04    1.23
  11  -8  -2    7.00    1.09
  11  -8  -1   12.19    1.33
  11  -8   0    8.99    1.12
  11  -8   0    8.22    0.99
  11  -8   1    8.92    1.05
  11  -8   1    8.53    1.08
  11  -8   2    4.00    0.76
  11  -8   3    3.04    0.68
  11  -8   4    3.41    0.69
  11  -8   5    1.51    0.49
  11  -8   5    1.16    0.53
  11  -8   6    1.15    0.40
  11  -7  -4   -0.06    0.13
  11  -7  -3    2.48    0.61
  11  -7  -2    3.82    0.79
  11  -7  -1    4.58    0.81
  11  -7  -1    4.87    0.73
  11  -7   0    4.03    0.72
  11  -7   1    6.00    0.87
  11  -7   2    7.64    1.01
  11  -7   3    6.23    0.94
  11  -7   4    6.66    0.98
  11  -7   5    6.01    0.92
  11  -7   5    5.92    0.97
  11  -7   6    9.01    1.26
  11  -7   6   11.34    1.30
  11  -7   7    2.85    0.68
  11  -6  -4    6.58    1.06
  11  -6  -3   11.79    1.19
  11  -6  -3   14.97    1.49
  11  -6  -2   14.41    1.31
  11  -6  -1   10.73    1.12
  11  -6   0    6.27    0.88
  11  -6   1    5.59    0.85
  11  -6   2    3.39    0.71
  11  -6   3    1.20    0.47
  11  -6   4    1.32    0.51
  11  -6   5   -0.16    0.26
  11  -6   5    0.29    0.34
  11  -6   6   -0.17    0.31
  11  -6   6    0.27    0.37
  11  -6   7    0.21    0.28
  11  -5  -5    5.02    0.93
  11  -5  -4    3.39    0.66
  11  -5  -4    3.70    0.76
  11  -5  -3    8.83    1.02
  11  -5  -2    6.36    0.88
  11  -5  -1   12.91    1.27
  11  -5   0   13.10    1.29
  11  -5   1   17.41    1.51
  11  -5   2   21.69    1.75
  11  -5   3    8.32    1.12
  11  -5   4   11.00    1.31
  11  -5   5    6.46    0.93
  11  -5   5    6.85    1.09
  11  -5   6    8.28    1.13
  11  -4  -6   10.32    1.14
  11  -4  -6   10.66    1.30
  11  -4  -5    6.75    0.92
  11  -4  -5    5.49    0.92
  11  -4  -4    4.90    0.79
  11  -4  -3    1.88    0.51
  11  -4  -2    2.32    0.56
  11  -4  -1    0.68    0.39
  11  -4   0   -0.13    0.29
  11  -4   1    0.18    0.34
  11  -4   2    2.02    0.55
  11  -4   3    0.58    0.36
  11  -4   4    0.30    0.32
  11  -4   5    1.03    0.54
  11  -4   5    0.88    0.45
  11  -4   6    1.27    0.50
  11  -3  -7    6.00    0.92
  11  -3  -6    5.78    0.88
  11  -3  -6    7.24    1.07
  11  -3  -5   16.39    1.46
  11  -3  -4    8.64    1.04
  11  -3  -3   22.54    1.71
  11  -3  -2   15.36    1.42
  11  -3  -1   14.11    1.35
  11  -3   0   18.40    1.60
  11  -3   1   21.59    1.75
  11  -3   2   26.68    1.98
  11  -3   3    4.96    0.92
  11  -3   4    4.49    0.87
  11  -3   5    1.74    0.61
  11  -2  -7    1.93    0.55
  11  -2  -7    1.65    0.52
  11  -2  -6    3.94    0.77
  11  -2  -5   -0.06    0.23
  11  -2  -4    0.27    0.30
  11  -2  -3   -0.01    0.25
  11  -2  -2    0.29    0.27
  11  -2  -1    1.37    0.46
  11  -2   0    1.89    0.57
  11  -2   1    2.41    0.63
  11  -2   2    3.69    0.80
  11  -2   3    4.80    0.89
  11  -2   4    7.84    1.15
  11  -1  -7   15.03    1.50
  11  -1  -6    9.67    1.22
  11  -1  -5   25.35    1.91
  11  -1  -4   21.76    1.76
  11  -1  -3   27.52    1.99
  11  -1  -2   16.70    1.54
  11  -1  -1    8.30    1.08
  11  -1   0   10.06    1.22
  11  -1   1    6.05    0.94
  11  -1   2    4.59    0.83
  11  -1   3   -0.07    0.14
  11   0  -6    1.12    0.46
  11   0  -5    1.77    0.59
  11   0  -4    1.60    0.52
  11   0  -3    2.07    0.61
  11   0  -2    4.91    0.89
  11   0  -1    4.57    0.80
  11   0   0    3.04    0.71
  11   0   1    2.12    0.57
  11   0   2    7.67    1.14
  11   1  -4    3.01    0.72
  11   1  -3    4.91    0.89
  11   1  -2    4.57    0.87
  11   1  -1    1.39    0.52
  12  -9   2    1.79    0.52
  12  -8   0    2.57    0.71
  12  -8   0    3.11    0.65
  12  -8   1    3.24    0.67
  12  -8   2    4.27    0.79
  12  -7  -1    1.29    0.52
  12  -7  -1    1.89    0.53
  12  -7   0    3.60    0.71
  12  -7   1    5.09    0.88
  12  -7   2    3.78    0.74
  12  -6  -3    2.92    0.62
  12  -6  -2    1.83    0.52
  12  -6  -1    1.13    0.44
  12  -6   0    3.82    0.77
  12  -6   1    4.02    0.82
  12  -6   2    0.07    0.41
  12  -5  -4    5.00    0.85
  12  -5  -3    7.67    0.99
  12  -5  -2    7.03    0.97
  12  -5  -1   10.52    1.23
  12  -5   0    3.63    0.75
  12  -5   1    2.54    0.58
  12  -5   2    1.15    0.47
  12  -4  -5    1.02    0.40
  12  -4  -4    2.24    0.55
  12  -4  -3    0.30    0.28
  12  -4  -2    0.59    0.32
  12  -4  -1    0.08    0.22
  12  -4   0    0.13    0.27
  12  -4   1   -0.04    0.34
  12  -3  -4    5.46    0.92
  12  -3  -3    8.77    1.14
  12  -3  -2    7.08    1.02
  12  -3  -1   11.90    1.36
  12  -3   0   12.20    1.39
  12  -2  -2    1.34    0.49
   0   0   0    0.00    0.00
;
_shelx_hkl_checksum              58132
loop_
_space_group_symop_operation_xyz
'x, y, z'
'-x, -y, -z'
loop_
_atom_site_label
_atom_site_type_symbol
_atom_site_fract_x
_atom_site_fract_y
_atom_site_fract_z
_atom_site_U_iso_or_equiv
_atom_site_adp_type
_atom_site_occupancy
_atom_site_site_symmetry_order
_atom_site_calc_flag
_atom_site_refinement_flags_posn
_atom_site_refinement_flags_adp
I1 I -0.03559(2) -0.29295(2) -0.01712(2) 0.02497(4) Uani 1 1 d . .
C1 C 0.1864(2) -0.0703(2) 0.0071(2) 0.0215(3) Uani 1 1 d . .
O2 O 0.15913(17) 0.06339(18) 0.34726(15) 0.0311(3) Uani 1 1 d . .
N1 N 0.29919(19) 0.0439(2) 0.14369(17) 0.0227(3) Uani 1 1 d . .
O3 O -0.04776(19) 0.2585(2) 0.45506(15) 0.0365(3) Uani 1 1 d . .
C7 C 0.4715(2) 0.2230(2) 0.0324(2) 0.0221(3) Uani 1 1 d . .
C3 C 0.3534(2) 0.1083(2) -0.1027(2) 0.0215(3) Uani 1 1 d . .
O1 O 0.54205(18) 0.2961(2) 0.28519(16) 0.0386(4) Uani 1 1 d . .
N2 N 0.6460(2) 0.4075(2) -0.0710(2) 0.0300(3) Uani 1 1 d . .
C11 C 0.1065(3) 0.2927(3) 0.5389(2) 0.0342(4) Uani 1 1 d . .
H11A H 0.0811(5) 0.2125(13) 0.5932(9) 0.041 Uiso 1 1 calc R U
H11B H 0.1633(10) 0.426(2) 0.6181(13) 0.041 Uiso 1 1 calc R U
C6 C 0.6160(2) 0.3686(3) 0.0410(2) 0.0277(4) Uani 1 1 d . .
H6 H 0.697(2) 0.444(2) 0.132(2) 0.033 Uiso 1 1 calc R U
C2 C 0.2091(2) -0.0426(2) -0.1123(2) 0.0233(3) Uani 1 1 d . .
H2 H 0.1357(19) -0.117(2) -0.196(2) 0.028 Uiso 1 1 calc R U
C4 C 0.3840(2) 0.1522(3) -0.2200(2) 0.0266(4) Uani 1 1 d . .
H4 H 0.3071(19) 0.0816(18) -0.311(2) 0.032 Uiso 1 1 calc R U
C8 C 0.4454(2) 0.1954(3) 0.1636(2) 0.0258(4) Uani 1 1 d . .
C9 C 0.2756(2) 0.0063(3) 0.2713(2) 0.0284(4) Uani 1 1 d . .
H9A H 0.2360(7) -0.121(2) 0.2380(6) 0.034 Uiso 1 1 calc R U
H9B H 0.3848(18) 0.0647(10) 0.3386(11) 0.034 Uiso 1 1 calc R U
C5 C 0.5277(3) 0.2995(3) -0.1994(2) 0.0299(4) Uani 1 1 d . .
H5 H 0.5460(5) 0.3285(8) -0.282(2) 0.036 Uiso 1 1 calc R U
C10 C 0.2260(3) 0.2533(3) 0.4389(2) 0.0338(4) Uani 1 1 d . .
H10A H 0.2373(3) 0.3162(11) 0.3766(11) 0.041 Uiso 1 1 calc R U
H10B H 0.341(2) 0.2964(8) 0.4984(10) 0.041 Uiso 1 1 calc R U
C12 C -0.1577(3) 0.3155(3) 0.5430(3) 0.0422(5) Uani 1 1 d . .
H12A H -0.2619(19) 0.291(2) 0.4788(10) 0.063 Uiso 1 1 calc R U
H12B H -0.0984(12) 0.446(2) 0.6089(16) 0.063 Uiso 1 1 calc R U
H12C H -0.1900(18) 0.2500(19) 0.6031(17) 0.063 Uiso 1 1 calc R U
loop_
_atom_site_aniso_label
_atom_site_aniso_U_11
_atom_site_aniso_U_22
_atom_site_aniso_U_33
_atom_site_aniso_U_23
_atom_site_aniso_U_13
_atom_site_aniso_U_12
I1 0.02205(7) 0.01757(6) 0.03333(7) 0.01221(5) 0.00873(5) 0.00519(5)
C1 0.0175(7) 0.0152(7) 0.0289(9) 0.0090(7) 0.0058(6) 0.0048(6)
O2 0.0299(7) 0.0282(7) 0.0283(7) 0.0117(6) 0.0097(5) 0.0058(5)
N1 0.0207(7) 0.0216(7) 0.0233(7) 0.0108(6) 0.0053(6) 0.0055(6)
O3 0.0335(8) 0.0443(9) 0.0218(7) 0.0076(6) 0.0041(6) 0.0144(7)
C7 0.0172(7) 0.0203(8) 0.0257(8) 0.0090(7) 0.0061(6) 0.0058(6)
C3 0.0176(7) 0.0184(8) 0.0258(8) 0.0084(7) 0.0061(6) 0.0063(6)
O1 0.0290(7) 0.0391(8) 0.0260(7) 0.0100(6) -0.0032(6) -0.0021(6)
N2 0.0235(8) 0.0259(8) 0.0369(9) 0.0150(7) 0.0095(7) 0.0051(6)
C11 0.0321(10) 0.0371(11) 0.0206(9) 0.0067(8) 0.0009(7) 0.0088(9)
C6 0.0179(8) 0.0237(9) 0.0326(10) 0.0097(8) 0.0046(7) 0.0030(7)
C2 0.0185(7) 0.0188(8) 0.0259(9) 0.0084(7) 0.0015(7) 0.0029(6)
C4 0.0242(8) 0.0260(9) 0.0258(9) 0.0119(8) 0.0046(7) 0.0065(7)
C8 0.0183(8) 0.0244(9) 0.0283(9) 0.0102(8) 0.0028(7) 0.0044(7)
C9 0.0310(9) 0.0308(10) 0.0283(9) 0.0179(8) 0.0068(8) 0.0127(8)
C5 0.0275(9) 0.0286(10) 0.0355(10) 0.0183(9) 0.0118(8) 0.0090(8)
C10 0.0285(10) 0.0292(10) 0.0298(10) 0.0081(8) 0.0032(8) 0.0037(8)
C12 0.0471(13) 0.0478(14) 0.0397(12) 0.0210(11) 0.0184(10) 0.0256(11)
loop_
_atom_type_symbol
_atom_type_description
_atom_type_scat_dispersion_real
_atom_type_scat_dispersion_imag
_atom_type_scat_source
C C 0.0033 0.0016 'International Tables Vol C Tables 4.2.6.8 and 6.1.1.4'
H H 0.0000 0.0000 'International Tables Vol C Tables 4.2.6.8 and 6.1.1.4'
N N 0.0061 0.0033 'International Tables Vol C Tables 4.2.6.8 and 6.1.1.4'
O O 0.0106 0.0060 'International Tables Vol C Tables 4.2.6.8 and 6.1.1.4'
I I -0.4742 1.8119 'International Tables Vol C Tables 4.2.6.8 and 6.1.1.4'
loop_
_geom_angle_atom_site_label_1
_geom_angle_atom_site_label_2
_geom_angle_atom_site_label_3
_geom_angle
C2 C1 N1 122.60(15)
C2 C1 I1 116.99(13)
N1 C1 I1 120.37(12)
C9 O2 C10 114.12(15)
C1 N1 C8 121.49(15)
C1 N1 C9 121.52(15)
C8 N1 C9 116.91(15)
C12 O3 C11 113.05(16)
C6 C7 C3 118.82(18)
C6 C7 C8 119.76(17)
C3 C7 C8 121.42(15)
C7 C3 C4 117.22(15)
C7 C3 C2 118.76(16)
C4 C3 C2 124.00(17)
C6 N2 C5 116.98(16)
O3 C11 C10 109.57(17)
O3 C11 H11A 109.8
C10 C11 H11A 109.8
O3 C11 H11B 109.8
C10 C11 H11B 109.8
H11A C11 H11B 108.2
N2 C6 C7 123.66(19)
N2 C6 H6 118.2
C7 C6 H6 118.2
C1 C2 C3 119.94(17)
C1 C2 H2 120.0
C3 C2 H2 120.0
C5 C4 C3 119.34(18)
C5 C4 H4 120.3
C3 C4 H4 120.3
O1 C8 N1 120.65(17)
O1 C8 C7 123.61(17)
N1 C8 C7 115.74(16)
O2 C9 N1 113.59(15)
O2 C9 H9A 108.8
N1 C9 H9A 108.8
O2 C9 H9B 108.8
N1 C9 H9B 108.8
H9A C9 H9B 107.7
N2 C5 C4 123.90(18)
N2 C5 H5 118.1
C4 C5 H5 118.1
O2 C10 C11 108.97(17)
O2 C10 H10A 109.9
C11 C10 H10A 109.9
O2 C10 H10B 109.9
C11 C10 H10B 109.9
H10A C10 H10B 108.3
O3 C12 H12A 109.5
O3 C12 H12B 109.5
H12A C12 H12B 109.5
O3 C12 H12C 109.5
H12A C12 H12C 109.5
H12B C12 H12C 109.5
loop_
_geom_bond_atom_site_label_1
_geom_bond_atom_site_label_2
_geom_bond_distance
I1 C1 2.1136(16)
C1 C2 1.339(2)
C1 N1 1.394(2)
O2 C9 1.402(2)
O2 C10 1.435(2)
N1 C8 1.405(2)
N1 C9 1.468(2)
O3 C12 1.411(3)
O3 C11 1.413(3)
C7 C6 1.402(3)
C7 C3 1.403(2)
C7 C8 1.460(3)
C3 C4 1.403(3)
C3 C2 1.426(2)
O1 C8 1.228(2)
N2 C6 1.324(3)
N2 C5 1.356(3)
C11 C10 1.501(3)
C11 H11A 1.041(17)
C11 H11B 1.041(17)
C6 H6 0.95(2)
C2 H2 0.87(2)
C4 C5 1.370(3)
C4 H4 0.94(2)
C9 H9A 0.964(16)
C9 H9B 0.964(16)
C5 H5 0.98(2)
C10 H10A 0.991(17)
C10 H10B 0.991(17)
C12 H12A 0.989(15)
C12 H12B 0.989(15)
C12 H12C 0.989(15)
loop_
_geom_torsion_atom_site_label_1
_geom_torsion_atom_site_label_2
_geom_torsion_atom_site_label_3
_geom_torsion_atom_site_label_4
_geom_torsion
C2 C1 N1 C8 -0.5(3)
I1 C1 N1 C8 -178.36(13)
C2 C1 N1 C9 -177.29(16)
I1 C1 N1 C9 4.9(2)
C6 C7 C3 C4 -3.0(3)
C8 C7 C3 C4 176.06(16)
C6 C7 C3 C2 178.24(17)
C8 C7 C3 C2 -2.7(3)
C12 O3 C11 C10 -171.76(17)
C5 N2 C6 C7 0.6(3)
C3 C7 C6 N2 1.8(3)
C8 C7 C6 N2 -177.24(17)
N1 C1 C2 C3 0.2(3)
I1 C1 C2 C3 178.12(13)
C7 C3 C2 C1 1.4(3)
C4 C3 C2 C1 -177.30(17)
C7 C3 C4 C5 1.8(3)
C2 C3 C4 C5 -179.45(18)
C1 N1 C8 O1 178.92(17)
C9 N1 C8 O1 -4.2(3)
C1 N1 C8 C7 -0.7(2)
C9 N1 C8 C7 176.16(15)
C6 C7 C8 O1 1.8(3)
C3 C7 C8 O1 -177.27(19)
C6 C7 C8 N1 -178.60(17)
C3 C7 C8 N1 2.4(3)
C10 O2 C9 N1 -76.2(2)
C1 N1 C9 O2 -83.2(2)
C8 N1 C9 O2 99.91(19)
C6 N2 C5 C4 -1.9(3)
C3 C4 C5 N2 0.6(3)
C9 O2 C10 C11 -167.37(15)
O3 C11 C10 O2 -69.2(2)
