#------------------------------------------------------------------------------
#$Date: 2017-11-07 03:15:50 +0200 (Tue, 07 Nov 2017) $
#$Revision: 202798 $
#$URL: file:///home/coder/svn-repositories/cod/cif/1/54/74/1547400.cif $
#------------------------------------------------------------------------------
#
# This file is available in the Crystallography Open Database (COD),
# http://www.crystallography.net/
#
# All data on this site have been placed in the public domain by the
# contributors.
#
data_1547400
loop_
_publ_author_name
'Zhang, Yuwen'
'Tong, Xiaofeng'
_publ_section_title
;
 Construction of Complex 1,3-Cyclohexadienes via Phosphine-Catalyzed (4 +
 2) Annulations of \d-Acetoxy Allenoates and Ketones.
;
_journal_issue                   19
_journal_name_full               'Organic letters'
_journal_page_first              5462
_journal_page_last               5465
_journal_paper_doi               10.1021/acs.orglett.7b02787
_journal_volume                  19
_journal_year                    2017
_chemical_formula_moiety         'C15 H20 O4'
_chemical_formula_sum            'C15 H20 O4'
_chemical_formula_weight         264.31
_space_group_crystal_system      triclinic
_space_group_IT_number           2
_space_group_name_Hall           '-P 1'
_space_group_name_H-M_alt        'P -1'
_symmetry_space_group_name_Hall  '-P 1'
_symmetry_space_group_name_H-M   'P -1'
_atom_sites_solution_hydrogens   geom
_atom_sites_solution_primary     dual
_audit_creation_date             2017-01-06
_audit_creation_method
;
Olex2 1.2
(compiled 2016.11.30 svn.r3356 for OlexSys, GUI svn.r5269)
;
_cell_angle_alpha                68.539(4)
_cell_angle_beta                 84.494(4)
_cell_angle_gamma                78.362(4)
_cell_formula_units_Z            2
_cell_length_a                   7.3638(16)
_cell_length_b                   8.8975(19)
_cell_length_c                   11.801(3)
_cell_measurement_reflns_used    1216
_cell_measurement_temperature    296
_cell_measurement_theta_max      23.773
_cell_measurement_theta_min      2.501
_cell_volume                     704.6(3)
_computing_cell_refinement       'SAINT v7.68A (Bruker, 2009)'
_computing_data_reduction        'SAINT v7.68A (Bruker, 2009)'
_computing_molecular_graphics    'Olex2 (Dolomanov et al., 2009)'
_computing_publication_material  'Olex2 (Dolomanov et al., 2009)'
_computing_structure_refinement  'ShelXL (Sheldrick, 2015)'
_computing_structure_solution    'ShelXT (Sheldrick, 2015)'
_diffrn_ambient_temperature      296
_diffrn_measured_fraction_theta_full 1.000
_diffrn_measured_fraction_theta_max 0.987
_diffrn_measurement_device_type  'Bruker APEX-II CCD'
_diffrn_measurement_method       '\f and \w scans'
_diffrn_radiation_monochromator  graphite
_diffrn_radiation_type           MoK\a
_diffrn_radiation_wavelength     0.71073
_diffrn_reflns_av_R_equivalents  0.0218
_diffrn_reflns_av_unetI/netI     0.0494
_diffrn_reflns_Laue_measured_fraction_full 1.000
_diffrn_reflns_Laue_measured_fraction_max 0.987
_diffrn_reflns_limit_h_max       8
_diffrn_reflns_limit_h_min       -10
_diffrn_reflns_limit_k_max       9
_diffrn_reflns_limit_k_min       -12
_diffrn_reflns_limit_l_max       16
_diffrn_reflns_limit_l_min       -16
_diffrn_reflns_number            7101
_diffrn_reflns_point_group_measured_fraction_full 1.000
_diffrn_reflns_point_group_measured_fraction_max 0.987
_diffrn_reflns_theta_full        25.242
_diffrn_reflns_theta_max         30.419
_diffrn_reflns_theta_min         1.855
_diffrn_standards_number         0
_exptl_absorpt_coefficient_mu    0.089
_exptl_absorpt_correction_T_max  0.7461
_exptl_absorpt_correction_T_min  0.6568
_exptl_absorpt_correction_type   multi-scan
_exptl_absorpt_process_details
;
SADABS-2008/1 (Bruker,2008) was used for absorption correction.
wR2(int) was 0.1051 before and 0.0298 after correction.
The Ratio of minimum to maximum transmission is 0.8803.
The \l/2 correction factor is 0.0015.
;
_exptl_crystal_colour            colourless
_exptl_crystal_density_diffrn    1.246
_exptl_crystal_description       block
_exptl_crystal_F_000             284
_exptl_crystal_size_max          0.25
_exptl_crystal_size_mid          0.12
_exptl_crystal_size_min          0.06
_refine_diff_density_max         0.141
_refine_diff_density_min         -0.179
_refine_diff_density_rms         0.037
_refine_ls_extinction_method     none
_refine_ls_goodness_of_fit_ref   1.002
_refine_ls_hydrogen_treatment    constr
_refine_ls_matrix_type           full
_refine_ls_number_parameters     176
_refine_ls_number_reflns         4219
_refine_ls_number_restraints     0
_refine_ls_restrained_S_all      1.002
_refine_ls_R_factor_all          0.1194
_refine_ls_R_factor_gt           0.0536
_refine_ls_shift/su_max          0.000
_refine_ls_shift/su_mean         0.000
_refine_ls_structure_factor_coef Fsqd
_refine_ls_weighting_details
'w=1/[\s^2^(Fo^2^)+(0.0663P)^2^] where P=(Fo^2^+2Fc^2^)/3'
_refine_ls_weighting_scheme      calc
_refine_ls_wR_factor_gt          0.1251
_refine_ls_wR_factor_ref         0.1537
_reflns_Friedel_coverage         0.000
_reflns_number_gt                2119
_reflns_number_total             4219
_reflns_threshold_expression     'I > 2\s(I)'
_cod_data_source_file            ol7b02787_si_002.cif
_cod_data_source_block           mo_dm17017_0m
_cod_depositor_comments
'Adding full bibliography for 1547399--1547400.cif.'
_cod_database_code               1547400
_shelx_space_group_comment
;
The symmetry employed for this shelxl refinement is uniquely defined
by the following loop, which should always be used as a source of
symmetry information in preference to the above space-group names.
They are only intended as comments.
;
_shelx_estimated_absorpt_t_max   0.995
_shelx_estimated_absorpt_t_min   0.978
_olex2_refinement_description
;
1. Fixed Uiso
 At 1.2 times of:
  All C(H) groups, All C(H,H) groups
 At 1.5 times of:
  All C(H,H,H) groups, All O(H) groups
2.a Secondary CH2 refined with riding coordinates:
 C6(H6A,H6B), C7(H7A,H7B), C8(H8A,H8B), C12(H12A,H12B)
2.b Aromatic/amide H refined with riding coordinates:
 C1(H1), C2(H2A)
2.c Idealised Me refined as rotating group:
 C13(H13A,H13B,H13C), C14(H14A,H14B,H14C), C15(H15A,H15B,H15C)
2.d Idealised tetrahedral OH refined as rotating group:
 O2(H2)
;
_shelx_res_file
;
TITL mo_dm17017_0m_a.res in P-1
    mo_dm17017_0m.res
    created by SHELXL-2016/6 at 12:21:51 on 06-Jan-2017
REM Old TITL mo_dm17017_0m in P-1
REM SHELXT solution in P-1
REM R1 0.200, Rweak 0.009, Alpha 0.040, Orientation as input
REM Formula found by SHELXT: C15 O4
CELL 0.71073 7.3638 8.8975 11.8008 68.539 84.494 78.362
ZERR 2 0.0016 0.0019 0.0025 0.004 0.004 0.004
LATT 1
SFAC C H O
UNIT 30 40 8

L.S. 8
PLAN  20 0 0
SIZE 0.06 0.12 0.25
TEMP 22.85
HTAB O2 O3
BOND $H
list 4
conf
fmap 2
acta
REM <olex2.extras>
REM <HklSrc "%.\\mo_dm17017_0m.hkl">
REM </olex2.extras>

WGHT    0.066300
FVAR       1.14364
O1    3    0.908117    0.266569    0.102431    11.00000    0.11832    0.12633 =
         0.06287   -0.04976    0.03285   -0.04576
O2    3    0.989830    0.321819    0.376206    11.00000    0.03504    0.06198 =
         0.05538   -0.02314   -0.00313   -0.01230
AFIX 147
H2    2    1.017374    0.380169    0.409522    11.00000   -1.50000
AFIX   0
O3    3    0.899280    0.371446    0.597424    11.00000    0.10372    0.09163 =
         0.05686   -0.02617   -0.00186   -0.05911
O4    3    0.729259    0.188600    0.714524    11.00000    0.05909    0.06782 =
         0.04315   -0.02509    0.00171   -0.02106
C1    1    0.548162    0.214668    0.514291    11.00000    0.04394    0.05885 =
         0.04973   -0.02626    0.00794   -0.01131
AFIX  43
H1    2    0.491380    0.178753    0.590938    11.00000   -1.20000
AFIX   0
C2    1    0.461117    0.211210    0.410793    11.00000    0.03371    0.06608 =
         0.06327   -0.02591   -0.00212   -0.01272
AFIX  43
H2A   2    0.337947    0.197950    0.417932    11.00000   -1.20000
AFIX   0
C3    1    0.552947    0.226541    0.305554    11.00000    0.04556    0.05930 =
         0.04767   -0.01725   -0.00841   -0.01455
C4    1    0.757615    0.242783    0.296000    11.00000    0.03947    0.05141 =
         0.04083   -0.01836   -0.00078   -0.01003
C5    1    0.811323    0.336316    0.162859    11.00000    0.05867    0.08263 =
         0.04682   -0.02073   -0.00080   -0.02882
C6    1    0.736649    0.517335    0.111486    11.00000    0.07885    0.09303 =
         0.05271    0.00515   -0.01286   -0.02942
AFIX  23
H6A   2    0.603628    0.534771    0.102647    11.00000   -1.20000
H6B   2    0.792038    0.564160    0.031326    11.00000   -1.20000
AFIX   0
C7    1    0.777720    0.603908    0.193197    11.00000    0.08833    0.05227 =
         0.08071    0.00525   -0.02055   -0.01907
AFIX  23
H7A   2    0.910354    0.599831    0.193173    11.00000   -1.20000
H7B   2    0.717934    0.718268    0.162073    11.00000   -1.20000
AFIX   0
C8    1    0.707820    0.522442    0.322185    11.00000    0.05998    0.04243 =
         0.07095   -0.01585   -0.01275   -0.00297
AFIX  23
H8A   2    0.573931    0.534337    0.322385    11.00000   -1.20000
H8B   2    0.737490    0.577860    0.373289    11.00000   -1.20000
AFIX   0
C9    1    0.792618    0.339854    0.375918    11.00000    0.03217    0.04423 =
         0.04644   -0.01706   -0.00368   -0.00645
C10   1    0.708588    0.268374    0.502310    11.00000    0.03808    0.04528 =
         0.04529   -0.02233    0.00016   -0.00327
C11   1    0.789914    0.282435    0.606950    11.00000    0.05310    0.05269 =
         0.05086   -0.02449    0.00222   -0.01438
C12   1    0.804318    0.195454    0.822019    11.00000    0.07309    0.08581 =
         0.05188   -0.03791   -0.00164   -0.02426
AFIX  23
H12A  2    0.762373    0.303193    0.827533    11.00000   -1.20000
H12B  2    0.938778    0.175124    0.817022    11.00000   -1.20000
AFIX   0
C13   1    0.738835    0.068596    0.930268    11.00000    0.10619    0.11891 =
         0.04921   -0.02973    0.00342   -0.04802
AFIX 137
H13A  2    0.781992   -0.037601    0.924346    11.00000   -1.50000
H13B  2    0.605732    0.089718    0.934398    11.00000   -1.50000
H13C  2    0.786250    0.071277    1.002367    11.00000   -1.50000
AFIX   0
C14   1    0.469909    0.204224    0.202274    11.00000    0.07879    0.12879 =
         0.05829   -0.02797   -0.01390   -0.05118
AFIX 137
H14A  2    0.464100    0.302877    0.131788    11.00000   -1.50000
H14B  2    0.347125    0.181057    0.225572    11.00000   -1.50000
H14C  2    0.545569    0.114511    0.183623    11.00000   -1.50000
AFIX   0
C15   1    0.872275    0.068606    0.339281    11.00000    0.05535    0.05623 =
         0.06731   -0.03268    0.00431   -0.00675
AFIX 137
H15A  2    1.001842    0.074231    0.326598    11.00000   -1.50000
H15B  2    0.839781    0.008019    0.293952    11.00000   -1.50000
H15C  2    0.846990    0.014517    0.424391    11.00000   -1.50000
AFIX   0
HKLF 4




REM  mo_dm17017_0m_a.res in P-1
REM R1 =  0.0536 for    2119 Fo > 4sig(Fo)  and  0.1194 for all    4219 data
REM    176 parameters refined using      0 restraints

END

WGHT      0.0654      0.0038

REM Highest difference peak  0.141,  deepest hole -0.179,  1-sigma level  0.037
Q1    1   0.3507  0.0954  0.4408  11.00000  0.05    0.14
Q2    1   0.5327  0.2246  0.1198  11.00000  0.05    0.14
Q3    1   0.3319  0.3323  0.1800  11.00000  0.05    0.12
Q4    1   0.5019  0.5263  0.1357  11.00000  0.05    0.12
Q5    1   0.8541  0.0417  1.0177  11.00000  0.05    0.12
Q6    1   0.5300  0.2191  0.3596  11.00000  0.05    0.11
Q7    1   0.6507  0.5200  0.4589  11.00000  0.05    0.11
Q8    1   1.0238  0.2026  0.4295  11.00000  0.05    0.11
Q9    1   0.7554  0.4252  0.3232  11.00000  0.05    0.11
Q10   1   0.5441  0.1708  0.3705  11.00000  0.05    0.11
Q11   1   0.8233 -0.0264  0.4573  11.00000  0.05    0.11
Q12   1   0.7768  0.2798  0.3366  11.00000  0.05    0.11
Q13   1   0.4477  0.3210  0.3481  11.00000  0.05    0.11
Q14   1   0.6694  0.2902  0.8568  11.00000  0.05    0.11
Q15   1   0.4159  0.4253  0.1441  11.00000  0.05    0.10
Q16   1   0.2480  0.4257  0.1371  11.00000  0.05    0.10
Q17   1   0.9396  0.2420  0.0681  11.00000  0.05    0.10
Q18   1   0.2078  0.4256  0.2001  11.00000  0.05    0.10
Q19   1   0.6968  0.1790  0.8682  11.00000  0.05    0.10
Q20   1   0.6363  0.0011  0.2052  11.00000  0.05    0.10
;
_shelx_res_checksum              35168
_shelx_hkl_file
;
  -1   0   0  100.99    1.70
  -1   0   0   99.69    2.10
   1   0   0   97.79    2.30
  -2   0   0 1572.34   15.60
  -2   0   0 1579.74   17.70
   2   0   0 1548.84   15.60
  -3   0   0  630.14    7.80
  -3   0   0  631.64    9.70
   3   0   0  639.94    7.60
  -4   0   0 1440.86   15.80
  -4   0   0 1419.86   18.90
   4   0   0 1401.16   15.40
  -5   0   0   -1.90    1.60
  -5   0   0   -1.30    1.10
   5   0   0   -0.60    0.80
  -6   0   0   16.20    2.00
  -6   0   0   13.20    2.80
  -7   0   0   20.00    2.20
  -7   0   0   18.30    3.20
  -8   0   0    2.50    2.20
  -9   0   0   16.80    3.70
 -10   0   0    2.30    2.60
 -10   1   0    8.30    3.40
  -9   1   0    3.30    2.70
  -8   1   0    0.40    2.40
  -7   1   0    1.00    2.20
  -7   1   0    0.00    1.40
  -6   1   0    3.60    1.50
  -6   1   0    2.80    2.30
   5  -1   0  210.28    4.30
  -5   1   0  217.88    5.10
  -5   1   0  214.98    6.80
   4  -1   0   15.90    2.40
   4  -1   0   16.80    1.30
  -4   1   0   16.00    1.60
  -4   1   0   16.10    2.20
   3  -1   0    3.40    0.70
   3  -1   0    2.30    1.30
   2  -1   0  279.17    4.00
   2  -1   0  280.87    5.80
   1  -1   0 9792.52  100.19
   1  -1   0 9999.00  113.89
   1  -1   0 9602.44  104.99
   0  -1   0  632.44    7.00
   0  -1   0  626.64    7.20
  -1  -1   0 4782.92   47.80
  -1  -1   0 4806.52   52.79
  -2  -1   0 2777.12   28.80
  -2  -1   0 2779.42   26.50
  -3  -1   0  456.05    7.40
  -3  -1   0  451.65    6.20
  -4  -1   0   94.79    2.90
  -4  -1   0   94.39    3.70
  -5  -1   0   52.19    2.70
  -5  -1   0   57.59    3.60
  -6  -1   0    5.60    1.60
  -6  -1   0    2.70    2.10
   6   1   0    6.20    1.30
  -7  -1   0   -0.70    1.40
  -7  -1   0   -1.30    1.90
  -8  -1   0    0.60    2.10
  -9  -1   0    3.20    2.50
 -10  -1   0    1.10    2.40
  -9   2   0    9.60    3.60
  -8   2   0    0.30    2.40
  -7   2   0   12.30    3.20
  -7   2   0   10.90    2.10
  -6   2   0   33.80    4.00
  -6   2   0   29.70    2.60
   5  -2   0   36.30    2.30
   5  -2   0   29.90    3.80
  -5   2   0   41.20    3.90
  -5   2   0   36.20    2.70
   4  -2   0  321.07    8.50
   4  -2   0  333.07    5.60
   3  -2   0  462.15    6.60
   3  -2   0  448.26    9.30
   2  -2   0    2.80    1.30
   2  -2   0    2.20    0.90
   1  -2   0   -0.50    1.10
   1  -2   0    0.60    0.90
   1  -2   0   -0.30    0.90
   0  -2   0 5443.96   50.79
   0  -2   0 5362.66   53.69
  -1  -2   0  728.43    8.60
  -1  -2   0  751.62    9.00
  -2  -2   0 1290.47   14.20
  -2  -2   0 1259.97   13.90
  -3  -2   0    0.30    0.80
  -3  -2   0    1.70    0.90
  -4  -2   0  357.16    6.20
  -4  -2   0  352.16    6.80
  -5  -2   0   -1.80    1.30
  -5  -2   0    2.80    1.30
  -6  -2   0   35.10    3.40
  -6  -2   0   28.90    2.50
  -7  -2   0   11.70    2.60
  -7  -2   0   13.70    2.10
  -9  -2   0    3.70    2.40
 -10  -2   0    0.90    2.40
  -9   3   0    5.80    3.50
  -8   3   0   -0.70    2.70
  -7   3   0    2.90    1.70
  -7   3   0    4.50    2.90
  -6   3   0   21.10    2.50
  -6   3   0   21.80    3.50
   5  -3   0  337.87   10.00
   4  -3   0   18.70    1.90
   4  -3   0   20.90    3.00
   3  -3   0  189.48    6.30
   3  -3   0  189.58    4.50
   2  -3   0    8.10    1.80
   2  -3   0   13.00    1.60
   2  -3   0   13.00    1.80
   1  -3   0 5105.59   53.49
   1  -3   0 5110.89   50.09
   0  -3   0    7.90    1.40
   0  -3   0    4.90    1.10
  -1  -3   0  378.86    5.90
  -1  -3   0  373.16    6.40
  -2  -3   0   46.40    2.40
  -2  -3   0   50.89    2.20
  -3  -3   0  272.47    5.50
  -3  -3   0  271.47    5.20
  -4  -3   0   48.30    2.60
  -4  -3   0   54.39    2.70
  -5  -3   0    5.90    1.60
  -5  -3   0    2.70    1.60
  -6  -3   0   10.10    1.90
  -6  -3   0    5.70    2.00
  -7  -3   0   15.80    2.60
  -7  -3   0   16.40    2.40
  -8  -3   0    1.80    2.10
  -9  -3   0   12.40    2.90
 -10  -3   0   14.70    3.10
  -9   4   0    4.20    3.30
  -8   4   0    3.20    3.30
  -7   4   0   -0.10    1.70
  -7   4   0    3.90    3.00
   6  -4   0   15.70    3.50
  -6   4   0   10.40    3.20
  -6   4   0   13.60    2.30
   5  -4   0   23.60    3.90
   4  -4   0   43.00    3.20
   4  -4   0   41.10    4.40
   3  -4   0    3.90    2.10
   3  -4   0    6.60    1.80
   2  -4   0  168.78    5.20
   2  -4   0  166.28    5.60
   1  -4   0 1292.87   17.80
   1  -4   0 1308.37   17.10
   0  -4   0  490.75    8.70
   0  -4   0  489.85    8.50
  -1  -4   0    2.10    1.30
  -1  -4   0    1.10    1.10
  -2  -4   0   36.90    2.40
  -2  -4   0   36.50    2.40
  -3  -4   0   -0.80    1.20
  -3  -4   0   -0.40    1.10
  -4  -4   0   86.29    3.70
  -4  -4   0   84.89    3.70
  -5  -4   0   38.20    3.00
  -5  -4   0   42.50    3.20
  -6  -4   0    3.10    1.60
  -6  -4   0    3.70    1.80
  -7  -4   0   34.60    3.30
  -7  -4   0   30.90    3.20
  -8  -4   0    8.60    2.40
  -8  -4   0   10.20    2.50
  -9  -4   0    3.60    2.10
 -10  -4   0    2.60    2.50
  -8   5   0    0.00    3.00
  -7   5   0   -0.10    2.90
   6  -5   0    1.50    2.80
  -6   5   0    4.80    2.70
   5  -5   0    3.40    2.70
   4  -5   0   -0.30    1.90
   3  -5   0   87.69    5.20
   2  -5   0   35.30    3.20
   2  -5   0   42.20    3.80
   1  -5   0  163.38    5.40
   1  -5   0  161.48    5.50
   0  -5   0   16.90    2.30
   0  -5   0   18.90    2.40
  -1  -5   0  202.68    6.00
  -1  -5   0  210.68    5.30
  -2  -5   0   15.10    2.00
  -2  -5   0   18.90    2.20
  -3  -5   0  133.09    4.20
  -3  -5   0  137.29    4.80
  -4  -5   0    0.50    1.50
  -4  -5   0    3.10    1.60
  -5  -5   0    5.50    1.80
  -5  -5   0    3.00    1.70
  -6  -5   0   61.19    3.90
  -6  -5   0   59.09    3.90
  -7  -5   0   13.60    2.60
  -7  -5   0   14.30    2.60
  -8  -5   0    4.90    2.30
  -8  -5   0    4.80    2.20
  -9  -5   0    7.10    2.50
 -10  -5   0    8.30    2.90
  -7   6   0   -3.70    2.60
   6  -6   0   19.90    4.30
   5  -6   0    7.50    3.20
   4  -6   0    6.00    2.80
   3  -6   0    0.60    2.10
   2  -6   0   -0.10    1.80
   2  -6   0   -0.60    1.70
   1  -6   0    5.80    2.10
   1  -6   0    2.30    2.00
   0  -6   0    0.80    1.70
   0  -6   0   -1.60    1.40
  -1  -6   0  112.89    4.90
  -1  -6   0  114.59    4.60
  -2  -6   0    0.00    1.50
  -2  -6   0   -1.80    1.80
  -3  -6   0   18.10    2.60
  -3  -6   0   18.70    2.70
  -4  -6   0   26.40    3.00
  -4  -6   0   28.80    3.00
  -5  -6   0   42.80    3.70
  -5  -6   0   43.80    3.50
  -6  -6   0    4.90    2.10
  -6  -6   0    3.00    2.00
  -7  -6   0    9.50    2.70
  -7  -6   0   11.60    2.50
  -8  -6   0   -1.10    2.00
  -8  -6   0    1.20    2.00
  -9  -6   0    2.40    2.10
  -7   7   0   -0.40    3.10
   6  -7   0    1.70    3.00
   5  -7   0    0.10    2.60
   4  -7   0    3.90    2.70
   3  -7   0   19.20    3.70
   2  -7   0   31.20    3.80
   2  -7   0   31.30    3.90
   1  -7   0    6.70    2.30
   1  -7   0    5.00    2.40
   0  -7   0  117.49    5.60
   0  -7   0  121.19    5.30
  -1  -7   0   10.50    2.40
  -1  -7   0   11.00    2.60
  -2  -7   0    1.70    1.80
  -2  -7   0    2.40    2.10
  -3  -7   0    7.60    2.10
  -3  -7   0    6.70    2.30
  -4  -7   0   45.90    3.40
  -4  -7   0   47.30    4.10
  -5  -7   0    0.40    1.90
  -5  -7   0    1.10    1.80
  -6  -7   0   59.99    4.40
  -6  -7   0   55.69    4.10
  -7  -7   0   -1.50    2.00
  -7  -7   0    1.30    2.00
  -8  -7   0    2.20    2.40
   6  -8   0   -2.30    2.70
   5  -8   0   -2.70    2.40
   4  -8   0    4.40    3.10
   3  -8   0    8.10    3.10
   2  -8   0   -2.20    1.60
   2  -8   0    3.80    2.60
   1  -8   0    2.60    2.20
   1  -8   0   -2.40    2.00
   0  -8   0    1.90    2.10
   0  -8   0    3.90    2.20
  -1  -8   0   -1.10    2.00
  -1  -8   0   -1.80    1.60
  -2  -8   0   16.40    2.90
  -2  -8   0   22.00    3.20
  -3  -8   0   -0.60    2.10
  -3  -8   0   -2.60    1.80
  -4  -8   0    5.90    2.40
  -4  -8   0    5.60    2.50
  -5  -8   0   14.60    3.00
  -5  -8   0   14.80    3.00
  -6  -8   0   43.00    4.40
  -7  -8   0    5.90    2.70
  -8  -8   0   -0.10    2.20
   5  -9   0    2.30    3.30
   4  -9   0    2.50    3.00
   3  -9   0    0.30    2.60
   2  -9   0    5.20    2.70
   2  -9   0    8.10    3.10
   1  -9   0   -1.60    2.20
   1  -9   0    2.80    2.40
   0  -9   0   -1.20    2.20
   0  -9   0   -3.60    1.80
  -1  -9   0    7.70    2.80
  -1  -9   0   10.90    2.90
  -2  -9   0   27.10    3.90
  -2  -9   0   37.50    4.30
  -3  -9   0   -1.20    1.80
  -4  -9   0   -1.40    2.00
  -5  -9   0   17.60    3.30
  -6  -9   0    6.40    2.80
  -7  -9   0    2.40    2.70
  -8  -9   0   15.10    3.50
   3 -10   0    6.30    3.60
   2 -10   0    6.10    3.20
   2 -10   0   -1.50    2.80
   1 -10   0    1.00    2.60
   0 -10   0   -2.00    2.40
  -1 -10   0    1.90    2.50
  -2 -10   0   -0.90    2.40
  -3 -10   0   -0.90    2.30
  -4 -10   0   -1.30    2.30
  -5 -10   0   -0.50    2.30
  -6 -10   0    2.70    2.60
  -7 -10   0    0.40    2.50
   1 -11   0    5.90    3.40
   0 -11   0    1.20    2.90
  -1 -11   0    3.90    3.20
  -2 -11   0    2.80    2.90
  -3 -11   0    1.60    2.70
  -4 -11   0    1.40    2.80
  -5 -11   0    9.20    3.50
  -4 -11   1    3.00    2.90
  -3 -11   1   -4.10    2.30
  -2 -11   1   24.90    4.60
  -1 -11   1   -1.30    2.60
   0 -11   1    9.00    3.50
   1 -11   1    6.00    3.40
  -6 -10   1   -1.80    2.40
  -5 -10   1   -1.20    2.20
  -4 -10   1    2.30    2.60
  -3 -10   1    3.50    2.70
  -2 -10   1    8.40    3.20
  -1 -10   1    9.10    3.20
   0 -10   1   18.90    4.10
   0 -10   1   22.70    4.20
   1 -10   1    1.60    2.90
   1 -10   1    1.90    2.70
   2 -10   1   17.00    4.10
   2 -10   1   12.90    4.00
   3 -10   1   -1.50    3.10
  -7  -9   1    3.40    2.60
  -6  -9   1    2.00    2.50
  -5  -9   1    1.00    2.20
  -4  -9   1   -1.20    2.00
  -3  -9   1    0.00    2.20
  -3  -9   1   -3.90    2.30
  -2  -9   1   26.70    4.10
  -2  -9   1   28.90    4.10
  -1  -9   1   -0.90    2.10
  -1  -9   1   -1.90    2.30
   0  -9   1    1.10    2.40
   0  -9   1   -0.10    2.50
   1  -9   1    5.70    2.90
   1  -9   1    1.90    2.80
   2  -9   1   10.70    3.20
   2  -9   1   10.30    3.40
   3  -9   1    2.50    3.00
   4  -9   1    2.20    3.10
  -7  -8   1    3.80    2.50
  -6  -8   1   -1.00    2.50
  -6  -8   1    2.30    2.30
  -5  -8   1   26.40    3.70
  -5  -8   1   29.90    3.80
  -4  -8   1   -0.20    2.40
  -4  -8   1    1.80    2.20
  -3  -8   1  133.49    6.30
  -3  -8   1  134.99    6.10
  -2  -8   1   35.70    4.10
  -2  -8   1   31.10    3.80
  -1  -8   1   30.70    3.90
  -1  -8   1   22.40    3.50
   0  -8   1   12.80    3.10
   0  -8   1    7.60    2.80
   1  -8   1   27.00    3.70
   1  -8   1   21.90    3.70
   2  -8   1   -2.10    2.20
   2  -8   1   -1.80    2.30
   3  -8   1    4.50    2.90
   4  -8   1   -1.50    2.40
   5  -8   1    2.30    3.30
   6  -8   1   -3.50    2.90
  -8  -7   1   -0.50    2.40
  -7  -7   1   -2.30    1.70
  -7  -7   1   -0.40    2.20
  -6  -7   1    7.10    2.40
  -6  -7   1    7.40    2.50
  -5  -7   1    2.10    2.20
  -5  -7   1   -1.90    1.70
  -4  -7   1   45.70    4.00
  -4  -7   1   33.40    3.70
  -3  -7   1   69.29    4.60
  -3  -7   1   64.39    4.20
  -2  -7   1  111.39    5.20
  -2  -7   1  104.29    5.20
  -1  -7   1   61.49    4.20
  -1  -7   1   64.79    4.50
   0  -7   1    5.10    2.40
   0  -7   1    0.50    1.90
   1  -7   1    6.40    2.50
   1  -7   1    3.80    2.20
   2  -7   1   54.79    5.00
   2  -7   1   56.49    5.10
   3  -7   1    0.20    2.20
   4  -7   1    0.70    2.50
   5  -7   1    7.20    3.40
   6  -7   1   11.50    3.90
  -9  -6   1   -2.30    2.00
  -8  -6   1    6.50    2.40
  -7  -6   1   -0.40    1.80
  -7  -6   1    3.50    2.00
  -6  -6   1    0.60    1.90
  -6  -6   1    0.00    1.70
  -5  -6   1    0.40    1.90
  -5  -6   1   -2.90    1.50
  -4  -6   1   -1.30    1.80
  -4  -6   1    0.30    1.60
  -3  -6   1  107.79    4.60
  -3  -6   1  110.19    5.10
  -2  -6   1    5.20    2.00
  -2  -6   1    6.50    2.20
  -1  -6   1   65.39    4.20
  -1  -6   1   56.59    3.70
   0  -6   1    5.10    2.20
   0  -6   1    2.40    1.70
   1  -6   1  119.19    5.50
   1  -6   1  125.09    5.60
   2  -6   1   -1.20    1.80
   2  -6   1    0.00    1.60
   3  -6   1   -0.60    1.90
   4  -6   1    0.90    2.40
   5  -6   1   23.00    4.40
   6  -6   1    1.30    3.00
  -7   6  -1    4.90    3.20
  -7   6  -1    4.40    2.30
   7  -6   1    3.30    3.40
  -9  -5   1    1.80    2.20
  -8  -5   1    5.30    2.40
  -7  -5   1    0.50    1.90
  -7  -5   1   -0.20    1.80
  -6  -5   1   12.90    2.40
  -6  -5   1   12.10    2.40
  -5  -5   1    1.60    1.60
  -5  -5   1   -2.00    1.80
  -4  -5   1   40.50    3.40
  -4  -5   1   34.80    3.10
  -3  -5   1   40.30    3.20
  -3  -5   1   32.30    2.90
  -2  -5   1   34.60    3.00
  -2  -5   1   27.00    2.60
  -1  -5   1  210.68    6.20
  -1  -5   1  209.58    5.90
   0  -5   1    1.90    1.70
   0  -5   1   -0.10    1.40
   1  -5   1    0.70    1.70
   1  -5   1    0.10    1.40
   2  -5   1   24.30    3.00
   2  -5   1   25.30    3.30
   3  -5   1    3.70    2.20
   4  -5   1   14.10    3.20
   5  -5   1    3.20    2.50
   6  -5   1   -0.50    2.60
  -7   5  -1    1.50    2.00
  -7   5  -1    1.50    3.10
   7  -5   1   -4.50    2.30
  -8   5  -1    2.10    3.10
 -10  -4   1    4.70    2.80
  -9  -4   1    0.60    2.10
  -8  -4   1    7.90    2.50
  -7  -4   1    1.10    1.70
  -7  -4   1    2.60    2.00
  -6  -4   1    7.50    2.10
  -6  -4   1    8.10    1.90
  -5  -4   1    1.90    1.80
  -5  -4   1    1.80    1.50
  -4  -4   1  161.78    5.00
  -4  -4   1  161.78    4.80
  -3  -4   1    0.60    1.20
  -3  -4   1    0.20    1.30
  -2  -4   1   89.19    3.40
  -2  -4   1   88.99    3.60
  -1  -4   1  703.13   11.00
  -1  -4   1  715.43   10.80
   0  -4   1  375.66    7.60
   0  -4   1  383.16    7.80
   1  -4   1 1178.28   17.20
   1  -4   1 1200.18   16.50
   2  -4   1   29.90    3.20
   2  -4   1   30.80    3.00
   3  -4   1   14.40    2.70
   4  -4   1   19.10    3.30
   5  -4   1   18.80    3.70
   6  -4   1   -3.40    2.10
  -7   4  -1    0.10    2.80
  -7   4  -1   -2.10    1.60
   7  -4   1   -0.30    2.70
  -8   4  -1    7.20    3.60
 -10  -3   1    0.60    2.20
  -9  -3   1    5.70    2.60
  -8  -3   1    1.20    2.00
  -7  -3   1   -1.80    1.30
  -7  -3   1    2.90    2.00
  -6  -3   1    2.90    1.90
  -6  -3   1    1.10    1.60
  -5  -3   1    4.90    1.50
  -5  -3   1    6.70    1.90
  -4  -3   1    9.40    1.60
  -4  -3   1   12.50    1.80
  -3  -3   1  186.88    4.60
  -3  -3   1  179.58    4.40
  -2  -3   1 1063.59   13.30
  -2  -3   1 1049.09   13.10
  -1  -3   1  453.65    7.30
  -1  -3   1  456.45    7.60
   0  -3   1 1154.88   14.90
   0  -3   1 1162.88   14.60
   1  -3   1   33.70    2.40
   1  -3   1   35.30    2.40
   2  -3   1  441.66    9.20
   3  -3   1    6.80    2.10
   4  -3   1  187.88    7.10
   5  -3   1   39.20    4.50
  -6   3  -1   24.50    2.80
   6  -3   1   30.60    4.40
  -7   3  -1   -1.10    2.60
  -7   3  -1    0.30    1.70
  -8   3  -1    9.20    3.50
  -9   3  -1    3.70    3.20
 -10  -2   1    1.50    2.60
  -9  -2   1    3.50    2.50
  -8  -2   1    5.20    2.40
   7   2  -1    1.50    1.40
  -7  -2   1    1.60    2.00
  -7  -2   1    3.10    1.50
  -6  -2   1    8.40    2.20
  -6  -2   1   12.70    1.90
  -5  -2   1    4.40    1.40
  -5  -2   1    2.80    1.80
  -4  -2   1  142.59    4.20
  -4  -2   1  144.39    3.70
  -3  -2   1    0.10    1.00
  -3  -2   1    1.10    0.80
  -2  -2   1  228.18    4.30
  -2  -2   1  229.18    4.30
  -1  -2   1 1067.79   12.50
  -1  -2   1 1071.89   12.30
   0  -2   1 1626.34   18.30
   0  -2   1 1583.74   17.50
   1  -2   1  693.03   10.20
   1  -2   1  695.73    9.60
   2  -2   1   89.19    3.70
   3  -2   1   73.89    4.00
   4  -2   1   94.29    4.70
   4  -2   1   90.19    2.50
  -5   2  -1   56.59    3.30
   5  -2   1   61.79    4.50
  -6   2  -1  110.99    5.90
  -6   2  -1  103.99    4.40
   6  -2   1  130.59    6.70
  -7   2  -1    4.80    1.80
  -7   2  -1    5.40    2.80
  -8   2  -1    6.20    3.10
  -9   2  -1    3.30    3.30
 -10  -1   1    3.50    2.90
  -9  -1   1    8.30    2.90
  -8  -1   1    0.70    2.20
  -7  -1   1    4.60    1.60
  -7  -1   1    2.00    2.10
   6   1  -1   50.89    3.20
  -6  -1   1   59.39    3.00
  -6  -1   1   55.29    4.00
  -5  -1   1   60.09    2.60
  -5  -1   1   55.99    3.40
  -4  -1   1   68.49    3.30
  -4  -1   1   70.09    2.40
  -3  -1   1  259.67    4.20
  -3  -1   1  273.47    5.40
  -2  -1   1  973.70   11.50
  -2  -1   1  934.71   10.20
  -1  -1   1  225.58    3.40
  -1  -1   1  227.18    3.60
   0  -1   1 1191.48   12.50
   0  -1   1 1194.08   13.20
   1  -1   1  139.89    3.40
   2  -1   1 1773.32   21.30
   3  -1   1  176.08    2.80
   3  -1   1  186.58    5.50
  -4   1  -1   26.70    2.10
   4  -1   1   27.80    1.30
   4  -1   1   28.00    3.10
  -5   1  -1   17.10    2.10
  -5   1  -1   18.70    2.90
   5  -1   1   21.00    3.20
  -6   1  -1    2.30    2.30
  -6   1  -1    2.30    1.50
  -7   1  -1   -0.10    1.60
  -7   1  -1    0.80    2.20
  -8   1  -1    2.00    2.60
  -8   1  -1   -1.20    1.70
  -9   1  -1   11.10    3.50
 -10   1  -1    2.30    3.10
 -10   0   1   10.20    3.40
  -9   0   1   14.50    3.50
  -8   0   1    1.90    2.50
  -7   0   1   13.40    2.90
   6   0  -1   26.50    2.20
  -6   0   1   23.40    3.10
  -6   0   1   28.90    2.30
   5   0  -1   -1.10    0.90
  -5   0   1   -2.30    1.50
  -5   0   1    1.30    1.10
   4   0  -1   43.40    2.30
  -4   0   1   41.30    2.90
  -4   0   1   40.40    1.90
   3   0  -1    0.10    0.70
  -3   0   1   -0.20    1.00
  -3   0   1    1.60    0.60
   2   0  -1 1238.88   13.30
  -2   0   1 1221.78   12.10
  -2   0   1 1251.87   14.50
  -1   0   1  466.05    4.50
  -1   0   1  460.65    5.80
   0   0   1 1980.80   24.00
  -1   0  -1 1138.39   11.50
   1   0   1 1136.49   12.80
  -2   0  -1   51.39    1.90
   2   0   1   51.89    2.40
  -3   0  -1   18.70    1.50
   3   0   1   20.00    2.20
   3   0   1   19.90    0.90
  -4   0  -1  170.68    4.00
  -4   0  -1  165.78    5.10
   4   0   1  163.58    2.80
   4   0   1  159.08    5.40
  -5   0  -1    1.90    1.90
  -5   0  -1    4.90    1.40
   5   0   1    3.80    0.80
  -6   0  -1   -2.00    1.80
  -6   0  -1   -0.10    1.30
  -7   0  -1   20.30    3.30
  -7   0  -1   36.60    3.10
  -8   0  -1    1.40    1.70
  -8   0  -1    2.60    2.60
  -9   0  -1    9.30    3.20
 -10   0  -1    1.60    2.70
 -10   1   1    3.80    3.00
  -9   1   1   19.60    4.00
  -8   1   1   -2.90    2.00
  -7   1   1   -0.80    2.10
  -6   1   1    3.40    2.30
  -6   1   1    5.00    1.40
   5  -1  -1  107.09    3.50
  -5   1   1  116.49    5.10
  -5   1   1  104.29    3.30
   4  -1  -1    2.00    0.90
  -4   1   1    1.20    1.50
  -4   1   1    2.40    1.00
   3  -1  -1  196.38    3.90
  -3   1   1  190.88    5.00
  -3   1   1  194.08    3.60
   2  -1  -1 3111.09   30.60
  -2   1   1 3104.99   32.90
   1  -1  -1 5751.22   56.99
   1  -1  -1 5540.35   57.19
   1  -1  -1 5737.43   55.89
  -1   1   1 5484.25   57.09
   0  -1  -1  295.67    3.40
   0  -1  -1  301.07    4.00
   0  -1  -1  296.47    3.60
  -1  -1  -1 1920.31   18.80
  -1  -1  -1 1865.11   18.30
  -1  -1  -1 1938.51   19.10
  -2  -1  -1  726.03    8.40
  -2  -1  -1  725.13    9.10
  -3  -1  -1 2513.45   27.40
  -3  -1  -1 2463.15   25.00
  -4  -1  -1    1.60    1.00
  -4  -1  -1   -0.20    1.10
  -5  -1  -1  382.76    7.00
  -5  -1  -1  373.96    8.30
  -6  -1  -1   18.10    2.90
  -6  -1  -1   19.10    2.20
  -7  -1  -1   12.60    2.10
  -7  -1  -1    5.40    2.20
  -8  -1  -1    1.10    2.20
  -8  -1  -1   -1.00    1.70
  -9  -1  -1    3.90    2.50
 -10  -1  -1   -0.30    2.50
  -9   2   1    4.30    3.20
  -8   2   1   -0.20    2.40
  -7   2   1    2.60    2.50
  -6   2   1    6.30    1.60
  -6   2   1    4.90    2.40
   5  -2  -1   39.50    2.60
  -5   2   1   36.80    3.80
  -5   2   1   38.00    2.70
   4  -2  -1  458.75    7.40
  -4   2   1  463.15    9.60
   3  -2  -1  423.86    6.70
   3  -2  -1  429.86    8.80
   2  -2  -1  221.98    5.40
   2  -2  -1  231.38    4.40
   1  -2  -1 2865.11   28.90
   1  -2  -1 2840.92   28.10
   1  -2  -1 2879.31   30.50
   0  -2  -1 1310.47   14.60
   0  -2  -1 1307.77   13.90
   0  -2  -1 1324.77   14.20
  -1  -2  -1 1154.88   12.40
  -1  -2  -1 1125.79   11.70
  -2  -2  -1  338.77    5.20
  -2  -2  -1  336.87    4.80
  -3  -2  -1    1.20    1.00
  -3  -2  -1    1.90    0.90
  -4  -2  -1 1253.27   16.30
  -4  -2  -1 1287.67   15.20
  -5  -2  -1  298.67    6.30
  -5  -2  -1  306.77    7.10
  -6  -2  -1    2.30    1.60
  -6  -2  -1    2.00    1.90
  -7  -2  -1   13.80    2.50
  -7  -2  -1   16.30    2.30
  -8  -2  -1    0.50    1.80
  -8  -2  -1    0.70    2.10
  -9  -2  -1    1.30    2.20
 -10  -2  -1    1.20    2.30
  -9   3   1    1.80    2.90
  -8   3   1    0.50    2.90
  -7   3   1   -1.00    2.50
  -6   3   1   28.40    2.70
  -6   3   1   26.80    3.80
   5  -3  -1  118.89    4.20
  -5   3   1  121.89    5.70
   4  -3  -1   99.99    5.10
   4  -3  -1   99.39    3.70
   3  -3  -1  104.09    3.50
   3  -3  -1  109.69    4.70
   2  -3  -1  243.08    5.20
   2  -3  -1  235.58    5.10
   2  -3  -1  236.18    6.10
   1  -3  -1 2878.01   29.90
   1  -3  -1 2823.22   31.20
   1  -3  -1 2839.82   29.40
   0  -3  -1  249.28    4.60
   0  -3  -1  245.38    4.80
   0  -3  -1  240.78    5.00
  -1  -3  -1  145.79    3.60
  -1  -3  -1  152.48    2.90
  -2  -3  -1    6.20    1.20
  -2  -3  -1    8.60    1.00
  -3  -3  -1 1035.70   13.00
  -3  -3  -1 1032.10   12.40
  -4  -3  -1   36.40    2.20
  -4  -3  -1   34.20    2.40
  -5  -3  -1   -1.50    1.20
  -5  -3  -1   -0.70    1.40
  -6  -3  -1    9.80    2.10
  -6  -3  -1   11.90    2.00
  -7  -3  -1   41.10    3.40
  -7  -3  -1   42.40    3.60
  -8  -3  -1   -1.50    1.60
  -8  -3  -1    2.40    1.90
  -9  -3  -1    3.70    2.30
 -10  -3  -1   23.30    3.80
  -9   4   1    5.10    3.20
  -8   4   1    0.90    3.00
  -7   4   1    2.20    2.90
  -6   4   1    8.20    2.00
  -6   4   1   10.80    3.20
   5  -4  -1    6.50    2.40
  -5   4   1   11.50    2.90
   4  -4  -1  137.79    6.20
   4  -4  -1  136.29    4.60
   3  -4  -1   18.10    2.90
   3  -4  -1   16.40    2.20
   2  -4  -1  542.25    9.30
   2  -4  -1  520.95    8.90
   2  -4  -1  530.55   10.40
   1  -4  -1   14.90    1.90
   1  -4  -1   15.40    2.10
   1  -4  -1   12.60    1.70
   0  -4  -1  997.00   13.50
   0  -4  -1 1001.60   13.20
  -1  -4  -1    4.00    1.20
  -1  -4  -1    6.20    1.30
  -2  -4  -1  292.77    6.10
  -2  -4  -1  287.57    5.00
  -3  -4  -1    8.80    1.60
  -3  -4  -1   12.30    1.50
  -4  -4  -1   14.90    2.00
  -4  -4  -1   10.10    1.70
  -5  -4  -1   -0.60    1.40
  -5  -4  -1    0.10    1.40
  -6  -4  -1  157.78    5.30
  -6  -4  -1  153.58    5.40
  -7  -4  -1  122.89    5.20
  -7  -4  -1  120.29    5.00
  -8  -4  -1    5.40    2.10
  -8  -4  -1    6.90    2.40
  -9  -4  -1    7.20    2.40
 -10  -4  -1   12.30    3.00
  -8   5   1   -0.10    3.00
  -7   5   1    0.70    3.00
  -6   5   1    0.30    2.60
   5  -5  -1   25.30    4.00
   4  -5  -1   21.60    2.70
   4  -5  -1   20.80    3.50
   3  -5  -1   18.50    3.10
   3  -5  -1   21.20    2.60
   3  -5  -1   17.80    2.60
   2  -5  -1  130.69    4.80
   2  -5  -1  120.79    4.80
   2  -5  -1  127.79    5.40
   1  -5  -1  388.96    8.40
   1  -5  -1  398.66    8.50
   0  -5  -1   46.40    2.80
   0  -5  -1   46.00    3.20
  -1  -5  -1   13.70    2.00
  -1  -5  -1   12.10    1.70
  -2  -5  -1   51.09    2.60
  -2  -5  -1   54.69    3.00
  -3  -5  -1  238.18    6.10
  -3  -5  -1  223.18    5.00
  -4  -5  -1   56.69    3.10
  -4  -5  -1   56.09    3.50
  -5  -5  -1  163.18    5.60
  -5  -5  -1  159.28    5.00
  -6  -5  -1  282.77    6.90
  -6  -5  -1  273.17    7.60
  -7  -5  -1   24.70    2.90
  -7  -5  -1   24.40    3.10
  -8  -5  -1    9.20    2.70
  -8  -5  -1    9.20    2.50
  -9  -5  -1    3.60    2.40
  -7   6   1    7.00    3.50
   6  -6  -1   11.90    3.50
  -6   6   1   10.40    3.50
   5  -6  -1    1.00    2.40
   4  -6  -1    7.30    2.70
   3  -6  -1   20.50    3.40
   3  -6  -1   19.80    2.90
   2  -6  -1   -0.10    1.60
   2  -6  -1    1.90    2.00
   1  -6  -1   14.40    2.30
   1  -6  -1   10.80    2.30
   0  -6  -1   10.20    2.10
   0  -6  -1   13.80    2.30
  -1  -6  -1    0.40    1.40
  -1  -6  -1   -0.40    1.60
  -2  -6  -1  114.39    4.70
  -2  -6  -1  112.59    4.00
  -3  -6  -1   97.29    4.50
  -3  -6  -1   94.19    3.80
  -4  -6  -1   26.40    3.00
  -4  -6  -1   31.00    2.80
  -5  -6  -1   14.80    2.50
  -5  -6  -1   15.50    2.30
  -6  -6  -1   19.30    2.60
  -6  -6  -1   21.10    3.00
  -7  -6  -1   32.00    3.70
  -7  -6  -1   33.20    3.40
  -8  -6  -1    5.50    2.40
  -8  -6  -1    7.70    2.50
  -7   7   1    3.00    3.30
   6  -7  -1    1.60    3.10
  -6   7   1   -2.20    2.80
   5  -7  -1   11.90    3.70
   4  -7  -1   -0.10    2.40
   3  -7  -1    2.60    2.30
   3  -7  -1   -1.40    1.80
   2  -7  -1   15.50    2.70
   2  -7  -1   15.70    3.10
   1  -7  -1   22.70    3.10
   1  -7  -1   23.30    3.20
   0  -7  -1   29.00    3.40
   0  -7  -1   31.20    3.30
  -1  -7  -1   26.80    3.20
  -1  -7  -1   34.70    3.30
  -2  -7  -1    2.10    1.80
  -2  -7  -1    3.10    2.00
  -3  -7  -1   -1.40    1.70
  -3  -7  -1   -1.50    1.50
  -4  -7  -1    0.80    1.80
  -4  -7  -1    0.80    1.70
  -5  -7  -1   41.90    3.60
  -5  -7  -1   33.70    3.60
  -6  -7  -1   65.99    4.20
  -6  -7  -1   80.29    5.10
  -7  -7  -1    2.90    2.30
  -8  -7  -1    3.30    2.40
   6  -8  -1    1.80    3.10
  -6   8   1   -1.20    3.20
   5  -8  -1    1.40    2.90
   4  -8  -1    2.20    2.80
   3  -8  -1    1.00    2.50
   3  -8  -1    8.30    2.70
   2  -8  -1   11.70    3.00
   2  -8  -1   12.60    3.00
   1  -8  -1   -2.90    1.80
   1  -8  -1    0.50    2.00
   0  -8  -1   27.40    3.40
   0  -8  -1   32.50    3.80
  -1  -8  -1   15.10    2.80
  -1  -8  -1   13.50    2.80
  -2  -8  -1   -0.10    1.70
  -2  -8  -1   -0.70    1.80
  -3  -8  -1   37.50    3.80
  -3  -8  -1   40.00    3.70
  -4  -8  -1    8.40    2.60
  -5  -8  -1  137.59    6.50
  -6  -8  -1    0.30    2.00
  -7  -8  -1    2.50    2.20
  -8  -8  -1    0.50    2.40
   5  -9  -1    9.10    3.60
   4  -9  -1    0.30    2.70
   3  -9  -1    5.80    3.10
   3  -9  -1    8.40    3.00
   2  -9  -1    0.00    2.20
   2  -9  -1   -1.50    2.30
   1  -9  -1    2.30    2.40
   1  -9  -1   -1.20    2.00
   0  -9  -1    1.80    2.30
   0  -9  -1    1.20    2.20
  -1  -9  -1    3.80    2.50
  -1  -9  -1    3.90    2.40
  -2  -9  -1    2.50    2.10
  -3  -9  -1    1.80    2.30
  -4  -9  -1   29.30    3.90
  -5  -9  -1   13.30    3.10
  -6  -9  -1   13.90    3.30
  -7  -9  -1    3.60    2.60
  -8  -9  -1    0.60    2.40
   4 -10  -1    4.80    3.60
   2 -10  -1   -1.40    2.20
   1 -10  -1    5.60    3.00
   0 -10  -1   19.10    3.70
  -1 -10  -1   -2.50    1.90
  -2 -10  -1    0.10    2.30
  -3 -10  -1    1.00    2.20
  -4 -10  -1    7.40    2.70
  -5 -10  -1    4.50    2.70
  -6 -10  -1   -1.70    2.30
  -7 -10  -1    1.80    2.80
   2 -11  -1    4.30    3.10
   1 -11  -1    0.90    2.70
   0 -11  -1   10.40    3.50
  -1 -11  -1    0.10    2.60
  -2 -11  -1   -0.60    2.60
  -3 -11  -1   -0.10    2.50
  -4 -11  -1    0.90    2.60
  -5 -11  -1    2.20    2.70
  -2 -12  -1    9.10    3.50
  -3 -11   2    3.70    3.10
  -2 -11   2    3.20    3.00
  -1 -11   2    0.20    3.00
  -5 -10   2    8.10    3.30
  -4 -10   2    1.30    2.80
  -3 -10   2    3.70    2.70
  -2 -10   2   -1.70    2.40
  -1 -10   2   13.50    3.50
  -1 -10   2   14.60    4.10
   0 -10   2    5.40    3.50
   0 -10   2    6.60    3.30
   1 -10   2    4.80    3.30
   1 -10   2    5.50    3.40
   2 -10   2    0.80    2.80
  -6  -9   2    1.80    2.30
  -5  -9   2    4.10    2.60
  -4  -9   2    2.70    3.00
  -4  -9   2    0.00    2.20
  -3  -9   2    1.80    2.90
  -3  -9   2    6.70    2.90
  -2  -9   2    6.70    3.10
  -2  -9   2    3.90    2.50
  -1  -9   2   19.40    3.80
  -1  -9   2   24.90    4.20
   0  -9   2    4.60    2.70
   0  -9   2    2.60    2.80
   1  -9   2    4.20    2.90
   1  -9   2    5.00    2.90
   2  -9   2    3.40    2.90
   3  -9   2    3.50    3.30
   4  -9   2    2.00    3.30
  -7  -8   2   -6.10    2.30
  -7  -8   2    6.30    2.90
  -6  -8   2   -4.10    1.90
  -6  -8   2   -2.20    2.20
  -5  -8   2   -1.90    1.80
  -5  -8   2    2.80    2.70
  -4  -8   2    0.60    2.50
  -4  -8   2    1.60    2.10
  -3  -8   2   20.30    3.50
  -3  -8   2   26.90    3.90
  -2  -8   2    6.50    2.60
  -2  -8   2    4.30    2.60
  -1  -8   2    3.30    2.60
  -1  -8   2    4.10    2.40
   0  -8   2   13.50    3.30
   0  -8   2   16.10    3.30
   1  -8   2   -2.60    2.00
   1  -8   2   -1.70    2.00
   2  -8   2    2.80    2.70
   2  -8   2    5.00    2.90
   3  -8   2   -1.90    2.40
   4  -8   2    0.30    2.80
   5  -8   2   -2.90    2.80
  -8  -7   2    1.50    2.50
  -7  -7   2    1.90    2.40
  -7  -7   2    0.80    2.20
  -6  -7   2    7.60    2.70
  -6  -7   2    7.10    2.40
  -5  -7   2    2.40    2.20
  -5  -7   2    0.90    2.20
  -4  -7   2    6.00    2.30
  -4  -7   2   12.80    2.90
  -3  -7   2   15.80    3.00
  -3  -7   2   18.70    3.10
  -2  -7   2   94.09    5.30
  -2  -7   2  108.89    5.60
  -1  -7   2  120.39    5.60
  -1  -7   2  105.09    5.50
   0  -7   2    1.30    2.00
   0  -7   2    2.50    2.30
   1  -7   2    5.50    2.30
   1  -7   2    8.20    2.70
   2  -7   2   10.80    3.10
   2  -7   2    7.90    2.90
   3  -7   2    6.30    2.80
   4  -7   2    0.90    2.60
   5  -7   2   12.10    3.90
   6  -7   2   -1.90    2.90
  -9  -6   2    4.30    2.50
  -8  -6   2    3.20    2.40
  -7  -6   2    4.40    2.30
  -7  -6   2    5.10    2.30
  -6  -6   2   11.20    2.70
  -6  -6   2    8.80    2.40
  -5  -6   2   -0.40    2.10
  -5  -6   2    0.00    1.80
  -4  -6   2   24.70    3.20
  -4  -6   2   22.80    3.10
  -3  -6   2   43.30    3.80
  -3  -6   2   43.90    3.60
  -2  -6   2   97.49    4.80
  -2  -6   2   91.19    4.70
  -1  -6   2    1.60    2.20
  -1  -6   2    0.00    1.70
   0  -6   2   51.79    4.10
   0  -6   2   54.49    4.10
   1  -6   2   35.50    3.70
   1  -6   2   41.60    4.30
   2  -6   2    7.00    2.60
   2  -6   2   12.50    2.80
   3  -6   2   -1.70    1.90
   4  -6   2    0.00    2.40
   5  -6   2    5.30    3.30
   6  -6   2   12.50    4.20
  -7   6  -2    3.20    2.60
   7  -6   2    5.60    3.80
  -9  -5   2    1.90    2.30
  -8  -5   2   -2.30    1.90
  -7  -5   2   -0.90    1.80
  -6  -5   2   44.20    3.50
  -6  -5   2   45.90    3.80
  -5  -5   2   10.90    2.10
  -5  -5   2   10.60    2.40
  -4  -5   2   19.40    2.60
  -4  -5   2   25.30    3.10
  -3  -5   2    5.20    1.80
  -3  -5   2    6.40    2.20
  -2  -5   2   81.89    4.10
  -2  -5   2   80.99    4.10
  -1  -5   2   22.20    2.60
  -1  -5   2   31.30    3.30
   0  -5   2   75.29    4.10
   0  -5   2   76.99    4.20
   1  -5   2    1.90    1.70
   1  -5   2   -0.50    1.90
   2  -5   2   68.59    4.60
   2  -5   2   68.99    4.60
   3  -5   2   31.70    4.00
   4  -5   2   -0.80    2.10
   5  -5   2   17.60    3.90
   6  -5   2    2.60    2.90
  -7   5  -2    1.90    2.40
   7  -5   2   -0.60    2.80
  -8   5  -2    5.80    3.60
  -9  -4   2    3.20    2.40
  -8  -4   2   14.20    2.90
  -7  -4   2   34.30    3.60
  -6  -4   2    7.30    1.90
  -6  -4   2    3.20    2.00
  -5  -4   2   13.30    2.50
  -5  -4   2   10.20    2.00
  -4  -4   2    2.40    1.80
  -4  -4   2    0.80    1.30
  -3  -4   2  285.37    6.50
  -3  -4   2  289.97    6.70
  -2  -4   2   34.50    2.70
  -2  -4   2   38.20    3.00
  -1  -4   2   16.70    2.00
  -1  -4   2   20.50    2.50
   0  -4   2    8.40    1.70
   0  -4   2    9.40    2.10
   1  -4   2  167.18    5.70
   1  -4   2  166.58    5.50
   2  -4   2    1.40    1.90
   3  -4   2    6.90    2.40
   4  -4   2   27.40    3.80
   5  -4   2    5.50    2.90
   6  -4   2    1.20    2.40
  -7   4  -2    0.40    1.80
   7  -4   2    0.80    2.80
  -8   4  -2   13.00    2.90
  -8   4  -2   12.30    4.00
 -10  -3   2    1.70    2.70
  -9  -3   2    9.00    3.00
  -8  -3   2   -0.70    1.80
  -7  -3   2    1.60    2.00
  -6  -3   2    3.10    2.00
  -6  -3   2    4.90    1.60
  -5  -3   2   20.80    2.70
  -5  -3   2   22.20    2.20
  -4  -3   2   17.10    2.40
  -4  -3   2   21.40    2.10
  -3  -3   2   56.69    3.00
  -3  -3   2   57.39    2.80
  -2  -3   2   64.69    3.00
  -2  -3   2   66.79    3.10
  -1  -3   2    6.40    1.60
  -1  -3   2    3.30    1.20
   0  -3   2   42.00    2.60
   0  -3   2   44.40    2.80
   1  -3   2  237.98    6.30
   1  -3   2  243.48    6.00
   2  -3   2   10.70    2.30
   3  -3   2  212.28    6.90
   4  -3   2   54.29    4.50
   5  -3   2   72.89    5.30
  -6   3  -2    7.70    2.10
   6  -3   2   14.70    3.60
  -7   3  -2   13.20    2.50
  -7   3  -2    8.30    3.20
   7  -3   2    4.60    3.00
  -8   3  -2    4.50    3.10
  -8   3  -2   -1.60    1.90
  -9   3  -2    4.20    3.30
 -10  -2   2    3.90    2.80
  -9  -2   2    1.50    2.40
  -8  -2   2    6.20    2.20
   7   2  -2   -0.50    1.30
  -7  -2   2   -1.90    1.70
  -6  -2   2    9.20    1.70
  -6  -2   2    8.70    2.20
  -5  -2   2   72.39    3.90
  -5  -2   2   72.19    3.10
  -4  -2   2  506.45    8.80
  -4  -2   2  514.95    7.70
  -3  -2   2  344.77    6.40
  -3  -2   2  332.67    5.70
  -2  -2   2   17.00    1.50
  -2  -2   2   17.80    1.70
  -1  -2   2   92.19    2.90
  -1  -2   2   88.99    2.90
   0  -2   2   27.80    2.20
   0  -2   2   28.20    2.00
   1  -2   2    0.90    1.00
   1  -2   2    0.00    1.30
   2  -2   2   56.29    3.10
   3  -2   2    2.10    1.60
   4  -2   2  200.18    7.00
  -5   2  -2  201.78    5.80
   5  -2   2  188.98    7.60
  -6   2  -2    8.50    2.10
   6  -2   2    7.30    3.00
  -7   2  -2   17.10    3.40
  -7   2  -2   13.60    2.50
  -8   2  -2   14.50    3.70
  -8   2  -2   13.10    2.70
  -9   2  -2    7.80    3.40
 -10  -1   2    7.20    3.10
  -9  -1   2   16.20    3.40
  -8  -1   2    4.50    2.20
   7   1  -2   17.30    2.30
  -7  -1   2   14.40    2.90
   6   1  -2   62.19    3.50
  -6  -1   2   68.59    3.00
  -6  -1   2   59.19    4.10
   5   1  -2  141.09    4.50
  -5  -1   2  141.89    3.70
  -5  -1   2  142.99    5.10
  -4  -1   2   71.59    2.30
  -4  -1   2   71.29    3.40
  -3  -1   2   46.90    1.70
  -3  -1   2   45.70    2.50
  -2  -1   2   44.10    2.20
  -2  -1   2   47.00    1.70
  -1  -1   2  414.06    6.10
  -1  -1   2  415.16    5.60
   0  -1   2   61.59    2.20
   0  -1   2   67.29    2.50
   1  -1   2  554.34    8.50
   2  -1   2  696.13   11.00
   3  -1   2  238.28    6.50
  -4   1  -2  113.59    3.90
   4  -1   2  113.39    5.10
  -5   1  -2   23.40    2.40
   5  -1   2   29.40    3.70
  -6   1  -2    1.00    1.90
  -6   1  -2    1.40    1.50
   6  -1   2    0.30    2.10
  -7   1  -2    7.00    2.70
  -7   1  -2    5.30    1.90
  -8   1  -2    2.90    1.90
  -8   1  -2    5.80    3.00
  -9   1  -2    8.10    3.20
 -10   0   2    7.10    3.20
  -9   0   2    4.90    2.90
  -8   0   2   -1.50    2.00
  -7   0   2    4.00    2.30
   6   0  -2    6.50    1.70
  -6   0   2    1.50    2.00
  -6   0   2    9.10    1.50
   5   0  -2   31.40    2.40
  -5   0   2   26.40    1.90
  -5   0   2   26.70    3.00
   4   0  -2  146.19    4.10
  -4   0   2  143.89    4.60
  -4   0   2  150.58    3.00
   3   0  -2    6.00    1.10
  -3   0   2    5.00    0.70
  -3   0   2    4.10    1.20
   2   0  -2   19.20    1.50
  -2   0   2   16.80    0.80
  -2   0   2   16.60    1.50
  -1   0   2   35.90    1.70
  -1   0   2   42.60    1.00
   0   0   2  687.13    8.10
  -1   0  -2   68.29    1.50
   1   0   2   68.79    2.40
  -2   0  -2  967.50   11.30
   2   0   2  972.00   12.80
  -3   0  -2  217.88    4.50
   3   0   2  201.68    5.60
  -4   0  -2   17.40    1.90
   4   0   2   16.20    2.40
  -5   0  -2    4.40    2.00
  -5   0  -2    7.00    1.60
   5   0   2    9.80    2.40
  -6   0  -2    0.00    1.40
  -6   0  -2    3.60    2.20
  -7   0  -2   -1.60    1.50
  -7   0  -2   -1.60    1.80
  -8   0  -2    6.10    2.70
  -8   0  -2   10.10    2.40
  -9   0  -2    2.20    2.50
 -10   0  -2    5.50    3.00
  -9   1   2   27.40    4.40
  -8   1   2    0.00    2.50
  -7   1   2    3.70    2.40
   6  -1  -2   27.80    2.50
  -6   1   2   21.80    1.90
  -6   1   2   19.80    3.10
   5  -1  -2  109.39    4.00
  -5   1   2  110.99    3.10
  -5   1   2  115.59    5.10
   4  -1  -2   62.69    2.90
  -4   1   2   61.49    3.30
  -4   1   2   65.79    2.10
   3  -1  -2    0.00    0.70
  -3   1   2    1.40    1.30
  -3   1   2   -0.20    0.50
   2  -1  -2  457.05    6.80
  -2   1   2  462.85    7.20
   1  -1  -2  520.55    7.00
   1  -1  -2  525.65    5.40
  -1   1   2  532.75    6.80
   0  -1  -2  175.48    3.20
   0  -1  -2  182.78    2.50
   0   1   2  179.18    2.50
  -1  -1  -2 2569.64   24.90
  -1  -1  -2 2474.55   24.20
   1   1   2 2593.44   25.70
  -2  -1  -2 1201.28   13.10
   2   1   2 1217.88   14.40
  -3  -1  -2  381.86    6.10
   3   1   2  369.36    7.10
  -4  -1  -2  776.92   10.60
  -4  -1  -2  783.02   12.00
  -5  -1  -2  167.98    5.60
  -5  -1  -2  167.88    4.60
   5   1   2  164.38    3.00
  -6  -1  -2    3.10    1.50
  -6  -1  -2    3.30    2.00
  -7  -1  -2   59.29    3.50
  -8  -1  -2    2.30    2.40
  -8  -1  -2    0.80    1.80
  -9  -1  -2    1.60    2.50
 -10  -1  -2    3.10    2.70
  -9   2   2    0.90    2.90
  -8   2   2   -0.60    2.50
  -7   2   2    7.80    2.90
   6  -2  -2   92.29    4.00
  -6   2   2   78.59    5.00
  -6   2   2   94.99    3.40
   5  -2  -2    1.40    1.30
  -5   2   2    4.20    1.20
  -5   2   2    2.60    2.10
   4  -2  -2   -1.00    1.00
  -4   2   2   -1.00    0.80
  -4   2   2    0.80    1.70
   3  -2  -2  204.38    4.70
  -3   2   2  200.98    5.40
   2  -2  -2   -0.70    0.70
   2  -2  -2    1.00    0.90
  -2   2   2    0.30    0.90
   1  -2  -2 1349.47   13.90
   1  -2  -2 1329.97   15.20
  -1   2   2 1319.77   15.00
   0  -2  -2  555.34    6.80
   0  -2  -2  552.44    7.60
   0   2   2  552.94    6.20
  -1  -2  -2 1014.80   11.90
  -1  -2  -2 1018.90   11.20
  -2  -2  -2 1535.15   16.40
  -2  -2  -2 1538.05   16.40
  -3  -2  -2  633.84    8.90
  -3  -2  -2  644.34    8.70
  -4  -2  -2  391.46    6.90
  -4  -2  -2  403.06    7.50
  -5  -2  -2    7.40    1.60
  -5  -2  -2    5.10    1.90
  -6  -2  -2    2.30    1.80
  -6  -2  -2   -0.70    1.40
  -7  -2  -2    0.70    1.50
  -7  -2  -2   -1.90    1.50
  -8  -2  -2   -2.00    1.80
  -8  -2  -2    0.50    1.90
  -9  -2  -2    0.50    2.00
  -9  -2  -2   -1.60    1.90
 -10  -2  -2    5.90    2.70
  -9   3   2    4.60    3.20
  -8   3   2   -1.20    2.60
  -7   3   2   -0.30    2.60
  -6   3   2   17.90    2.10
  -6   3   2   13.50    3.10
   5  -3  -2   19.70    2.30
  -5   3   2   16.90    2.90
  -5   3   2   22.80    2.10
   4  -3  -2   19.20    2.10
  -4   3   2   19.30    2.70
   3  -3  -2   39.50    3.00
   3  -3  -2   41.80    2.70
  -3   3   2   43.60    3.00
   2  -3  -2  624.74   10.40
   2  -3  -2  615.64    8.80
   2  -3  -2  622.14    9.50
   1  -3  -2   -0.20    1.00
   1  -3  -2    1.90    0.90
   1  -3  -2    0.30    1.00
   0  -3  -2 1020.70   12.20
   0  -3  -2 1041.90   12.00
   0  -3  -2 1038.10   13.10
  -1  -3  -2  993.00   11.80
  -1  -3  -2  972.70   10.40
  -1  -3  -2  975.90   12.50
  -2  -3  -2   67.29    1.70
  -2  -3  -2   63.39    2.50
  -3  -3  -2    0.20    0.70
  -3  -3  -2   -0.50    0.90
  -4  -3  -2    0.50    1.10
  -4  -3  -2    1.60    1.00
  -5  -3  -2   28.50    2.60
  -5  -3  -2   29.50    2.60
  -6  -3  -2    1.10    1.50
  -6  -3  -2   -1.80    1.40
  -7  -3  -2    4.30    1.90
  -7  -3  -2    3.90    1.80
  -8  -3  -2    0.20    1.80
  -8  -3  -2    1.20    2.00
  -9  -3  -2   19.30    3.00
  -9  -3  -2   13.90    2.80
 -10  -3  -2    6.00    2.50
  -9   4   2   -5.10    2.30
  -8   4   2    3.00    3.40
  -7   4   2    5.80    2.90
  -6   4   2    2.40    2.60
   5  -4  -2   17.10    2.40
  -5   4   2   14.70    3.00
   4  -4  -2    0.10    1.50
   4  -4  -2    0.70    2.00
  -4   4   2    1.30    2.10
   3  -4  -2  234.48    6.00
   3  -4  -2  221.98    6.80
   2  -4  -2   13.80    1.80
   2  -4  -2   13.70    2.00
   2  -4  -2   13.10    2.10
   1  -4  -2   -0.10    1.10
   1  -4  -2    2.90    1.30
   1  -4  -2    1.20    1.00
   0  -4  -2   76.99    3.10
   0  -4  -2   78.79    2.70
   0  -4  -2   80.49    3.60
  -1  -4  -2  347.27    5.20
  -1  -4  -2  345.57    6.50
  -1  -4  -2  344.77    6.90
  -2  -4  -2    0.70    0.90
  -2  -4  -2    0.40    1.00
  -3  -4  -2    0.20    0.90
  -3  -4  -2    0.10    1.10
  -4  -4  -2  133.69    4.50
  -4  -4  -2  141.59    3.70
  -5  -4  -2   21.10    2.20
  -5  -4  -2   21.50    2.40
  -6  -4  -2   43.60    3.30
  -6  -4  -2   52.29    3.50
  -7  -4  -2   20.00    2.80
  -7  -4  -2   15.70    2.60
  -8  -4  -2   26.20    3.30
  -8  -4  -2   20.90    2.90
  -9  -4  -2   -2.70    1.90
  -9  -4  -2    3.60    2.20
 -10  -4  -2    4.30    2.50
  -8   5   2    0.50    2.90
  -7   5   2   -3.50    2.60
  -6   5   2   11.20    3.40
  -5   5   2   27.00    3.80
   4  -5  -2  138.99    6.30
   4  -5  -2  138.79    5.30
   3  -5  -2   15.30    2.40
   3  -5  -2   15.50    2.80
   3  -5  -2   13.10    2.20
   2  -5  -2  160.88    5.20
   2  -5  -2  168.48    5.50
   2  -5  -2  159.88    5.60
   1  -5  -2  138.69    4.70
   1  -5  -2  135.39    4.70
   1  -5  -2  142.49    5.00
   0  -5  -2   71.49    3.70
   0  -5  -2   73.89    3.60
   0  -5  -2   70.59    3.10
  -1  -5  -2    4.10    1.30
  -1  -5  -2    3.70    1.40
  -2  -5  -2   35.90    2.00
  -2  -5  -2   36.00    2.70
  -3  -5  -2   86.69    3.90
  -3  -5  -2   81.69    2.90
  -4  -5  -2    7.50    1.50
  -4  -5  -2    4.40    1.70
  -5  -5  -2   26.10    2.40
  -5  -5  -2   28.10    2.90
  -6  -5  -2   53.99    3.30
  -6  -5  -2   57.29    3.90
  -7  -5  -2    9.60    2.20
  -7  -5  -2    8.80    2.40
  -8  -5  -2   11.30    2.70
  -8  -5  -2    8.40    2.40
  -9  -5  -2    1.20    2.00
  -9  -5  -2   -2.20    2.10
  -8   6   2   -1.30    2.80
  -7   6   2    0.90    2.80
  -6   6   2    0.50    2.70
   5  -6  -2   12.20    3.30
  -5   6   2    8.50    3.10
   4  -6  -2   -0.20    2.00
   4  -6  -2   -1.30    2.10
   3  -6  -2  110.09    5.00
   3  -6  -2  111.39    5.10
   3  -6  -2  116.99    5.70
   2  -6  -2    0.70    2.00
   2  -6  -2    1.50    1.60
   2  -6  -2    1.20    1.90
   1  -6  -2   33.80    3.20
   1  -6  -2   28.90    3.00
   1  -6  -2   31.70    3.30
   0  -6  -2   16.30    2.30
   0  -6  -2   15.70    2.30
  -1  -6  -2   78.39    4.00
  -1  -6  -2   84.29    3.40
  -2  -6  -2    3.30    1.60
  -2  -6  -2    1.50    1.50
  -3  -6  -2   30.00    2.40
  -3  -6  -2   25.60    2.80
  -4  -6  -2    4.80    1.80
  -4  -6  -2    8.00    1.90
  -5  -6  -2   40.60    2.90
  -5  -6  -2   41.30    3.70
  -6  -6  -2   17.10    2.70
  -6  -6  -2   19.60    2.50
  -7  -6  -2   37.30    3.90
  -7  -6  -2   44.00    3.70
  -8  -6  -2    2.30    2.20
  -9  -6  -2   35.50    4.40
  -7   7   2   -2.80    2.90
  -6   7   2    3.00    3.00
   5  -7  -2   -0.50    2.50
  -5   7   2    5.50    2.90
   4  -7  -2    3.40    2.50
   3  -7  -2    0.70    2.00
   3  -7  -2    3.10    2.30
   2  -7  -2    4.10    2.00
   2  -7  -2    4.50    2.30
   1  -7  -2   23.60    3.10
   1  -7  -2   19.60    2.90
   0  -7  -2   48.20    3.80
   0  -7  -2   40.90    3.30
  -1  -7  -2   79.89    3.80
  -1  -7  -2   93.19    4.90
  -2  -7  -2    2.70    1.80
  -2  -7  -2    0.20    1.60
  -3  -7  -2    2.90    1.80
  -3  -7  -2   -1.10    1.60
  -4  -7  -2   10.50    2.30
  -5  -7  -2    4.50    2.10
  -5  -7  -2    4.10    2.00
  -6  -7  -2   16.90    3.10
  -7  -7  -2    5.50    2.40
  -8  -7  -2    0.50    2.30
  -9  -7  -2    0.80    2.80
  -6   8   2    1.20    3.00
   5  -8  -2    5.10    3.10
  -5   8   2    6.10    3.50
   4  -8  -2   -0.70    2.50
   3  -8  -2    6.90    2.60
   3  -8  -2    2.40    2.40
   2  -8  -2   21.50    3.40
   2  -8  -2   25.70    3.60
   1  -8  -2   12.70    2.70
   1  -8  -2   15.00    2.90
   0  -8  -2   12.90    2.80
   0  -8  -2   10.80    2.60
  -1  -8  -2   35.40    3.30
  -1  -8  -2   31.40    3.70
  -2  -8  -2   23.10    2.80
  -2  -8  -2   24.50    3.30
  -3  -8  -2   11.50    2.50
  -4  -8  -2   10.30    2.60
  -5  -8  -2   24.20    3.50
  -6  -8  -2    3.60    2.40
  -7  -8  -2    0.90    2.40
  -8  -8  -2    2.10    2.50
  -9  -8  -2   15.30    3.90
   5  -9  -2    5.40    3.50
  -5   9   2    8.90    3.60
   4  -9  -2    1.60    2.80
   3  -9  -2   11.90    3.40
   3  -9  -2    4.90    2.50
   2  -9  -2    1.10    2.10
   2  -9  -2    0.60    2.40
   1  -9  -2    0.10    2.10
   1  -9  -2    0.60    2.10
   0  -9  -2   11.40    2.80
  -1  -9  -2    9.80    2.80
  -2  -9  -2    3.50    2.20
  -3  -9  -2   -2.40    1.80
  -4  -9  -2   27.90    3.80
  -5  -9  -2    1.10    2.00
  -6  -9  -2   18.20    3.50
  -7  -9  -2    0.30    2.20
  -8  -9  -2    6.50    3.10
   3 -10  -2    0.50    2.50
   2 -10  -2   -1.30    2.20
   1 -10  -2    2.40    2.50
   0 -10  -2    7.60    2.80
  -1 -10  -2   -2.30    2.00
  -2 -10  -2    7.60    2.70
  -3 -10  -2    2.50    2.40
  -4 -10  -2   -3.20    2.00
  -5 -10  -2    1.40    2.50
  -6 -10  -2    1.20    2.40
  -7 -10  -2    2.90    2.70
   2 -11  -2   -0.80    2.50
   1 -11  -2    4.30    2.90
   0 -11  -2    1.60    2.70
  -1 -11  -2    1.70    2.70
  -2 -11  -2    1.00    2.50
  -3 -11  -2    0.40    2.50
  -4 -11  -2   -0.80    2.30
  -5 -11  -2    2.50    2.70
  -6 -11  -2   -1.30    2.30
   0 -12  -2    6.10    3.30
  -1 -12  -2    4.80    3.20
  -2 -12  -2    5.20    3.00
  -3 -12  -2    4.20    3.10
  -4 -12  -2    1.10    2.80
  -5 -10   3   -3.40    2.40
  -4 -10   3   -0.70    2.60
  -3 -10   3    1.40    2.70
  -2 -10   3   -3.00    3.10
  -2 -10   3   -0.20    2.70
  -1 -10   3   -1.30    3.00
  -1 -10   3    3.40    2.90
   0 -10   3   -5.10    2.40
   0 -10   3   -2.10    3.00
   1 -10   3    0.70    3.00
   1 -10   3   -0.50    3.00
   2 -10   3    1.90    3.20
  -6  -9   3   -1.30    2.20
  -5  -9   3    2.20    2.60
  -5  -9   3   -0.10    3.10
  -4  -9   3   -2.90    2.90
  -4  -9   3   -2.90    2.00
  -3  -9   3    5.50    2.80
  -3  -9   3   -2.10    2.90
  -2  -9   3    3.00    2.50
  -2  -9   3   -0.30    3.00
  -1  -9   3   10.70    3.70
  -1  -9   3    6.80    3.00
   0  -9   3    0.10    2.60
   0  -9   3   -5.10    2.40
   1  -9   3    1.40    2.80
   1  -9   3    3.30    2.90
   2  -9   3    1.70    2.90
   3  -9   3    0.60    2.90
  -7  -8   3   -4.60    2.60
  -6  -8   3   -0.50    2.80
  -6  -8   3    1.60    2.40
  -5  -8   3   -2.50    2.30
  -5  -8   3    5.80    2.40
  -4  -8   3   -0.10    2.70
  -4  -8   3    5.40    2.40
  -3  -8   3    5.20    2.80
  -3  -8   3    2.80    2.40
  -2  -8   3    3.90    3.00
  -2  -8   3    2.70    2.30
  -1  -8   3   -0.10    2.50
  -1  -8   3    0.80    2.30
   0  -8   3    2.40    2.70
   0  -8   3    3.00    2.20
   1  -8   3   22.40    4.10
   1  -8   3   19.30    3.80
   2  -8   3   -0.20    2.60
   3  -8   3    0.70    2.60
   4  -8   3    1.80    3.20
   5  -8   3   -1.40    3.10
  -8  -7   3    0.30    2.50
  -7  -7   3    0.80    2.50
  -6  -7   3    9.00    2.60
  -6  -7   3   10.40    3.00
  -5  -7   3    5.10    2.60
  -5  -7   3    2.40    2.20
  -4  -7   3   14.50    2.90
  -4  -7   3   17.40    3.30
  -3  -7   3   21.70    3.20
  -3  -7   3   21.40    3.60
  -2  -7   3    0.70    1.90
  -2  -7   3    2.10    2.40
  -1  -7   3    4.00    2.50
  -1  -7   3    1.70    2.10
   0  -7   3   -2.60    1.70
   0  -7   3    2.30    2.40
   1  -7   3   -3.50    2.10
   1  -7   3   -0.80    2.10
   2  -7   3    1.20    2.40
   3  -7   3   -1.30    2.30
   4  -7   3   -0.80    2.70
   5  -7   3   14.60    4.30
   6  -7   3    2.80    3.50
  -9  -6   3    5.70    2.80
  -8  -6   3   -1.50    2.40
  -7  -6   3    1.50    2.20
  -6  -6   3    5.90    2.50
  -6  -6   3    6.10    2.40
  -5  -6   3    0.90    2.00
  -5  -6   3    1.40    2.10
  -4  -6   3  141.79    5.90
  -4  -6   3  121.39    5.50
  -3  -6   3   78.89    4.60
  -3  -6   3   78.09    4.60
  -2  -6   3   36.00    4.00
  -2  -6   3   39.70    3.80
  -1  -6   3   13.20    3.00
  -1  -6   3   12.30    2.60
   0  -6   3    9.50    2.80
   0  -6   3    8.40    2.50
   1  -6   3   -0.10    2.10
   1  -6   3    0.90    1.80
   2  -6   3   10.70    2.80
   3  -6   3    1.20    2.40
   4  -6   3    0.70    2.60
   5  -6   3    4.70    3.30
   6  -6   3    5.40    3.50
  -7   6  -3   -1.80    2.00
   7  -6   3   -0.10    3.20
  -9  -5   3   -1.70    2.10
  -8  -5   3    2.30    2.40
  -7  -5   3    0.70    2.00
  -6  -5   3    8.10    2.20
  -6  -5   3    4.80    2.20
  -5  -5   3   80.79    4.50
  -5  -5   3   79.29    4.40
  -4  -5   3  269.47    7.40
  -4  -5   3  274.77    7.50
  -3  -5   3   85.89    4.30
  -3  -5   3   90.59    4.70
  -2  -5   3   95.19    4.80
  -2  -5   3   98.19    4.60
  -1  -5   3   -3.00    2.00
  -1  -5   3   -2.00    1.50
   0  -5   3  143.39    5.90
   0  -5   3  150.88    5.80
   1  -5   3    4.30    2.40
   1  -5   3    3.30    2.00
   2  -5   3    2.50    2.30
   3  -5   3    8.10    2.80
   4  -5   3   -4.00    1.90
   5  -5   3   32.20    4.90
   6  -5   3    6.00    3.30
  -7   5  -3    1.10    2.30
   7  -5   3   -0.40    2.40
  -9  -4   3    7.30    2.80
  -8  -4   3    2.90    2.40
  -7  -4   3    5.10    2.40
  -6  -4   3   30.20    2.90
  -6  -4   3   26.40    3.20
  -5  -4   3   48.40    3.60
  -5  -4   3   46.50    3.30
  -4  -4   3   94.39    4.40
  -4  -4   3   94.19    4.20
  -3  -4   3   17.30    2.30
  -3  -4   3   18.20    2.70
  -2  -4   3    6.30    1.70
  -2  -4   3    6.90    2.10
  -1  -4   3    1.50    1.40
  -1  -4   3    4.00    2.00
   0  -4   3    0.60    1.40
   0  -4   3   -1.30    1.80
   1  -4   3    0.30    1.60
   1  -4   3    2.70    1.90
   2  -4   3   13.80    2.80
   3  -4   3    0.90    2.20
   4  -4   3   42.10    4.60
   5  -4   3    5.20    2.90
  -6   4  -3    1.50    1.80
   6  -4   3    2.30    2.70
  -7   4  -3    2.60    2.20
   7  -4   3    5.10    3.50
  -8   4  -3    8.10    3.60
  -8   4  -3    4.20    2.60
   8  -4   3    4.60    3.60
  -9  -3   3    7.60    3.00
   8   3  -3    4.40    2.00
  -8  -3   3    5.70    2.70
  -7  -3   3   38.80    4.00
  -6  -3   3    1.20    2.00
  -6  -3   3   -2.00    1.30
  -5  -3   3  105.49    4.90
  -5  -3   3  121.29    4.20
  -4  -3   3  125.19    4.20
  -4  -3   3  124.29    4.70
  -3  -3   3  123.09    4.30
  -3  -3   3  124.89    4.10
  -2  -3   3  353.06    7.00
  -2  -3   3  355.76    6.90
  -1  -3   3  289.97    6.50
  -1  -3   3  302.97    6.40
   0  -3   3   18.00    2.40
   0  -3   3   17.50    2.10
   1  -3   3  204.58    5.80
   1  -3   3  187.58    5.90
   2  -3   3    0.60    1.80
   3  -3   3    6.40    2.30
   4  -3   3    2.20    2.10
   5  -3   3  105.89    6.30
  -6   3  -3   11.10    2.40
   6  -3   3   13.90    3.40
  -7   3  -3   -1.50    1.70
   7  -3   3   -0.80    2.30
  -8   3  -3   -1.30    1.90
  -8   3  -3   -0.20    2.90
  -9   3  -3    5.70    3.50
 -10  -2   3    1.80    2.80
  -9  -2   3   10.30    3.10
  -8  -2   3   -0.40    2.10
   7   2  -3    0.10    1.50
  -7  -2   3    0.70    2.00
  -6  -2   3   17.10    2.80
  -5  -2   3  365.86    8.30
  -5  -2   3  373.66    6.70
  -4  -2   3    0.50    1.40
  -4  -2   3    2.70    1.10
  -3  -2   3   48.50    2.90
  -3  -2   3   45.50    2.30
  -2  -2   3   -0.30    0.80
  -2  -2   3   -2.10    1.00
  -1  -2   3    3.20    1.30
  -1  -2   3    1.10    0.90
   0  -2   3  118.69    3.70
   0  -2   3  123.69    4.00
   1  -2   3   34.20    2.70
   2  -2   3   64.49    3.60
   3  -2   3   20.50    2.90
   4  -2   3  413.46   10.60
  -5   2  -3   43.10    3.30
   5  -2   3   48.70    4.90
  -6   2  -3   12.10    2.30
   6  -2   3   13.40    3.30
  -7   2  -3   10.70    2.40
   7  -2   3   16.50    3.80
  -8   2  -3   36.00    3.70
  -8   2  -3   24.50    4.70
  -9   2  -3    5.40    3.30
 -10  -1   3    5.60    3.10
  -9  -1   3    4.50    2.80
  -8  -1   3   -0.20    2.20
   7   1  -3   -0.60    1.50
  -7  -1   3    1.20    2.10
   6   1  -3   16.20    2.30
  -6  -1   3    8.80    2.50
   5   1  -3   67.19    3.60
  -5  -1   3   70.09    2.70
  -5  -1   3   73.79    4.10
  -4  -1   3    6.70    1.00
  -4  -1   3    5.90    1.80
  -3  -1   3   86.79    2.30
  -3  -1   3   85.99    3.40
  -2  -1   3  178.78    4.10
  -2  -1   3  177.98    3.30
  -1  -1   3 1104.09   12.40
  -1  -1   3 1130.39   13.60
   0  -1   3  247.58    5.10
   1  -1   3   35.30    2.40
   2  -1   3    7.20    1.70
   3  -1   3  111.59    4.50
  -4   1  -3   30.40    2.60
   4  -1   3   32.90    3.50
  -5   1  -3   51.99    3.40
   5  -1   3   52.69    4.40
  -6   1  -3    2.50    1.70
   6  -1   3    4.70    2.50
  -7   1  -3   11.20    3.20
  -7   1  -3   11.20    2.40
   7  -1   3   17.80    3.60
  -8   1  -3   11.70    3.40
  -8   1  -3   12.20    2.60
  -9   1  -3    3.10    2.20
  -9   1  -3    0.90    2.70
  -9   0   3   13.60    3.60
  -8   0   3    3.10    2.60
   7   0  -3   11.00    2.30
  -7   0   3   12.20    2.70
   6   0  -3   16.20    2.30
  -6   0   3   16.00    2.90
   5   0  -3   18.80    2.20
  -5   0   3   21.20    1.50
  -5   0   3   19.60    2.80
   4   0  -3   25.30    2.30
  -4   0   3   21.30    1.30
  -4   0   3   19.50    2.40
   3   0  -3  208.08    4.90
  -3   0   3  208.68    5.00
  -3   0   3  201.88    2.90
   2   0  -3   37.90    2.10
  -2   0   3   40.10    2.00
  -2   0   3   37.50    1.00
   1   0  -3  405.76    6.20
  -1   0   3  406.26    6.10
   0   0  -3   45.00    1.90
   0   0   3   46.20    2.30
  -1   0  -3  168.88    3.10
   1   0   3  171.78    4.00
  -2   0  -3   12.30    1.30
  -2   0  -3   10.30    0.70
   2   0   3    8.90    1.60
  -3   0  -3   41.30    2.40
   3   0   3   42.40    2.90
  -4   0  -3  138.19    4.20
   4   0   3  140.49    5.40
  -5   0  -3   -0.30    1.30
   5   0   3    1.30    1.90
  -6   0  -3    0.40    1.50
  -6   0  -3    3.10    2.10
   6   0   3    1.10    2.20
  -7   0  -3    5.00    1.90
  -7   0  -3    4.80    2.40
  -8   0  -3   48.20    3.80
  -8   0  -3   40.70    4.70
  -9   0  -3   -1.40    2.00
  -9   0  -3    3.30    2.60
 -10   0  -3   -0.70    2.40
  -9   1   3    6.40    3.30
  -8   1   3    1.60    2.40
  -7   1   3    3.60    2.40
   6  -1  -3   32.80    2.90
  -6   1   3   35.10    3.70
   5  -1  -3   13.40    2.00
  -5   1   3   11.60    2.30
  -5   1   3   13.70    1.30
   4  -1  -3   46.20    2.90
  -4   1   3   44.40    3.20
  -4   1   3   47.60    1.50
   3  -1  -3  258.77    5.50
  -3   1   3  255.37    3.10
  -3   1   3  267.67    5.90
   2  -1  -3  610.54    8.90
  -2   1   3  611.64    8.80
   1  -1  -3  131.79    1.70
   1  -1  -3  128.89    3.30
  -1   1   3  126.69    2.90
   0  -1  -3   14.20    1.00
   0  -1  -3   18.10    1.40
   0   1   3   15.20    1.20
  -1  -1  -3  101.09    2.50
  -1  -1  -3   98.19    2.40
   1   1   3  100.69    2.60
  -2  -1  -3   80.49    2.10
  -2  -1  -3   80.39    2.50
   2   1   3   78.29    2.80
  -3  -1  -3  164.78    4.00
   3   1   3  168.28    4.70
  -4  -1  -3   54.29    2.60
   4   1   3   51.19    3.30
  -5  -1  -3    1.50    1.60
  -5  -1  -3   -0.70    1.20
   5   1   3    1.30    1.70
  -6  -1  -3   25.30    2.60
  -6  -1  -3   34.80    3.60
  -7  -1  -3   31.10    3.80
  -7  -1  -3   39.60    3.40
  -8  -1  -3    2.00    2.30
  -8  -1  -3   -0.20    1.70
  -9  -1  -3    2.60    2.20
  -9  -1  -3    2.50    2.40
 -10  -1  -3   -0.60    2.30
  -9   2   3    1.90    3.00
  -8   2   3    2.20    2.80
  -7   2   3   10.50    3.10
   6  -2  -3  119.89    4.80
  -6   2   3  117.69    5.70
   5  -2  -3    4.00    1.50
  -5   2   3    3.50    1.10
  -5   2   3    2.90    2.10
   4  -2  -3   32.60    2.60
  -4   2   3   27.90    1.60
  -4   2   3   27.00    2.90
   3  -2  -3    1.70    1.10
  -3   2   3    3.00    1.40
   2  -2  -3  292.27    4.20
   2  -2  -3  291.97    5.80
  -2   2   3  286.07    5.60
   1  -2  -3   52.49    2.40
   1  -2  -3   51.89    1.60
  -1   2   3   50.69    2.00
   0  -2  -3  724.13    8.20
   0  -2  -3  725.13    9.70
  -1  -2  -3   16.90    1.30
  -1  -2  -3   18.00    1.50
   1   2   3   18.10    0.90
  -2  -2  -3  158.28    3.50
  -2  -2  -3  158.68    3.50
   2   2   3  157.38    3.30
  -3  -2  -3   42.20    2.20
  -3  -2  -3   39.00    2.10
   3   2   3   42.20    2.20
  -4  -2  -3   33.80    2.60
  -4  -2  -3   39.50    2.50
  -5  -2  -3   -1.00    1.40
  -5  -2  -3    0.30    1.20
  -6  -2  -3    0.10    1.50
  -6  -2  -3    2.40    1.70
  -7  -2  -3    3.70    1.80
  -7  -2  -3    5.60    2.20
  -8  -2  -3    9.00    2.50
  -8  -2  -3   13.90    2.60
  -9  -2  -3   -1.70    1.90
  -9  -2  -3    0.70    2.20
 -10  -2  -3    4.10    2.60
  -9   3   3    4.20    2.90
  -8   3   3   -1.00    2.60
  -7   3   3   11.50    3.20
   6  -3  -3   22.00    2.60
  -6   3   3   18.30    3.30
   5  -3  -3   18.80    2.30
  -5   3   3   13.90    2.90
  -5   3   3   16.60    1.70
   4  -3  -3   -1.20    1.20
  -4   3   3   -0.60    1.70
   3  -3  -3  138.39    4.60
  -3   3   3  141.19    4.70
   2  -3  -3  145.09    3.50
   2  -3  -3  148.09    4.40
  -2   3   3  143.59    4.10
   1  -3  -3  469.65    8.00
   1  -3  -3  471.15    6.80
  -1   3   3  463.35    7.00
   0  -3  -3  390.96    6.00
   0  -3  -3  400.56    7.10
   0   3   3  387.16    5.00
  -1  -3  -3  346.17    5.60
  -1  -3  -3  338.67    6.40
  -2  -3  -3 1389.86   14.10
  -2  -3  -3 1362.96   16.30
  -2  -3  -3 1365.16   15.70
  -3  -3  -3  179.88    3.60
  -3  -3  -3  171.28    4.30
  -4  -3  -3   45.10    2.50
  -4  -3  -3   40.40    2.70
  -5  -3  -3   59.19    3.30
  -5  -3  -3   64.39    3.50
  -6  -3  -3    5.20    1.90
  -6  -3  -3    4.90    2.00
  -7  -3  -3   24.40    3.00
  -7  -3  -3   21.70    3.00
  -8  -3  -3    2.90    2.10
  -8  -3  -3    4.90    2.10
  -9  -3  -3    1.60    2.20
  -9  -3  -3    3.10    2.20
 -10  -3  -3    6.70    2.70
  -9   4   3    2.30    3.10
  -8   4   3    1.40    2.80
  -7   4   3    0.30    2.60
  -6   4   3    8.80    3.00
   5  -4  -3    7.20    2.00
  -5   4   3    7.10    2.70
   4  -4  -3    1.40    1.60
  -4   4   3    1.90    2.10
   3  -4  -3  158.08    4.50
   3  -4  -3  159.18    5.20
  -3   4   3  159.68    5.30
   2  -4  -3  957.50   14.00
   2  -4  -3  943.21   14.20
   2  -4  -3  956.20   12.80
  -2   4   3  955.70   13.60
   1  -4  -3  175.58    4.50
   1  -4  -3  176.18    5.10
   1  -4  -3  172.78    4.50
   0  -4  -3   -0.60    0.80
   0  -4  -3    0.70    1.30
   0  -4  -3    0.30    0.80
  -1  -4  -3   34.20    2.10
  -1  -4  -3   37.70    2.70
  -1  -4  -3   39.10    1.20
  -2  -4  -3   20.90    1.90
  -2  -4  -3   20.10    2.20
  -2  -4  -3   20.80    1.20
  -3  -4  -3  150.88    3.00
  -3  -4  -3  146.69    4.30
  -4  -4  -3  187.58    4.20
  -4  -4  -3  188.58    5.20
  -5  -4  -3   30.10    2.80
  -5  -4  -3   32.00    2.60
  -6  -4  -3   40.90    3.40
  -6  -4  -3   33.40    3.00
  -7  -4  -3   26.80    3.10
  -7  -4  -3   24.80    2.90
  -8  -4  -3   -1.30    1.90
  -8  -4  -3    1.60    1.90
  -9  -4  -3   -0.60    2.10
  -9  -4  -3    3.60    2.20
 -10  -4  -3    4.30    2.30
  -8   5   3   -0.20    2.90
  -7   5   3    7.60    3.50
  -6   5   3    9.50    3.20
   5  -5  -3   21.10    2.90
  -5   5   3   22.60    3.60
   4  -5  -3   59.99    4.00
  -4   5   3   61.79    4.30
   3  -5  -3   66.39    4.10
   3  -5  -3   64.49    3.40
   3  -5  -3   63.59    4.00
  -3   5   3   67.89    4.00
   2  -5  -3  196.28    6.00
   2  -5  -3  185.88    5.40
   2  -5  -3  196.58    6.10
   1  -5  -3   28.80    2.50
   1  -5  -3   25.90    2.40
   1  -5  -3   30.10    2.90
   0  -5  -3    1.30    1.20
   0  -5  -3   -0.20    1.00
   0  -5  -3    0.80    1.50
  -1  -5  -3   54.49    3.10
  -1  -5  -3   57.09    3.60
  -1  -5  -3   56.99    2.10
  -2  -5  -3  304.87    4.70
  -2  -5  -3  305.07    6.80
  -3  -5  -3   16.70    2.10
  -3  -5  -3   22.60    1.60
  -4  -5  -3   14.30    2.00
  -4  -5  -3   12.70    1.60
  -5  -5  -3    0.00    1.30
  -5  -5  -3   -0.40    1.50
  -6  -5  -3    2.20    1.80
  -6  -5  -3    1.90    1.40
  -7  -5  -3   -0.20    1.60
  -7  -5  -3   -1.30    1.70
  -8  -5  -3    3.60    2.00
  -8  -5  -3    0.50    2.10
  -9  -5  -3   -0.40    2.10
  -9  -5  -3    5.20    2.10
  -8   6   3    1.70    2.80
  -7   6   3    8.40    3.40
  -6   6   3    7.30    3.30
  -5   6   3    9.70    3.10
   4  -6  -3   -0.90    1.90
  -4   6   3    1.60    2.30
   3  -6  -3  221.18    7.10
   3  -6  -3  216.68    6.60
   3  -6  -3  209.48    7.40
   2  -6  -3   35.90    3.60
   2  -6  -3   38.30    3.30
   2  -6  -3   38.60    3.60
   1  -6  -3  143.59    5.10
   1  -6  -3  146.19    5.20
   1  -6  -3  144.69    5.80
   0  -6  -3    2.10    2.00
   0  -6  -3    1.20    1.30
   0  -6  -3    1.60    1.40
  -1  -6  -3  574.24   11.20
  -1  -6  -3  577.04   10.60
  -1  -6  -3  575.54    8.70
  -2  -6  -3   53.59    2.40
  -2  -6  -3   52.69    3.50
  -3  -6  -3    1.00    1.50
  -3  -6  -3    0.80    1.30
  -4  -6  -3    1.30    1.40
  -4  -6  -3    0.30    1.60
  -5  -6  -3    6.90    2.00
  -5  -6  -3    7.70    1.70
  -6  -6  -3   17.50    2.30
  -6  -6  -3   11.40    2.50
  -7  -6  -3    1.20    2.00
  -8  -6  -3   -0.70    2.10
  -9  -6  -3    3.30    2.70
  -7   7   3    6.40    3.50
  -6   7   3    7.00    3.40
  -5   7   3    0.10    2.60
   4  -7  -3   22.90    3.70
   4  -7  -3   21.30    3.30
  -4   7   3   19.10    3.50
   3  -7  -3   42.10    4.10
   3  -7  -3   48.00    4.60
   2  -7  -3   45.10    4.10
   2  -7  -3   42.60    4.00
   2  -7  -3   40.50    3.80
   1  -7  -3    2.50    1.80
   1  -7  -3    1.10    2.30
   1  -7  -3   -0.70    1.60
   0  -7  -3  168.28    5.30
   0  -7  -3  173.88    6.30
  -1  -7  -3   81.39    4.40
  -1  -7  -3   75.59    3.40
  -2  -7  -3   11.20    1.90
  -2  -7  -3    8.20    2.00
  -3  -7  -3   18.40    2.70
  -3  -7  -3   22.70    2.30
  -4  -7  -3   13.60    2.60
  -5  -7  -3   16.40    2.70
  -6  -7  -3   14.20    2.90
  -7  -7  -3   25.40    3.60
  -8  -7  -3   -0.10    2.10
  -9  -7  -3   -0.90    2.30
  -6   8   3    1.80    3.20
  -5   8   3    8.60    3.40
   4  -8  -3    3.70    2.70
  -4   8   3    5.10    2.90
   3  -8  -3   14.20    3.10
   3  -8  -3    8.80    2.50
   2  -8  -3   -0.10    2.00
   2  -8  -3    0.50    1.80
   1  -8  -3   -0.30    1.80
   1  -8  -3    2.20    1.90
   0  -8  -3    0.00    1.70
   0  -8  -3   -1.00    1.70
  -1  -8  -3   24.20    3.20
  -2  -8  -3    5.40    2.20
  -3  -8  -3   23.10    3.10
  -4  -8  -3    2.40    2.00
  -5  -8  -3    4.10    2.10
  -6  -8  -3   15.40    3.10
  -7  -8  -3    3.10    2.60
  -8  -8  -3    3.10    2.60
  -9  -8  -3   -1.10    2.60
  -5   9   3    2.20    3.10
   4  -9  -3   26.20    4.40
  -4   9   3   34.50    4.80
   3  -9  -3    9.70    3.20
   3  -9  -3    7.90    2.80
   2  -9  -3    6.40    2.40
   2  -9  -3   10.60    3.00
   1  -9  -3   -0.10    1.80
   0  -9  -3   18.80    3.40
  -1  -9  -3    1.90    2.10
  -2  -9  -3    5.60    2.40
  -3  -9  -3    2.70    2.10
  -4  -9  -3    1.30    2.10
  -5  -9  -3    2.40    2.20
  -6  -9  -3    8.10    2.80
  -7  -9  -3    2.70    2.40
  -8  -9  -3   -1.00    2.40
   3 -10  -3   14.30    3.60
   2 -10  -3    2.20    2.40
   1 -10  -3    6.00    2.80
   0 -10  -3   11.90    3.10
  -1 -10  -3    2.50    2.40
  -2 -10  -3    4.50    2.50
  -3 -10  -3    1.30    2.20
  -4 -10  -3    2.80    2.20
  -5 -10  -3    0.80    2.30
  -6 -10  -3   -0.90    2.10
  -7 -10  -3   -2.20    2.30
   3 -11  -3   -0.50    2.80
   2 -11  -3    2.00    2.60
   1 -11  -3    7.00    3.00
   0 -11  -3   -0.20    2.30
  -1 -11  -3   -1.20    2.30
  -2 -11  -3    4.70    2.70
  -3 -11  -3    0.20    2.20
  -4 -11  -3    4.50    2.70
  -5 -11  -3    4.30    2.70
  -6 -11  -3   -0.10    2.40
   0 -12  -3    0.60    2.60
  -1 -12  -3    2.10    2.80
  -2 -12  -3    3.00    2.90
  -3 -12  -3   -0.40    2.30
  -4 -12  -3   -0.10    2.50
  -3 -10   4   -0.10    2.60
  -3 -10   4   -5.40    3.00
  -2 -10   4    6.10    3.20
  -2 -10   4    1.60    3.70
  -1 -10   4   -1.10    3.10
  -1 -10   4    3.50    3.00
   0 -10   4    4.30    3.40
   0 -10   4   -1.20    3.30
  -5  -9   4   12.70    4.10
  -5  -9   4   16.00    3.60
  -4  -9   4   -1.60    3.10
  -4  -9   4   -0.40    2.50
  -3  -9   4    0.80    3.40
  -3  -9   4    8.60    3.10
  -2  -9   4    1.00    2.60
  -2  -9   4    5.00    3.30
  -1  -9   4    0.00    2.50
  -1  -9   4   -0.50    3.00
   0  -9   4   -4.10    2.70
   0  -9   4   -0.90    2.70
   1  -9   4   -1.90    2.60
   2  -9   4    0.10    3.10
   3  -9   4    0.80    3.00
  -7  -8   4   -0.80    2.90
  -6  -8   4    9.70    3.70
  -5  -8   4   -3.40    2.60
  -5  -8   4    2.80    2.50
  -4  -8   4   -0.80    2.70
  -4  -8   4    3.10    2.40
  -3  -8   4    1.10    2.20
  -3  -8   4   -0.50    2.70
  -2  -8   4   -3.40    2.30
  -2  -8   4    1.30    2.20
  -1  -8   4    1.20    2.40
  -1  -8   4    0.00    2.50
   0  -8   4   10.10    3.20
   0  -8   4    8.40    3.40
   1  -8   4    7.50    3.30
   1  -8   4    4.20    2.60
   2  -8   4    9.40    3.60
   3  -8   4   -1.40    2.80
   4  -8   4   -1.70    2.90
  -8  -7   4    0.00    2.90
  -7  -7   4   -3.60    2.50
  -6  -7   4    2.90    2.70
  -5  -7   4    0.50    2.70
  -5  -7   4    2.20    2.20
  -4  -7   4   15.60    2.90
  -4  -7   4    9.90    3.10
  -3  -7   4   17.80    3.60
  -3  -7   4   24.30    3.40
  -2  -7   4    0.50    2.00
  -2  -7   4    0.20    2.70
  -1  -7   4   12.90    3.30
  -1  -7   4    5.80    2.50
   0  -7   4   19.90    3.40
   0  -7   4   18.80    3.80
   1  -7   4   -1.70    2.40
   1  -7   4   -0.70    2.20
   2  -7   4    7.80    3.20
   3  -7   4    2.00    2.90
   4  -7   4    7.90    3.60
   5  -7   4    2.00    3.40
  -8  -6   4   -0.50    2.60
  -7  -6   4    1.70    2.40
  -6  -6   4    1.90    2.30
  -5  -6   4    3.00    2.40
  -5  -6   4    1.20    1.90
  -4  -6   4  106.59    5.50
  -4  -6   4   99.09    5.20
  -3  -6   4    1.90    1.90
  -3  -6   4    2.70    2.40
  -2  -6   4   -0.10    1.70
  -2  -6   4    1.20    2.30
  -1  -6   4    2.20    1.90
  -1  -6   4    1.50    2.30
   0  -6   4    4.40    2.70
   0  -6   4    4.20    2.20
   1  -6   4   -3.10    1.90
   1  -6   4   -1.50    1.80
   2  -6   4    2.90    2.50
   3  -6   4   12.50    3.50
   4  -6   4   -0.20    2.60
   5  -6   4    4.90    3.30
   6  -6   4   -1.70    3.10
  -9  -5   4   -1.20    2.30
  -8  -5   4    6.00    2.60
  -7  -5   4    0.70    2.10
  -6  -5   4    1.30    2.10
  -5  -5   4   41.50    3.60
  -5  -5   4   38.50    3.90
  -4  -5   4   85.89    4.30
  -4  -5   4   95.69    4.90
  -3  -5   4  135.09    5.30
  -3  -5   4  132.19    5.60
  -2  -5   4    4.50    2.50
  -2  -5   4    6.00    2.00
  -1  -5   4  122.29    5.70
  -1  -5   4  116.99    5.20
   0  -5   4  177.58    6.90
   0  -5   4  175.98    6.40
   1  -5   4   46.30    4.60
   1  -5   4   42.30    4.10
   2  -5   4    1.50    2.40
   3  -5   4   21.30    3.70
   4  -5   4    1.80    2.60
   5  -5   4    2.30    2.80
   6  -5   4   -1.00    2.40
  -7   5  -4   -2.40    2.00
   7  -5   4    3.10    3.40
  -9  -4   4    4.60    2.70
  -8  -4   4    5.20    2.50
  -7  -4   4   -0.20    2.00
  -6  -4   4   -0.40    1.90
  -5  -4   4  286.97    7.10
  -5  -4   4  279.27    7.70
  -4  -4   4   78.39    4.40
  -4  -4   4   74.39    3.70
  -3  -4   4   46.30    3.80
  -3  -4   4   53.49    3.20
  -2  -4   4    7.70    1.80
  -2  -4   4    8.20    2.30
  -1  -4   4  574.74   10.70
  -1  -4   4  555.04   11.10
   0  -4   4   51.29    4.00
   0  -4   4   57.19    3.80
   1  -4   4  399.36   10.00
   2  -4   4    5.20    2.60
   3  -4   4    5.90    2.60
   4  -4   4   25.50    3.80
   5  -4   4   12.50    3.50
  -6   4  -4   -0.60    1.80
   6  -4   4   -2.30    2.50
  -7   4  -4    9.70    2.80
   7  -4   4    5.50    3.40
  -8   4  -4    0.00    2.20
   8  -4   4    0.60    3.10
  -9  -3   4   12.70    3.20
   8   3  -4    1.80    1.90
  -8  -3   4    2.30    2.30
  -7  -3   4   16.80    3.00
  -6  -3   4   54.79    4.30
  -5  -3   4   63.39    3.30
  -5  -3   4   64.19    4.20
  -4  -3   4  209.18    5.40
  -4  -3   4  200.08    6.20
  -3  -3   4    1.20    1.20
  -3  -3   4    1.90    1.90
  -2  -3   4    4.20    1.30
  -2  -3   4    6.20    1.90
  -1  -3   4   41.70    3.20
  -1  -3   4   41.70    2.70
   0  -3   4  536.25    9.90
   0  -3   4  535.95   10.40
   1  -3   4   76.19    4.10
   2  -3   4    4.50    2.30
   3  -3   4    7.70    2.50
   4  -3   4    3.40    2.30
   5  -3   4   50.19    5.50
  -6   3  -4    7.00    2.30
   6  -3   4    8.80    3.50
  -7   3  -4   -1.40    2.00
   7  -3   4    2.70    2.90
  -8   3  -4    0.20    2.80
  -8   3  -4   -1.20    2.10
   8  -3   4    6.30    3.50
  -9  -2   4    6.20    3.10
   8   2  -4   62.89    4.60
  -8  -2   4   63.99    5.00
   7   2  -4   -3.10    1.20
  -7  -2   4    2.70    2.30
  -6  -2   4   97.79    4.80
  -5  -2   4  633.64   11.80
  -5  -2   4  633.64    9.30
  -4  -2   4  432.06    7.10
  -4  -2   4  433.36    8.70
  -3  -2   4    0.60    1.50
  -3  -2   4    0.30    0.90
  -2  -2   4  587.04    8.70
  -2  -2   4  579.24    9.50
  -1  -2   4 1560.34   18.30
  -1  -2   4 1602.24   19.80
   0  -2   4  181.68    5.30
   1  -2   4    1.00    1.60
   2  -2   4   41.40    3.20
   3  -2   4   89.09    4.80
   4  -2   4   51.29    4.10
  -5   2  -4    2.00    1.60
   5  -2   4    3.30    2.50
  -6   2  -4    4.00    2.00
   6  -2   4    8.60    3.10
  -7   2  -4   30.30    3.40
   7  -2   4   36.80    5.30
  -8   2  -4    9.70    3.50
  -8   2  -4   11.70    2.70
   8  -2   4   14.00    4.10
  -9   2  -4    0.80    2.20
  -9   2  -4   -0.20    3.10
  -9  -1   4   17.00    3.80
  -8  -1   4    7.90    2.80
   7   1  -4   13.10    2.50
  -7  -1   4   11.20    2.80
   6   1  -4  261.47    7.50
  -6  -1   4  280.97    7.90
   5   1  -4  170.78    5.70
  -5  -1   4  177.38    6.00
  -4  -1   4  142.99    3.20
  -4  -1   4  149.79    5.00
  -3  -1   4  324.77    5.00
  -3  -1   4  341.37    6.80
  -2  -1   4 1670.43   19.80
  -2  -1   4 1677.33   17.50
  -1  -1   4  560.74    8.80
  -1  -1   4  563.04    7.90
   0  -1   4 1479.55   18.20
   1  -1   4  271.97    6.20
   2  -1   4  600.34   10.80
  -3   1  -4   36.80    1.50
   3  -1   4   37.60    3.10
  -4   1  -4   45.90    3.20
   4  -1   4   51.79    4.00
  -5   1  -4   -0.20    1.50
   5  -1   4   -0.60    2.10
  -6   1  -4   60.89    3.90
   6  -1   4   60.09    5.70
  -7   1  -4   -0.30    1.70
   7  -1   4    2.60    2.60
  -8   1  -4   10.40    2.70
  -8   1  -4    4.10    2.70
  -9   1  -4    4.10    3.00
  -9   1  -4    6.00    2.50
  -9   0   4   17.60    3.80
  -8   0   4    7.60    2.90
   7   0  -4    1.80    1.70
  -7   0   4   -2.00    2.10
   6   0  -4    5.60    1.90
  -6   0   4    5.00    2.30
   5   0  -4  175.98    5.60
  -5   0   4  169.38    5.90
   4   0  -4   42.90    3.10
  -4   0   4   45.10    3.20
   3   0  -4  165.58    4.80
  -3   0   4  168.58    4.50
   2   0  -4  112.09    3.60
  -2   0   4  117.59    3.60
   1   0  -4 3015.30   31.10
  -1   0   4 2958.40   31.50
   0   0  -4 1923.11   20.80
   0   0   4 1930.91   21.60
  -1   0  -4  494.65    6.90
   1   0   4  487.25    8.00
  -2   0  -4    8.60    0.90
  -2   0  -4    9.70    1.40
   2   0   4   10.90    1.90
  -3   0  -4  686.83   10.20
   3   0   4  680.03   11.80
  -4   0  -4   51.69    3.10
   4   0   4   39.40    3.30
  -5   0  -4   10.50    2.10
   5   0   4    9.20    2.50
  -6   0  -4  119.89    4.90
   6   0   4  111.69    6.00
  -7   0  -4   27.00    3.10
  -7   0  -4   23.70    3.70
   7   0   4   29.10    4.30
  -8   0  -4   19.30    3.00
  -8   0  -4   13.90    3.50
  -9   0  -4   -0.10    2.30
  -9   0  -4    1.80    2.30
  -9   1   4   10.80    3.50
  -8   1   4    2.40    2.30
   7  -1  -4    0.90    1.60
  -7   1   4    0.20    2.00
   6  -1  -4  129.99    5.30
  -6   1   4  129.89    5.80
   5  -1  -4    4.20    1.70
  -5   1   4    7.70    2.20
   4  -1  -4  276.87    6.70
  -4   1   4  273.17    6.70
   3  -1  -4  115.19    4.10
  -3   1   4  115.69    3.80
   2  -1  -4  454.65    7.90
  -2   1   4  447.46    7.20
   1  -1  -4   11.90    1.50
   1  -1  -4    9.70    0.80
  -1   1   4    8.80    1.20
   0  -1  -4  148.59    2.80
   0  -1  -4  148.19    3.60
   0   1   4  151.08    3.40
  -1  -1  -4  949.80   11.50
  -1  -1  -4  973.60   11.10
   1   1   4  970.60   12.00
  -2  -1  -4  775.62   10.10
  -2  -1  -4  787.52    9.40
   2   1   4  777.22   11.00
  -3  -1  -4  109.99    2.40
  -3  -1  -4  113.19    3.50
   3   1   4  107.69    4.00
  -4  -1  -4   21.80    2.20
   4   1   4   26.10    2.80
  -5  -1  -4   -0.50    1.40
   5   1   4   -0.10    1.80
  -6  -1  -4   25.40    2.70
  -6  -1  -4   29.00    3.40
   6   1   4   34.40    3.90
  -7  -1  -4   14.80    2.40
  -7  -1  -4   10.40    2.80
  -8  -1  -4   -0.40    1.70
  -8  -1  -4   -3.90    1.80
  -9  -1  -4    1.70    2.20
  -9  -1  -4    3.10    2.60
 -10  -1  -4    0.00    2.30
  -9   2   4    6.20    3.20
  -8   2   4    4.60    3.00
  -7   2   4   18.30    3.40
   6  -2  -4    0.60    1.70
  -6   2   4    0.90    2.20
   5  -2  -4   59.79    3.70
  -5   2   4   60.89    4.20
   4  -2  -4   18.80    2.30
  -4   2   4   20.70    2.70
  -4   2   4   17.60    1.10
   3  -2  -4   26.90    2.30
  -3   2   4   24.00    2.30
   2  -2  -4    3.00    1.10
   2  -2  -4    2.30    0.50
  -2   2   4    4.60    1.20
   1  -2  -4  159.98    2.70
   1  -2  -4  156.88    4.40
  -1   2   4  161.88    3.40
   0  -2  -4  131.79    3.60
   0  -2  -4  132.59    2.70
   0   2   4  134.59    2.70
  -1  -2  -4  777.12    9.50
  -1  -2  -4  804.92   10.60
   1   2   4  815.02    9.40
  -2  -2  -4  633.44    8.70
  -2  -2  -4  640.24    8.70
   2   2   4  633.04    8.60
  -3  -2  -4  168.98    3.70
  -3  -2  -4  171.18    4.20
   3   2   4  165.28    4.40
  -4  -2  -4  155.38    4.60
   4   2   4  155.78    5.00
  -5  -2  -4   -0.30    1.50
  -5  -2  -4    0.70    1.30
  -6  -2  -4   25.60    3.10
  -6  -2  -4   19.90    2.50
  -7  -2  -4   49.90    4.10
  -7  -2  -4   54.19    3.70
  -8  -2  -4   16.30    3.20
  -8  -2  -4   21.20    3.10
  -9  -2  -4   -2.00    1.90
  -9  -2  -4    0.20    2.20
 -10  -2  -4    4.40    2.70
  -9   3   4   -0.30    2.80
  -8   3   4    0.90    2.70
  -7   3   4    8.10    3.00
   6  -3  -4  105.79    5.10
  -6   3   4  109.49    5.80
   5  -3  -4    0.80    1.40
  -5   3   4   -1.20    1.80
   4  -3  -4   59.29    3.60
  -4   3   4   54.89    3.70
   3  -3  -4    4.10    1.40
  -3   3   4    3.10    1.70
   2  -3  -4  490.65    9.00
   2  -3  -4  498.15    6.90
  -2   3   4  500.75    8.20
   1  -3  -4    9.40    1.10
   1  -3  -4    8.70    1.50
  -1   3   4   10.50    1.30
   0  -3  -4  489.95    6.80
   0  -3  -4  478.85    8.20
   0   3   4  485.95    5.90
  -1  -3  -4 2356.86   26.00
  -1  -3  -4 2355.06   24.20
  -2  -3  -4    8.00    1.20
  -2  -3  -4    9.10    0.80
  -2  -3  -4    9.70    1.50
  -3  -3  -4   73.99    3.10
  -3  -3  -4   71.89    3.00
  -3  -3  -4   68.69    2.40
  -4  -3  -4  181.18    4.50
  -4  -3  -4  177.38    5.00
  -5  -3  -4  120.49    4.40
  -5  -3  -4  116.59    4.30
  -6  -3  -4    4.50    1.80
  -6  -3  -4    6.00    2.00
  -7  -3  -4   23.00    3.00
  -7  -3  -4   31.10    3.30
  -8  -3  -4    1.10    1.90
  -8  -3  -4    0.20    1.90
  -9  -3  -4    9.10    2.80
  -9  -3  -4    7.80    2.70
 -10  -3  -4    3.20    2.40
 -10  -3  -4   -0.80    2.50
  -8   4   4    3.80    3.00
  -7   4   4    2.50    2.70
   6  -4  -4    5.60    2.00
  -6   4   4    7.10    2.80
   5  -4  -4   13.90    2.40
  -5   4   4   11.10    2.90
   4  -4  -4    4.80    1.90
  -4   4   4    3.10    2.10
   3  -4  -4    4.30    1.70
   3  -4  -4    6.50    1.40
  -3   4   4    5.60    1.80
   2  -4  -4   50.39    2.40
   2  -4  -4   49.80    3.20
  -2   4   4   50.69    2.90
   1  -4  -4    0.20    1.00
   1  -4  -4    1.70    1.30
  -1   4   4    0.90    0.90
   0  -4  -4    9.60    1.80
   0  -4  -4    6.90    1.30
   0   4   4    8.00    0.90
  -1  -4  -4   18.00    2.00
  -1  -4  -4   18.70    1.70
  -2  -4  -4  252.27    6.10
  -2  -4  -4  244.78    5.40
  -3  -4  -4  150.48    2.80
  -3  -4  -4  145.89    4.60
  -3  -4  -4  155.18    4.50
  -4  -4  -4   23.70    1.90
  -4  -4  -4   22.80    2.40
  -5  -4  -4  165.58    5.40
  -5  -4  -4  167.38    4.70
  -6  -4  -4    3.60    1.60
  -6  -4  -4    1.70    1.50
  -7  -4  -4   -2.10    1.50
  -7  -4  -4    2.00    1.80
  -8  -4  -4    9.60    2.50
  -8  -4  -4   13.20    2.60
  -9  -4  -4    3.00    2.20
  -9  -4  -4    2.00    2.30
 -10  -4  -4   -2.70    2.30
  -8   5   4    4.60    3.10
  -7   5   4    9.10    3.20
  -6   5   4    0.30    2.60
   5  -5  -4    9.90    2.40
  -5   5   4    7.70    2.60
   4  -5  -4  109.69    5.40
  -4   5   4  110.69    5.20
   3  -5  -4    2.50    1.40
   3  -5  -4    0.30    1.60
  -3   5   4    0.70    1.90
   2  -5  -4   20.40    2.70
   2  -5  -4   24.10    2.40
  -2   5   4   24.40    2.50
   1  -5  -4    4.30    1.50
   1  -5  -4    3.90    1.60
  -1   5   4    5.90    1.40
   0  -5  -4  103.89    4.40
   0  -5  -4  102.39    3.80
   0   5   4  103.99    2.80
  -1  -5  -4   58.29    3.50
  -1  -5  -4   56.49    3.00
  -2  -5  -4   21.70    2.20
  -2  -5  -4   21.00    2.50
  -3  -5  -4  185.18    3.10
  -3  -5  -4  186.08    5.30
  -4  -5  -4    9.40    1.30
  -4  -5  -4   10.00    1.90
  -5  -5  -4   69.19    3.10
  -5  -5  -4   73.09    3.90
  -6  -5  -4    3.60    1.40
  -6  -5  -4    5.80    1.90
  -7  -5  -4   86.09    4.80
  -7  -5  -4   82.79    4.10
  -8  -5  -4   10.50    2.40
  -8  -5  -4    8.00    2.60
  -9  -5  -4   -2.70    2.20
 -10  -5  -4   -2.90    2.30
  -7   6   4    9.50    3.50
  -6   6   4    2.90    2.80
   5  -6  -4   14.80    2.90
  -5   6   4   13.40    3.20
   4  -6  -4    3.80    2.20
  -4   6   4    2.20    2.40
   3  -6  -4    4.00    1.70
   3  -6  -4    4.30    2.20
  -3   6   4    3.90    2.10
   2  -6  -4   37.30    3.10
   2  -6  -4   44.20    3.90
   2  -6  -4   39.00    3.00
  -2   6   4   40.30    3.30
   1  -6  -4    0.10    1.50
   1  -6  -4    0.00    1.80
   1  -6  -4    0.00    1.30
   0  -6  -4  171.88    4.40
   0  -6  -4  175.98    5.60
   0  -6  -4  172.98    6.30
  -1  -6  -4   75.69    2.40
  -1  -6  -4   76.19    4.60
  -1  -6  -4   74.89    3.90
  -2  -6  -4   12.70    2.60
  -2  -6  -4    9.40    1.90
  -3  -6  -4    4.80    1.80
  -3  -6  -4    5.30    1.20
  -4  -6  -4   31.90    2.20
  -4  -6  -4   30.90    3.10
  -5  -6  -4   13.60    2.40
  -6  -6  -4    1.40    1.90
  -7  -6  -4    1.60    2.10
  -8  -6  -4    3.70    2.30
  -9  -6  -4    5.60    2.70
 -10  -6  -4    2.30    2.90
  -7   7   4    2.10    3.10
  -6   7   4    2.30    2.80
  -5   7   4    1.10    2.40
   4  -7  -4    0.50    2.30
  -4   7   4    2.80    2.40
   3  -7  -4    5.80    2.00
   3  -7  -4   10.60    2.80
  -3   7   4    6.90    2.50
   2  -7  -4   47.10    3.50
   2  -7  -4   37.80    3.80
   2  -7  -4   43.60    3.50
   1  -7  -4   19.90    3.20
   1  -7  -4   23.40    2.90
   1  -7  -4   27.80    3.00
   0  -7  -4  193.78    5.30
   0  -7  -4  192.58    6.50
   0  -7  -4  199.58    7.30
  -1  -7  -4    2.50    1.80
  -1  -7  -4    2.80    2.50
  -1  -7  -4    2.50    1.30
  -2  -7  -4   63.99    4.10
  -3  -7  -4   21.10    2.80
  -4  -7  -4   78.89    4.60
  -5  -7  -4   56.99    4.10
  -6  -7  -4    1.90    1.80
  -7  -7  -4   21.70    3.50
  -8  -7  -4   12.10    3.10
  -9  -7  -4    0.30    2.60
  -6   8   4    1.10    2.90
  -5   8   4    1.10    2.80
   4  -8  -4    7.50    3.00
  -4   8   4    7.60    3.00
   3  -8  -4   12.60    3.00
   3  -8  -4   12.60    2.60
   3  -8  -4   18.80    3.50
  -3   8   4   15.60    3.10
   2  -8  -4    7.70    2.80
   2  -8  -4    6.00    2.20
   2  -8  -4    9.70    2.60
   1  -8  -4    4.00    2.00
   1  -8  -4    2.30    2.50
   1  -8  -4    0.90    1.70
   0  -8  -4   -4.10    2.30
   0  -8  -4   -0.10    1.60
  -1  -8  -4   24.40    3.20
  -2  -8  -4   23.30    3.10
  -3  -8  -4   14.20    2.70
  -4  -8  -4   36.30    3.80
  -5  -8  -4   31.50    3.80
  -6  -8  -4    3.40    2.40
  -7  -8  -4   -0.90    2.20
  -8  -8  -4    8.40    3.00
  -9  -8  -4   -0.30    2.50
  -5   9   4    7.40    3.40
  -4   9   4   12.60    3.30
   3  -9  -4    1.30    2.00
   2  -9  -4    2.20    2.10
   1  -9  -4    1.00    1.90
   0  -9  -4   -1.20    1.80
  -1  -9  -4    0.40    2.00
  -2  -9  -4   12.40    2.80
  -3  -9  -4   32.30    3.80
  -4  -9  -4   34.10    3.90
  -5  -9  -4    7.00    2.70
  -6  -9  -4    3.80    2.60
  -7  -9  -4    0.60    2.30
  -8  -9  -4   -2.80    2.20
   3 -10  -4   18.70    3.70
   2 -10  -4   -1.70    2.00
   1 -10  -4   10.10    2.90
   0 -10  -4    2.00    2.30
  -1 -10  -4   -0.80    2.00
  -2 -10  -4    4.60    2.40
  -3 -10  -4    1.50    2.20
  -4 -10  -4   34.90    4.30
  -5 -10  -4   -0.90    2.10
  -6 -10  -4    0.80    2.40
  -7 -10  -4    0.00    2.20
   3 -11  -4    4.20    3.00
   2 -11  -4    2.30    2.60
   1 -11  -4    0.30    2.30
   0 -11  -4    1.80    2.40
  -1 -11  -4   -1.10    2.20
  -2 -11  -4    0.60    2.40
  -3 -11  -4   15.00    3.50
  -4 -11  -4    3.00    2.60
  -5 -11  -4    5.90    3.00
  -6 -11  -4    8.30    3.20
   1 -12  -4    0.10    2.50
   0 -12  -4    0.00    2.50
  -1 -12  -4   -0.50    2.60
  -2 -12  -4   -1.00    2.50
  -3 -12  -4   -0.50    2.50
  -4 -12  -4    3.10    2.90
  -5  -9   5    0.70    2.60
  -5  -9   5   -4.20    3.40
  -4  -9   5   -1.40    2.60
  -4  -9   5   -2.20    3.20
  -3  -9   5    3.00    2.70
  -3  -9   5    9.40    4.10
  -2  -9   5   -6.80    2.70
  -2  -9   5    1.00    2.50
  -1  -9   5    4.00    3.10
  -1  -9   5    4.30    3.50
   0  -9   5   -2.30    3.20
   1  -9   5    0.40    3.30
   2  -9   5   -1.30    3.00
  -6  -8   5   -3.70    2.90
  -5  -8   5   -2.00    2.90
  -5  -8   5    1.90    2.50
  -4  -8   5   13.00    3.20
  -4  -8   5   13.30    3.90
  -3  -8   5   -4.70    1.80
  -3  -8   5   -0.70    3.10
  -2  -8   5    0.80    2.40
  -2  -8   5    1.70    3.10
  -1  -8   5    4.60    2.70
  -1  -8   5    0.90    3.10
   0  -8   5    4.10    3.20
   0  -8   5   -0.30    2.50
   1  -8   5   11.10    3.90
   2  -8   5    2.20    3.10
   3  -8   5    6.10    3.80
   4  -8   5   -3.90    2.90
  -7  -7   5   -1.40    2.80
  -6  -7   5   -0.30    2.50
  -5  -7   5    1.70    3.00
  -5  -7   5    1.30    2.20
  -4  -7   5    0.70    2.70
  -4  -7   5   -2.30    2.00
  -3  -7   5    8.80    2.70
  -3  -7   5    5.70    3.10
  -2  -7   5    1.70    2.10
  -2  -7   5   -2.50    2.50
  -1  -7   5    2.00    2.30
  -1  -7   5   -1.30    2.50
   0  -7   5   -1.30    1.90
   0  -7   5   -1.10    2.60
   1  -7   5   23.60    4.40
   2  -7   5    3.00    2.90
   3  -7   5    8.10    3.60
   4  -7   5   -1.60    2.70
   5  -7   5    1.90    3.60
  -8  -6   5   -3.70    2.40
  -7  -6   5    2.80    2.70
  -6  -6   5   20.20    3.60
  -5  -6   5    4.50    2.50
  -5  -6   5    6.10    2.40
  -4  -6   5   12.60    2.60
  -4  -6   5   16.00    3.40
  -3  -6   5    2.40    2.50
  -3  -6   5    0.80    1.90
  -2  -6   5   61.59    4.90
  -2  -6   5   58.09    4.30
  -1  -6   5    0.00    1.80
  -1  -6   5    2.20    2.50
   0  -6   5    0.00    1.80
   0  -6   5    3.60    2.80
   1  -6   5   14.80    3.60
   2  -6   5    1.90    2.80
   3  -6   5    2.10    2.80
   4  -6   5    0.10    2.70
   5  -6   5   18.90    4.60
   6  -6   5    0.50    3.40
  -8  -5   5   -1.10    2.50
  -7  -5   5    4.20    2.50
  -6  -5   5   -0.20    2.20
  -5  -5   5   12.00    2.30
  -5  -5   5    7.40    2.40
  -4  -5   5    4.20    1.90
  -4  -5   5    1.30    2.10
  -3  -5   5    9.30    2.30
  -3  -5   5   13.30    3.00
  -2  -5   5   78.39    4.40
  -2  -5   5   77.69    4.90
  -1  -5   5   36.70    3.60
  -1  -5   5   36.70    4.30
   0  -5   5   43.40    4.60
   0  -5   5   35.10    3.80
   1  -5   5   54.29    5.30
   2  -5   5    0.90    2.50
   3  -5   5   -2.30    2.10
   4  -5   5    3.60    2.90
   5  -5   5    3.30    3.00
   6  -5   5    3.00    3.10
  -7   5  -5   -3.60    1.90
   7  -5   5    3.30    3.60
  -9  -4   5   -0.90    2.20
   8   4  -5    3.60    2.20
  -8  -4   5    6.50    2.70
  -7  -4   5    1.50    2.20
  -6  -4   5    1.20    2.10
  -5  -4   5   56.99    4.20
  -4  -4   5   63.39    3.60
  -4  -4   5   71.19    4.40
  -3  -4   5    7.80    1.80
  -3  -4   5    7.90    2.50
  -2  -4   5    2.50    2.40
  -2  -4   5    3.20    1.60
  -1  -4   5   12.00    2.30
  -1  -4   5   16.70    3.30
   0  -4   5  754.52   13.70
   0  -4   5  748.23   14.50
   1  -4   5   83.79    5.10
   2  -4   5  106.59    6.00
   3  -4   5    2.70    2.60
   4  -4   5    2.40    2.40
   5  -4   5   26.30    4.40
  -6   4  -5    7.40    2.50
   6  -4   5    8.00    3.40
  -7   4  -5   13.20    3.00
   7  -4   5   10.20    4.20
  -8   4  -5    3.10    2.60
   8  -4   5    6.50    3.80
  -9  -3   5    3.00    2.70
   8   3  -5    0.00    1.80
  -8  -3   5   -2.10    1.90
   7   3  -5   10.00    2.50
  -7  -3   5    7.10    2.50
  -6  -3   5   20.90    3.20
  -5  -3   5   59.49    4.10
  -4  -3   5   35.40    2.50
  -4  -3   5   30.90    3.30
  -3  -3   5  164.18    4.80
  -3  -3   5  158.08    5.50
  -2  -3   5    3.50    2.20
  -2  -3   5    4.10    1.50
  -1  -3   5  194.68    5.60
  -1  -3   5  186.48    6.10
   0  -3   5  230.18    7.20
   1  -3   5   30.90    3.50
   2  -3   5   35.30    3.90
   3  -3   5    3.20    2.30
   4  -3   5   77.59    5.50
   5  -3   5    4.30    2.90
  -6   3  -5    0.30    1.80
   6  -3   5   -0.10    2.60
  -7   3  -5    1.00    2.10
   7  -3   5    1.70    3.10
  -8   3  -5   -1.00    2.00
   8  -3   5    3.60    3.30
  -9  -2   5    1.10    2.60
   8   2  -5   -0.10    1.80
  -8  -2   5    0.70    2.40
   7   2  -5   11.60    2.70
  -7  -2   5    4.90    2.40
   6   2  -5   -0.50    1.50
  -6  -2   5   -1.50    2.00
  -5  -2   5   31.60    3.40
  -4  -2   5    3.60    2.20
  -4  -2   5    5.40    1.30
  -3  -2   5   31.10    2.80
  -3  -2   5   31.20    2.10
  -2  -2   5   13.80    1.70
  -2  -2   5   14.60    2.30
  -1  -2   5   29.80    2.90
  -1  -2   5   29.00    2.40
   0  -2   5   -1.50    1.60
   1  -2   5   83.39    4.20
   2  -2   5    3.10    2.10
   3  -2   5   38.90    4.10
   4  -2   5   12.30    2.90
  -5   2  -5   47.00    3.70
   5  -2   5   49.60    5.20
  -6   2  -5    7.30    2.30
   6  -2   5    7.40    3.30
  -7   2  -5    8.00    2.40
   7  -2   5   10.50    3.60
  -8   2  -5    4.00    2.40
   8  -2   5    6.50    3.60
  -9   2  -5    0.40    3.00
  -9   2  -5    0.20    2.40
  -9  -1   5    9.10    3.50
   8   1  -5   -3.50    1.90
  -8  -1   5    4.40    2.80
   7   1  -5   15.00    2.80
  -7  -1   5    6.80    2.80
   6   1  -5   76.49    4.50
  -6  -1   5   82.89    4.80
   5   1  -5  286.67    7.80
  -5  -1   5  295.67    7.90
   4   1  -5   20.30    2.40
  -4  -1   5   20.50    1.40
  -4  -1   5   17.40    2.50
  -3  -1   5    1.40    0.80
  -3  -1   5    0.20    1.60
  -2  -1   5  230.08    5.60
  -1  -1   5 1206.98   16.00
   0  -1   5  655.33   10.70
   1  -1   5    7.00    2.00
   2  -1   5  290.97    7.40
  -3   1  -5    2.10    0.80
   3  -1   5   -2.00    1.70
  -4   1  -5   13.80    2.20
   4  -1   5   16.90    3.00
  -5   1  -5   21.50    2.80
   5  -1   5   25.80    3.70
  -6   1  -5   96.89    4.90
   6  -1   5   90.99    5.90
  -7   1  -5    0.80    1.90
   7  -1   5    0.00    2.60
  -8   1  -5    2.90    2.70
  -8   1  -5   -0.60    2.00
   8  -1   5    0.10    2.80
  -9   1  -5    1.50    2.20
  -9   1  -5   -1.70    2.40
  -9   0   5   11.00    3.40
  -8   0   5    0.50    2.50
   7   0  -5   24.10    3.30
  -7   0   5   21.40    3.40
   6   0  -5   30.30    3.40
  -6   0   5   34.00    3.60
   5   0  -5  323.77    8.10
  -5   0   5  323.07    8.00
   4   0  -5    6.90    1.80
  -4   0   5    7.90    2.10
   3   0  -5  253.77    6.40
  -3   0   5  242.18    5.90
   2   0  -5  259.87    6.00
  -2   0   5  257.87    5.70
   1   0  -5 1746.23   20.60
  -1   0   5 1766.92   20.50
   0   0  -5   12.90    1.50
   0   0   5   13.60    1.90
  -1   0  -5   95.89    3.00
   1   0   5   99.79    3.80
  -2   0  -5  267.57    4.80
  -2   0  -5  272.97    5.70
   2   0   5  273.07    6.60
  -3   0  -5  135.19    2.90
  -3   0  -5  132.79    4.30
   3   0   5  138.49    5.10
  -4   0  -5    3.00    1.50
   4   0   5    3.20    2.00
  -5   0  -5   76.69    4.10
   5   0   5   75.49    5.00
  -6   0  -5  132.39    5.20
   6   0   5  130.49    6.70
  -7   0  -5   82.29    4.70
   7   0   5   82.29    5.90
  -8   0  -5    0.30    2.30
  -8   0  -5   -0.10    2.00
  -9   0  -5    3.90    2.50
  -9   0  -5    0.30    2.50
  -9   1   5   11.00    3.40
  -8   1   5    2.70    2.70
   7  -1  -5    1.10    1.70
  -7   1   5    0.80    2.40
   6  -1  -5  192.38    6.70
   5  -1  -5   97.79    4.70
  -5   1   5   91.79    4.80
   4  -1  -5   36.90    3.00
  -4   1   5   30.90    2.90
   3  -1  -5  150.88    4.90
  -3   1   5  153.38    4.60
   2  -1  -5  267.37    6.20
  -2   1   5  255.47    5.50
   1  -1  -5   46.70    2.60
   1  -1  -5   46.00    1.40
  -1   1   5   51.99    2.40
   0  -1  -5   14.90    1.60
   0  -1  -5   16.20    1.40
   0   1   5   16.40    1.80
  -1  -1  -5  581.94    8.00
  -1  -1  -5  584.94    8.50
   1   1   5  568.84    8.80
  -2  -1  -5  762.12    9.80
  -2  -1  -5  765.12   10.40
   2   1   5  765.12   11.50
  -3  -1  -5   10.20    1.60
  -3  -1  -5    6.60    1.00
   3   1   5   10.00    1.90
  -4  -1  -5    6.20    1.60
   4   1   5    9.30    2.20
  -5  -1  -5  215.48    6.20
   5   1   5  219.18    7.30
   6   1   5  359.86   10.20
  -7  -1  -5   17.70    3.20
  -7  -1  -5   16.40    2.80
  -8  -1  -5    3.20    2.30
  -8  -1  -5    1.60    2.00
  -9  -1  -5   28.10    3.70
  -9  -1  -5   21.30    3.80
 -10  -1  -5   -0.50    2.30
 -10  -1  -5   -0.20    2.40
  -9   2   5    5.50    2.90
  -8   2   5    2.60    2.70
   7  -2  -5    7.30    2.10
  -7   2   5   11.40    3.00
   6  -2  -5  112.69    5.60
  -6   2   5  109.99    5.50
   5  -2  -5  115.49    5.00
  -5   2   5  117.69    5.20
   4  -2  -5   26.50    2.70
  -4   2   5   16.00    2.50
   3  -2  -5    9.20    1.80
  -3   2   5    6.60    1.80
   2  -2  -5    1.80    1.10
  -2   2   5   -0.50    1.10
   1  -2  -5  180.98    3.00
   1  -2  -5  182.18    4.90
  -1   2   5  182.08    3.90
   0  -2  -5   18.30    1.80
   0  -2  -5   16.50    1.30
   0   2   5   19.40    1.50
  -1  -2  -5 1299.77   14.40
  -1  -2  -5 1264.07   15.60
   1   2   5 1284.87   14.80
  -2  -2  -5   94.79    3.10
  -2  -2  -5   94.19    3.10
   2   2   5   91.89    3.00
  -3  -2  -5   58.09    2.80
  -3  -2  -5   51.79    2.30
   3   2   5   57.69    2.90
  -4  -2  -5   64.49    3.30
   4   2   5   60.39    3.40
  -5  -2  -5  394.56    8.30
   5   2   5  402.66    9.40
  -6  -2  -5   43.20    3.90
  -6  -2  -5   46.70    3.70
  -7  -2  -5   37.40    4.00
  -7  -2  -5   41.80    3.60
  -8  -2  -5    2.60    2.30
  -8  -2  -5    2.60    2.10
  -9  -2  -5    6.60    2.80
  -9  -2  -5    4.50    2.50
 -10  -2  -5   14.00    3.40
 -10  -2  -5   12.00    3.20
  -9   3   5    3.40    2.90
  -8   3   5    8.70    3.40
  -7   3   5    0.70    2.40
   6  -3  -5  101.39    5.10
  -6   3   5   99.69    5.50
   5  -3  -5   44.00    3.70
  -5   3   5   37.20    3.70
   4  -3  -5    1.00    1.50
  -4   3   5    0.40    1.70
   3  -3  -5   72.99    3.90
  -3   3   5   78.69    3.70
   2  -3  -5   14.80    1.20
   2  -3  -5   12.10    1.90
  -2   3   5   11.40    1.70
   1  -3  -5    6.00    1.50
   1  -3  -5    6.20    1.00
  -1   3   5    5.50    1.10
   0  -3  -5 1225.68   16.20
   0  -3  -5 1214.88   13.70
  -1  -3  -5  924.51   11.30
  -1  -3  -5  905.51   12.80
   1   3   5  914.31   10.30
  -2  -3  -5 1922.31   21.00
  -2  -3  -5 1910.51   22.00
   2   3   5 1876.11   20.30
  -3  -3  -5  258.87    5.60
  -3  -3  -5  261.07    5.80
   3   3   5  257.37    5.20
  -4  -3  -5  241.68    5.90
  -4  -3  -5  249.68    5.50
   4   3   5  243.38    5.80
  -5  -3  -5  335.47    7.70
  -5  -3  -5  341.17    7.50
  -6  -3  -5  605.04   11.60
  -6  -3  -5  617.44   11.50
  -7  -3  -5    3.40    2.10
  -7  -3  -5    3.40    1.90
  -8  -3  -5    2.20    1.90
  -8  -3  -5    2.50    2.20
  -9  -3  -5   17.10    3.20
  -9  -3  -5   22.90    3.60
 -10  -3  -5   -1.30    2.60
 -10  -3  -5    6.10    2.70
  -8   4   5    9.90    3.50
  -7   4   5    6.00    3.00
   6  -4  -5    4.20    2.10
  -6   4   5    6.10    2.70
   5  -4  -5    0.00    1.60
  -5   4   5   -0.80    1.90
   4  -4  -5   35.30    3.40
  -4   4   5   36.30    3.40
   3  -4  -5    2.10    1.50
   3  -4  -5    2.20    1.10
  -3   4   5    3.40    1.60
   2  -4  -5    5.70    1.70
   2  -4  -5    4.20    1.10
  -2   4   5    6.10    1.60
   1  -4  -5   49.40    2.40
   1  -4  -5   56.29    3.50
  -1   4   5   50.29    2.30
   0  -4  -5  264.47    5.30
   0  -4  -5  265.87    6.70
   0   4   5  263.27    3.90
  -1  -4  -5  306.27    5.90
  -1  -4  -5  293.37    6.90
  -2  -4  -5   68.89    3.10
  -2  -4  -5   71.49    3.60
  -3  -4  -5   30.10    2.60
  -3  -4  -5   27.50    1.40
  -3  -4  -5   34.70    2.60
  -4  -4  -5  252.47    6.40
  -4  -4  -5  260.27    5.10
  -5  -4  -5  409.86    8.90
  -5  -4  -5  430.46    7.90
  -6  -4  -5  216.28    6.00
  -6  -4  -5  214.18    6.70
  -7  -4  -5    7.00    2.30
  -7  -4  -5    7.40    2.10
  -8  -4  -5   23.90    3.30
  -8  -4  -5   20.70    3.30
  -9  -4  -5    1.40    2.40
  -9  -4  -5    5.90    2.40
 -10  -4  -5    5.20    2.80
  -8   5   5   -0.80    2.60
  -7   5   5    4.30    2.90
  -6   5   5    3.80    2.80
   5  -5  -5    1.60    1.90
  -5   5   5   -0.70    2.00
   4  -5  -5   77.09    4.90
   3  -5  -5    3.90    1.40
   3  -5  -5    3.40    1.90
  -3   5   5    5.70    2.10
   2  -5  -5    1.00    1.50
   2  -5  -5    2.90    1.20
  -2   5   5   -0.40    1.40
   1  -5  -5   34.10    3.20
   1  -5  -5   32.40    2.50
  -1   5   5   33.90    2.20
   0  -5  -5   -2.60    1.40
   0  -5  -5   -1.50    1.00
   0   5   5    0.60    0.80
  -1  -5  -5   97.19    3.70
  -1  -5  -5   91.19    4.30
  -2  -5  -5    1.10    1.70
  -2  -5  -5    2.60    1.30
  -3  -5  -5  246.98    6.70
  -3  -5  -5  249.58    6.30
  -4  -5  -5   54.39    3.30
  -4  -5  -5   53.49    2.10
  -5  -5  -5  512.75    8.00
  -5  -5  -5  496.05   10.10
  -6  -5  -5   10.50    2.40
  -6  -5  -5   13.50    2.00
  -7  -5  -5    0.20    1.90
  -8  -5  -5   20.90    3.50
  -9  -5  -5   10.00    2.90
 -10  -5  -5    0.80    2.70
  -7   6   5   10.00    3.60
  -6   6   5    1.50    2.50
   5  -6  -5   33.00    3.80
  -5   6   5   26.30    3.90
   4  -6  -5    8.60    2.50
  -4   6   5    6.20    2.30
   3  -6  -5   21.50    3.10
   3  -6  -5   25.00    2.60
  -3   6   5   22.90    2.80
   2  -6  -5   41.80    3.80
   2  -6  -5   43.30    3.10
  -2   6   5   45.10    3.20
   1  -6  -5  110.59    4.50
   1  -6  -5  111.39    5.50
  -1   6   5  110.59    3.90
   0  -6  -5  252.67    6.60
   0  -6  -5  247.88    7.70
   0   6   5  258.47    4.60
  -1  -6  -5   35.80    2.90
  -1  -6  -5   36.20    3.50
  -2  -6  -5  144.59    5.60
  -2  -6  -5  143.29    5.00
  -3  -6  -5   47.40    4.00
  -3  -6  -5   44.00    3.30
  -4  -6  -5  142.29    5.30
  -5  -6  -5  177.28    6.30
  -6  -6  -5    2.80    1.90
  -7  -6  -5   21.10    3.20
  -8  -6  -5    0.90    2.30
  -9  -6  -5   -0.50    2.50
  -7   7   5   -0.60    2.60
  -6   7   5    0.30    2.50
   5  -7  -5    4.60    2.50
  -5   7   5   -1.40    2.30
   4  -7  -5   11.60    2.90
  -4   7   5   12.80    3.00
   3  -7  -5    4.20    2.40
   3  -7  -5   -1.40    1.50
  -3   7   5    2.80    2.00
   2  -7  -5   12.00    2.60
   2  -7  -5    8.50    2.10
  -2   7   5    6.40    2.00
   1  -7  -5  128.69    6.00
   1  -7  -5  138.99    5.60
  -1   7   5  141.79    4.60
   0  -7  -5   23.20    3.20
   0  -7  -5   23.20    2.90
   0   7   5   22.50    2.00
  -1  -7  -5  202.08    7.10
  -1  -7  -5  206.98    6.50
  -2  -7  -5   -1.70    2.20
  -2  -7  -5    0.50    1.40
  -3  -7  -5    5.20    2.00
  -4  -7  -5    7.90    2.20
  -5  -7  -5  131.19    5.90
  -6  -7  -5    2.80    2.10
  -7  -7  -5   10.90    2.80
  -8  -7  -5   -1.40    2.20
  -9  -7  -5    1.80    2.70
  -6   8   5   -0.90    2.60
  -5   8   5    7.40    3.20
   4  -8  -5    4.00    2.70
  -4   8   5    1.60    2.40
   3  -8  -5    6.70    2.80
   3  -8  -5    8.20    2.20
  -3   8   5   10.00    2.70
   2  -8  -5    1.80    1.70
   2  -8  -5   -1.40    2.30
  -2   8   5   -1.30    1.60
   1  -8  -5   -0.10    2.00
   1  -8  -5   -0.50    1.50
   0  -8  -5   42.80    4.20
   0  -8  -5   51.19    4.30
  -1  -8  -5    3.20    1.70
  -1  -8  -5    1.90    2.40
  -2  -8  -5    4.30    2.00
  -3  -8  -5   54.09    4.00
  -4  -8  -5  124.09    5.90
  -5  -8  -5    5.40    2.30
  -6  -8  -5   47.00    4.60
  -7  -8  -5    5.40    2.70
  -8  -8  -5    8.20    3.00
  -9  -8  -5    2.00    2.80
   4  -9  -5   -3.70    2.90
   3  -9  -5   -4.80    1.70
   3  -9  -5   -2.70    2.80
   2  -9  -5    0.90    2.00
   2  -9  -5    2.40    2.80
   1  -9  -5    0.10    1.80
   1  -9  -5   -2.50    2.50
   0  -9  -5   -0.80    2.90
   0  -9  -5    0.80    2.10
  -1  -9  -5    4.40    2.30
  -2  -9  -5    4.00    2.30
  -3  -9  -5    8.50    2.60
  -4  -9  -5   12.30    2.80
  -5  -9  -5    0.90    2.10
  -6  -9  -5    0.90    2.40
  -7  -9  -5    7.70    3.00
  -8  -9  -5    3.20    2.70
   3 -10  -5    1.30    2.40
   2 -10  -5   10.40    2.90
   1 -10  -5    2.40    2.20
   0 -10  -5   11.30    3.00
  -1 -10  -5    0.50    2.10
  -2 -10  -5    5.70    2.50
  -3 -10  -5    9.60    2.90
  -4 -10  -5   21.50    3.60
  -5 -10  -5    2.00    2.10
  -6 -10  -5   15.00    3.50
  -7 -10  -5    3.80    2.90
   2 -11  -5   -0.60    2.40
   1 -11  -5   12.20    3.30
   0 -11  -5   12.80    3.20
  -1 -11  -5   -1.60    2.00
  -2 -11  -5    5.30    2.90
  -3 -11  -5    5.30    2.70
  -4 -11  -5   -2.20    2.10
  -5 -11  -5    2.50    2.60
  -6 -11  -5   -2.10    2.40
   1 -12  -5   -1.10    2.50
   0 -12  -5   -0.20    2.40
  -1 -12  -5    7.10    3.20
  -2 -12  -5    0.70    2.70
  -3 -12  -5    1.50    2.70
  -4 -12  -5    1.70    2.80
  -5 -12  -5    3.40    2.90
  -3  -9   6   -3.20    2.40
  -3  -9   6   -1.50    3.30
  -2  -9   6   -2.90    2.80
  -2  -9   6   -1.30    3.20
  -1  -9   6   -2.10    3.30
   0  -9   6   -1.30    3.20
  -5  -8   6   -2.70    3.30
  -4  -8   6   11.80    3.30
  -4  -8   6   10.60    4.00
  -3  -8   6   -1.40    2.20
  -3  -8   6   -4.30    3.00
  -2  -8   6    1.20    3.10
  -2  -8   6   -3.00    2.10
  -1  -8   6   -2.70    2.90
  -1  -8   6    3.60    3.00
   0  -8   6    2.60    3.20
   1  -8   6    8.30    3.90
   2  -8   6   -2.30    2.80
   3  -8   6   -0.60    3.30
  -6  -7   6   -0.90    3.00
  -5  -7   6    3.90    3.10
  -4  -7   6   -0.10    2.90
  -4  -7   6    3.20    2.50
  -3  -7   6    4.90    2.40
  -3  -7   6    2.00    3.00
  -2  -7   6    0.00    2.90
  -2  -7   6    1.30    2.20
  -1  -7   6   -3.10    2.10
  -1  -7   6   -0.20    2.80
   0  -7   6   35.80    5.20
   1  -7   6   -3.90    2.70
   2  -7   6   28.10    5.10
   3  -7   6   -4.20    2.70
   4  -7   6   17.90    4.60
  -7  -6   6    0.70    2.90
  -6  -6   6    3.40    2.70
  -5  -6   6   -0.50    2.30
  -4  -6   6    9.90    3.30
  -4  -6   6   14.10    2.80
  -3  -6   6   -3.00    1.70
  -3  -6   6   -0.80    2.60
  -2  -6   6   -2.60    1.90
  -2  -6   6    1.30    2.70
  -1  -6   6    0.70    2.20
  -1  -6   6    0.70    2.80
   0  -6   6    0.30    2.80
   1  -6   6   -0.20    2.70
   2  -6   6    8.40    3.40
   3  -6   6   10.50    3.60
   4  -6   6    2.30    3.10
   5  -6   6    1.20    3.20
   6  -6   6    6.70    4.20
  -8  -5   6    3.60    2.80
  -7  -5   6   -3.00    2.10
  -6  -5   6    2.60    2.40
  -5  -5   6    1.00    2.30
  -4  -5   6    4.30    2.50
  -4  -5   6    4.10    2.00
  -3  -5   6   34.20    4.20
  -3  -5   6   35.00    3.50
  -2  -5   6   -0.10    2.20
  -2  -5   6    0.40    1.70
  -1  -5   6   29.10    4.20
  -1  -5   6   24.40    3.40
   0  -5   6   18.20    3.60
   1  -5   6    3.70    2.80
   2  -5   6    2.30    2.70
   3  -5   6   43.40    5.50
   4  -5   6    3.50    2.80
   5  -5   6   -0.90    2.60
  -6   5  -6   -3.10    2.00
   6  -5   6    1.90    3.50
   8   4  -6   -1.50    1.60
  -8  -4   6   -0.70    2.40
  -7  -4   6    2.10    2.40
  -6  -4   6   11.70    2.90
  -5  -4   6    1.90    2.20
  -4  -4   6    2.10    1.50
  -4  -4   6   -0.30    2.00
  -3  -4   6    9.80    2.70
  -3  -4   6    7.10    1.80
  -2  -4   6   38.40    3.40
  -2  -4   6   42.90    4.30
  -1  -4   6  144.89    5.80
  -1  -4   6  140.59    6.40
   0  -4   6    2.60    2.40
   1  -4   6   46.10    4.80
   2  -4   6   -1.40    2.20
   3  -4   6   76.59    5.60
   4  -4   6    1.50    2.60
   5  -4   6    2.20    3.00
  -6   4  -6   -0.90    2.00
   6  -4   6   -3.50    2.90
  -7   4  -6    5.80    2.80
   7  -4   6   11.50    4.40
  -9  -3   6    0.80    2.50
   8   3  -6    0.60    2.00
  -8  -3   6   -1.70    2.20
   7   3  -6   21.00    3.20
  -7  -3   6   15.70    3.10
  -6  -3   6    3.50    2.30
  -5  -3   6   11.10    2.70
  -4  -3   6   21.70    2.20
  -4  -3   6   17.80    2.90
  -3  -3   6    1.10    2.20
  -3  -3   6   -1.10    1.30
  -2  -3   6    7.40    1.90
  -2  -3   6    9.30    2.70
  -1  -3   6   65.89    4.30
   0  -3   6    2.20    2.50
   1  -3   6   44.80    4.60
   2  -3   6   68.89    5.10
   3  -3   6   18.80    3.60
   4  -3   6    9.90    3.20
  -5   3  -6   37.60    3.90
   5  -3   6   39.30    5.10
  -6   3  -6    2.60    1.90
   6  -3   6    0.80    2.90
  -7   3  -6    6.30    2.50
   7  -3   6    0.30    3.20
  -8   3  -6   -1.40    2.10
   8  -3   6    3.00    3.40
  -9  -2   6    1.50    2.70
   8   2  -6    3.60    2.10
  -8  -2   6    5.10    2.90
   7   2  -6    2.90    2.00
  -7  -2   6    0.70    2.40
   6   2  -6   28.90    3.40
  -6  -2   6   33.00    3.80
  -5  -2   6   55.29    3.90
  -4  -2   6    2.10    2.00
  -3  -2   6    5.50    1.40
  -3  -2   6    4.50    2.20
  -2  -2   6    3.40    2.20
  -1  -2   6   35.40    3.50
   0  -2   6    1.00    2.10
   1  -2   6   11.30    2.70
   2  -2   6   -0.20    2.20
   3  -2   6   21.90    3.60
   4  -2   6   56.59    4.80
  -5   2  -6   23.80    3.10
   5  -2   6   23.00    4.10
  -6   2  -6   -0.20    1.80
   6  -2   6    0.70    2.70
  -7   2  -6    1.10    1.90
   7  -2   6    1.10    2.90
  -8   2  -6    2.30    2.40
   8  -2   6   -0.20    2.90
  -9  -1   6    7.90    3.10
   8   1  -6   -2.60    1.90
  -8  -1   6    2.00    2.90
   7   1  -6   91.29    5.60
  -7  -1   6   82.99    5.40
   6   1  -6    2.60    1.90
  -6  -1   6    5.00    2.40
   5   1  -6    3.70    1.70
  -5  -1   6    5.50    2.30
   4   1  -6  109.29    4.90
  -4  -1   6   98.99    4.90
   3   1  -6    6.80    1.70
  -3  -1   6    4.20    2.10
  -2  -1   6   28.60    2.80
  -1  -1   6   16.60    2.40
   0  -1   6    0.00    1.70
   1  -1   6   -0.80    1.70
  -2   1  -6  322.77    6.10
   2  -1   6  308.77    8.30
  -3   1  -6    7.50    1.20
  -3   1  -6    6.70    1.70
   3  -1   6    7.60    2.40
  -4   1  -6  108.39    4.70
   4  -1   6  110.99    5.90
  -5   1  -6    5.80    1.90
   5  -1   6    8.00    2.90
  -6   1  -6   20.00    3.00
   6  -1   6   15.80    3.70
  -7   1  -6    8.50    2.50
   7  -1   6    9.10    3.60
  -8   1  -6    9.40    2.80
   8  -1   6    6.00    3.30
  -9   1  -6   -4.00    2.10
  -9   1  -6   -0.20    2.80
  -9   0   6    2.90    3.00
  -8   0   6   16.80    3.70
   7   0  -6    2.40    2.00
  -7   0   6    1.20    2.50
   6   0  -6    3.90    2.00
  -6   0   6    3.90    2.40
   5   0  -6   19.50    2.70
  -5   0   6   18.90    2.80
   4   0  -6    2.20    1.60
  -4   0   6    1.10    2.00
   3   0  -6    4.20    1.60
  -3   0   6    6.90    2.00
   2   0  -6   14.70    2.00
  -2   0   6   14.90    2.10
   1   0  -6    1.20    1.10
  -1   0   6   -0.20    1.40
   0   0  -6   29.80    2.40
   0   0   6   25.50    2.60
  -1   0  -6  207.38    4.90
  -1   0  -6  202.48    4.70
   1   0   6  200.58    5.80
  -2   0  -6   72.49    2.80
  -2   0  -6   70.29    3.10
   2   0   6   67.89    3.80
  -3   0  -6   71.39    3.50
  -3   0  -6   68.89    2.50
   3   0   6   71.29    4.20
  -4   0  -6   12.30    2.10
   4   0   6   19.60    3.00
  -5   0  -6    2.90    1.60
   5   0   6    4.00    2.40
  -6   0  -6   26.50    3.10
   6   0   6   31.50    4.40
  -7   0  -6    9.90    2.50
   7   0   6   10.10    3.30
  -8   0  -6    0.90    2.40
  -8   0  -6   -0.20    2.10
   8   0   6   -0.50    2.60
  -9   0  -6   -0.30    2.60
  -9   0  -6    1.90    2.40
  -9   1   6    3.50    3.00
  -8   1   6    3.70    3.00
   7  -1  -6   42.40    4.30
  -7   1   6   34.20    4.10
   6  -1  -6    5.40    2.30
  -6   1   6   10.30    2.70
   5  -1  -6    7.30    2.00
  -5   1   6    5.90    2.40
   4  -1  -6   46.10    3.70
  -4   1   6   49.80    3.70
   3  -1  -6  115.59    4.70
  -3   1   6  124.59    4.60
   2  -1  -6  160.68    5.30
  -2   1   6  164.68    4.70
   1  -1  -6   58.99    1.80
   1  -1  -6   59.09    3.20
  -1   1   6   53.39    2.90
   0  -1  -6    1.10    0.80
   0  -1  -6   -0.60    0.90
   0   1   6   -0.30    1.30
  -1  -1  -6  464.15    7.90
  -1  -1  -6  465.95    7.30
   1   1   6  460.15    8.20
  -2  -1  -6   96.89    3.20
  -2  -1  -6   93.69    3.30
   2   1   6   97.19    3.90
  -3  -1  -6  164.78    3.90
  -3  -1  -6  164.38    4.90
   3   1   6  168.58    5.50
  -4  -1  -6  276.77    6.70
  -4  -1  -6  281.17    4.40
   4   1   6  280.57    7.80
  -5  -1  -6    2.10    1.60
   5   1   6    4.20    2.40
  -6  -1  -6  192.68    6.50
   6   1   6  194.48    7.70
  -7  -1  -6   -1.60    1.70
   7   1   6    1.60    2.30
  -8  -1  -6    1.60    2.10
  -8  -1  -6    1.20    2.30
  -9  -1  -6    3.50    2.50
  -9  -1  -6    4.30    2.80
  -9   2   6    9.30    3.30
  -8   2   6   25.80    4.20
   7  -2  -6    1.20    2.10
  -7   2   6    1.60    2.20
   6  -2  -6   10.30    2.50
  -6   2   6   10.00    2.80
   5  -2  -6    7.30    2.00
  -5   2   6    4.80    2.30
   4  -2  -6   29.60    3.10
  -4   2   6   30.30    3.10
   3  -2  -6  112.99    4.90
  -3   2   6  120.39    4.40
   2  -2  -6   14.90    2.00
  -2   2   6    9.50    1.70
   1  -2  -6   43.40    1.60
   1  -2  -6   42.40    2.80
  -1   2   6   38.80    2.40
   0  -2  -6   50.19    2.90
   0  -2  -6   46.30    1.90
   0   2   6   45.60    2.60
  -1  -2  -6  493.15    8.50
  -1  -2  -6  506.85    7.50
   1   2   6  504.75    7.90
  -2  -2  -6  757.82   10.80
  -2  -2  -6  741.93   10.40
   2   2   6  731.73   10.90
  -3  -2  -6  770.52   11.30
  -3  -2  -6  771.22   10.50
   3   2   6  757.82   12.00
  -4  -2  -6  150.68    3.80
  -4  -2  -6  164.58    5.10
   4   2   6  157.38    5.50
  -5  -2  -6   58.69    3.70
   5   2   6   62.19    4.00
  -6  -2  -6    3.70    1.90
   6   2   6   10.50    2.60
  -7  -2  -6   -0.10    1.70
  -7  -2  -6    0.90    1.70
  -8  -2  -6   20.30    3.50
  -8  -2  -6   17.50    2.90
  -9  -2  -6   12.00    3.10
  -9  -2  -6   12.10    3.10
  -8   3   6    1.50    3.00
  -7   3   6    8.30    3.00
   6  -3  -6   12.50    2.70
  -6   3   6   11.90    2.90
   5  -3  -6    8.40    2.30
  -5   3   6    5.50    2.40
   4  -3  -6    7.10    2.10
  -4   3   6    7.70    2.20
   3  -3  -6    0.00    1.40
  -3   3   6   -2.00    1.50
   2  -3  -6   86.49    4.30
   2  -3  -6   83.89    2.30
  -2   3   6   93.79    3.50
   1  -3  -6   -0.20    1.20
   1  -3  -6    0.20    0.70
  -1   3   6   -0.90    1.00
   0  -3  -6   86.99    2.70
   0  -3  -6   82.99    3.80
   0   3   6   82.89    2.60
  -1  -3  -6  295.77    6.70
  -1  -3  -6  302.77    5.60
   1   3   6  298.47    5.00
  -2  -3  -6   71.19    3.30
  -2  -3  -6   75.99    3.10
   2   3   6   68.29    2.60
  -3  -3  -6   61.29    2.90
  -3  -3  -6   56.29    3.00
   3   3   6   48.20    2.60
  -4  -3  -6   -1.30    1.30
  -4  -3  -6   -1.80    1.20
   4   3   6    0.00    1.50
  -5  -3  -6   31.10    3.00
   5   3   6   37.30    3.30
  -6  -3  -6  128.39    5.30
  -6  -3  -6  127.69    5.30
  -7  -3  -6    8.20    2.50
  -7  -3  -6    4.80    2.20
  -8  -3  -6    5.20    2.40
  -8  -3  -6    0.00    2.10
  -9  -3  -6   -1.00    2.50
  -9  -3  -6    3.20    2.40
 -10  -3  -6   -1.60    2.50
  -8   4   6   21.20    4.20
  -7   4   6   15.50    3.50
   6  -4  -6    2.50    2.00
  -6   4   6    1.70    2.40
   5  -4  -6    2.10    1.90
  -5   4   6    2.40    2.10
   4  -4  -6   34.30    3.50
  -4   4   6   31.20    3.30
   3  -4  -6    2.30    1.00
   3  -4  -6    1.70    1.70
  -3   4   6    1.00    1.70
   2  -4  -6   48.20    3.50
   2  -4  -6   52.89    2.40
  -2   4   6   56.39    3.00
   1  -4  -6    0.70    0.90
   1  -4  -6    0.30    1.40
  -1   4   6   -0.10    1.00
   0  -4  -6   62.89    3.80
   0  -4  -6   63.99    2.70
   0   4   6   66.49    2.20
  -1  -4  -6 1206.58   16.90
  -1  -4  -6 1212.08   14.80
   1   4   6 1193.28   12.80
  -2  -4  -6   28.20    2.70
  -2  -4  -6   26.20    2.20
  -3  -4  -6   50.39    2.00
  -3  -4  -6   49.90    3.40
  -3  -4  -6   52.49    3.00
  -4  -4  -6  178.78    5.70
  -4  -4  -6  167.38    5.20
  -4  -4  -6  175.68    4.30
  -5  -4  -6  958.90   15.20
  -5  -4  -6 1003.00   14.00
  -6  -4  -6   80.19    4.10
  -6  -4  -6   68.69    4.50
  -7  -4  -6   -0.70    1.90
  -7  -4  -6    0.70    1.70
  -8  -4  -6   15.70    3.20
  -8  -4  -6   19.70    3.10
  -9  -4  -6   21.40    3.60
 -10  -4  -6    1.20    2.80
  -8   5   6    3.80    2.90
  -7   5   6    3.90    2.80
   6  -5  -6    9.50    2.70
  -6   5   6   10.20    3.00
   5  -5  -6   27.60    3.50
  -5   5   6   23.50    3.40
   4  -5  -6   20.50    3.00
  -4   5   6   18.90    2.90
   3  -5  -6   -1.00    1.00
   3  -5  -6    0.00    1.70
  -3   5   6    1.60    1.60
   2  -5  -6   -0.30    1.60
   2  -5  -6    0.50    1.10
  -2   5   6   -0.50    1.30
   1  -5  -6   10.40    1.70
   1  -5  -6    8.90    2.10
  -1   5   6   11.30    1.50
   0  -5  -6  134.59    4.20
   0  -5  -6  122.29    5.20
   0   5   6  132.79    2.80
  -1  -5  -6  141.19    5.30
  -1  -5  -6  155.18    4.60
  -2  -5  -6   66.49    3.40
  -2  -5  -6   64.09    3.80
  -3  -5  -6   82.59    3.80
  -3  -5  -6   88.99    4.40
  -4  -5  -6  328.37    7.80
  -4  -5  -6  332.77    7.90
  -5  -5  -6  291.57    7.80
  -6  -5  -6   66.89    4.30
  -7  -5  -6   76.79    4.90
  -8  -5  -6    5.70    2.60
  -9  -5  -6   10.30    3.10
 -10  -5  -6   -4.80    2.30
  -7   6   6    7.80    3.20
  -6   6   6    1.20    2.40
   5  -6  -6    7.80    2.50
  -5   6   6    7.90    2.70
   4  -6  -6   39.60    4.10
  -4   6   6   31.00    3.50
   3  -6  -6    2.10    1.40
   3  -6  -6   -0.30    1.70
  -3   6   6    1.30    1.70
   2  -6  -6    0.90    2.00
   2  -6  -6    2.30    1.40
  -2   6   6    1.70    1.50
   1  -6  -6   27.30    2.70
   1  -6  -6   25.80    3.20
  -1   6   6   29.20    2.40
   0  -6  -6    4.80    1.60
   0  -6  -6    3.00    1.90
   0   6   6    4.50    1.00
  -1  -6  -6  225.18    6.10
  -1  -6  -6  231.28    7.30
  -2  -6  -6    0.60    1.40
  -2  -6  -6    0.50    2.00
  -3  -6  -6    0.50    2.00
  -3  -6  -6    1.10    1.50
  -4  -6  -6  128.09    5.30
  -5  -6  -6  157.88    6.10
  -6  -6  -6    4.60    2.10
  -7  -6  -6   15.10    3.00
  -8  -6  -6   12.80    3.00
  -9  -6  -6    2.40    2.50
  -7   7   6    4.50    3.00
  -6   7   6    0.70    2.30
   5  -7  -6   -0.40    2.10
  -5   7   6    2.30    2.50
   4  -7  -6    0.80    2.20
  -4   7   6    2.10    2.20
   3  -7  -6   -1.30    2.00
   3  -7  -6    1.50    1.60
  -3   7   6   -2.10    1.60
   2  -7  -6    4.80    2.40
   2  -7  -6   -1.50    1.30
  -2   7   6   -0.30    1.50
   1  -7  -6    3.90    2.20
   1  -7  -6    6.50    2.00
  -1   7   6    3.90    1.50
   0  -7  -6  288.97    7.60
   0  -7  -6  293.97    8.90
  -1  -7  -6   29.50    3.50
  -1  -7  -6   31.00    3.20
  -2  -7  -6   45.00    4.10
  -2  -7  -6   47.60    3.40
  -3  -7  -6   80.59    4.30
  -3  -7  -6   83.89    5.00
  -4  -7  -6   89.49    4.80
  -5  -7  -6   25.80    3.30
  -6  -7  -6   -1.10    1.80
  -7  -7  -6    1.80    2.20
  -8  -7  -6    5.60    2.60
  -9  -7  -6    3.10    2.90
  -6   8   6    2.70    2.80
   5  -8  -6   11.90    3.40
  -5   8   6   12.30    3.20
   4  -8  -6   -2.70    2.30
  -4   8   6   -0.30    2.20
   3  -8  -6   11.30    3.10
   2  -8  -6    1.00    1.70
   2  -8  -6   -2.60    2.10
   1  -8  -6    9.40    2.90
   1  -8  -6   11.00    2.50
   0  -8  -6   27.70    3.20
   0  -8  -6   17.90    3.40
  -1  -8  -6   88.19    5.70
  -1  -8  -6   83.99    4.80
  -2  -8  -6   60.29    4.70
  -2  -8  -6   52.99    3.90
  -3  -8  -6    1.60    1.90
  -4  -8  -6  195.58    7.30
  -5  -8  -6    6.90    2.40
  -6  -8  -6    0.00    2.20
  -7  -8  -6   -0.20    2.30
  -8  -8  -6    2.10    2.70
  -9  -8  -6   -3.20    2.50
   4  -9  -6    4.90    3.00
   3  -9  -6   -1.90    2.60
   2  -9  -6    1.40    2.40
   2  -9  -6    2.00    2.10
   1  -9  -6    2.10    2.70
   1  -9  -6   -0.70    1.70
   0  -9  -6   11.40    3.10
   0  -9  -6    7.90    2.40
  -1  -9  -6   -1.90    1.70
  -1  -9  -6   -2.30    2.50
  -2  -9  -6    4.20    2.20
  -3  -9  -6   25.70    3.40
  -4  -9  -6    2.80    2.10
  -5  -9  -6   -1.30    2.00
  -6  -9  -6    1.30    2.20
  -7  -9  -6    0.50    2.50
  -8  -9  -6    0.10    2.60
   4 -10  -6   -8.10    2.90
   3 -10  -6   -0.30    3.20
   2 -10  -6   -3.90    3.10
   2 -10  -6    1.70    2.20
   1 -10  -6    3.50    3.30
   1 -10  -6    9.50    2.60
   0 -10  -6    4.20    2.30
  -1 -10  -6   -0.20    2.10
  -2 -10  -6    5.10    2.50
  -3 -10  -6    1.80    2.20
  -4 -10  -6    0.60    1.80
  -5 -10  -6    2.20    2.40
  -6 -10  -6    8.50    3.10
  -7 -10  -6    2.50    2.80
   2 -11  -6    1.80    2.40
   1 -11  -6    5.60    2.60
   0 -11  -6    0.80    2.40
  -1 -11  -6    1.50    2.30
  -2 -11  -6   10.80    3.20
  -3 -11  -6    0.50    2.30
  -4 -11  -6    1.50    2.50
  -5 -11  -6   15.20    3.60
  -6 -11  -6    3.70    2.70
   1 -12  -6   -0.80    2.30
   0 -12  -6    0.00    2.40
  -1 -12  -6    5.80    2.80
  -2 -12  -6    2.20    2.70
  -3 -12  -6    0.00    2.40
  -4 -12  -6    2.10    2.60
  -5 -12  -6    4.70    2.80
  -4  -8   7   -4.50    2.90
  -3  -8   7   -4.20    3.40
  -3  -8   7    0.70    2.80
  -2  -8   7   -2.70    3.10
  -1  -8   7   -1.00    3.30
   0  -8   7   -3.70    3.00
   1  -8   7   -1.20    3.50
   2  -8   7   -1.30    3.20
  -6  -7   7    9.20    3.90
  -5  -7   7    2.00    3.50
  -4  -7   7    3.40    3.40
  -3  -7   7   -2.70    2.90
  -3  -7   7    0.00    2.40
  -2  -7   7    3.40    2.50
  -2  -7   7    0.00    3.10
  -1  -7   7    3.70    3.40
   0  -7   7    0.90    3.30
   1  -7   7   -0.20    3.20
   2  -7   7   -4.10    2.80
   3  -7   7    4.80    3.80
   4  -7   7    6.30    4.00
  -7  -6   7   -0.80    2.80
  -6  -6   7   -3.70    2.50
  -5  -6   7    7.80    3.50
  -4  -6   7    4.90    3.20
  -3  -6   7   -0.40    2.00
  -3  -6   7    1.70    2.70
  -2  -6   7    1.40    2.10
  -2  -6   7   -0.60    2.70
  -1  -6   7   26.10    4.70
   0  -6   7   -5.50    2.60
   1  -6   7    5.70    3.50
   2  -6   7   -0.90    3.00
   3  -6   7   21.80    4.80
   4  -6   7    0.90    3.40
   5  -6   7   21.20    5.10
  -7  -5   7   -1.90    2.60
  -6  -5   7    4.50    2.80
  -5  -5   7   -1.60    2.30
  -4  -5   7   -0.90    2.50
  -3  -5   7    4.40    2.80
  -3  -5   7    3.00    1.90
  -2  -5   7    7.60    2.40
  -2  -5   7    4.60    3.00
  -1  -5   7    1.10    2.80
   0  -5   7   27.00    4.40
   1  -5   7   11.40    3.50
   2  -5   7    7.20    3.30
   3  -5   7   -2.50    2.40
   4  -5   7   13.00    4.00
   5  -5   7    3.70    3.40
  -6   5  -7    0.50    2.60
   6  -5   7    3.10    3.60
   8   4  -7    0.30    2.00
  -8  -4   7    1.50    2.60
   7   4  -7    2.00    2.10
  -7  -4   7    1.00    2.60
  -6  -4   7    0.90    2.40
  -5  -4   7    3.40    2.30
  -4  -4   7    1.60    2.40
  -3  -4   7    3.50    2.30
  -3  -4   7    2.80    1.80
  -2  -4   7    0.30    2.40
  -1  -4   7   19.30    3.60
   0  -4   7   15.60    3.30
   1  -4   7   10.80    3.10
   2  -4   7   36.60    4.80
   3  -4   7   54.19    5.90
   4  -4   7    2.40    2.70
   5  -4   7    2.20    3.20
  -6   4  -7   -0.20    2.10
   6  -4   7    1.20    3.30
  -7   4  -7   -0.80    2.20
   7  -4   7   -2.50    3.10
   8   3  -7    0.00    1.80
  -8  -3   7    2.80    2.60
   7   3  -7    3.10    2.20
  -7  -3   7    4.70    2.60
   6   3  -7   -2.60    1.50
  -6  -3   7    3.60    2.40
  -5  -3   7   11.60    2.90
  -4  -3   7   29.40    3.60
  -3  -3   7    0.60    2.10
  -3  -3   7   -3.00    1.40
  -2  -3   7   23.50    3.50
  -1  -3   7   11.00    3.20
   0  -3   7   23.60    3.70
   1  -3   7   43.30    4.60
   2  -3   7  124.59    6.70
   3  -3   7   13.80    3.50
   4  -3   7   71.49    5.90
  -5   3  -7    7.00    2.40
   5  -3   7    5.10    2.90
  -6   3  -7    1.30    2.10
   6  -3   7    0.90    3.00
  -7   3  -7    6.00    2.60
   7  -3   7    0.10    3.30
   8   2  -7    0.00    1.90
  -8  -2   7    1.10    2.40
   7   2  -7   -1.80    1.60
  -7  -2   7    0.20    2.30
   6   2  -7   28.30    3.50
  -6  -2   7   17.30    3.10
   5   2  -7   11.90    2.50
  -5  -2   7   15.30    3.00
  -4  -2   7    0.80    2.10
  -3  -2   7    9.00    2.40
  -2  -2   7    2.10    2.20
  -1  -2   7    0.90    2.20
   0  -2   7   10.90    2.90
   1  -2   7    1.70    2.30
   2  -2   7  114.89    6.10
   3  -2   7   74.79    5.10
  -4   2  -7   11.30    2.40
   4  -2   7    8.00    3.10
  -5   2  -7    6.50    2.20
   5  -2   7    3.50    2.80
  -6   2  -7    7.60    2.50
   6  -2   7    2.50    3.00
  -7   2  -7    5.30    2.30
   7  -2   7    0.80    3.00
  -8   2  -7    2.00    2.30
   8  -2   7   -0.50    2.80
   8   1  -7   -1.20    2.20
  -8  -1   7    2.60    2.60
   7   1  -7    8.50    2.60
  -7  -1   7    5.10    2.80
   6   1  -7    2.90    1.90
  -6  -1   7   -1.80    2.00
   5   1  -7   -0.40    1.50
  -5  -1   7    4.30    2.30
   4   1  -7   -0.60    1.20
  -4  -1   7    0.80    1.90
   3   1  -7   29.90    3.10
  -3  -1   7   26.30    3.20
   2   1  -7    2.50    1.40
  -2  -1   7    0.30    1.90
   1   1  -7    5.00    1.50
  -1  -1   7    5.20    2.30
   0   1  -7   25.70    2.40
   0  -1   7   24.00    3.20
  -1   1  -7   87.79    3.70
   1  -1   7   84.59    4.80
  -2   1  -7   35.70    2.70
   2  -1   7   44.40    4.30
  -3   1  -7    4.20    1.30
  -3   1  -7    2.20    1.50
   3  -1   7    5.70    2.50
  -4   1  -7    0.60    1.40
   4  -1   7   -0.20    2.20
  -5   1  -7    3.20    1.90
   5  -1   7   -2.30    1.80
  -6   1  -7    7.30    2.30
   6  -1   7    3.20    2.90
  -7   1  -7    2.80    2.20
   7  -1   7    2.50    2.90
  -8   1  -7    1.10    2.20
   8  -1   7   -0.80    2.90
  -9   0   7    8.40    3.20
   8   0  -7   -0.30    2.30
  -8   0   7    0.80    2.90
   7   0  -7    3.90    2.20
  -7   0   7    1.50    2.80
   6   0  -7   -1.70    1.60
  -6   0   7   -0.70    2.10
   5   0  -7   -0.90    1.50
  -5   0   7    0.40    2.10
   4   0  -7    7.30    2.00
  -4   0   7    8.70    2.50
   3   0  -7   -1.40    1.20
  -3   0   7    3.50    2.10
   2   0  -7   31.10    3.00
   2   0  -7   28.50    1.70
  -2   0   7   29.00    2.80
   1   0  -7   58.49    3.50
  -1   0   7   52.59    3.70
   0   0  -7   13.50    1.50
   0   0  -7   13.50    1.80
   0   0   7   13.60    2.40
  -1   0  -7   11.00    1.60
  -1   0  -7    8.70    1.50
   1   0   7   10.50    2.40
  -2   0  -7   14.80    1.80
  -2   0  -7   12.40    1.90
   2   0   7   16.70    2.80
  -3   0  -7    1.20    1.50
  -3   0  -7    1.30    1.00
   3   0   7    1.70    2.00
  -4   0  -7    8.80    2.00
   4   0   7    7.10    2.50
  -5   0  -7    2.90    1.70
   5   0   7   -2.20    1.90
  -6   0  -7   35.30    3.60
   6   0   7   38.90    4.80
  -7   0  -7    3.60    2.20
   7   0   7   -0.50    2.50
  -8   0  -7    6.10    2.60
   8   0   7    1.90    2.70
  -9   0  -7    2.40    2.70
  -9   0  -7    0.80    2.40
  -8   1   7    3.90    3.00
   7  -1  -7   21.70    3.40
  -7   1   7   18.60    3.60
   6  -1  -7   -1.30    1.60
  -6   1   7   -0.50    2.20
   5  -1  -7   -0.20    1.60
  -5   1   7    1.10    2.10
   4  -1  -7   27.80    3.20
  -4   1   7   23.40    3.10
   3  -1  -7  118.09    5.20
  -3   1   7  113.09    4.70
   2  -1  -7   21.20    1.20
   2  -1  -7   21.60    2.50
  -2   1   7   22.90    2.50
   1  -1  -7   18.80    1.40
   1  -1  -7   20.10    2.40
  -1   1   7   21.40    2.50
   0  -1  -7   23.30    1.80
   0  -1  -7   20.80    2.30
   0   1   7   22.90    2.50
  -1  -1  -7   50.19    2.60
  -1  -1  -7   52.19    3.00
   1   1   7   49.30    3.20
  -2  -1  -7    5.90    1.30
  -2  -1  -7    7.30    1.50
   2   1   7    6.60    2.10
  -3  -1  -7    6.60    1.30
  -3  -1  -7    6.60    1.70
   3   1   7    5.70    2.20
  -4  -1  -7   22.30    2.60
   4   1   7   16.60    2.80
  -5  -1  -7   63.29    3.80
   5   1   7   59.49    4.70
  -6  -1  -7   10.90    2.40
   6   1   7    8.40    2.90
  -7  -1  -7    3.90    2.10
   7   1   7    6.80    2.90
  -8  -1  -7   -3.90    1.80
  -8  -1  -7    0.00    2.10
   8   1   7   -0.90    2.60
  -9  -1  -7    7.80    3.00
  -9  -1  -7    1.60    2.50
  -8   2   7   21.00    4.00
   7  -2  -7    0.40    2.00
  -7   2   7    1.30    2.50
   6  -2  -7    1.80    2.00
  -6   2   7    2.50    2.40
   5  -2  -7    0.00    1.60
  -5   2   7   -0.10    1.80
   4  -2  -7   98.49    5.20
  -4   2   7   97.09    4.60
   3  -2  -7   10.10    2.00
  -3   2   7    9.40    2.20
   2  -2  -7    3.90    1.50
  -2   2   7    2.10    1.70
   1  -2  -7    4.50    0.90
   1  -2  -7    4.50    1.50
  -1   2   7    3.80    1.60
   0  -2  -7   28.30    1.90
   0  -2  -7   27.70    2.50
   0   2   7   30.20    2.50
  -1  -2  -7   10.50    1.70
  -1  -2  -7   12.20    1.50
   1   2   7   14.20    2.00
  -2  -2  -7   73.49    3.20
  -2  -2  -7   77.19    3.50
   2   2   7   76.19    3.50
  -3  -2  -7    2.30    1.20
  -3  -2  -7    0.80    1.40
   3   2   7    3.00    1.70
  -4  -2  -7    1.50    1.10
  -4  -2  -7    1.50    1.60
   4   2   7   -0.20    1.60
  -5  -2  -7   11.20    2.20
   5   2   7    7.50    2.30
  -6  -2  -7   13.50    2.50
   6   2   7   11.50    2.80
  -7  -2  -7   -1.20    1.80
  -7  -2  -7    0.40    2.10
   7   2   7    4.30    2.60
  -8  -2  -7   -0.30    2.00
  -8  -2  -7    1.80    2.30
  -9  -2  -7    7.60    2.60
  -9  -2  -7    2.00    2.70
  -8   3   7    7.20    3.00
   7  -3  -7   27.70    3.90
  -7   3   7   17.40    3.60
   6  -3  -7    2.00    2.00
  -6   3   7    0.60    2.30
   5  -3  -7   22.60    3.30
  -5   3   7   21.10    3.10
   4  -3  -7    0.50    1.70
  -4   3   7    2.40    1.90
   3  -3  -7   30.70    3.20
  -3   3   7   27.00    2.80
   2  -3  -7   35.40    1.60
   2  -3  -7   32.60    3.10
  -2   3   7   29.30    2.60
   1  -3  -7  161.98    5.70
   1  -3  -7  164.08    3.50
  -1   3   7  160.88    4.30
   0  -3  -7  391.96    8.40
   0  -3  -7  402.96    6.40
   0   3   7  410.76    6.80
  -1  -3  -7   92.49    4.10
  -1  -3  -7   93.69    3.20
   1   3   7   89.49    3.10
  -2  -3  -7   83.19    3.30
  -2  -3  -7   82.39    3.70
   2   3   7   83.09    3.20
  -3  -3  -7    6.60    1.70
  -3  -3  -7    8.00    1.70
   3   3   7    6.60    1.60
  -4  -3  -7   18.60    2.50
  -4  -3  -7   21.60    2.20
   4   3   7   22.80    2.70
  -5  -3  -7   -2.70    1.40
   5   3   7   -0.40    1.60
  -6  -3  -7    3.20    1.80
  -6  -3  -7    3.40    1.80
   6   3   7    3.10    2.20
  -7  -3  -7    9.00    2.40
  -7  -3  -7    7.80    2.30
  -8  -3  -7    8.30    2.70
  -8  -3  -7    9.30    2.80
  -9  -3  -7    3.70    2.50
  -8   4   7   12.30    3.50
  -7   4   7   13.20    3.40
   6  -4  -7    5.00    2.40
  -6   4   7    5.50    2.50
   5  -4  -7   11.30    2.80
  -5   4   7    9.00    2.60
   4  -4  -7   99.19    5.40
  -4   4   7   88.69    4.50
   3  -4  -7   17.50    2.70
  -3   4   7   10.20    2.10
   2  -4  -7  128.59    5.60
   2  -4  -7  135.89    3.40
  -2   4   7  127.29    4.10
   1  -4  -7  238.08    4.90
   1  -4  -7  231.88    7.10
  -1   4   7  226.88    5.00
   0  -4  -7   10.40    2.10
   0  -4  -7   12.10    1.50
   0   4   7   12.30    1.50
  -1  -4  -7  265.07    5.60
  -1  -4  -7  250.97    6.90
   1   4   7  256.57    4.50
  -2  -4  -7   25.50    2.30
  -2  -4  -7   25.00    2.60
   2   4   7   24.60    1.60
  -3  -4  -7   50.69    3.30
  -3  -4  -7   56.89    3.40
   3   4   7   57.39    2.40
  -4  -4  -7   -0.40    1.50
  -4  -4  -7   -1.90    1.20
   4   4   7   -1.00    1.20
  -5  -4  -7    1.70    1.70
  -5  -4  -7   -0.20    1.60
  -6  -4  -7    5.20    1.90
  -6  -4  -7    8.10    2.20
  -7  -4  -7   24.00    3.40
  -8  -4  -7    5.40    2.60
  -9  -4  -7    4.40    2.80
  -8   5   7    5.50    2.90
  -7   5   7   10.70    3.20
   6  -5  -7   11.50    2.90
  -6   5   7   18.20    3.30
   5  -5  -7   50.99    4.70
  -5   5   7   50.19    4.10
   4  -5  -7    2.00    2.00
  -4   5   7   -0.50    1.90
   3  -5  -7    0.30    1.60
  -3   5   7    4.00    1.70
   2  -5  -7   -0.90    1.70
   2  -5  -7    0.60    1.20
  -2   5   7    1.10    1.50
   1  -5  -7   83.79    3.40
   1  -5  -7   80.29    4.60
  -1   5   7   78.89    3.00
   0  -5  -7  117.09    5.40
   0  -5  -7  119.49    4.10
   0   5   7  115.09    2.90
  -1  -5  -7    7.40    1.60
  -1  -5  -7    9.50    2.20
  -2  -5  -7    8.90    2.20
  -2  -5  -7    6.00    1.70
  -3  -5  -7   90.99    4.10
  -3  -5  -7   97.49    4.70
  -4  -5  -7    5.10    1.90
  -4  -5  -7    5.90    2.00
  -5  -5  -7   25.60    3.00
  -6  -5  -7   -0.10    1.50
  -7  -5  -7    2.20    1.90
  -8  -5  -7    0.80    2.20
  -9  -5  -7   -3.10    2.20
  -7   6   7    4.30    2.70
   6  -6  -7   -0.30    2.10
  -6   6   7    4.80    2.60
   5  -6  -7    4.40    2.40
  -5   6   7   -1.40    2.20
   4  -6  -7   24.80    3.60
  -4   6   7   28.70    3.40
   3  -6  -7    3.10    2.20
  -3   6   7    1.20    1.60
   2  -6  -7   19.30    2.20
   2  -6  -7   21.30    3.20
  -2   6   7   20.20    2.30
   1  -6  -7   22.00    3.30
   1  -6  -7   26.30    2.60
  -1   6   7   22.40    2.00
   0  -6  -7    8.80    2.30
   0  -6  -7    8.50    1.90
  -1  -6  -7   13.90    2.70
  -1  -6  -7   12.80    2.10
  -2  -6  -7  192.48    5.80
  -2  -6  -7  182.88    6.80
  -3  -6  -7   27.60    2.80
  -3  -6  -7   30.70    3.40
  -4  -6  -7  125.49    5.10
  -4  -6  -7  126.89    5.50
  -5  -6  -7    0.10    1.70
  -6  -6  -7   11.00    2.60
  -7  -6  -7    5.90    2.50
  -8  -6  -7    0.10    2.30
  -9  -6  -7    8.50    3.10
  -6   7   7    2.70    2.50
   5  -7  -7    4.80    2.60
  -5   7   7    7.70    2.70
   4  -7  -7    1.00    2.20
  -4   7   7    1.30    2.00
   3  -7  -7   10.00    2.90
  -3   7   7    5.70    2.00
   2  -7  -7    8.20    1.90
   2  -7  -7    5.80    2.30
  -2   7   7    4.20    1.70
   1  -7  -7   -0.30    1.50
   1  -7  -7    2.50    2.10
   0  -7  -7   21.30    3.20
   0  -7  -7   16.70    2.50
  -1  -7  -7   10.30    2.20
  -1  -7  -7    8.00    2.60
  -2  -7  -7    2.40    2.30
  -2  -7  -7    5.50    1.90
  -3  -7  -7  114.49    5.00
  -3  -7  -7  108.19    5.60
  -4  -7  -7   -0.50    1.60
  -5  -7  -7    6.80    2.20
  -6  -7  -7   16.90    2.90
  -7  -7  -7    2.70    2.40
  -8  -7  -7    3.50    2.70
  -9  -7  -7   -0.30    2.60
   5  -8  -7   -0.50    2.60
   4  -8  -7    0.00    2.40
   3  -8  -7    4.10    2.50
   2  -8  -7    8.80    2.30
   2  -8  -7    8.20    2.70
   1  -8  -7    2.40    1.90
   1  -8  -7   -0.60    2.00
   0  -8  -7    3.50    1.80
   0  -8  -7    4.00    2.40
  -1  -8  -7   27.10    3.20
  -2  -8  -7   42.90    4.40
  -2  -8  -7   38.00    3.60
  -3  -8  -7    1.90    1.90
  -3  -8  -7   -1.50    2.40
  -4  -8  -7   32.20    3.60
  -5  -8  -7    3.30    2.20
  -6  -8  -7   -1.30    1.90
  -7  -8  -7   -1.10    2.10
  -8  -8  -7   -1.20    2.30
  -9  -8  -7   -0.20    2.40
   4  -9  -7    3.80    3.00
   3  -9  -7    4.40    3.00
   2  -9  -7    5.60    2.90
   2  -9  -7    3.10    2.00
   1  -9  -7    3.90    2.80
   1  -9  -7    9.90    2.50
   0  -9  -7    1.30    2.70
   0  -9  -7    2.10    1.90
  -1  -9  -7   14.10    3.60
  -1  -9  -7   13.30    2.70
  -2  -9  -7   16.30    2.90
  -2  -9  -7   23.10    3.80
  -3  -9  -7   18.40    3.20
  -4  -9  -7    2.50    2.10
  -5  -9  -7    6.60    2.40
  -6  -9  -7    0.50    2.20
  -7  -9  -7   -0.30    2.30
  -8  -9  -7    2.90    2.80
   4 -10  -7    0.30    3.20
   3 -10  -7    0.90    3.00
   2 -10  -7   -0.90    2.90
   1 -10  -7   -1.40    1.90
   1 -10  -7    1.30    2.70
   0 -10  -7    8.20    2.80
   0 -10  -7    3.30    3.30
  -1 -10  -7    7.20    2.70
  -1 -10  -7    4.20    3.50
  -2 -10  -7    2.90    2.20
  -3 -10  -7    5.10    2.50
  -4 -10  -7   -1.80    2.00
  -5 -10  -7   -0.90    1.90
  -6 -10  -7   -0.50    2.40
  -7 -10  -7   -1.30    2.30
   3 -11  -7  -11.40    3.30
   2 -11  -7   -5.40    3.20
   1 -11  -7   -1.50    2.10
   0 -11  -7    1.20    2.20
  -1 -11  -7    0.60    2.30
  -2 -11  -7    7.20    3.00
  -3 -11  -7   -0.60    2.30
  -4 -11  -7    0.60    2.50
  -5 -11  -7   -0.80    2.40
  -6 -11  -7   -1.60    2.30
   1 -12  -7    2.90    2.50
   0 -12  -7   -1.20    2.20
  -1 -12  -7    2.50    2.50
  -2 -12  -7    3.30    3.00
  -3 -12  -7   -0.60    2.40
  -4 -12  -7    1.20    2.70
  -5 -12  -7   -0.10    2.50
  -2  -8   8    0.30    3.60
  -1  -8   8   -0.20    3.60
   0  -8   8    6.60    4.10
  -5  -7   8    0.80    3.50
  -4  -7   8    1.50    3.80
  -3  -7   8   -4.30    3.00
  -2  -7   8   -0.70    3.40
  -1  -7   8    0.10    3.40
   0  -7   8    1.30    3.30
   1  -7   8    0.80    3.50
   2  -7   8   -4.30    3.10
   3  -7   8   -3.20    3.10
  -6  -6   8   -2.20    3.10
  -5  -6   8   22.50    4.70
  -4  -6   8    6.60    3.50
  -3  -6   8    8.30    3.70
  -2  -6   8    2.40    3.20
  -1  -6   8   -0.20    3.10
   0  -6   8    3.50    3.50
   1  -6   8    2.30    3.10
   2  -6   8    2.50    3.30
   3  -6   8   -2.70    3.10
   4  -6   8    2.90    3.70
   7   5  -8    0.10    1.90
  -7  -5   8   -0.90    2.70
  -6  -5   8    8.70    3.30
  -5  -5   8   14.50    3.50
  -4  -5   8   -2.30    2.40
  -3  -5   8    5.30    3.00
  -2  -5   8    0.40    2.90
  -1  -5   8   12.90    3.80
   0  -5   8   11.20    3.60
   1  -5   8   -0.80    3.00
   2  -5   8    3.20    3.20
   3  -5   8    1.90    3.20
   4  -5   8    5.70    3.60
   5  -5   8    0.00    3.00
   7   4  -8    1.70    2.20
  -7  -4   8   -0.20    2.60
  -6  -4   8   11.80    3.30
  -5  -4   8   -0.70    2.40
  -4  -4   8   -1.80    2.20
  -3  -4   8    3.80    2.60
  -2  -4   8   13.90    3.50
  -1  -4   8   13.10    3.40
   0  -4   8    1.00    2.90
   1  -4   8    4.70    3.10
   2  -4   8   22.50    4.40
   3  -4   8   12.70    3.70
   4  -4   8    2.60    3.10
  -5   4  -8    4.30    2.20
   5  -4   8   -0.60    2.80
  -6   4  -8    2.00    2.20
   6  -4   8   -3.50    2.90
   8   3  -8    2.10    2.30
  -8  -3   8    3.60    2.70
   7   3  -8    5.00    2.40
  -7  -3   8    4.00    2.60
   6   3  -8    8.10    2.50
  -6  -3   8   16.90    3.40
   5   3  -8    1.00    1.90
  -5  -3   8   -0.10    2.40
  -4  -3   8    0.60    2.20
  -3  -3   8   32.10    3.90
  -2  -3   8    1.60    2.40
  -1  -3   8    0.50    2.20
   0  -3   8   39.90    4.60
   1  -3   8   45.90    5.10
   2  -3   8   23.00    4.20
   3  -3   8    3.70    2.80
   4  -3   8   32.30    4.80
  -5   3  -8    3.00    2.30
   5  -3   8    5.80    3.20
  -6   3  -8    0.00    2.20
   6  -3   8    0.00    3.10
  -7   3  -8    0.30    2.30
   7  -3   8    2.00    3.40
   8   2  -8   -0.50    2.40
  -8  -2   8    1.40    2.60
   7   2  -8   -0.40    1.80
  -7  -2   8    3.00    2.50
   6   2  -8   16.50    3.10
  -6  -2   8   20.60    3.40
   5   2  -8    2.20    1.80
  -5  -2   8    3.00    2.50
   4   2  -8    9.80    2.30
  -4  -2   8    9.50    2.50
  -3  -2   8    0.40    2.10
  -2  -2   8    4.30    2.50
  -1  -2   8  112.89    5.80
   0  -2   8   27.20    4.00
   1  -2   8    7.90    3.00
  -2   2  -8   83.69    4.20
   2  -2   8   81.09    5.40
   3  -2   8   43.00    5.10
  -4   2  -8    8.20    2.20
   4  -2   8    4.70    2.90
  -5   2  -8    1.30    1.90
   5  -2   8    1.60    2.70
  -6   2  -8    0.80    2.10
   6  -2   8    1.60    2.90
  -7   2  -8   -2.60    1.90
   7  -2   8   -3.50    2.60
  -8   2  -8    1.00    2.40
   8  -2   8    0.90    3.20
   8   1  -8    5.10    3.00
  -8  -1   8    2.20    2.60
   7   1  -8   11.90    3.10
  -7  -1   8   11.80    3.20
   6   1  -8   -1.90    1.50
  -6  -1   8   -0.50    2.00
   5   1  -8    3.00    1.90
  -5  -1   8    4.20    2.50
   4   1  -8   -1.40    1.40
  -4  -1   8    1.40    2.20
   3   1  -8    1.60    1.70
  -3  -1   8   -1.60    1.70
   2   1  -8   21.70    2.60
  -2  -1   8   24.70    3.40
   1   1  -8   73.59    4.20
  -1  -1   8   62.39    4.30
   0   1  -8  127.39    4.90
   0  -1   8  124.69    5.90
  -1   1  -8   74.89    3.90
   1  -1   8   80.39    5.10
  -2   1  -8   -1.00    1.20
   2  -1   8    2.20    2.50
  -3   1  -8    1.80    1.60
  -3   1  -8    1.10    1.20
   3  -1   8    3.20    2.50
  -4   1  -8   -1.00    1.40
   4  -1   8    1.10    2.40
  -5   1  -8    2.80    1.90
   5  -1   8   -1.80    2.10
  -6   1  -8    0.10    1.70
   6  -1   8   -1.80    2.60
  -7   1  -8    0.90    2.10
   7  -1   8    0.90    2.90
  -8   1  -8   -0.50    2.20
   8  -1   8    3.30    3.30
   8   0  -8   -0.50    2.30
  -8   0   8    3.40    3.10
   7   0  -8   -0.10    1.90
  -7   0   8    1.60    2.90
   6   0  -8    0.10    1.90
  -6   0   8    0.20    2.30
   5   0  -8    2.00    2.00
  -5   0   8    2.20    2.10
   4   0  -8   29.90    3.40
  -4   0   8   28.70    3.40
   3   0  -8   49.20    3.90
  -3   0   8   53.79    4.30
   2   0  -8  143.19    5.70
   2   0  -8  158.78    3.50
  -2   0   8  157.18    5.90
   1   0  -8  289.97    7.60
   1   0  -8  289.27    5.50
  -1   0   8  287.47    7.70
   0   0  -8    4.00    1.50
   0   0  -8    3.50    1.30
   0   0   8    5.70    2.30
  -1   0  -8    5.90    1.50
  -1   0  -8    3.90    1.50
   1   0   8    3.80    2.30
  -2   0  -8    2.40    1.50
  -2   0  -8    4.00    1.40
   2   0   8    5.10    2.40
  -3   0  -8   30.20    2.40
  -3   0  -8   26.80    2.90
   3   0   8   39.10    4.20
  -4   0  -8   18.20    2.60
   4   0   8   21.20    3.50
  -5   0  -8    3.80    1.90
   5   0   8    4.10    2.60
  -6   0  -8   17.00    2.90
   6   0   8   25.50    4.30
  -7   0  -8    4.70    2.40
   7   0   8   10.20    3.40
  -8   0  -8    3.30    2.30
   8   0   8   -1.70    2.70
   8  -1  -8    2.40    2.50
  -8   1   8    3.00    3.10
   7  -1  -8    9.90    3.00
  -7   1   8   10.80    3.00
   6  -1  -8    3.90    2.30
  -6   1   8    0.80    2.30
   5  -1  -8   57.39    4.80
  -5   1   8   55.39    4.30
   4  -1  -8   72.99    4.60
  -4   1   8   80.49    4.70
   3  -1  -8    4.70    1.80
  -3   1   8    6.10    2.30
   2  -1  -8    1.30    0.80
   2  -1  -8    5.70    1.70
  -2   1   8    2.50    2.10
   1  -1  -8    4.80    1.70
   1  -1  -8    5.10    1.10
  -1   1   8    5.30    2.10
   0  -1  -8    8.00    1.70
   0  -1  -8    5.10    1.30
   0   1   8    5.00    2.20
  -1  -1  -8  112.79    3.90
  -1  -1  -8  112.09    4.50
   1   1   8  118.29    4.90
  -2  -1  -8    4.90    1.50
  -2  -1  -8    2.80    1.40
   2   1   8    7.70    2.40
  -3  -1  -8    7.30    1.50
  -3  -1  -8    5.60    1.80
   3   1   8    7.40    2.40
  -4  -1  -8    3.90    1.70
   4   1   8    8.40    2.50
  -5  -1  -8    1.00    1.50
   5   1   8    1.50    2.10
  -6  -1  -8    2.70    1.90
   6   1   8   -1.10    2.10
  -7  -1  -8   -0.10    1.80
   7   1   8    0.70    2.50
  -8  -1  -8    1.50    2.20
   8   1   8    0.20    2.90
  -9  -1  -8    4.30    2.70
  -9  -1  -8    7.70    3.10
  -8   2   8    6.90    3.00
   7  -2  -8    2.70    2.30
  -7   2   8    2.00    2.70
   6  -2  -8   -0.30    2.00
  -6   2   8    0.90    2.40
   5  -2  -8    5.40    2.30
  -5   2   8   10.30    2.80
   4  -2  -8    2.60    2.00
  -4   2   8    2.20    2.10
   3  -2  -8   65.79    4.60
  -3   2   8   70.49    4.20
   2  -2  -8   31.30    3.20
  -2   2   8   33.30    3.00
   1  -2  -8    4.80    1.00
   1  -2  -8    0.90    1.50
  -1   2   8    2.90    1.80
   0  -2  -8   12.10    1.50
   0  -2  -8   12.90    2.10
   0   2   8   15.70    2.40
  -1  -2  -8  298.07    7.30
  -1  -2  -8  299.07    6.00
   1   2   8  303.07    7.00
  -2  -2  -8   44.80    2.90
  -2  -2  -8   44.20    3.00
   2   2   8   42.20    3.30
  -3  -2  -8    5.00    1.50
  -3  -2  -8    7.10    1.80
   3   2   8    5.10    2.00
  -4  -2  -8   22.50    2.70
  -4  -2  -8   24.10    2.10
   4   2   8   33.00    3.50
  -5  -2  -8    1.10    1.60
   5   2   8   -0.40    1.70
  -6  -2  -8    1.00    1.80
   6   2   8    4.20    2.50
  -7  -2  -8    2.30    2.10
   7   2   8   -3.50    1.90
  -8  -2  -8    1.60    2.30
  -8  -2  -8    2.20    2.40
  -9  -2  -8   -1.10    2.30
  -9  -2  -8    0.00    2.40
  -8   3   8    0.80    2.50
   7  -3  -8    4.70    2.60
  -7   3   8    4.70    2.90
   6  -3  -8   -1.80    1.80
  -6   3   8    0.00    2.30
   5  -3  -8    1.70    1.90
  -5   3   8    0.60    2.10
   4  -3  -8   36.10    3.90
  -4   3   8   25.80    3.20
   3  -3  -8   42.20    4.00
  -3   3   8   50.19    3.60
   2  -3  -8   43.40    3.80
  -2   3   8   50.39    3.30
   1  -3  -8    3.80    1.70
   1  -3  -8    5.10    1.10
  -1   3   8    5.00    1.80
   0  -3  -8  217.58    6.60
   0  -3  -8  208.18    4.70
   0   3   8  214.78    5.40
  -1  -3  -8   45.10    3.30
  -1  -3  -8   43.80    2.60
   1   3   8   43.90    2.90
  -2  -3  -8   32.70    2.60
  -2  -3  -8   32.70    2.90
   2   3   8   34.40    2.80
  -3  -3  -8  194.48    5.60
  -3  -3  -8  192.58    5.60
   3   3   8  192.18    5.50
  -4  -3  -8   -0.40    1.50
  -4  -3  -8    1.40    1.40
   4   3   8    2.10    1.70
  -5  -3  -8    6.70    1.90
   5   3   8    7.30    2.10
  -6  -3  -8   20.60    2.90
   6   3   8   22.30    3.30
  -7  -3  -8    1.20    2.10
  -7  -3  -8    5.00    2.30
  -8  -3  -8   -1.70    2.10
  -9  -3  -8   15.10    3.60
  -8   4   8    5.20    2.90
   7  -4  -8    2.40    2.60
  -7   4   8    5.30    2.70
   6  -4  -8    7.10    2.80
  -6   4   8    2.80    2.50
   5  -4  -8   16.50    3.10
  -5   4   8   15.70    3.00
   4  -4  -8    8.70    2.60
  -4   4   8    6.10    2.10
   3  -4  -8   -0.60    1.60
  -3   4   8   -1.70    1.60
   2  -4  -8    5.80    2.10
  -2   4   8    6.40    1.90
   1  -4  -8    3.60    1.70
   1  -4  -8    7.10    1.30
  -1   4   8    6.90    1.70
   0  -4  -8    1.40    1.10
   0  -4  -8    3.40    1.80
   0   4   8    3.50    1.50
  -1  -4  -8   34.10    3.20
  -1  -4  -8   29.00    2.40
   1   4   8   28.10    2.30
  -2  -4  -8  102.39    4.10
  -2  -4  -8  102.79    4.60
   2   4   8   97.79    3.20
  -3  -4  -8   -1.60    1.40
  -3  -4  -8    2.00    1.50
   3   4   8    0.50    1.30
  -4  -4  -8   32.60    2.90
  -4  -4  -8   27.50    2.90
   4   4   8   30.10    2.70
  -5  -4  -8    0.10    1.60
   5   4   8    3.70    1.70
  -6  -4  -8    2.00    1.90
  -7  -4  -8   -1.80    1.80
  -8  -4  -8   -3.00    2.00
  -9  -4  -8   -5.30    2.00
  -7   5   8    0.50    2.40
   6  -5  -8    5.00    2.60
  -6   5   8   14.80    3.30
   5  -5  -8   -1.00    1.90
  -5   5   8    3.30    2.40
   4  -5  -8   83.29    5.60
  -4   5   8   69.79    4.40
   3  -5  -8   23.20    3.30
  -3   5   8   22.20    2.60
   2  -5  -8   12.60    2.60
  -2   5   8   10.40    1.90
   1  -5  -8   13.20    1.80
   1  -5  -8   16.00    2.70
  -1   5   8   16.60    2.00
   0  -5  -8  160.78    4.70
   0  -5  -8  159.18    6.40
   0   5   8  165.28    3.90
  -1  -5  -8    2.40    1.30
  -1  -5  -8   -2.30    1.50
  -2  -5  -8    1.70    1.80
  -2  -5  -8    1.00    1.40
  -3  -5  -8    7.60    2.20
  -3  -5  -8   14.60    2.30
  -4  -5  -8   94.39    4.70
  -4  -5  -8   92.69    4.50
  -5  -5  -8   19.10    2.80
  -5  -5  -8   14.30    2.60
  -6  -5  -8    1.40    1.70
  -7  -5  -8    0.80    2.00
  -8  -5  -8   -1.30    2.30
  -9  -5  -8    6.10    2.80
  -7   6   8    7.40    3.00
   6  -6  -8    1.20    2.40
  -6   6   8    3.50    2.60
   5  -6  -8   12.50    3.10
  -5   6   8   20.10    3.30
   4  -6  -8   11.00    2.80
  -4   6   8   10.40    2.50
   3  -6  -8   27.20    3.70
  -3   6   8   29.80    2.90
   2  -6  -8   26.30    3.40
  -2   6   8   33.70    2.80
   1  -6  -8  138.79    6.50
   1  -6  -8  135.79    4.70
  -1   6   8  148.79    4.10
   0  -6  -8   11.60    2.70
   0  -6  -8   14.20    2.10
  -1  -6  -8    2.50    2.10
  -1  -6  -8   -0.20    1.50
  -2  -6  -8   19.70    3.00
  -2  -6  -8   18.00    2.50
  -3  -6  -8  151.08    5.50
  -3  -6  -8  160.18    6.30
  -4  -6  -8    4.00    1.90
  -4  -6  -8    2.00    2.10
  -5  -6  -8   16.80    2.70
  -6  -6  -8   -0.80    1.80
  -7  -6  -8    9.30    2.70
  -8  -6  -8    0.80    2.40
  -9  -6  -8    7.20    3.10
  -6   7   8    4.30    2.60
   5  -7  -8    1.20    2.40
  -5   7   8    3.10    2.40
   4  -7  -8    5.20    2.70
  -4   7   8    4.90    2.30
   3  -7  -8   -0.60    2.10
   2  -7  -8   21.30    3.40
   1  -7  -8    5.60    1.80
   1  -7  -8    6.90    2.50
   0  -7  -8   41.40    4.30
   0  -7  -8   41.60    3.30
  -1  -7  -8   11.30    2.20
  -1  -7  -8   18.40    3.10
  -2  -7  -8   42.00    4.20
  -2  -7  -8   48.60    3.50
  -3  -7  -8   15.50    2.50
  -3  -7  -8   18.10    3.00
  -4  -7  -8  117.69    5.80
  -4  -7  -8  120.39    5.50
  -5  -7  -8    0.80    1.90
  -6  -7  -8   16.90    3.10
  -7  -7  -8    2.10    2.20
  -8  -7  -8   -0.40    2.60
  -9  -7  -8   -4.90    2.30
   5  -8  -8    2.80    2.80
   4  -8  -8    1.20    2.40
   3  -8  -8    1.40    2.50
   2  -8  -8    6.50    2.70
   1  -8  -8   38.20    4.50
   1  -8  -8   42.50    3.90
   0  -8  -8   25.50    3.90
   0  -8  -8   27.80    3.20
  -1  -8  -8    8.40    2.60
  -1  -8  -8    6.90    2.10
  -2  -8  -8   16.10    3.30
  -2  -8  -8   15.10    2.60
  -3  -8  -8  102.59    5.30
  -3  -8  -8  114.39    6.20
  -4  -8  -8   -0.60    1.80
  -5  -8  -8   -0.30    1.70
  -6  -8  -8    3.90    2.30
  -7  -8  -8    4.40    2.60
  -8  -8  -8   -1.30    2.30
   5  -9  -8    3.30    3.20
   4  -9  -8    2.80    2.80
   3  -9  -8    4.10    3.00
   2  -9  -8    8.90    3.30
   1  -9  -8   24.90    4.10
   1  -9  -8   20.60    3.40
   0  -9  -8    6.40    3.10
   0  -9  -8    8.40    2.40
  -1  -9  -8   57.59    4.60
  -1  -9  -8   64.59    5.70
  -2  -9  -8   93.89    6.30
  -2  -9  -8   94.39    5.50
  -3  -9  -8    5.00    2.20
  -3  -9  -8   -0.10    2.80
  -4  -9  -8   -1.00    1.80
  -5  -9  -8   -1.40    1.80
  -6  -9  -8   -3.20    1.90
  -7  -9  -8    2.30    2.60
  -8  -9  -8   -1.10    2.40
   4 -10  -8    0.60    3.20
   3 -10  -8    3.80    3.30
   2 -10  -8    1.30    3.00
   1 -10  -8    6.60    2.60
   1 -10  -8   -0.20    2.80
   0 -10  -8   29.90    4.20
   0 -10  -8   36.20    5.10
  -1 -10  -8   26.20    4.50
  -1 -10  -8   33.30    4.20
  -2 -10  -8    6.50    3.30
  -2 -10  -8    7.40    2.60
  -3 -10  -8   50.99    5.00
  -4 -10  -8    1.10    2.00
  -5 -10  -8   -0.30    2.00
  -6 -10  -8    2.60    2.50
  -7 -10  -8   -0.20    2.30
   2 -11  -8   -2.40    3.30
   1 -11  -8   -4.20    2.80
   1 -11  -8    0.90    2.10
   0 -11  -8    1.90    2.20
   0 -11  -8    2.10    3.20
  -1 -11  -8   -0.90    2.20
  -2 -11  -8   31.90    4.50
  -3 -11  -8    0.70    2.40
  -4 -11  -8    1.90    2.60
  -5 -11  -8   -2.20    2.20
  -6 -11  -8   10.00    3.30
   0 -12  -8    4.50    2.80
  -1 -12  -8    1.90    2.50
  -2 -12  -8   -2.30    2.40
  -3 -12  -8   -0.70    2.50
  -4 -12  -8    1.90    2.60
  -3  -7   9   -8.10    3.00
  -2  -7   9   -3.00    3.30
  -1  -7   9   -4.90    3.20
   0  -7   9   -2.10    3.50
   1  -7   9   -3.10    3.30
  -5  -6   9   11.50    4.30
  -4  -6   9   -0.40    3.20
  -3  -6   9    0.80    3.40
  -2  -6   9   17.40    4.60
  -1  -6   9   -3.30    3.20
   0  -6   9   -3.80    2.60
   1  -6   9    0.10    3.50
   2  -6   9    4.30    4.00
   3  -6   9    1.80    3.50
   6   5  -9   11.30    3.00
  -6  -5   9   10.40    3.60
  -5  -5   9   -3.10    3.00
  -4  -5   9    9.90    3.60
  -3  -5   9    6.90    3.70
  -2  -5   9   10.60    3.60
  -1  -5   9   -1.70    2.90
   0  -5   9   21.50    4.80
   1  -5   9    2.20    3.50
   2  -5   9   -0.40    3.00
   3  -5   9   -0.20    3.20
   4  -5   9    2.60    3.60
  -5   5  -9    1.60    2.40
   5  -5   9   -3.50    3.30
   7   4  -9    0.40    2.30
  -7  -4   9    0.00    2.80
   6   4  -9    5.60    2.60
  -6  -4   9    4.40    3.20
  -5  -4   9    3.60    2.90
  -4  -4   9    0.60    2.70
  -3  -4   9   -1.60    2.60
  -2  -4   9    6.60    3.00
  -1  -4   9    9.90    3.50
   0  -4   9   22.40    4.40
   1  -4   9    5.10    3.40
   2  -4   9    8.30    3.70
   3  -4   9   -0.60    2.90
   4  -4   9   -4.70    2.90
  -5   4  -9    1.30    2.20
   5  -4   9    5.90    3.60
  -6   4  -9    8.70    2.90
   6  -4   9    6.50    4.20
   7   3  -9    1.70    2.30
  -7  -3   9   -1.20    2.60
   6   3  -9   18.50    3.50
  -6  -3   9   14.50    3.60
   5   3  -9    8.00    2.40
  -5  -3   9    8.60    3.00
   4   3  -9    0.20    1.80
  -4  -3   9    1.80    2.50
  -3  -3   9   23.50    3.90
  -2  -3   9    1.40    2.60
  -1  -3   9   18.10    3.90
   0  -3   9    6.50    3.20
   1  -3   9   38.00    5.10
  -2   3  -9    6.40    1.90
   2  -3   9   10.30    3.70
   3  -3   9    0.10    2.90
  -4   3  -9    0.10    1.90
   4  -3   9   -1.00    2.60
  -5   3  -9   -1.40    1.80
   5  -3   9    2.60    3.20
  -6   3  -9    1.80    2.50
   6  -3   9   -1.40    3.00
   7   2  -9   21.50    3.60
  -7  -2   9    9.20    3.20
   6   2  -9    5.60    2.40
  -6  -2   9    3.80    2.60
   5   2  -9   10.50    2.80
  -5  -2   9    8.10    2.90
   4   2  -9    5.60    2.20
  -4  -2   9    7.50    2.80
   3   2  -9    2.40    1.90
  -3  -2   9    4.20    2.50
   2   2  -9   20.40    2.80
  -2  -2   9   13.90    3.20
   1   2  -9    2.10    1.80
  -1  -2   9    3.70    2.70
   0   2  -9   36.40    3.40
   0  -2   9   32.80    4.20
  -1   2  -9    3.30    1.80
   1  -2   9    3.40    2.90
  -2   2  -9  169.78    5.80
   2  -2   9  160.48    7.90
  -3   2  -9    5.20    2.00
   3  -2   9    5.50    3.10
  -4   2  -9    9.50    2.50
   4  -2   9    6.20    3.00
  -5   2  -9   -0.90    1.90
   5  -2   9   -2.70    2.40
  -6   2  -9    5.90    2.30
   6  -2   9    2.30    3.40
  -7   2  -9    0.80    2.20
   7  -2   9    3.50    3.70
   8   1  -9    1.40    2.60
  -8  -1   9   -1.80    2.30
   7   1  -9    4.30    2.80
  -7  -1   9    2.80    2.80
   6   1  -9   20.60    3.60
  -6  -1   9   15.30    3.40
   5   1  -9    0.30    1.80
  -5  -1   9    0.50    2.30
   4   1  -9    0.30    1.70
  -4  -1   9    1.60    2.30
   3   1  -9   90.89    5.20
  -3  -1   9   79.09    5.10
   2   1  -9    0.90    1.60
  -2  -1   9    5.20    2.40
   1   1  -9    0.90    1.60
  -1  -1   9    2.30    2.50
   0   1  -9    0.80    1.60
   0  -1   9   -0.50    2.40
  -1   1  -9  742.93   12.80
   1  -1   9  720.73   15.10
  -2   1  -9    7.30    2.00
  -2   1  -9    8.00    1.80
   2  -1   9    4.80    2.90
  -3   1  -9   77.49    4.40
   3  -1   9   67.69    5.30
  -4   1  -9   22.70    3.10
   4  -1   9   24.90    4.20
  -5   1  -9   71.79    4.80
   5  -1   9   67.49    5.70
  -6   1  -9    4.70    2.40
   6  -1   9    7.20    3.30
  -7   1  -9    4.30    2.50
   7  -1   9    6.10    3.70
  -8   1  -9   -1.20    2.40
   8  -1   9    3.00    3.50
   8   0  -9    1.40    2.60
  -8   0   9    4.00    2.80
   7   0  -9    3.20    2.30
  -7   0   9    1.20    2.70
   6   0  -9    3.00    2.40
  -6   0   9    0.50    2.30
   5   0  -9   16.00    3.10
  -5   0   9    8.90    2.80
   4   0  -9   51.99    4.20
  -4   0   9   38.40    3.90
   3   0  -9    8.70    2.20
  -3   0   9   10.60    2.70
   2   0  -9   13.00    2.40
  -2   0   9   13.60    2.90
   1   0  -9   19.40    2.00
   1   0  -9   17.50    2.50
  -1   0   9   18.00    3.30
   0   0  -9  209.48    6.50
   0   0  -9  210.38    5.40
   0   0   9  212.38    7.30
  -1   0  -9    1.60    1.40
  -1   0  -9    2.20    1.60
   1   0   9    3.20    2.60
  -2   0  -9  110.19    4.50
  -2   0  -9  121.99    4.60
   2   0   9  116.19    6.10
  -3   0  -9    1.60    1.30
  -3   0  -9    7.10    1.90
   3   0   9    2.70    2.40
  -4   0  -9   35.00    3.50
   4   0   9   50.89    5.10
  -5   0  -9   36.20    3.70
   5   0   9   41.70    5.00
  -6   0  -9   -0.60    1.80
   6   0   9    7.50    3.20
  -7   0  -9    6.20    2.50
   7   0   9    1.90    2.90
  -8   0  -9    4.70    2.60
   8   0   9    2.10    3.10
   8  -1  -9    3.50    2.50
  -8   1   9   -0.40    2.80
   7  -1  -9    3.20    2.70
  -7   1   9    9.10    3.50
   6  -1  -9    2.80    2.30
  -6   1   9    4.30    2.90
   5  -1  -9    3.40    2.30
  -5   1   9    2.20    2.50
   4  -1  -9   47.70    4.40
  -4   1   9   52.19    4.40
   3  -1  -9  151.28    6.30
  -3   1   9  161.78    6.10
   2  -1  -9  127.69    5.70
  -2   1   9  127.29    5.50
   1  -1  -9   50.79    2.50
   1  -1  -9   59.39    4.20
  -1   1   9   52.89    4.30
   0  -1  -9    1.80    1.50
   0  -1  -9    0.10    1.10
   0   1   9    4.50    2.40
  -1  -1  -9  346.77    7.10
  -1  -1  -9  343.17    8.20
   1   1   9  333.57    8.70
  -2  -1  -9  110.99    4.50
  -2  -1  -9   95.39    4.10
   2   1   9  102.69    5.10
  -3  -1  -9    3.20    1.40
  -3  -1  -9    5.30    1.70
   3   1   9    1.40    2.10
  -4  -1  -9    0.60    1.50
   4   1   9    1.70    2.00
  -5  -1  -9   19.80    2.90
   5   1   9   18.90    3.50
  -6  -1  -9    1.70    1.80
   6   1   9   10.90    3.20
  -7  -1  -9    0.50    1.90
   7   1   9    0.30    2.80
  -8  -1  -9    0.70    2.20
   8   1   9    0.50    2.80
  -8   2   9    4.20    3.00
   7  -2  -9    4.30    2.80
  -7   2   9    2.60    2.80
   6  -2  -9   -1.50    2.00
   5  -2  -9   12.70    2.70
  -5   2   9   11.60    3.00
   4  -2  -9   80.89    5.40
  -4   2   9   78.49    4.80
   3  -2  -9   33.60    3.70
  -3   2   9   33.10    3.40
   2  -2  -9  107.39    5.50
  -2   2   9  106.49    5.00
   1  -2  -9   16.90    1.60
   1  -2  -9   15.50    2.70
  -1   2   9   11.60    2.60
   0  -2  -9  631.24    9.20
   0  -2  -9  614.04   11.90
   0   2   9  626.44   11.20
  -1  -2  -9    7.80    1.70
  -1  -2  -9    9.00    2.00
   1   2   9   12.30    2.60
  -2  -2  -9   -1.30    1.20
  -2  -2  -9    0.50    1.30
   2   2   9    1.50    1.90
  -3  -2  -9    2.20    1.40
  -3  -2  -9    0.00    1.20
   3   2   9    0.40    1.80
  -4  -2  -9   73.39    4.10
   4   2   9   67.29    4.40
  -5  -2  -9    2.50    1.80
   5   2   9    9.40    2.70
  -6  -2  -9    2.50    1.70
   6   2   9    2.30    2.40
  -7  -2  -9   -1.50    1.70
   7   2   9    2.10    2.60
  -8  -2  -9    2.80    2.50
  -8  -2  -9    6.10    2.70
   8   2   9   -0.10    2.80
  -9  -2  -9    2.70    2.60
   7  -3  -9    3.00    2.50
  -7   3   9    0.40    2.70
   6  -3  -9    1.20    2.30
  -6   3   9    3.50    2.70
   5  -3  -9   10.60    2.80
  -5   3   9    7.60    2.80
   4  -3  -9   -4.20    1.60
  -4   3   9   -0.40    2.00
   3  -3  -9   35.60    3.80
  -3   3   9   34.60    3.30
   2  -3  -9   -1.90    1.60
  -2   3   9    0.40    2.00
   1  -3  -9   52.89    2.50
   1  -3  -9   61.09    4.30
  -1   3   9   50.79    3.90
   0  -3  -9  457.75    7.60
   0  -3  -9  466.75   10.30
   0   3   9  444.76    8.60
  -1  -3  -9   37.90    2.70
  -1  -3  -9   38.20    3.40
   1   3   9   43.50    3.30
  -2  -3  -9    0.60    1.30
  -2  -3  -9   -0.20    1.40
   2   3   9    2.20    1.80
  -3  -3  -9    0.00    1.20
  -3  -3  -9    1.50    1.50
   3   3   9    1.90    1.80
  -4  -3  -9   65.29    3.60
  -4  -3  -9   62.99    3.90
   4   3   9   63.89    3.90
  -5  -3  -9    2.60    1.80
   5   3   9    2.80    2.10
  -6  -3  -9    9.00    2.30
   6   3   9    9.90    2.70
  -7  -3  -9    1.10    1.80
  -8  -3  -9    0.60    2.30
  -9  -3  -9    9.90    3.20
   7  -4  -9    5.30    2.80
  -7   4   9    2.40    2.70
   6  -4  -9    6.50    2.60
  -6   4   9    4.10    2.60
   5  -4  -9    1.40    2.10
  -5   4   9    0.00    2.10
   4  -4  -9   32.50    4.00
  -4   4   9   26.60    3.30
   3  -4  -9   -3.70    1.40
  -3   4   9    0.80    1.80
   2  -4  -9    1.20    1.80
  -2   4   9    1.40    1.70
   1  -4  -9  135.89    6.20
   1  -4  -9  137.39    3.80
  -1   4   9  152.28    4.80
   0  -4  -9   18.20    2.70
   0  -4  -9   17.40    2.00
   0   4   9   16.50    2.30
  -1  -4  -9   23.50    3.00
  -1  -4  -9   28.70    2.60
   1   4   9   25.80    2.50
  -2  -4  -9   68.79    3.60
  -2  -4  -9   75.39    4.30
   2   4   9   70.69    3.30
  -3  -4  -9    4.20    1.60
  -3  -4  -9    5.10    1.80
   3   4   9    4.70    1.60
  -4  -4  -9   32.10    3.00
  -4  -4  -9   31.20    3.10
  -5  -4  -9   16.30    2.50
  -6  -4  -9   22.00    3.10
  -7  -4  -9    2.20    2.10
  -8  -4  -9    1.80    2.40
  -9  -4  -9   -3.40    2.60
  -7   5   9    1.70    2.40
   6  -5  -9    1.20    2.30
  -6   5   9    3.50    2.60
   5  -5  -9   40.50    4.70
  -5   5   9   37.30    3.90
   4  -5  -9    9.90    2.90
  -4   5   9   16.10    2.90
   3  -5  -9   10.50    2.80
  -3   5   9   13.00    2.40
   2  -5  -9   28.00    3.70
  -2   5   9   29.30    2.70
   1  -5  -9    0.30    1.10
   1  -5  -9   -1.20    1.60
  -1   5   9   -1.70    1.50
   0  -5  -9   22.20    3.10
   0  -5  -9   23.20    2.30
   0   5   9   21.30    2.30
  -1  -5  -9   16.10    2.80
  -1  -5  -9   19.30    2.20
  -2  -5  -9  196.78    5.80
  -2  -5  -9  192.88    6.80
  -3  -5  -9   38.40    3.50
  -3  -5  -9   36.20    3.20
  -4  -5  -9   15.20    2.50
  -4  -5  -9   17.00    2.60
  -5  -5  -9   11.50    2.40
  -6  -5  -9    2.90    2.00
  -7  -5  -9    1.50    2.10
  -8  -5  -9    6.80    2.90
  -9  -5  -9    3.90    2.90
   6  -6  -9    2.60    2.60
  -6   6   9    5.60    2.70
   5  -6  -9   14.50    3.30
  -5   6   9   11.10    2.90
   4  -6  -9   13.50    3.20
  -4   6   9   13.20    2.60
   3  -6  -9   11.40    3.10
  -3   6   9   12.60    2.30
   2  -6  -9    8.90    2.60
  -2   6   9    8.20    1.90
   1  -6  -9  210.18    7.90
   1  -6  -9  218.78    5.80
   0  -6  -9    6.70    2.40
   0  -6  -9   11.60    2.00
  -1  -6  -9  119.39    5.90
  -1  -6  -9  118.79    4.70
  -2  -6  -9   11.90    2.60
  -2  -6  -9   13.10    2.30
  -3  -6  -9   -1.00    1.70
  -3  -6  -9   -1.00    1.40
  -4  -6  -9   12.60    2.70
  -4  -6  -9   14.60    2.60
  -5  -6  -9   -0.10    2.10
  -5  -6  -9    2.10    1.80
  -6  -6  -9    0.00    1.90
  -7  -6  -9   14.00    3.10
  -8  -6  -9   -0.70    2.20
  -9  -6  -9    0.10    2.80
   6  -7  -9    4.10    2.70
  -6   7   9    4.90    2.90
   5  -7  -9   -0.20    2.20
   4  -7  -9    3.90    2.70
   3  -7  -9    9.20    2.90
   2  -7  -9   41.40    4.60
   1  -7  -9    7.40    2.90
   1  -7  -9    8.70    2.00
   0  -7  -9   24.30    2.80
   0  -7  -9   20.70    3.30
  -1  -7  -9   68.59    4.80
  -1  -7  -9   57.49    3.70
  -2  -7  -9    0.20    2.10
  -2  -7  -9    1.10    1.60
  -3  -7  -9   -0.90    1.60
  -3  -7  -9    0.30    2.10
  -4  -7  -9    7.70    2.20
  -4  -7  -9    8.30    2.60
  -5  -7  -9    7.80    2.40
  -6  -7  -9    6.30    2.30
  -7  -7  -9   18.70    3.40
  -8  -7  -9   -4.30    1.90
   5  -8  -9    6.10    3.10
   4  -8  -9    2.70    2.80
   3  -8  -9    2.20    2.60
   2  -8  -9    2.70    2.50
   1  -8  -9   39.00    3.70
   1  -8  -9   46.50    4.90
   0  -8  -9    2.80    1.80
   0  -8  -9   -0.10    2.10
  -1  -8  -9    2.90    2.50
  -1  -8  -9   -1.60    1.60
  -2  -8  -9   10.80    2.40
  -2  -8  -9   22.40    3.70
  -3  -8  -9   62.39    5.10
  -3  -8  -9   61.19    4.30
  -4  -8  -9   10.40    2.60
  -4  -8  -9    8.90    3.00
  -5  -8  -9    1.60    2.10
  -6  -8  -9    5.40    2.50
  -7  -8  -9   -1.90    2.00
  -8  -8  -9   -1.60    2.30
   4  -9  -9    2.60    2.70
   3  -9  -9    7.90    3.40
   2  -9  -9   11.90    3.50
   1  -9  -9    4.50    2.80
   0  -9  -9    0.10    1.80
   0  -9  -9    1.00    2.50
  -1  -9  -9   -0.20    2.60
  -1  -9  -9    1.10    1.90
  -2  -9  -9   29.90    4.30
  -2  -9  -9   20.70    3.30
  -3  -9  -9   -1.70    1.80
  -3  -9  -9    1.70    2.70
  -4  -9  -9    0.40    2.10
  -5  -9  -9    1.50    1.90
  -6  -9  -9    1.40    2.20
  -7  -9  -9   11.60    3.40
  -8  -9  -9    3.10    2.70
   3 -10  -9    2.30    3.30
   2 -10  -9    4.00    3.30
   1 -10  -9   10.30    3.70
   0 -10  -9    3.00    3.10
   0 -10  -9    1.40    2.40
  -1 -10  -9   -1.60    1.90
  -1 -10  -9   -0.80    2.80
  -2 -10  -9    9.40    3.70
  -2 -10  -9    9.50    2.80
  -3 -10  -9   20.60    3.50
  -3 -10  -9   18.40    4.40
  -4 -10  -9    5.10    2.60
  -5 -10  -9   -4.00    1.80
  -6 -10  -9   16.80    3.60
  -7 -10  -9   -0.10    2.60
   2 -11  -9   11.50    4.10
   1 -11  -9   -2.20    3.20
   0 -11  -9    3.10    2.70
   0 -11  -9    2.00    3.30
  -1 -11  -9   -6.80    2.80
  -1 -11  -9   -1.10    2.20
  -2 -11  -9   12.10    3.30
  -3 -11  -9    6.30    2.90
  -4 -11  -9    2.20    2.70
  -5 -11  -9   13.10    3.30
  -6 -11  -9    6.70    2.90
   0 -12  -9   -0.10    2.50
  -1 -12  -9    3.30    2.80
  -2 -12  -9   -0.60    2.50
  -3 -12  -9    0.20    2.50
  -4 -12  -9    2.10    2.80
  -3  -6  10    1.00    3.60
  -2  -6  10    2.90    3.70
  -1  -6  10   -0.60    3.50
   0  -6  10    3.00    3.90
   1  -6  10   -1.70    3.30
   2  -6  10   -6.10    3.20
   5   5 -10    3.60    2.50
  -5  -5  10    1.30    3.50
  -4  -5  10   -3.70    3.00
  -3  -5  10   15.00    4.40
  -2  -5  10   -2.00    3.20
  -1  -5  10    1.40    3.50
   0  -5  10   12.50    4.20
   1  -5  10    3.40    3.90
   2  -5  10    3.30    3.80
   3  -5  10    4.10    3.80
   4  -5  10    1.20    3.60
   6   4 -10    1.60    2.40
  -6  -4  10   -0.70    2.70
   5   4 -10    3.50    2.50
  -5  -4  10    5.80    3.20
   4   4 -10    2.70    2.40
  -4  -4  10    4.00    3.40
  -3  -4  10    1.50    3.10
  -2  -4  10   11.30    3.70
  -1  -4  10   27.00    5.00
   0  -4  10    1.40    3.40
   1  -4  10    6.30    3.70
   2  -4  10    1.90    3.50
   3  -4  10   -2.80    3.10
  -4   4 -10    2.70    2.20
   4  -4  10   -2.00    2.90
  -5   4 -10    4.90    2.50
   5  -4  10    3.50    3.70
   6   3 -10    2.50    2.30
  -6  -3  10    1.00    2.90
   5   3 -10    2.50    2.40
  -5  -3  10   -3.30    2.20
   4   3 -10    9.40    2.80
  -4  -3  10    1.70    2.80
   3   3 -10    2.40    2.10
  -3  -3  10   -0.20    2.60
   2   3 -10    0.50    2.00
  -2  -3  10   -2.10    2.70
   1   3 -10   12.60    2.70
  -1  -3  10    9.90    3.60
   0   3 -10   19.10    3.00
   0  -3  10   19.00    4.10
  -1   3 -10   18.30    2.90
   1  -3  10   17.40    4.10
   2  -3  10   -1.10    2.90
   3  -3  10   -2.80    2.90
  -4   3 -10   -0.90    1.90
   4  -3  10   -0.50    3.20
  -5   3 -10    2.80    2.00
   5  -3  10    6.00    3.60
  -6   3 -10   -0.10    2.30
   6  -3  10   -2.50    3.10
   7   2 -10   -3.70    2.00
  -7  -2  10   -0.10    2.60
   6   2 -10    7.40    2.60
  -6  -2  10    8.20    3.20
   5   2 -10   12.20    3.00
  -5  -2  10   12.90    3.50
   4   2 -10    5.10    2.40
  -4  -2  10    9.00    3.20
   3   2 -10    2.40    2.10
  -3  -2  10   -2.50    2.50
   2   2 -10   14.20    2.90
  -2  -2  10   14.10    3.60
   1   2 -10    5.80    2.30
  -1  -2  10    3.40    2.90
   0   2 -10    0.80    1.70
   0  -2  10    0.80    2.80
  -1   2 -10   19.50    2.90
   1  -2  10   19.60    4.10
  -2   2 -10    0.10    1.60
  -2   2 -10   -0.80    1.50
   2  -2  10    0.60    2.90
  -3   2 -10    6.30    2.10
   3  -2  10    4.10    3.30
  -4   2 -10    4.60    2.20
   4  -2  10    3.10    3.20
  -5   2 -10    3.00    2.30
   5  -2  10   -0.30    3.10
  -6   2 -10    0.70    2.30
   6  -2  10   -1.10    2.80
   7   1 -10   -0.70    2.30
  -7  -1  10   -0.80    2.50
   6   1 -10    8.80    2.90
  -6  -1  10    4.00    3.00
   5   1 -10    1.80    1.90
  -5  -1  10    2.50    2.70
   4   1 -10   13.70    2.90
  -4  -1  10   16.00    3.40
   3   1 -10    4.70    2.10
  -3  -1  10    2.80    2.60
   2   1 -10    0.40    1.70
  -2  -1  10    0.00    2.40
   1   1 -10   13.90    2.00
   1   1 -10   11.60    2.30
  -1  -1  10   11.00    3.10
   0   1 -10   -0.60    1.20
   0   1 -10    1.00    1.60
   0  -1  10    1.20    2.70
  -1   1 -10  100.89    4.80
  -1   1 -10  104.59    4.50
   1  -1  10  105.29    6.20
  -2   1 -10    6.80    2.10
  -2   1 -10   13.50    2.40
   2  -1  10   13.30    3.50
  -3   1 -10    0.20    1.60
   3  -1  10    0.30    2.70
  -4   1 -10   12.20    2.60
   4  -1  10   14.40    3.90
  -5   1 -10   17.10    3.10
   5  -1  10   19.30    4.30
  -6   1 -10    2.00    2.10
   6  -1  10    6.20    3.50
  -7   1 -10    0.10    2.10
   7  -1  10    5.00    3.80
   7   0 -10    3.40    2.70
  -7   0  10   -2.00    2.40
   6   0 -10    1.70    2.20
  -6   0  10   -2.10    2.50
   5   0 -10   20.60    3.60
  -5   0  10   12.60    3.10
   4   0 -10    7.50    2.50
  -4   0  10   10.30    3.00
   3   0 -10    0.50    1.80
  -3   0  10    2.70    2.40
   2   0 -10    1.30    1.60
  -2   0  10   -0.60    2.20
   1   0 -10   59.89    3.10
   1   0 -10   66.39    4.30
  -1   0  10   66.19    4.80
   0   0 -10  331.57    7.10
   0   0 -10  305.27    8.40
   0   0  10  316.87    9.50
  -1   0 -10    7.30    2.00
  -1   0 -10    4.60    1.60
   1   0  10   13.60    3.30
  -2   0 -10   15.00    2.30
  -2   0 -10   17.60    2.60
   2   0  10   16.20    3.50
  -3   0 -10   23.90    2.90
   3   0  10   29.70    4.40
  -4   0 -10   75.19    4.50
   4   0  10   64.69    5.30
  -5   0 -10    0.80    1.90
   5   0  10    0.20    2.70
  -6   0 -10   38.70    4.30
   6   0  10   50.49    6.00
  -7   0 -10   -1.60    2.10
   7   0  10   -3.70    2.60
  -8   0 -10    2.40    2.50
   8   0  10    1.40    3.40
   7  -1 -10   -3.00    2.10
  -7   1  10   -0.90    2.70
   6  -1 -10   12.60    3.30
  -6   1  10    2.30    2.70
   5  -1 -10    4.20    2.40
  -5   1  10    1.00    2.50
   4  -1 -10    1.10    1.90
  -4   1  10    0.50    2.40
   3  -1 -10   10.20    2.60
  -3   1  10   14.50    3.00
   2  -1 -10    0.00    1.50
  -2   1  10    0.40    2.20
   1  -1 -10  103.79    5.10
   1  -1 -10  106.59    3.50
  -1   1  10  105.99    5.30
   0  -1 -10   64.09    4.30
   0  -1 -10   66.79    3.20
   0   1  10   60.59    4.50
  -1  -1 -10  207.68    6.80
  -1  -1 -10  215.48    5.80
   1   1  10  212.88    7.40
  -2  -1 -10   78.29    4.20
  -2  -1 -10   64.79    3.60
   2   1  10   74.19    4.80
  -3  -1 -10   -1.00    1.20
  -3  -1 -10   -0.80    1.30
   3   1  10    0.50    2.20
  -4  -1 -10    0.40    1.60
   4   1  10    0.50    2.10
  -5  -1 -10   47.60    4.20
   5   1  10   61.19    5.70
  -6  -1 -10   14.90    3.00
   6   1  10   17.70    3.90
  -7  -1 -10    3.80    2.40
   7   1  10    5.00    3.30
  -8  -1 -10    0.40    2.30
   8   1  10    4.70    3.20
   7  -2 -10    2.40    2.70
  -7   2  10    4.90    3.30
   6  -2 -10    1.70    2.30
  -6   2  10   -0.50    2.40
   5  -2 -10    1.60    2.20
  -5   2  10   -0.10    2.30
   4  -2 -10   34.80    4.20
  -4   2  10   28.20    3.60
   3  -2 -10   62.29    4.90
  -3   2  10   65.29    4.60
   2  -2 -10   25.10    3.30
  -2   2  10   22.10    3.10
   1  -2 -10    0.90    1.10
   1  -2 -10   -0.20    1.80
  -1   2  10    3.40    2.30
   0  -2 -10  860.11   15.20
   0  -2 -10  873.61   12.00
   0   2  10  860.41   14.50
  -1  -2 -10    2.60    1.70
  -1  -2 -10    4.10    1.50
   1   2  10    5.30    2.40
  -2  -2 -10    1.50    1.50
  -2  -2 -10    0.10    1.30
   2   2  10    2.50    2.20
  -3  -2 -10    2.80    1.60
  -3  -2 -10    2.20    1.50
   3   2  10    1.60    2.10
  -4  -2 -10   64.19    4.00
   4   2  10   64.19    4.60
  -5  -2 -10   -0.60    1.70
   5   2  10    1.80    2.30
  -6  -2 -10    1.70    1.80
   6   2  10    5.30    2.90
  -7  -2 -10    4.80    2.50
   7   2  10    3.90    3.00
  -8  -2 -10    3.70    2.50
   7  -3 -10   -0.70    2.30
  -7   3  10    0.70    2.70
   6  -3 -10   -1.00    2.10
  -6   3  10    3.20    2.60
   5  -3 -10   21.30    3.90
  -5   3  10   19.50    3.60
   4  -3 -10    3.00    2.30
  -4   3  10    7.00    2.50
   3  -3 -10   31.20    3.90
  -3   3  10   30.20    3.30
   2  -3 -10   11.30    2.50
  -2   3  10   13.30    2.60
   1  -3 -10  419.76   10.70
  -1   3  10  443.86    9.20
   0  -3 -10   -0.70    1.30
   0  -3 -10   -0.10    1.90
   0   3  10    2.80    2.30
  -1  -3 -10  299.17    8.30
  -1  -3 -10  294.57    6.50
   1   3  10  288.37    7.50
  -2  -3 -10    5.00    1.90
  -2  -3 -10    3.00    1.50
   2   3  10    2.30    2.00
  -3  -3 -10   91.99    4.50
  -3  -3 -10   87.69    4.20
   3   3  10   92.99    4.50
  -4  -3 -10    2.20    1.80
   4   3  10    1.30    1.70
  -5  -3 -10   32.40    3.50
   5   3  10   36.50    4.10
  -6  -3 -10   -0.10    1.80
  -7  -3 -10   -1.00    1.90
  -8  -3 -10    9.80    2.90
   7  -4 -10   -3.40    2.20
  -7   4  10    4.80    3.10
   6  -4 -10    6.70    3.00
  -6   4  10    4.70    3.00
   5  -4 -10    2.10    2.30
  -5   4  10   -0.60    2.20
   4  -4 -10   45.20    4.80
  -4   4  10   50.09    4.20
   3  -4 -10    4.90    2.30
  -3   4  10    2.20    2.10
   2  -4 -10    2.20    2.10
  -2   4  10    4.30    2.10
   1  -4 -10   34.50    3.80
  -1   4  10   37.40    3.30
   0  -4 -10  359.76    7.00
   0  -4 -10  359.16    9.60
   0   4  10  364.16    7.70
  -1  -4 -10   -0.60    1.70
  -1  -4 -10    2.10    1.50
   1   4  10    3.80    2.00
  -2  -4 -10    0.30    1.40
  -2  -4 -10    0.80    1.60
   2   4  10   -0.40    1.60
  -3  -4 -10   19.10    2.70
  -3  -4 -10   15.80    2.30
  -4  -4 -10   67.99    4.10
  -4  -4 -10   67.89    4.00
  -5  -4 -10   65.29    4.30
  -6  -4 -10   -0.20    1.90
  -7  -4 -10   19.10    3.40
  -8  -4 -10    9.40    3.10
   7  -5 -10    1.40    2.80
  -7   5  10    4.50    3.00
   6  -5 -10    9.30    3.20
  -6   5  10    4.40    2.80
   5  -5 -10   33.30    4.60
  -5   5  10   26.30    3.60
   4  -5 -10    6.90    2.60
  -4   5  10   -0.90    2.20
   3  -5 -10    1.30    2.30
  -3   5  10    3.00    2.10
   2  -5 -10    2.90    2.20
  -2   5  10    2.30    1.80
   1  -5 -10  110.29    5.90
  -1   5  10  115.09    4.40
   0  -5 -10    0.40    1.20
   0  -5 -10   -0.70    1.70
  -1  -5 -10    4.90    2.20
  -1  -5 -10   -0.80    1.40
  -2  -5 -10    1.80    1.80
  -2  -5 -10    2.60    1.60
  -3  -5 -10   23.50    3.10
  -3  -5 -10   26.70    3.00
  -4  -5 -10   21.50    2.90
  -4  -5 -10   28.40    3.20
  -5  -5 -10    7.00    2.40
  -6  -5 -10   -1.50    1.90
  -7  -5 -10    9.20    2.90
  -8  -5 -10    2.60    2.70
   6  -6 -10    3.10    2.80
  -6   6  10    5.80    2.70
   5  -6 -10    2.30    2.50
  -5   6  10    2.80    2.60
   4  -6 -10   17.50    3.50
  -4   6  10   15.50    2.80
   3  -6 -10    4.10    2.50
   2  -6 -10   16.90    3.30
   1  -6 -10   18.30    3.40
   0  -6 -10  119.79    6.30
   0  -6 -10  125.89    4.80
  -1  -6 -10    0.20    2.00
  -1  -6 -10   -0.40    1.40
  -2  -6 -10    3.90    1.70
  -2  -6 -10    4.20    2.10
  -3  -6 -10    3.50    1.90
  -3  -6 -10    1.10    1.80
  -4  -6 -10    1.90    1.60
  -4  -6 -10    4.70    2.20
  -5  -6 -10    0.30    2.00
  -5  -6 -10   -1.00    1.80
  -6  -6 -10    1.30    2.10
  -7  -6 -10   41.30    4.50
  -8  -6 -10   14.10    3.50
   6  -7 -10    4.00    2.90
   5  -7 -10   -1.90    2.40
   4  -7 -10    2.50    2.50
   3  -7 -10    3.90    2.70
   2  -7 -10    7.30    2.70
   1  -7 -10   88.59    6.10
   0  -7 -10    3.40    2.30
   0  -7 -10    2.70    1.70
  -1  -7 -10    0.70    2.30
  -1  -7 -10    0.90    1.60
  -2  -7 -10   13.90    2.90
  -2  -7 -10    7.30    2.10
  -3  -7 -10    3.30    2.20
  -3  -7 -10    2.90    1.80
  -4  -7 -10   -0.20    1.70
  -4  -7 -10    1.20    2.10
  -5  -7 -10   -1.50    2.40
  -5  -7 -10    2.50    2.00
  -6  -7 -10   74.19    5.20
  -7  -7 -10   -0.10    2.10
  -8  -7 -10   -0.80    2.40
   5  -8 -10    6.60    3.30
   4  -8 -10   12.70    3.60
   3  -8 -10    1.20    2.70
   2  -8 -10    5.50    2.90
   1  -8 -10   -0.20    2.40
   0  -8 -10    2.20    2.60
   0  -8 -10    3.00    1.90
  -1  -8 -10   -0.70    2.30
  -1  -8 -10    2.80    1.80
  -2  -8 -10   10.50    3.00
  -2  -8 -10    7.20    2.10
  -3  -8 -10   -0.70    2.30
  -3  -8 -10    0.00    1.70
  -4  -8 -10    7.50    2.30
  -4  -8 -10    5.60    2.80
  -5  -8 -10   23.90    3.60
  -6  -8 -10    6.00    2.70
  -7  -8 -10   15.70    3.50
  -8  -8 -10    1.80    2.70
   4  -9 -10   -1.70    2.60
   3  -9 -10    7.80    3.40
   2  -9 -10    1.20    3.00
   1  -9 -10    1.00    2.70
   0  -9 -10   11.60    3.50
   0  -9 -10   15.40    3.00
  -1  -9 -10   27.20    4.30
  -1  -9 -10   28.30    3.70
  -2  -9 -10   -2.80    2.10
  -2  -9 -10   -0.30    1.80
  -3  -9 -10    2.40    2.70
  -3  -9 -10   -0.40    1.80
  -4  -9 -10   10.30    2.80
  -4  -9 -10    0.50    2.90
  -5  -9 -10    2.20    2.00
  -6  -9 -10   16.00    3.40
  -7  -9 -10   -1.80    2.10
   3 -10 -10    2.90    3.20
   2 -10 -10   -2.90    2.90
   1 -10 -10    1.10    3.10
   0 -10 -10    6.50    3.40
   0 -10 -10    7.90    2.60
  -1 -10 -10    9.10    3.60
  -1 -10 -10   11.30    2.90
  -2 -10 -10    3.50    2.10
  -2 -10 -10    0.70    2.90
  -3 -10 -10    5.10    2.50
  -3 -10 -10    3.30    3.30
  -4 -10 -10    1.80    2.10
  -5 -10 -10   19.00    3.60
  -6 -10 -10    9.00    3.10
  -7 -10 -10   -4.80    2.00
   2 -11 -10    3.00    3.70
   1 -11 -10   -0.60    3.10
   0 -11 -10    4.20    3.40
  -1 -11 -10   10.10    3.20
  -1 -11 -10    5.70    3.70
  -2 -11 -10   -0.60    3.20
  -2 -11 -10    2.30    2.50
  -3 -11 -10    0.00    2.30
  -4 -11 -10    8.20    2.80
  -5 -11 -10   17.80    3.70
  -1 -12 -10    2.30    2.60
  -1 -12 -10   -7.70    3.30
  -2 -12 -10    3.60    3.00
  -3 -12 -10    2.20    2.70
   4   5 -11    6.50    3.40
   3   5 -11    1.90    2.80
  -3  -5  11   -3.70    3.40
  -2  -5  11    4.40    4.00
  -1  -5  11    3.00    3.90
   0   5 -11   -1.50    2.60
   0  -5  11   -6.00    3.20
   1  -5  11   -7.70    3.20
   2  -5  11   -1.40    3.60
   5   4 -11    0.00    2.50
  -5  -4  11   -0.40    3.50
   4   4 -11    2.60    2.80
  -4  -4  11    2.40    3.50
   3   4 -11    5.90    2.80
  -3  -4  11    4.50    3.80
   2   4 -11   -0.70    2.40
  -2  -4  11    1.80    3.40
   1   4 -11   -4.40    1.90
  -1  -4  11    1.30    3.40
   0   4 -11   -0.10    2.20
   0  -4  11   -0.40    3.40
   1  -4  11    7.10    4.20
   2  -4  11   -2.20    3.30
  -3   4 -11    0.60    2.00
   3  -4  11    0.10    3.50
  -4   4 -11    1.40    2.40
   4  -4  11    0.40    3.80
   6   3 -11    3.60    2.40
  -6  -3  11   -3.60    2.70
   5   3 -11   -0.20    2.20
  -5  -3  11    1.00    3.00
   4   3 -11    2.10    2.40
  -4  -3  11    3.20    3.30
   3   3 -11   -1.30    2.20
  -3  -3  11   -5.00    2.70
   2   3 -11    0.60    2.00
  -2  -3  11   -3.30    2.90
   1   3 -11    0.50    2.10
  -1  -3  11    2.50    3.40
   0   3 -11   -1.90    1.90
   0  -3  11    3.50    3.40
  -1   3 -11    3.60    2.20
   1  -3  11   -0.50    2.90
   2  -3  11   -1.50    3.30
  -3   3 -11    1.80    2.00
   3  -3  11   -0.20    3.20
  -4   3 -11    4.00    2.40
   4  -3  11    1.20    3.40
  -5   3 -11    2.50    2.20
   5  -3  11   -3.90    3.20
   6   2 -11   -1.10    2.30
  -6  -2  11    1.50    3.00
   5   2 -11   -1.00    2.00
  -5  -2  11   -2.50    2.80
   4   2 -11    3.90    2.40
  -4  -2  11    2.60    2.90
   3   2 -11   -0.80    1.90
  -3  -2  11   -0.40    2.60
   2   2 -11    1.90    2.10
  -2  -2  11    0.40    2.80
   1   2 -11    6.80    2.40
  -1  -2  11   17.20    4.00
   0   2 -11    1.50    2.00
   0  -2  11    9.40    3.50
  -1   2 -11    6.50    2.10
  -1   2 -11    8.30    2.40
   1  -2  11   13.20    3.90
  -2   2 -11    1.00    1.70
   2  -2  11    5.50    3.60
  -3   2 -11    9.10    2.40
   3  -2  11   13.30    4.30
  -4   2 -11    1.20    2.00
   4  -2  11   -4.30    2.80
  -5   2 -11    1.30    2.10
   5  -2  11   -0.30    3.20
  -6   2 -11    0.30    2.20
   6  -2  11   -0.50    3.10
   6   1 -11   -0.10    2.10
  -6  -1  11    1.80    2.90
   5   1 -11   -0.90    2.10
  -5  -1  11    0.70    2.80
   4   1 -11    0.00    1.80
  -4  -1  11    0.80    2.70
   3   1 -11    1.80    2.00
  -3  -1  11    9.40    3.20
   2   1 -11   10.80    2.60
  -2  -1  11    4.00    3.00
   1   1 -11    2.30    1.90
  -1  -1  11    8.30    3.10
   0   1 -11    0.20    1.70
   0   1 -11    3.00    1.50
   0  -1  11    3.10    3.00
  -1   1 -11    5.60    1.80
  -1   1 -11    3.30    1.90
   1  -1  11   -1.00    2.70
  -2   1 -11   -1.50    1.50
  -2   1 -11    0.90    1.50
   2  -1  11   -1.70    2.80
  -3   1 -11    5.50    2.10
   3  -1  11    5.90    3.50
  -4   1 -11    9.30    2.50
   4  -1  11    2.10    3.20
  -5   1 -11   -0.10    1.90
   5  -1  11    4.60    3.50
  -6   1 -11    2.90    2.40
   6  -1  11   -0.30    3.00
   7   0 -11   -1.30    2.50
  -7   0  11   -0.10    2.90
   6   0 -11   -0.10    2.30
  -6   0  11    2.30    3.00
   5   0 -11    1.10    2.20
  -5   0  11    1.60    2.90
   4   0 -11   -1.10    1.80
  -4   0  11   -1.20    2.20
   3   0 -11    3.60    2.10
  -3   0  11    3.10    2.80
   2   0 -11    1.10    1.90
  -2   0  11    2.10    2.60
   1   0 -11   14.40    2.70
  -1   0  11    8.80    3.10
   0   0 -11    0.00    1.20
   0   0 -11   -0.60    1.60
   0   0  11    1.80    2.70
  -1   0 -11   31.30    3.40
  -1   0 -11   26.70    2.80
   1   0  11   30.50    4.40
  -2   0 -11    9.30    2.00
  -2   0 -11   11.70    2.40
   2   0  11   12.80    3.60
  -3   0 -11   11.40    2.30
   3   0  11    8.30    3.30
  -4   0 -11    0.60    1.70
   4   0  11    0.30    2.70
  -5   0 -11   31.70    3.60
   5   0  11   37.90    5.40
  -6   0 -11    8.80    2.70
   6   0  11    3.90    3.10
  -7   0 -11    1.90    2.30
   7   0  11    9.90    4.10
   7  -1 -11   -0.50    2.60
  -7   1  11    1.50    3.00
   6  -1 -11    0.80    2.30
  -6   1  11    1.30    3.00
   5  -1 -11    4.00    2.60
  -5   1  11    5.80    2.90
   4  -1 -11   -0.50    2.00
  -4   1  11    0.40    2.50
   3  -1 -11    0.80    1.80
  -3   1  11   -1.20    2.40
   2  -1 -11   45.50    4.20
  -2   1  11   42.10    4.40
   1  -1 -11    1.40    1.80
  -1   1  11    2.70    2.50
   0  -1 -11   -0.60    1.10
   0  -1 -11    2.50    1.90
   0   1  11    1.00    2.50
  -1  -1 -11    0.70    1.20
  -1  -1 -11    2.70    1.90
   1   1  11   -0.10    2.40
  -2  -1 -11   10.60    2.30
  -2  -1 -11   12.30    2.00
   2   1  11   13.50    3.20
  -3  -1 -11    3.60    1.70
   3   1  11   -0.70    2.40
  -4  -1 -11   23.20    3.10
   4   1  11   16.00    3.60
  -5  -1 -11   17.00    3.00
   5   1  11   20.00    3.90
  -6  -1 -11    1.60    2.00
   6   1  11   -3.40    2.50
  -7  -1 -11    4.70    2.60
   7   1  11    2.60    3.10
   7  -2 -11   -0.40    2.80
  -7   2  11    4.00    3.20
   6  -2 -11    2.20    2.60
  -6   2  11    4.00    3.00
   5  -2 -11    0.30    2.20
  -5   2  11    2.00    2.70
   4  -2 -11    0.50    2.10
  -4   2  11    2.60    2.50
   3  -2 -11   22.20    3.50
  -3   2  11   27.90    3.70
   2  -2 -11   31.50    3.70
  -2   2  11   27.00    3.60
   1  -2 -11   70.49    4.80
  -1   2  11   67.29    4.50
   0  -2 -11    1.50    1.80
   0  -2 -11    5.30    1.50
   0   2  11    4.80    2.40
  -1  -2 -11   -1.30    1.10
  -1  -2 -11    1.10    1.80
   1   2  11   -2.40    2.30
  -2  -2 -11   10.30    2.00
  -2  -2 -11   10.10    2.30
   2   2  11    9.70    2.90
  -3  -2 -11    2.20    1.60
  -3  -2 -11    2.20    1.60
   3   2  11    4.40    2.50
  -4  -2 -11   -0.10    1.60
   4   2  11   -0.70    2.20
  -5  -2 -11    0.00    1.60
   5   2  11    0.50    2.40
  -6  -2 -11    4.90    2.30
   6   2  11    5.90    3.00
  -7  -2 -11    0.40    2.10
  -8  -2 -11   -2.40    2.10
   7  -3 -11   -0.80    2.50
  -7   3  11    3.10    2.90
   6  -3 -11    0.70    2.40
  -6   3  11    3.40    2.80
   5  -3 -11    0.30    2.20
  -5   3  11    6.80    3.00
   4  -3 -11    4.00    2.30
  -4   3  11    2.70    2.40
   3  -3 -11    2.60    2.20
  -3   3  11    1.40    2.40
   2  -3 -11  131.19    6.40
  -2   3  11  132.29    6.00
   1  -3 -11    2.80    2.20
  -1   3  11    3.60    2.30
   0  -3 -11   20.30    3.20
   0  -3 -11   19.50    2.20
   0   3  11   14.20    2.80
  -1  -3 -11    0.10    1.60
  -1  -3 -11   -0.60    1.10
   1   3  11   -1.90    2.00
  -2  -3 -11   -0.20    1.30
  -2  -3 -11   -0.80    1.60
   2   3  11    1.00    2.10
  -3  -3 -11   14.20    2.50
  -3  -3 -11   14.90    2.40
   3   3  11   22.20    3.10
  -4  -3 -11    7.40    2.10
   4   3  11    5.30    2.50
  -5  -3 -11   17.70    2.90
  -6  -3 -11    3.90    2.20
  -7  -3 -11    3.00    2.40
  -8  -3 -11    3.10    2.60
   6  -4 -11    0.70    2.60
  -6   4  11   -1.10    2.70
   5  -4 -11    3.50    2.70
  -5   4  11   -0.90    2.50
   4  -4 -11   33.20    4.40
  -4   4  11   35.70    3.90
   3  -4 -11   48.00    4.80
  -3   4  11   41.50    3.90
   2  -4 -11    3.00    2.30
  -2   4  11    0.40    2.20
   1  -4 -11   29.80    3.70
  -1   4  11   26.20    3.10
   0  -4 -11   33.40    3.90
   0  -4 -11   29.80    2.60
   0   4  11   35.10    3.40
  -1  -4 -11    7.00    2.20
  -1  -4 -11   11.60    2.00
   1   4  11    1.40    2.00
  -2  -4 -11   44.80    3.20
  -2  -4 -11   43.70    4.10
  -3  -4 -11    8.60    2.10
  -3  -4 -11    6.20    2.00
  -4  -4 -11   65.29    4.20
  -5  -4 -11    3.10    2.00
  -6  -4 -11    2.60    2.20
  -7  -4 -11   21.00    3.60
  -8  -4 -11    2.30    2.60
   6  -5 -11    6.00    3.00
   5  -5 -11    2.60    2.80
  -5   5  11   10.20    3.20
   4  -5 -11   -2.10    2.00
  -4   5  11    2.40    2.30
   3  -5 -11    1.70    2.40
  -3   5  11    4.80    2.30
   2  -5 -11   48.90    4.90
  -2   5  11   55.09    4.20
   1  -5 -11   13.40    3.10
   0  -5 -11    5.00    2.30
   0  -5 -11    2.60    1.50
  -1  -5 -11    2.80    2.10
  -1  -5 -11    2.00    1.50
  -2  -5 -11    1.10    1.50
  -2  -5 -11    1.00    1.80
  -3  -5 -11   17.90    3.00
  -3  -5 -11   14.90    2.50
  -4  -5 -11    1.70    1.80
  -4  -5 -11    0.00    1.80
  -5  -5 -11    8.10    2.50
  -6  -5 -11   22.00    3.40
  -7  -5 -11    5.80    2.80
  -8  -5 -11   -1.50    2.10
   6  -6 -11    0.30    2.80
   5  -6 -11    1.80    2.50
   4  -6 -11    7.50    3.10
   3  -6 -11    3.70    2.60
   2  -6 -11   -0.40    2.10
   1  -6 -11   -0.30    2.10
   0  -6 -11   37.70    4.30
   0  -6 -11   35.10    3.10
  -1  -6 -11   -3.30    1.80
  -1  -6 -11    0.80    1.50
  -2  -6 -11   -0.90    1.90
  -2  -6 -11   -1.60    1.40
  -3  -6 -11    2.50    2.20
  -3  -6 -11    1.10    1.70
  -4  -6 -11   -2.80    1.40
  -4  -6 -11    1.20    2.00
  -5  -6 -11    4.20    2.20
  -6  -6 -11    7.60    2.70
  -7  -6 -11   18.70    3.50
  -8  -6 -11    2.20    2.60
   5  -7 -11    2.60    2.80
   4  -7 -11    0.90    2.60
   3  -7 -11    5.20    2.70
   2  -7 -11    4.90    2.60
   1  -7 -11   41.30    4.90
   0  -7 -11    0.70    2.30
  -1  -7 -11   -0.80    1.50
  -1  -7 -11    4.90    2.40
  -2  -7 -11   19.50    3.30
  -2  -7 -11   15.30    2.60
  -3  -7 -11    5.30    2.60
  -3  -7 -11   -3.10    1.50
  -4  -7 -11   -1.50    1.50
  -4  -7 -11   -0.70    2.00
  -5  -7 -11   10.30    3.00
  -5  -7 -11   13.50    2.80
  -6  -7 -11   57.29    5.20
  -7  -7 -11    8.00    3.00
  -8  -7 -11    1.90    2.70
   4  -8 -11    4.10    3.00
   3  -8 -11   10.40    3.30
   2  -8 -11    0.20    2.40
   1  -8 -11   -2.00    2.00
   0  -8 -11    6.30    2.70
  -1  -8 -11    4.70    2.00
  -1  -8 -11    4.80    2.70
  -2  -8 -11   -1.30    1.50
  -2  -8 -11    1.40    2.50
  -3  -8 -11    1.20    2.30
  -3  -8 -11    5.00    2.20
  -4  -8 -11    4.10    2.50
  -4  -8 -11    1.10    1.90
  -5  -8 -11   12.70    3.30
  -5  -8 -11   14.90    3.00
  -6  -8 -11    4.70    2.70
  -7  -8 -11    8.90    3.20
   4  -9 -11    1.00    2.90
   3  -9 -11    2.90    3.10
   2  -9 -11    2.90    3.00
   1  -9 -11    6.20    2.90
   0  -9 -11   -0.30    2.70
  -1  -9 -11    8.30    2.50
  -1  -9 -11   11.50    3.30
  -2  -9 -11   -1.30    2.60
  -2  -9 -11   -1.70    1.70
  -3  -9 -11   -2.40    2.40
  -3  -9 -11    2.20    2.00
  -4  -9 -11    0.60    2.10
  -4  -9 -11   -1.60    2.60
  -5  -9 -11   -0.40    2.10
  -6  -9 -11   13.80    3.30
  -7  -9 -11   -1.80    2.20
   3 -10 -11    0.10    3.00
   2 -10 -11    0.30    3.00
   1 -10 -11   -1.00    2.80
   0 -10 -11    9.50    3.70
  -1 -10 -11    2.10    2.50
  -1 -10 -11    3.50    3.20
  -2 -10 -11   -1.10    2.80
  -2 -10 -11   -1.80    2.00
  -3 -10 -11    3.80    3.30
  -3 -10 -11    9.60    2.70
  -4 -10 -11   -0.20    2.40
  -4 -10 -11    1.00    3.40
  -5 -10 -11   17.50    3.60
  -6 -10 -11    0.10    2.30
   1 -11 -11   -1.90    3.00
   0 -11 -11    3.40    3.20
  -1 -11 -11    6.90    3.00
  -1 -11 -11    2.30    3.30
  -2 -11 -11    1.10    2.40
  -2 -11 -11    1.50    3.40
  -3 -11 -11   -8.60    2.90
  -3 -11 -11    2.00    2.60
  -4 -11 -11    7.50    2.80
  -5 -11 -11    0.90    2.50
   3   4 -12    2.90    2.90
  -3  -4  12   -0.30    3.60
   2   4 -12    2.40    2.70
  -2  -4  12    2.70    3.70
   1   4 -12    0.20    2.60
  -1  -4  12    4.10    3.90
   0   4 -12    5.70    2.90
   0  -4  12    1.90    3.80
   1  -4  12    1.70    3.70
  -2   4 -12   -1.30    1.90
   2  -4  12   -1.00    3.70
   4   3 -12   -0.50    2.20
  -4  -3  12   -2.20    3.30
   3   3 -12    1.30    2.60
  -3  -3  12   -7.70    2.90
   2   3 -12    0.90    2.40
  -2  -3  12    0.70    3.40
   1   3 -12   -1.10    2.30
  -1  -3  12   -2.90    3.40
   0   3 -12   -1.50    2.30
   0  -3  12   -1.40    3.30
  -1   3 -12    1.80    2.00
   1  -3  12   -0.90    3.50
  -2   3 -12   -0.60    1.80
   2  -3  12    1.70    3.50
  -3   3 -12   -0.70    2.00
   3  -3  12   -4.70    3.20
  -4   3 -12   -0.40    2.10
   4  -3  12   -2.20    3.50
   5   2 -12   -3.90    2.10
  -5  -2  12   -3.10    2.90
   4   2 -12    2.40    2.30
  -4  -2  12    0.20    3.30
   3   2 -12    5.50    2.60
  -3  -2  12    6.10    3.50
   2   2 -12    1.30    2.20
  -2  -2  12   -2.60    2.90
   1   2 -12    1.10    2.20
  -1  -2  12   -1.80    2.90
   0   2 -12    1.20    1.70
   0   2 -12    2.10    2.20
   0  -2  12    1.60    3.40
  -1   2 -12    4.20    1.90
  -1   2 -12    1.00    2.00
   1  -2  12    4.10    3.60
  -2   2 -12    1.70    2.00
   2  -2  12    4.60    3.80
  -3   2 -12    4.60    2.20
   3  -2  12    1.10    3.30
  -4   2 -12    6.40    2.50
   4  -2  12    1.30    3.40
  -5   2 -12    2.90    2.40
   5  -2  12    5.60    3.90
   6   1 -12    2.30    2.80
  -6  -1  12   -4.40    2.80
   5   1 -12    4.60    2.90
  -5  -1  12    3.00    3.30
   4   1 -12   -0.20    2.30
  -4  -1  12   -1.10    2.70
   3   1 -12   -0.10    2.00
  -3  -1  12   -1.60    2.70
   2   1 -12    4.90    2.40
  -2  -1  12    9.20    3.60
   1   1 -12    2.50    2.10
  -1  -1  12    6.30    3.30
   0   1 -12    0.70    1.60
   0   1 -12    4.50    2.20
   0  -1  12    4.20    3.40
  -1   1 -12    0.20    1.80
  -1   1 -12    5.30    1.90
   1  -1  12    1.20    3.10
  -2   1 -12    0.50    1.60
   2  -1  12   -2.50    3.10
  -3   1 -12    2.60    1.80
   3  -1  12    0.60    3.10
  -4   1 -12   -1.50    1.80
   4  -1  12   -3.30    3.00
  -5   1 -12    0.10    2.00
   5  -1  12    4.90    3.70
  -6   1 -12   -1.50    1.90
   6  -1  12    2.50    3.50
   6   0 -12    1.10    2.60
  -6   0  12   -2.60    3.10
   5   0 -12   10.70    3.20
  -5   0  12    7.40    3.50
   4   0 -12   13.40    3.20
  -4   0  12   17.10    3.80
   3   0 -12   12.20    3.00
  -3   0  12    5.90    3.10
   2   0 -12    5.80    2.40
  -2   0  12    6.10    3.20
   1   0 -12    6.50    2.30
  -1   0  12    7.20    3.20
   0   0 -12    1.90    1.50
   0   0 -12    1.10    2.00
   0   0  12    1.10    2.80
  -1   0 -12    4.80    1.60
  -1   0 -12    6.30    2.20
   1   0  12    5.10    3.20
  -2   0 -12    0.70    1.50
  -2   0 -12    1.80    1.80
   2   0  12    0.70    2.90
  -3   0 -12    1.30    1.70
   3   0  12   -1.70    2.90
  -4   0 -12    9.70    2.40
   4   0  12    3.80    3.40
  -5   0 -12    6.20    2.40
   5   0  12    2.10    3.20
  -6   0 -12    0.80    2.10
   6   0  12    0.40    3.20
   6  -1 -12    2.70    2.90
  -6   1  12    4.10    3.50
   5  -1 -12   25.50    4.30
  -5   1  12   20.40    4.00
   4  -1 -12    3.30    2.40
  -4   1  12    4.10    2.90
   3  -1 -12    2.10    2.20
  -3   1  12    3.10    2.80
   2  -1 -12    2.80    2.20
  -2   1  12    4.00    3.00
   1  -1 -12   -1.00    1.80
  -1   1  12   -1.60    2.60
   0  -1 -12   -1.20    1.20
   0  -1 -12   -1.40    1.70
   0   1  12   -4.50    2.40
  -1  -1 -12    3.10    2.00
  -1  -1 -12    2.80    1.50
   1   1  12    4.50    3.00
  -2  -1 -12    3.40    1.70
  -2  -1 -12    2.50    2.00
   2   1  12   -1.30    2.70
  -3  -1 -12   -1.30    1.40
   3   1  12   -2.80    2.50
  -4  -1 -12    4.60    2.10
   4   1  12   14.70    3.70
  -5  -1 -12    1.50    2.00
   5   1  12   -3.50    2.60
  -6  -1 -12    1.70    2.10
   6   1  12    4.50    3.40
  -7  -1 -12    2.00    2.00
   6  -2 -12    8.00    3.30
  -6   2  12    6.70    3.50
   5  -2 -12    1.00    2.40
  -5   2  12    0.70    2.90
   4  -2 -12    4.60    2.80
  -4   2  12    7.40    3.10
   3  -2 -12   10.40    2.80
  -3   2  12    5.60    2.90
   2  -2 -12    0.10    1.80
  -2   2  12   -0.30    2.50
   1  -2 -12    5.30    2.30
  -1   2  12    1.60    2.60
   0  -2 -12   16.60    3.00
   0   2  12   16.50    3.50
  -1  -2 -12   14.10    2.20
  -1  -2 -12   11.70    2.70
   1   2  12   12.20    3.30
  -2  -2 -12   -0.40    1.70
  -2  -2 -12   -1.30    1.30
   2   2  12    1.60    2.40
  -3  -2 -12    6.20    2.00
   3   2  12    0.10    2.20
  -4  -2 -12    1.50    1.70
   4   2  12   -4.30    2.10
  -5  -2 -12    3.00    2.00
   5   2  12   -2.70    2.30
  -6  -2 -12    0.00    1.90
  -7  -2 -12   -2.70    1.90
   6  -3 -12    2.20    2.90
  -6   3  12    4.30    3.20
   5  -3 -12   17.40    3.90
  -5   3  12   19.30    3.70
   4  -3 -12    2.80    2.40
  -4   3  12   -2.40    2.50
   3  -3 -12   -3.00    1.90
  -3   3  12   -3.80    2.40
   2  -3 -12   20.40    3.50
  -2   3  12   20.30    3.40
   1  -3 -12   35.30    4.10
  -1   3  12   39.30    4.10
   0  -3 -12    1.10    2.10
   0   3  12   -1.50    2.30
  -1  -3 -12   28.70    3.50
  -1  -3 -12   34.00    2.90
   1   3  12   36.00    4.00
  -2  -3 -12    4.00    2.00
  -2  -3 -12    3.40    1.60
   2   3  12    2.40    2.40
  -3  -3 -12    4.20    2.10
  -3  -3 -12    5.80    1.90
  -4  -3 -12    1.40    1.70
  -5  -3 -12   -0.40    1.70
  -6  -3 -12    0.60    2.00
  -7  -3 -12    7.00    2.60
   6  -4 -12   19.90    4.30
  -6   4  12   10.90    3.50
   5  -4 -12    4.60    2.60
  -5   4  12    3.50    2.80
   4  -4 -12    3.40    2.70
  -4   4  12    1.80    2.60
   3  -4 -12    6.10    2.70
  -3   4  12    0.90    2.50
   2  -4 -12   10.10    2.90
  -2   4  12    8.70    2.80
   1  -4 -12   34.50    4.20
  -1   4  12   33.10    3.70
   0  -4 -12   30.80    4.00
  -1  -4 -12    2.80    2.00
  -1  -4 -12    1.30    1.60
  -2  -4 -12   10.80    2.20
  -2  -4 -12   10.80    2.60
  -3  -4 -12    2.60    2.00
  -3  -4 -12   -0.90    1.40
  -4  -4 -12   -0.10    1.70
  -5  -4 -12    0.30    1.80
  -6  -4 -12    0.50    2.00
  -7  -4 -12   -1.90    1.90
   6  -5 -12    6.40    3.50
  -6   5  12    5.00    3.10
   5  -5 -12   10.30    3.50
  -5   5  12   10.00    3.30
   4  -5 -12    0.60    2.50
  -4   5  12    1.40    2.50
   3  -5 -12    7.70    2.80
   2  -5 -12   39.00    4.50
   1  -5 -12    5.00    2.60
   0  -5 -12   19.00    3.50
  -1  -5 -12    3.70    1.80
  -1  -5 -12    3.80    2.30
  -2  -5 -12   21.40    2.80
  -2  -5 -12   23.80    3.50
  -3  -5 -12    2.80    1.90
  -3  -5 -12    7.50    2.40
  -4  -5 -12    2.80    2.00
  -4  -5 -12    1.50    1.90
  -5  -5 -12    3.20    2.00
  -6  -5 -12    1.00    2.10
  -7  -5 -12    1.00    2.40
  -8  -5 -12   -2.20    2.20
   5  -6 -12    6.20    3.30
   4  -6 -12    4.30    2.90
   3  -6 -12    9.40    3.20
   2  -6 -12    6.20    2.80
   1  -6 -12   12.40    3.00
   0  -6 -12    0.70    2.20
  -1  -6 -12   25.10    3.00
  -1  -6 -12   22.00    3.60
  -2  -6 -12    9.20    2.80
  -2  -6 -12    7.00    2.20
  -3  -6 -12   -0.90    1.50
  -3  -6 -12    2.00    2.10
  -4  -6 -12   -1.80    1.60
  -4  -6 -12    7.00    2.50
  -5  -6 -12    6.10    2.30
  -6  -6 -12   -0.10    2.10
  -7  -6 -12    9.80    3.10
   5  -7 -12   -0.60    2.80
   4  -7 -12    3.50    2.90
   3  -7 -12    7.00    3.30
   2  -7 -12   16.30    3.50
   1  -7 -12    0.40    2.40
   0  -7 -12    2.20    2.50
  -1  -7 -12   -0.70    1.60
  -1  -7 -12    1.10    2.40
  -2  -7 -12    1.90    2.30
  -2  -7 -12    0.30    1.70
  -3  -7 -12   -0.70    1.70
  -3  -7 -12    1.70    2.30
  -4  -7 -12   15.80    3.30
  -4  -7 -12   16.00    3.00
  -5  -7 -12    1.30    2.00
  -6  -7 -12   10.90    3.00
  -7  -7 -12    1.80    2.30
   4  -8 -12    5.40    3.20
   3  -8 -12   15.70    4.00
   2  -8 -12   -0.50    2.50
   1  -8 -12    7.50    3.20
   0  -8 -12    3.90    2.70
  -1  -8 -12    4.50    2.10
  -1  -8 -12    2.20    2.70
  -2  -8 -12    8.10    3.10
  -2  -8 -12    4.00    2.10
  -3  -8 -12   11.30    3.10
  -3  -8 -12   13.90    2.80
  -4  -8 -12    7.80    3.00
  -4  -8 -12    3.20    2.30
  -5  -8 -12    5.20    2.40
  -6  -8 -12    1.20    2.30
  -7  -8 -12    2.80    2.60
   3  -9 -12    4.60    3.10
   2  -9 -12   14.10    3.80
   1  -9 -12    4.20    2.80
   0  -9 -12   13.00    3.80
  -1  -9 -12   26.40    4.50
  -2  -9 -12   -1.40    1.90
  -2  -9 -12   -0.50    2.60
  -3  -9 -12   -2.90    1.60
  -3  -9 -12    2.80    2.90
  -4  -9 -12    3.80    2.50
  -4  -9 -12    6.70    3.10
  -5  -9 -12   -4.80    2.80
  -5  -9 -12   -2.90    2.00
  -6  -9 -12    2.70    2.50
   2 -10 -12    4.50    3.40
   1 -10 -12   10.40    3.50
   0 -10 -12    6.30    3.40
  -1 -10 -12    1.80    3.10
  -2 -10 -12    0.20    2.20
  -2 -10 -12    8.80    3.40
  -3 -10 -12    8.50    3.40
  -3 -10 -12    3.10    2.50
  -4 -10 -12   -6.10    2.80
  -4 -10 -12   -2.00    2.10
  -5 -10 -12   -0.60    2.20
   0 -11 -12   -1.10    2.60
  -1 -11 -12    1.80    3.30
  -2 -11 -12    0.20    3.10
  -2 -11 -12    4.30    2.70
  -3 -11 -12   -0.30    2.60
  -3 -11 -12   -7.70    2.80
  -4 -11 -12    0.80    2.20
   3   3 -13   13.50    3.70
  -3  -3  13    9.70    4.50
   2   3 -13    0.90    2.60
  -2  -3  13   -0.10    3.70
   1   3 -13    1.10    2.50
  -1  -3  13    4.20    4.00
   0   3 -13   12.50    3.30
   0  -3  13   13.60    4.90
  -1   3 -13   -1.80    1.90
   1  -3  13    0.10    3.80
  -2   3 -13    4.20    2.40
   2  -3  13   -0.40    3.60
   4   2 -13    6.30    3.20
  -4  -2  13    6.60    4.20
   3   2 -13   14.20    3.40
  -3  -2  13    5.00    3.80
   2   2 -13    5.80    2.70
  -2  -2  13   -1.40    3.30
   1   2 -13   16.90    3.50
  -1  -2  13    8.50    4.20
   0   2 -13   -0.60    2.30
   0  -2  13    3.10    3.70
  -1   2 -13   17.80    2.90
  -1   2 -13   17.40    3.30
   1  -2  13   12.60    4.60
  -2   2 -13    2.60    2.10
   2  -2  13    1.20    3.60
  -3   2 -13   -1.10    1.80
   3  -2  13   -0.30    3.40
  -4   2 -13    3.40    2.40
   4  -2  13    4.30    4.20
   5   1 -13    8.00    3.30
  -5  -1  13   -5.70    3.00
   4   1 -13   13.00    3.70
  -4  -1  13   13.60    4.40
   3   1 -13   -2.40    2.10
  -3  -1  13   -2.70    3.10
   2   1 -13    2.30    2.40
  -2  -1  13   -1.30    3.00
   1   1 -13    0.40    2.20
  -1  -1  13   -4.20    2.90
   0   1 -13    6.40    2.50
   0  -1  13    0.40    3.40
  -1   1 -13    5.30    2.40
  -1   1 -13    6.50    2.10
   1  -1  13    2.00    3.50
  -2   1 -13    1.70    1.80
   2  -1  13    3.10    3.50
  -3   1 -13   -0.50    1.70
   3  -1  13    3.70    3.70
  -4   1 -13    5.40    2.50
   4  -1  13    5.70    4.00
  -5   1 -13    9.60    2.70
   5  -1  13    5.40    4.20
   5   0 -13   21.10    4.30
  -5   0  13   13.70    4.10
   4   0 -13    4.40    2.70
  -4   0  13   -2.00    3.10
   3   0 -13   -1.50    2.10
  -3   0  13    0.40    3.30
   2   0 -13    3.70    2.40
  -2   0  13   -3.10    2.80
   1   0 -13    3.90    2.40
  -1   0  13    4.30    3.30
   0   0 -13    0.70    2.00
   0   0  13   -0.50    3.10
  -1   0 -13    1.80    2.10
  -1   0 -13   -2.00    1.40
   1   0  13    1.60    3.20
  -2   0 -13    0.60    1.60
   2   0  13   -4.00    3.00
  -3   0 -13    3.20    2.00
   3   0  13    4.00    3.40
  -4   0 -13    5.30    2.20
   4   0  13    6.10    3.70
  -5   0 -13    2.90    2.30
   5   0  13    9.00    3.80
   5  -1 -13    3.70    2.60
  -5   1  13   -1.00    3.30
   4  -1 -13   23.30    4.10
  -4   1  13   17.50    4.10
   3  -1 -13    2.70    2.40
  -3   1  13    0.00    3.00
   2  -1 -13    5.80    2.60
  -2   1  13    0.60    3.20
   1  -1 -13   16.40    3.20
  -1   1  13   11.50    3.60
   0  -1 -13    5.90    2.40
   0   1  13    3.30    3.10
  -1  -1 -13   -0.50    1.40
  -1  -1 -13    1.20    2.00
   1   1  13    4.60    3.20
  -2  -1 -13   -2.00    1.40
  -2  -1 -13   -0.60    1.80
   2   1  13    1.30    3.00
  -3  -1 -13    1.70    1.70
   3   1  13    1.70    3.00
  -4  -1 -13    1.30    1.90
   4   1  13   -0.10    3.00
  -5  -1 -13    8.90    2.50
   5   1  13    9.00    3.60
  -6  -1 -13   -0.40    1.90
   5  -2 -13   19.60    4.00
  -5   2  13   10.00    3.70
   4  -2 -13    0.70    2.40
  -4   2  13   -3.30    2.80
   3  -2 -13   -1.20    2.10
  -3   2  13   -2.00    2.80
   2  -2 -13   19.40    3.60
  -2   2  13   15.70    3.60
   1  -2 -13   18.20    3.30
  -1   2  13   17.20    3.90
   0  -2 -13   10.30    2.80
   0   2  13   15.30    3.50
  -1  -2 -13    7.60    2.60
  -1  -2 -13    6.10    1.80
   1   2  13    6.00    3.20
  -2  -2 -13    2.80    2.00
  -2  -2 -13    3.20    1.60
   2   2  13    0.10    2.80
  -3  -2 -13   -0.60    1.50
   3   2  13   -4.80    2.30
  -4  -2 -13    2.50    1.90
  -5  -2 -13   -1.40    1.70
  -6  -2 -13   -1.30    1.80
   5  -3 -13    0.40    2.90
  -5   3  13   -3.20    3.00
   4  -3 -13    4.90    2.80
  -4   3  13   -3.80    2.80
   3  -3 -13   -0.10    2.10
  -3   3  13   -0.80    2.60
   2  -3 -13   -1.00    2.10
  -2   3  13   -2.20    2.40
   1  -3 -13    9.80    3.00
  -1   3  13    8.30    3.00
   0  -3 -13    4.10    2.20
   0   3  13    6.10    3.00
  -1  -3 -13    4.20    1.70
  -1  -3 -13    2.30    2.30
   1   3  13    6.10    2.90
  -2  -3 -13    0.20    1.50
  -2  -3 -13    1.50    2.00
  -3  -3 -13    1.80    1.70
  -4  -3 -13   -0.70    1.60
  -5  -3 -13   -0.50    1.80
  -6  -3 -13    2.70    2.30
  -7  -3 -13   -1.10    1.90
   5  -4 -13    2.90    3.00
  -5   4  13    9.00    3.30
   4  -4 -13    5.90    2.80
  -4   4  13   -3.30    2.60
   3  -4 -13    3.60    2.50
  -3   4  13   -1.20    2.40
   2  -4 -13    8.70    2.90
  -2   4  13    8.50    3.10
   1  -4 -13    4.90    2.60
   0  -4 -13    5.40    2.50
  -1  -4 -13    6.00    2.60
  -1  -4 -13    3.50    1.80
  -2  -4 -13   10.80    2.80
  -2  -4 -13   13.80    2.50
  -3  -4 -13    2.30    1.80
  -3  -4 -13    4.20    2.30
  -4  -4 -13   10.40    2.50
  -5  -4 -13    1.20    1.90
  -6  -4 -13    3.00    2.30
  -7  -4 -13   -0.70    2.20
   5  -5 -13   11.50    3.70
   4  -5 -13    1.00    2.60
   3  -5 -13   18.00    3.80
   2  -5 -13    3.70    2.70
   1  -5 -13    0.80    2.30
   0  -5 -13    8.30    2.90
  -1  -5 -13   30.10    4.10
  -2  -5 -13   33.90    3.50
  -2  -5 -13   38.40    4.50
  -3  -5 -13    4.20    2.30
  -3  -5 -13    0.40    2.00
  -4  -5 -13   -2.10    1.60
  -5  -5 -13    2.50    2.10
  -6  -5 -13    4.80    2.40
  -7  -5 -13    0.50    2.40
   4  -6 -13    1.00    2.70
   3  -6 -13   -2.20    2.40
   2  -6 -13   23.60    4.10
   1  -6 -13    2.50    2.50
   0  -6 -13    4.00    2.70
  -1  -6 -13   15.90    3.40
  -2  -6 -13   -0.30    1.60
  -2  -6 -13    1.40    2.40
  -3  -6 -13   13.20    3.10
  -3  -6 -13   17.50    2.90
  -4  -6 -13   12.00    2.70
  -5  -6 -13   15.20    3.00
  -6  -6 -13    0.10    2.10
  -7  -6 -13    1.00    2.40
   4  -7 -13    2.60    3.00
   3  -7 -13   12.80    3.70
   2  -7 -13   10.10    3.30
   1  -7 -13    1.80    2.60
   0  -7 -13    1.30    2.40
  -1  -7 -13   -1.40    2.20
  -2  -7 -13   14.60    2.70
  -2  -7 -13   21.60    3.90
  -3  -7 -13    0.20    2.40
  -3  -7 -13    0.50    1.90
  -4  -7 -13    5.20    2.70
  -4  -7 -13    2.90    2.20
  -5  -7 -13    5.00    2.60
  -6  -7 -13    5.50    2.60
  -7  -7 -13   -1.20    2.30
   3  -8 -13    5.20    3.30
   2  -8 -13    3.60    3.10
   1  -8 -13    5.80    3.10
   0  -8 -13    4.20    2.90
  -1  -8 -13   20.10    4.00
  -2  -8 -13   -0.20    2.70
  -2  -8 -13    0.60    1.90
  -3  -8 -13    2.40    2.20
  -4  -8 -13    7.80    3.20
  -4  -8 -13    8.90    2.80
  -5  -8 -13    9.70    2.90
  -6  -8 -13    6.90    2.90
   2  -9 -13    8.60    3.50
   1  -9 -13    1.60    2.60
   0  -9 -13    8.70    3.50
  -1  -9 -13   -0.90    2.60
  -2  -9 -13   -1.20    2.70
  -2  -9 -13   -1.70    1.80
  -3  -9 -13   -0.80    2.70
  -3  -9 -13    0.30    2.00
  -4  -9 -13   -0.80    2.50
  -4  -9 -13   -1.30    1.90
  -5  -9 -13   15.00    3.50
  -6  -9 -13   -1.70    2.20
   1 -10 -13   -0.60    2.70
   0 -10 -13    0.60    3.00
  -1 -10 -13    3.80    3.40
  -2 -10 -13    1.00    2.00
  -2 -10 -13    1.60    3.20
  -3 -10 -13    1.10    2.20
  -3 -10 -13    7.50    3.30
  -4 -10 -13   -7.90    2.70
  -4 -10 -13    0.80    2.50
  -5 -10 -13   -2.90    2.10
  -2 -11 -13    2.90    3.30
   2   2 -14    1.60    2.60
  -2  -2  14    0.20    3.70
   1   2 -14    9.00    3.10
  -1  -2  14    3.20    4.30
   0   2 -14   15.20    3.40
   0  -2  14   12.00    4.80
   1  -2  14   12.80    4.90
  -2   2 -14    3.00    2.20
   2  -2  14    2.60    4.10
   3   1 -14    7.70    3.10
  -3  -1  14   -4.20    3.30
   2   1 -14    4.80    2.80
  -2  -1  14    7.90    4.10
   1   1 -14    6.20    2.90
  -1  -1  14    4.00    3.90
   0   1 -14   42.30    4.60
   0  -1  14   34.80    6.00
   1  -1  14   -2.40    3.40
  -2   1 -14    4.80    2.20
   2  -1  14    0.40    3.70
  -3   1 -14    4.10    2.10
   3  -1  14   -6.10    3.00
   4   0 -14   21.10    4.00
  -4   0  14   10.00    4.20
   3   0 -14    2.70    2.50
  -3   0  14   -0.80    3.40
   2   0 -14    0.70    2.30
  -2   0  14   -3.50    3.10
   1   0 -14   29.70    4.20
  -1   0  14   28.80    5.20
   0   0 -14   -1.10    2.30
   0   0  14   -1.50    3.20
  -1   0 -14   -0.10    2.20
   1   0  14   -3.70    3.10
  -2   0 -14    0.90    1.70
   2   0  14   -3.80    3.20
  -3   0 -14    5.40    2.30
   3   0  14    2.50    3.50
  -4   0 -14    2.40    2.10
   4   0  14    0.70    3.50
   4  -1 -14    5.60    3.00
  -4   1  14    7.80    3.90
   3  -1 -14   15.40    3.60
  -3   1  14   11.10    4.10
   2  -1 -14    9.60    3.10
  -2   1  14   18.20    4.50
   1  -1 -14    0.90    2.40
  -1   1  14   -4.20    2.90
   0  -1 -14    3.30    2.50
   0   1  14    5.30    3.70
  -1  -1 -14    2.30    2.20
   1   1  14   -0.60    3.10
  -2  -1 -14   16.40    2.80
   2   1  14   19.50    4.30
  -3  -1 -14    3.60    2.10
   3   1  14    0.70    3.40
  -4  -1 -14    6.20    2.30
   4   1  14    0.80    3.00
  -5  -1 -14   -0.60    1.90
   4  -2 -14   14.30    3.70
  -4   2  14    7.80    3.90
   3  -2 -14    3.60    2.60
  -3   2  14    4.90    3.70
   2  -2 -14   -0.80    2.20
  -2   2  14   -6.70    2.40
   1  -2 -14   36.30    4.40
  -1   2  14   41.30    5.10
   0  -2 -14    9.20    3.00
   0   2  14    6.40    3.60
  -1  -2 -14    9.40    2.90
   1   2  14    8.40    3.60
  -2  -2 -14    4.40    2.50
  -2  -2 -14    3.60    2.00
   2   2  14    1.20    3.10
  -3  -2 -14   22.10    3.10
  -4  -2 -14    1.00    1.90
  -5  -2 -14    4.20    2.30
   4  -3 -14    0.00    2.40
  -4   3  14   -1.60    3.20
   3  -3 -14    0.80    2.40
  -3   3  14    0.20    3.20
   2  -3 -14   19.90    3.80
  -2   3  14   16.60    4.00
   1  -3 -14    5.40    2.80
  -1   3  14    3.80    3.20
   0  -3 -14   -1.10    2.20
  -1  -3 -14    2.40    2.30
  -2  -3 -14   11.40    2.30
  -2  -3 -14   13.00    3.00
  -3  -3 -14    0.10    1.60
  -4  -3 -14    0.60    1.90
  -5  -3 -14    0.00    2.00
  -6  -3 -14    6.70    2.60
   4  -4 -14   -3.60    2.00
   3  -4 -14    0.40    2.50
   2  -4 -14    4.30    2.70
   1  -4 -14    4.80    2.70
   0  -4 -14    0.20    2.40
  -1  -4 -14   10.70    2.90
  -2  -4 -14    7.30    2.20
  -2  -4 -14    8.00    2.70
  -3  -4 -14    2.00    2.00
  -4  -4 -14   20.90    3.20
  -5  -4 -14   -0.30    1.90
  -6  -4 -14   13.50    3.00
   4  -5 -14    0.30    2.60
   3  -5 -14    3.00    2.70
   2  -5 -14    3.90    2.80
   1  -5 -14   -0.50    2.50
   0  -5 -14   10.50    3.10
  -1  -5 -14   25.30    4.00
  -2  -5 -14    4.00    2.00
  -2  -5 -14    8.10    3.00
  -3  -5 -14   -1.10    1.70
  -3  -5 -14    5.90    2.50
  -4  -5 -14   -1.90    1.90
  -5  -5 -14   14.00    3.10
  -6  -5 -14    6.70    2.80
   4  -6 -14    5.70    3.20
   3  -6 -14    0.30    2.40
   2  -6 -14   -1.00    2.50
   1  -6 -14   -1.60    2.30
   0  -6 -14    4.00    2.80
  -1  -6 -14    6.80    2.90
  -2  -6 -14   20.90    3.10
  -2  -6 -14   20.30    3.70
  -3  -6 -14    3.40    2.10
  -3  -6 -14    2.50    2.40
  -4  -6 -14    0.10    1.90
  -5  -6 -14    2.90    2.30
  -6  -6 -14   23.20    3.90
   3  -7 -14   -0.80    2.50
   2  -7 -14    4.10    3.00
   1  -7 -14    2.30    2.80
   0  -7 -14    0.60    2.50
  -1  -7 -14    8.80    3.40
  -2  -7 -14    3.70    2.70
  -3  -7 -14    2.00    2.40
  -3  -7 -14    0.00    2.00
  -4  -7 -14    4.20    2.50
  -5  -7 -14   26.60    4.00
  -6  -7 -14    1.90    2.60
   2  -8 -14    1.90    2.90
   1  -8 -14    0.50    2.70
   0  -8 -14    3.10    2.90
  -1  -8 -14    2.50    2.90
  -2  -8 -14    3.10    2.80
  -3  -8 -14    1.70    2.20
  -3  -8 -14    3.40    2.90
  -4  -8 -14    4.50    2.60
  -4  -8 -14    2.00    2.90
  -5  -8 -14   15.20    3.40
   1  -9 -14   10.40    3.60
   0  -9 -14    4.30    3.20
  -1  -9 -14   20.30    4.40
  -2  -9 -14    4.60    3.00
  -3  -9 -14    1.90    2.90
  -4  -9 -14   29.20    4.60
  -4  -9 -14   18.00    3.60
  -5  -9 -14   13.70    3.50
   0 -10 -14    9.40    3.80
  -1 -10 -14    2.10    3.40
  -2 -10 -14    2.10    3.10
  -3 -10 -14   17.60    3.60
  -3 -10 -14   12.70    4.10
   1   1 -15    5.70    2.90
  -1  -1  15   -3.60    3.60
   0   1 -15    2.90    2.70
   0  -1  15   -4.50    3.50
   1  -1  15    5.40    4.50
   2   0 -15    0.40    2.50
  -2   0  15   -0.30    3.60
   1   0 -15    0.70    2.50
  -1   0  15   -2.00    3.50
   0   0 -15    1.40    2.50
   0   0  15   -3.70    3.70
   1   0  15    1.00    3.70
   2   0  15    3.20    3.90
  -3   0 -15    0.20    1.90
   3   0  15   -5.40    3.30
   3  -1 -15   -0.80    2.40
  -3   1  15   -2.50    3.30
   2  -1 -15   -3.50    2.10
  -2   1  15   -6.50    3.00
   1  -1 -15    0.90    2.50
  -1   1  15    3.30    3.70
   0  -1 -15    2.40    2.70
   0   1  15    3.30    3.90
  -1  -1 -15    6.40    2.90
   1   1  15    3.80    3.70
   2   1  15    3.00    3.80
  -3  -1 -15    1.60    2.00
  -4  -1 -15    6.10    2.40
   3  -2 -15    0.50    2.60
  -3   2  15   -9.20    3.00
   2  -2 -15    3.50    2.80
  -2   2  15   -0.90    3.30
   1  -2 -15    0.00    2.50
  -1   2  15   -3.70    3.30
   0  -2 -15   14.20    3.60
   0   2  15    9.40    4.10
  -1  -2 -15   -0.10    2.60
  -3  -2 -15    1.30    2.10
  -4  -2 -15    0.50    2.00
   3  -3 -15    2.90    2.70
  -3   3  15    0.90    3.80
   2  -3 -15    0.50    2.60
   1  -3 -15   16.80    3.90
   0  -3 -15    3.20    2.40
  -1  -3 -15   19.70    3.80
  -2  -3 -15   10.10    3.20
  -3  -3 -15    1.40    1.90
  -4  -3 -15    4.40    2.10
  -5  -3 -15    9.20    2.80
   3  -4 -15    0.30    2.60
   2  -4 -15    2.20    2.80
   1  -4 -15    0.30    2.40
   0  -4 -15    4.00    2.80
  -1  -4 -15    1.40    2.70
  -2  -4 -15    2.30    2.70
  -3  -4 -15    1.80    2.00
  -4  -4 -15    1.30    1.90
  -5  -4 -15   11.50    3.10
   3  -5 -15    1.60    2.90
   2  -5 -15   -4.10    2.10
   1  -5 -15    3.50    2.80
   0  -5 -15    0.40    2.60
  -1  -5 -15   -0.20    2.50
  -2  -5 -15   30.40    4.50
  -3  -5 -15   10.70    2.70
  -4  -5 -15    1.80    2.40
  -5  -5 -15   18.00    3.50
   3  -6 -15    4.80    3.00
   2  -6 -15    1.00    2.70
   1  -6 -15    0.50    2.60
   0  -6 -15   -1.70    2.40
  -1  -6 -15   24.40    4.20
  -2  -6 -15    4.80    2.80
  -3  -6 -15    7.50    3.00
  -3  -6 -15   10.10    2.80
  -4  -6 -15    6.60    2.70
  -5  -6 -15   15.40    3.40
   2  -7 -15    0.10    2.70
   1  -7 -15   -2.60    2.40
   0  -7 -15    0.30    2.70
  -1  -7 -15   -2.20    2.50
  -2  -7 -15   10.10    3.40
  -3  -7 -15   -2.20    1.90
  -3  -7 -15   -0.40    2.50
  -4  -7 -15    7.50    2.90
  -5  -7 -15   48.70    5.10
   1  -8 -15   -1.20    2.90
   0  -8 -15   11.30    3.70
  -1  -8 -15    3.80    3.10
  -2  -8 -15    2.00    2.90
  -3  -8 -15    1.30    2.80
  -4  -8 -15   13.30    3.40
   0  -9 -15    3.60    3.20
  -1  -9 -15    8.40    3.60
  -2  -9 -15    2.00    3.10
  -3  -9 -15    0.40    2.80
   0  -1 -16    1.90    2.70
   0   1  16   -5.60    3.60
   1   1  16    0.10    3.90
   1  -2 -16   -1.30    2.50
   0  -2 -16    2.80    2.90
  -1  -2 -16    2.60    2.60
   2  -3 -16    4.10    2.90
   1  -3 -16    1.20    2.60
   0  -3 -16    3.40    2.80
  -1  -3 -16    8.60    3.20
   2  -4 -16   -0.70    2.60
   1  -4 -16   -0.90    2.30
   0  -4 -16    9.80    3.40
  -1  -4 -16   -3.80    2.40
  -2  -4 -16    3.60    2.70
   2  -5 -16   -0.40    2.70
   1  -5 -16    0.10    2.80
   0  -5 -16   -2.30    2.70
  -1  -5 -16   10.80    3.40
  -2  -5 -16    2.10    2.50
  -4  -5 -16    1.10    2.40
   1  -6 -16    4.10    3.10
   0  -6 -16   -0.30    2.70
  -1  -6 -16   10.30    3.60
  -2  -6 -16    5.30    2.90
  -4  -6 -16   10.40    3.00
   0  -7 -16    5.60    3.40
  -1  -7 -16    6.40    3.30
  -2  -7 -16    0.30    2.80
  -3  -7 -16    9.90    3.40
   0   0   0    0.00    0.00

_computing_structure_solution     'SHELXT 2014/5 (Sheldrick, 2014)'
;
_shelx_hkl_checksum              89610
_shelx_shelxl_version_number     2016/6
_olex2_submission_special_instructions 'No special instructions were received'
loop_
_space_group_symop_operation_xyz
'x, y, z'
'-x, -y, -z'
loop_
_atom_site_label
_atom_site_type_symbol
_atom_site_fract_x
_atom_site_fract_y
_atom_site_fract_z
_atom_site_U_iso_or_equiv
_atom_site_adp_type
_atom_site_occupancy
_atom_site_site_symmetry_order
_atom_site_calc_flag
_atom_site_refinement_flags_posn
O1 O 0.9081(2) 0.2666(2) 0.10243(13) 0.0968(6) Uani 1 1 d .
O2 O 0.98983(13) 0.32182(15) 0.37621(10) 0.0495(3) Uani 1 1 d .
H2 H 1.017374 0.380169 0.409522 0.074 Uiso 1 1 calc GR
O3 O 0.8993(2) 0.37145(19) 0.59742(12) 0.0779(5) Uani 1 1 d .
O4 O 0.72926(16) 0.18860(15) 0.71452(10) 0.0539(3) Uani 1 1 d .
C1 C 0.5482(2) 0.2147(2) 0.51429(15) 0.0492(4) Uani 1 1 d .
H1 H 0.491380 0.178753 0.590938 0.059 Uiso 1 1 calc R
C2 C 0.4611(2) 0.2112(2) 0.41079(16) 0.0529(4) Uani 1 1 d .
H2A H 0.337947 0.197950 0.417932 0.063 Uiso 1 1 calc R
C3 C 0.5529(2) 0.2265(2) 0.30555(15) 0.0501(4) Uani 1 1 d .
C4 C 0.7576(2) 0.2428(2) 0.29600(14) 0.0431(4) Uani 1 1 d .
C5 C 0.8113(3) 0.3363(3) 0.16286(17) 0.0610(5) Uani 1 1 d .
C6 C 0.7366(3) 0.5173(3) 0.11149(18) 0.0809(7) Uani 1 1 d .
H6A H 0.603628 0.534771 0.102647 0.097 Uiso 1 1 calc R
H6B H 0.792038 0.564160 0.031326 0.097 Uiso 1 1 calc R
C7 C 0.7777(3) 0.6039(3) 0.19320(19) 0.0798(6) Uani 1 1 d .
H7A H 0.910354 0.599831 0.193173 0.096 Uiso 1 1 calc R
H7B H 0.717934 0.718268 0.162073 0.096 Uiso 1 1 calc R
C8 C 0.7078(3) 0.5224(2) 0.32218(17) 0.0592(5) Uani 1 1 d .
H8A H 0.573931 0.534337 0.322385 0.071 Uiso 1 1 calc R
H8B H 0.737490 0.577860 0.373289 0.071 Uiso 1 1 calc R
C9 C 0.79262(19) 0.3399(2) 0.37592(14) 0.0406(4) Uani 1 1 d .
C10 C 0.7086(2) 0.2684(2) 0.50231(14) 0.0418(4) Uani 1 1 d .
C11 C 0.7899(2) 0.2824(2) 0.60695(16) 0.0500(4) Uani 1 1 d .
C12 C 0.8043(3) 0.1955(3) 0.82202(16) 0.0649(5) Uani 1 1 d .
H12A H 0.762373 0.303193 0.827533 0.078 Uiso 1 1 calc R
H12B H 0.938778 0.175124 0.817022 0.078 Uiso 1 1 calc R
C13 C 0.7388(3) 0.0686(3) 0.93027(17) 0.0877(8) Uani 1 1 d .
H13A H 0.781992 -0.037601 0.924346 0.132 Uiso 1 1 calc GR
H13B H 0.605732 0.089718 0.934398 0.132 Uiso 1 1 calc GR
H13C H 0.786250 0.071277 1.002367 0.132 Uiso 1 1 calc GR
C14 C 0.4699(3) 0.2042(3) 0.20227(18) 0.0844(7) Uani 1 1 d .
H14A H 0.464100 0.302877 0.131788 0.127 Uiso 1 1 calc GR
H14B H 0.347125 0.181057 0.225572 0.127 Uiso 1 1 calc GR
H14C H 0.545569 0.114511 0.183623 0.127 Uiso 1 1 calc GR
C15 C 0.8723(2) 0.0686(2) 0.33928(17) 0.0575(5) Uani 1 1 d .
H15A H 1.001842 0.074231 0.326598 0.086 Uiso 1 1 calc GR
H15B H 0.839781 0.008019 0.293952 0.086 Uiso 1 1 calc GR
H15C H 0.846990 0.014517 0.424391 0.086 Uiso 1 1 calc GR
loop_
_atom_site_aniso_label
_atom_site_aniso_U_11
_atom_site_aniso_U_22
_atom_site_aniso_U_33
_atom_site_aniso_U_23
_atom_site_aniso_U_13
_atom_site_aniso_U_12
O1 0.1183(14) 0.1263(15) 0.0629(9) -0.0498(11) 0.0329(9) -0.0458(12)
O2 0.0350(6) 0.0620(8) 0.0554(7) -0.0231(6) -0.0031(5) -0.0123(5)
O3 0.1037(11) 0.0916(11) 0.0569(8) -0.0262(8) -0.0019(7) -0.0591(9)
O4 0.0591(7) 0.0678(8) 0.0432(7) -0.0251(6) 0.0017(5) -0.0211(6)
C1 0.0439(9) 0.0588(11) 0.0497(9) -0.0263(9) 0.0079(7) -0.0113(8)
C2 0.0337(8) 0.0661(12) 0.0633(11) -0.0259(10) -0.0021(8) -0.0127(8)
C3 0.0456(9) 0.0593(11) 0.0477(9) -0.0173(9) -0.0084(7) -0.0145(8)
C4 0.0395(8) 0.0514(10) 0.0408(8) -0.0184(8) -0.0008(6) -0.0100(7)
C5 0.0587(11) 0.0826(15) 0.0468(10) -0.0207(11) -0.0008(8) -0.0288(10)
C6 0.0788(14) 0.0930(18) 0.0527(12) 0.0052(12) -0.0129(10) -0.0294(13)
C7 0.0883(15) 0.0523(13) 0.0807(15) 0.0053(11) -0.0205(12) -0.0191(11)
C8 0.0600(11) 0.0424(10) 0.0710(12) -0.0158(10) -0.0128(9) -0.0030(8)
C9 0.0322(7) 0.0442(9) 0.0464(9) -0.0171(8) -0.0037(6) -0.0065(6)
C10 0.0381(8) 0.0453(9) 0.0453(9) -0.0223(8) 0.0002(7) -0.0033(7)
C11 0.0531(10) 0.0527(11) 0.0509(10) -0.0245(9) 0.0022(8) -0.0144(8)
C12 0.0731(13) 0.0858(15) 0.0519(11) -0.0379(11) -0.0016(9) -0.0243(11)
C13 0.1062(18) 0.119(2) 0.0492(12) -0.0297(14) 0.0034(12) -0.0480(16)
C14 0.0788(14) 0.129(2) 0.0583(12) -0.0280(13) -0.0139(10) -0.0512(14)
C15 0.0553(10) 0.0562(12) 0.0673(12) -0.0327(10) 0.0043(9) -0.0068(9)
loop_
_atom_type_symbol
_atom_type_description
_atom_type_scat_dispersion_real
_atom_type_scat_dispersion_imag
_atom_type_scat_source
C C 0.0033 0.0016 'International Tables Vol C Tables 4.2.6.8 and 6.1.1.4'
H H 0.0000 0.0000 'International Tables Vol C Tables 4.2.6.8 and 6.1.1.4'
O O 0.0106 0.0060 'International Tables Vol C Tables 4.2.6.8 and 6.1.1.4'
loop_
_geom_angle_atom_site_label_1
_geom_angle_atom_site_label_2
_geom_angle_atom_site_label_3
_geom_angle
C9 O2 H2 109.5
C11 O4 C12 116.56(14)
C2 C1 H1 119.3
C10 C1 H1 119.3
C10 C1 C2 121.49(15)
C1 C2 H2A 119.2
C3 C2 C1 121.59(14)
C3 C2 H2A 119.2
C2 C3 C4 118.79(14)
C2 C3 C14 121.68(16)
C14 C3 C4 118.95(15)
C3 C4 C5 110.04(13)
C3 C4 C9 110.18(12)
C3 C4 C15 107.33(14)
C5 C4 C9 108.46(14)
C15 C4 C5 109.83(14)
C15 C4 C9 110.99(13)
O1 C5 C4 121.2(2)
O1 C5 C6 121.51(19)
C6 C5 C4 117.29(17)
C5 C6 H6A 109.4
C5 C6 H6B 109.4
C5 C6 C7 111.37(16)
H6A C6 H6B 108.0
C7 C6 H6A 109.4
C7 C6 H6B 109.4
C6 C7 H7A 109.6
C6 C7 H7B 109.6
H7A C7 H7B 108.1
C8 C7 C6 110.30(17)
C8 C7 H7A 109.6
C8 C7 H7B 109.6
C7 C8 H8A 109.1
C7 C8 H8B 109.1
C7 C8 C9 112.42(16)
H8A C8 H8B 107.9
C9 C8 H8A 109.1
C9 C8 H8B 109.1
O2 C9 C4 104.57(11)
O2 C9 C8 109.30(13)
O2 C9 C10 112.77(12)
C8 C9 C4 112.34(13)
C10 C9 C4 109.50(13)
C10 C9 C8 108.40(13)
C1 C10 C9 119.07(14)
C1 C10 C11 121.10(15)
C11 C10 C9 119.18(14)
O3 C11 O4 122.49(16)
O3 C11 C10 124.02(17)
O4 C11 C10 113.48(14)
O4 C12 H12A 110.1
O4 C12 H12B 110.1
O4 C12 C13 108.04(16)
H12A C12 H12B 108.4
C13 C12 H12A 110.1
C13 C12 H12B 110.1
C12 C13 H13A 109.5
C12 C13 H13B 109.5
C12 C13 H13C 109.5
H13A C13 H13B 109.5
H13A C13 H13C 109.5
H13B C13 H13C 109.5
C3 C14 H14A 109.5
C3 C14 H14B 109.5
C3 C14 H14C 109.5
H14A C14 H14B 109.5
H14A C14 H14C 109.5
H14B C14 H14C 109.5
C4 C15 H15A 109.5
C4 C15 H15B 109.5
C4 C15 H15C 109.5
H15A C15 H15B 109.5
H15A C15 H15C 109.5
H15B C15 H15C 109.5
loop_
_geom_bond_atom_site_label_1
_geom_bond_atom_site_label_2
_geom_bond_distance
O1 C5 1.204(2)
O2 H2 0.8200
O2 C9 1.4287(17)
O3 C11 1.210(2)
O4 C11 1.332(2)
O4 C12 1.4571(19)
C1 H1 0.9300
C1 C2 1.445(2)
C1 C10 1.338(2)
C2 H2A 0.9300
C2 C3 1.331(2)
C3 C4 1.532(2)
C3 C14 1.506(2)
C4 C5 1.541(2)
C4 C9 1.560(2)
C4 C15 1.533(2)
C5 C6 1.502(3)
C6 H6A 0.9700
C6 H6B 0.9700
C6 C7 1.519(3)
C7 H7A 0.9700
C7 H7B 0.9700
C7 C8 1.517(3)
C8 H8A 0.9700
C8 H8B 0.9700
C8 C9 1.531(2)
C9 C10 1.516(2)
C10 C11 1.478(2)
C12 H12A 0.9700
C12 H12B 0.9700
C12 C13 1.478(3)
C13 H13A 0.9600
C13 H13B 0.9600
C13 H13C 0.9600
C14 H14A 0.9600
C14 H14B 0.9600
C14 H14C 0.9600
C15 H15A 0.9600
C15 H15B 0.9600
C15 H15C 0.9600
loop_
_geom_hbond_atom_site_label_D
_geom_hbond_atom_site_label_H
_geom_hbond_atom_site_label_A
_geom_hbond_distance_DH
_geom_hbond_distance_HA
_geom_hbond_distance_DA
_geom_hbond_angle_DHA
O2 H2 O3 0.82 2.28 2.8009(18) 121.6
loop_
_geom_torsion_atom_site_label_1
_geom_torsion_atom_site_label_2
_geom_torsion_atom_site_label_3
_geom_torsion_atom_site_label_4
_geom_torsion
O1 C5 C6 C7 -128.5(2)
O2 C9 C10 C1 -152.81(15)
O2 C9 C10 C11 36.34(19)
C1 C2 C3 C4 1.9(3)
C1 C2 C3 C14 173.07(19)
C1 C10 C11 O3 -157.35(19)
C1 C10 C11 O4 21.8(2)
C2 C1 C10 C9 5.0(2)
C2 C1 C10 C11 175.67(16)
C2 C3 C4 C5 -153.65(17)
C2 C3 C4 C9 -34.1(2)
C2 C3 C4 C15 86.86(19)
C3 C4 C5 O1 -107.5(2)
C3 C4 C5 C6 71.94(19)
C3 C4 C9 O2 170.26(13)
C3 C4 C9 C8 -71.33(17)
C3 C4 C9 C10 49.17(17)
C4 C5 C6 C7 52.1(2)
C4 C9 C10 C1 -36.82(19)
C4 C9 C10 C11 152.32(14)
C5 C4 C9 O2 -69.24(16)
C5 C4 C9 C8 49.18(17)
C5 C4 C9 C10 169.68(13)
C5 C6 C7 C8 -53.8(2)
C6 C7 C8 C9 57.6(2)
C7 C8 C9 O2 59.02(18)
C7 C8 C9 C4 -56.58(19)
C7 C8 C9 C10 -177.71(15)
C8 C9 C10 C1 86.04(18)
C8 C9 C10 C11 -84.81(17)
C9 C4 C5 O1 131.88(18)
C9 C4 C5 C6 -48.65(19)
C9 C10 C11 O3 13.3(3)
C9 C10 C11 O4 -167.58(13)
C10 C1 C2 C3 14.8(3)
C11 O4 C12 C13 -172.95(16)
C12 O4 C11 O3 -1.2(3)
C12 O4 C11 C10 179.68(14)
C14 C3 C4 C5 35.0(2)
C14 C3 C4 C9 154.52(18)
C14 C3 C4 C15 -84.5(2)
C15 C4 C5 O1 10.4(2)
C15 C4 C5 C6 -170.11(15)
C15 C4 C9 O2 51.50(16)
C15 C4 C9 C8 169.92(13)
C15 C4 C9 C10 -69.58(16)
