#------------------------------------------------------------------------------
#$Date: 2017-11-07 03:05:58 +0200 (Tue, 07 Nov 2017) $
#$Revision: 202769 $
#$URL: file:///home/coder/svn-repositories/cod/cif/1/54/72/1547293.cif $
#------------------------------------------------------------------------------
#
# This file is available in the Crystallography Open Database (COD),
# http://www.crystallography.net/
#
# All data on this site have been placed in the public domain by the
# contributors.
#
data_1547293
loop_
_publ_author_name
'Margulies, Eric A.'
'Kerisit, Nicolas'
'Gawel, Przemyslaw'
'Mauck, Catherine M.'
'Ma, Lin'
'Miller, Claire E.'
'Young, Ryan M.'
'Trapp, Nils'
'Wu, Yi-Lin'
'Diederich, Fran\,cois'
'Wasielewski, Michael R.'
_publ_section_title
;
 Substituent Effects on Singlet Exciton Fission in Polycrystalline Thin
 Films of Cyano-Substituted Diaryltetracenes
;
_journal_issue                   39
_journal_name_full               'The Journal of Physical Chemistry C'
_journal_page_first              21262
_journal_paper_doi               10.1021/acs.jpcc.7b07870
_journal_volume                  121
_journal_year                    2017
_chemical_formula_moiety         'C32 H14 F4 N2'
_chemical_formula_sum            'C32 H14 F4 N2'
_chemical_formula_weight         502.45
_space_group_crystal_system      triclinic
_space_group_IT_number           2
_space_group_name_Hall           '-P 1'
_space_group_name_H-M_alt        'P -1'
_symmetry_space_group_name_Hall  '-P 1'
_symmetry_space_group_name_H-M   'P -1'
_atom_sites_solution_hydrogens   geom
_atom_sites_solution_primary     direct
_audit_creation_date             2015-04-13
_audit_creation_method
;
Olex2 1.2
(compiled 2015.01.26 svn.r3150 for OlexSys, GUI svn.r4998)
;
_cell_angle_alpha                102.679(5)
_cell_angle_beta                 92.770(5)
_cell_angle_gamma                103.071(5)
_cell_formula_units_Z            1
_cell_length_a                   7.0204(11)
_cell_length_b                   7.3076(13)
_cell_length_c                   11.485(2)
_cell_measurement_reflns_used    3643
_cell_measurement_temperature    100.0(2)
_cell_measurement_theta_max      27.45
_cell_measurement_theta_min      2.95
_cell_volume                     556.96(16)
_computing_cell_refinement       'Bruker SAINT'
_computing_data_collection       'Bruker APEX2'
_computing_data_reduction        'Bruker SAINT'
_computing_molecular_graphics    'Olex2 (Dolomanov et al., 2009)'
_computing_publication_material  'Olex2 (Dolomanov et al., 2009)'
_computing_structure_refinement  'XL (Sheldrick, 2008)'
_computing_structure_solution    'XS (Sheldrick, 2008)'
_diffrn_ambient_temperature      100.0(2)
_diffrn_detector                 'Bruker APEX2 area detector'
_diffrn_detector_area_resol_mean 8.33
_diffrn_detector_type            'CCD area detector'
_diffrn_measured_fraction_theta_full 0.999
_diffrn_measured_fraction_theta_max 0.997
_diffrn_measurement_device       'kappa-stage diffractometer'
_diffrn_measurement_device_type  'Bruker/Nonius Kappa Apex2'
_diffrn_measurement_method       '\w and \f scans'
_diffrn_radiation_monochromator  graphite
_diffrn_radiation_probe          x-ray
_diffrn_radiation_type           MoK\a
_diffrn_radiation_wavelength     0.71073
_diffrn_reflns_av_R_equivalents  0.0230
_diffrn_reflns_av_unetI/netI     0.0238
_diffrn_reflns_Laue_measured_fraction_full 0.999
_diffrn_reflns_Laue_measured_fraction_max 0.997
_diffrn_reflns_limit_h_max       9
_diffrn_reflns_limit_h_min       -7
_diffrn_reflns_limit_k_max       8
_diffrn_reflns_limit_k_min       -9
_diffrn_reflns_limit_l_max       14
_diffrn_reflns_limit_l_min       -14
_diffrn_reflns_number            9221
_diffrn_reflns_point_group_measured_fraction_full 0.999
_diffrn_reflns_point_group_measured_fraction_max 0.997
_diffrn_reflns_theta_full        25.242
_diffrn_reflns_theta_max         27.586
_diffrn_reflns_theta_min         2.945
_diffrn_source                   'sealed tube'
_diffrn_standards_number         0
_exptl_absorpt_coefficient_mu    0.112
_exptl_absorpt_correction_T_max  0.7456
_exptl_absorpt_correction_T_min  0.6798
_exptl_absorpt_correction_type   multi-scan
_exptl_absorpt_process_details
;
SADABS-2014/5 (Bruker,2014/5) was used for absorption correction.
wR2(int) was 0.0580 before and 0.0396 after correction.
The Ratio of minimum to maximum transmission is 0.9117.
The \l/2 correction factor is 0.00150.
;
_exptl_crystal_colour            'clear red'
_exptl_crystal_colour_lustre     clear
_exptl_crystal_colour_primary    red
_exptl_crystal_density_diffrn    1.498
_exptl_crystal_description       plate
_exptl_crystal_F_000             256
_exptl_crystal_size_max          0.32
_exptl_crystal_size_mid          0.2
_exptl_crystal_size_min          0.06
_refine_diff_density_max         0.380
_refine_diff_density_min         -0.258
_refine_diff_density_rms         0.047
_refine_ls_extinction_method     none
_refine_ls_goodness_of_fit_ref   1.061
_refine_ls_hydrogen_treatment    constr
_refine_ls_matrix_type           full
_refine_ls_number_parameters     172
_refine_ls_number_reflns         2575
_refine_ls_number_restraints     0
_refine_ls_restrained_S_all      1.061
_refine_ls_R_factor_all          0.0452
_refine_ls_R_factor_gt           0.0371
_refine_ls_shift/su_max          0.001
_refine_ls_shift/su_mean         0.000
_refine_ls_structure_factor_coef Fsqd
_refine_ls_weighting_details
'w=1/[\s^2^(Fo^2^)+(0.0474P)^2^+0.1962P] where P=(Fo^2^+2Fc^2^)/3'
_refine_ls_weighting_scheme      calc
_refine_ls_wR_factor_gt          0.0955
_refine_ls_wR_factor_ref         0.1014
_reflns_Friedel_coverage         0.000
_reflns_number_gt                2170
_reflns_number_total             2575
_reflns_threshold_expression     'I > 2\s(I)'
_cod_data_source_file            jp7b07870_si_002.cif
_cod_data_source_block           d040415_1_1_0m
_cod_depositor_comments
'Adding full bibliography for 1547291--1547294.cif.'
_cod_original_cell_volume        556.97(17)
_cod_database_code               1547293
_shelxl_version_number           2014/6
_shelx_space_group_comment
;
The symmetry employed for this shelxl refinement is uniquely defined
by the following loop, which should always be used as a source of
symmetry information in preference to the above space-group names.
They are only intended as comments.
;
_shelx_estimated_absorpt_t_max   0.993
_shelx_estimated_absorpt_t_min   0.965
_olex2_refinement_description
;
1. Fixed Uiso
 At 1.2 times of:
  All C(H) groups
2.a Aromatic/amide H refined with riding coordinates:
 C2(H2), C3(H3), C7(H7), C8(H8), C11(H11), C13(H13), C14(H14)
;
_shelx_res_file
;
TITL d040415_1_1_0m in P-1
CELL 0.71073 7.0204 7.3076 11.4851 102.679 92.77 103.071
ZERR 1 0.0011 0.0013 0.0021 0.005 0.005 0.005
LATT 1
SFAC C H F N
UNIT 32 14 4 2

L.S. 6
PLAN  -20 0 0
SIZE 0.06 0.2 0.32
TEMP -173.1(2)
HTAB
BOND $H
CONF
fmap 2
acta
MORE -1
OMIT 0 0 1
REM <olex2.extras>
REM <HklSrc "%.\\d040415_1_1_0m.hkl">
REM </olex2.extras>

WGHT    0.047400    0.196200
FVAR       0.29469
F1    3    0.755927    0.156958    0.367315    11.00000    0.05322    0.04287 =
         0.00742   -0.00151    0.00058   -0.00404
F2    3    0.159152    0.129240    1.097671    11.00000    0.01352    0.02676 =
         0.02020    0.00505    0.00557   -0.00183
N1    4    1.242290    0.366038    0.666764    11.00000    0.01757    0.02241 =
         0.01294    0.00176    0.00248    0.00420
C1    1    0.768758    0.200633    0.489373    11.00000    0.02333    0.03257 =
         0.00744   -0.00077    0.00023   -0.00340
C2    1    0.776351    0.387890    0.547921    11.00000    0.01903    0.02937 =
         0.01388    0.00783    0.00039    0.00250
AFIX  43
H2    2    0.769601    0.483633    0.504757    11.00000   -1.20000
AFIX   0
C3    1    0.794243    0.432128    0.672427    11.00000    0.01330    0.02034 =
         0.01289    0.00233    0.00121    0.00337
AFIX  43
H3    2    0.801300    0.560741    0.715429    11.00000   -1.20000
AFIX   0
C4    1    0.801995    0.290896    0.735194    11.00000    0.00970    0.01691 =
         0.00965    0.00124    0.00080    0.00063
C5    1    0.819317    0.344944    0.868948    11.00000    0.01498    0.01035 =
         0.01022    0.00103    0.00069    0.00382
C6    1    0.996834    0.463621    0.935687    11.00000    0.01348    0.01105 =
         0.00894    0.00255    0.00148    0.00360
C7    1    0.773141    0.055581    0.547118    11.00000    0.02500    0.02063 =
         0.01533   -0.00563    0.00322   -0.00227
AFIX  43
H7    2    0.765563   -0.072611    0.503163    11.00000   -1.20000
AFIX   0
C8    1    0.788932    0.101709    0.671300    11.00000    0.01892    0.01697 =
         0.01478    0.00050    0.00253    0.00030
AFIX  43
H8    2    0.790896    0.003738    0.713411    11.00000   -1.20000
AFIX   0
C9    1    0.653618    0.287369    0.927048    11.00000    0.01324    0.01021 =
         0.01203    0.00229    0.00099    0.00329
C10   1    0.657153    0.357112    1.054258    11.00000    0.01323    0.01098 =
         0.01234    0.00334    0.00196    0.00404
C11   1    0.484729    0.300880    1.111227    11.00000    0.01475    0.01502 =
         0.01243    0.00325    0.00303    0.00392
AFIX  43
H11   2    0.484049    0.345196    1.195366    11.00000   -1.20000
AFIX   0
C12   1    0.322618    0.183546    1.043326    11.00000    0.01251    0.01495 =
         0.01899    0.00686    0.00593    0.00346
C13   1    0.311810    0.114200    0.917992    11.00000    0.01279    0.01351 =
         0.01719    0.00185   -0.00164    0.00039
AFIX  43
H13   2    0.193626    0.032777    0.873926    11.00000   -1.20000
AFIX   0
C14   1    0.473501    0.166126    0.861733    11.00000    0.01517    0.01304 =
         0.01247    0.00089   -0.00066    0.00222
AFIX  43
H14   2    0.467485    0.121267    0.777171    11.00000   -1.20000
AFIX   0
C15   1    1.172102    0.515001    0.880785    11.00000    0.01331    0.01214 =
         0.00922    0.00255    0.00134    0.00347
C16   1    1.195642    0.427958    0.758708    11.00000    0.01164    0.01489 =
         0.01257    0.00379    0.00007    0.00177
HKLF 4

REM  d040415_1_1_0m in P-1
REM R1 =  0.0371 for    2170 Fo > 4sig(Fo)  and  0.0452 for all    2575 data
REM    172 parameters refined using      0 restraints

END

WGHT      0.0474      0.1961

REM Instructions for potential hydrogen bonds
EQIV $1 -x+2, -y+1, -z+1
HTAB C2 N1_$1
EQIV $2 -x+2, -y, -z+1
HTAB C7 N1_$2
EQIV $3 -x+2, -y+1, -z+2
HTAB C11 N1_$3
EQIV $4 -x, -y, -z+2
HTAB C13 F2_$4

REM Highest difference peak  0.380,  deepest hole -0.258,  1-sigma level  0.047
Q1    1   1.0000  0.5000  1.0000  10.50000  0.05    0.38
Q2    1   0.8120  0.3204  0.7997  11.00000  0.05    0.34
Q3    1   0.3190  0.1614  0.9788  11.00000  0.05    0.32
Q4    1   0.6529  0.3175  0.9891  11.00000  0.05    0.31
Q5    1   1.0739  0.4965  0.9048  11.00000  0.05    0.29
Q6    1   0.7851  0.1952  0.7013  11.00000  0.05    0.28
Q7    1   0.9085  0.4052  0.9003  11.00000  0.05    0.27
Q8    1   0.5662  0.2292  0.8958  11.00000  0.05    0.26
Q9    1   0.5721  0.3400  1.0771  11.00000  0.05    0.25
Q10   1   0.7349  0.4235  1.0842  11.00000  0.05    0.24
Q11   1   1.1775  0.4771  0.8209  11.00000  0.05    0.24
Q12   1   0.7480  0.2833  0.9011  11.00000  0.05    0.24
Q13   1   0.7825  0.0867  0.6057  11.00000  0.05    0.22
Q14   1   0.3841  0.2766  1.0674  11.00000  0.05    0.22
Q15   1   0.3792  0.1855  0.8868  11.00000  0.05    0.21
Q16   1   0.8185  0.4166  0.6109  11.00000  0.05    0.21
Q17   1   1.2854  0.4120  0.7407  11.00000  0.05    0.21
Q18   1   0.7229  0.3467  0.8889  11.00000  0.05    0.21
Q19   1   0.4100  0.2305  1.0720  11.00000  0.05    0.21
Q20   1   0.8350  0.3622  0.7011  11.00000  0.05    0.20
;
_shelx_res_checksum              37504
_shelx_hkl_file
;
  -1   0   0    1.02    0.09
  -1   0   0    1.14    0.10
  -1   0   0    0.96    0.08
  -1   0   0    1.17    0.08
  -1   0   0    1.01    0.07
   1   0   0    1.08    0.07
   1   0   0    1.04    0.08
   1   0   0    1.15    0.08
   1   0   0    0.97    0.10
   1   0   0    0.90    0.08
   1   0   0    1.13    0.12
  -2   0   0  689.70   13.47
  -2   0   0  672.20   13.21
  -2   0   0  675.86   13.22
  -2   0   0  711.08   13.37
  -2   0   0  689.70   13.30
   2   0   0  650.26   13.17
   2   0   0  682.01   13.75
   2   0   0  667.96   13.48
   2   0   0  687.88   13.26
   2   0   0  662.01   13.26
  -3   0   0  134.53    2.70
  -3   0   0  132.40    2.79
  -3   0   0  133.74    2.66
   3   0   0  138.75    2.93
   3   0   0  136.59    2.68
   3   0   0  136.20    2.70
   3   0   0  130.36    2.78
   3   0   0  134.19    2.70
  -4   0   0   74.17    1.50
   4   0   0   72.98    1.53
   4   0   0   71.90    1.67
   4   0   0   71.69    1.82
   4   0   0   70.98    1.56
  -5   0   0   40.92    0.91
   5   0   0   41.87    1.02
   5   0   0   40.79    1.12
   5   0   0   40.07    1.02
   5   0   0   41.91    1.31
   5   0   0   40.88    0.98
   6   0   0   35.23    1.25
   6   0   0   34.12    0.93
   6   0   0   31.68    0.89
   6   0   0   33.55    1.04
   7   0   0   19.79    0.70
   7   0   0   19.65    0.80
   7   0   0   21.26    0.68
   8   0   0    2.03    0.27
   8   0   0    1.79    0.29
   8   0   0    1.85    0.24
   9  -1   0    0.26    0.11
   9  -1   0    0.18    0.12
   9  -1   0    0.02    0.14
   8  -1   0    3.56    0.39
   8  -1   0    3.91    0.28
   8  -1   0    3.87    0.26
   7  -1   0    7.78    0.45
   7  -1   0    7.95    0.36
   7  -1   0    7.55    0.33
   6  -1   0   54.59    1.25
   6  -1   0   54.60    1.27
   6  -1   0   55.96    1.45
   5  -1   0   22.54    0.56
   5  -1   0   22.95    0.72
   5  -1   0   22.38    0.57
   4  -1   0    1.43    0.17
   4  -1   0    1.35    0.10
   4  -1   0    1.25    0.08
   4  -1   0    1.72    0.19
  -4   1   0    1.63    0.13
   3  -1   0   49.28    1.16
   3  -1   0   47.90    1.11
   3  -1   0   49.53    1.01
   3  -1   0   49.23    1.13
  -3   1   0   51.01    1.14
  -3   1   0   51.10    1.12
  -3   1   0   50.67    1.08
   2  -1   0   12.04    0.34
   2  -1   0   12.55    0.37
   2  -1   0   11.53    0.34
  -2   1   0   12.42    0.34
  -2   1   0   12.48    0.34
  -2   1   0   12.11    0.30
   1  -1   0  215.74    4.06
   1  -1   0  205.67    4.13
   1  -1   0  215.81    4.07
  -1   1   0  206.22    4.06
  -1   1   0  207.48    4.18
  -1   1   0  204.50    4.14
   0  -1   0   22.40    0.48
   0  -1   0   22.48    0.50
   0   1   0   22.38    0.49
   0   1   0   22.42    0.49
   0   1   0   22.43    0.50
  -1  -1   0   21.93    0.51
  -1  -1   0   21.69    0.53
  -1  -1   0   22.28    0.53
   1   1   0   21.92    0.53
   1   1   0   21.72    0.51
   1   1   0   21.99    0.53
  -2  -1   0    0.72    0.09
  -2  -1   0    0.77    0.10
   2   1   0    0.70    0.10
   2   1   0    0.74    0.09
   2   1   0    0.52    0.09
  -3  -1   0   29.58    0.72
   3   1   0   29.45    0.81
   3   1   0   28.95    0.89
   3   1   0   30.20    0.77
   3   1   0   30.14    0.74
  -4  -1   0    6.92    0.28
   4   1   0    6.74    0.42
   4   1   0    6.72    0.36
   4   1   0    6.78    0.32
   4   1   0    6.39    0.31
  -5  -1   0    8.63    0.34
   5   1   0    9.59    0.46
   5   1   0    9.31    0.55
   5   1   0    8.76    0.40
   5   1   0    8.24    0.39
   6   1   0   13.40    0.54
   6   1   0   13.43    0.74
   6   1   0   13.61    0.61
   7   1   0    0.14    0.17
   7   1   0    0.03    0.10
   7   1   0    0.02    0.12
   7   1   0    0.08    0.11
   8   1   0    2.88    0.39
   8   1   0    2.85    0.32
   8   1   0    3.28    0.33
   9  -2   0    0.73    0.20
   9  -2   0    0.59    0.14
   8  -2   0    0.03    0.06
   8  -2   0    0.06    0.07
   8  -2   0   -0.01    0.11
   7  -2   0   47.82    1.06
   7  -2   0   46.34    1.09
   7  -2   0   47.07    1.31
   6  -2   0    3.90    0.17
   6  -2   0    4.00    0.17
   6  -2   0    4.02    0.32
   6  -2   0    4.07    0.29
   5  -2   0   10.21    0.42
   5  -2   0    9.60    0.45
   5  -2   0    9.90    0.42
   5  -2   0   10.01    0.26
  -5   2   0   10.89    0.36
   4  -2   0    2.60    0.18
   4  -2   0    2.84    0.22
   4  -2   0    2.65    0.20
  -4   2   0    2.81    0.15
  -4   2   0    2.36    0.18
   3  -2   0   15.19    0.47
   3  -2   0   14.58    0.43
   3  -2   0   15.41    0.39
   3  -2   0   15.24    0.50
  -3   2   0   15.91    0.39
  -3   2   0   15.60    0.44
   2  -2   0    7.55    0.19
   2  -2   0    7.54    0.22
   2  -2   0    7.56    0.30
   2  -2   0    7.63    0.28
  -2   2   0    7.80    0.27
  -2   2   0    7.28    0.21
  -2   2   0    7.37    0.23
   1  -2   0  207.22    4.07
   1  -2   0  211.56    4.04
   1  -2   0  205.11    4.02
   1  -2   0  209.63    4.03
   1  -2   0  201.92    4.03
  -1   2   0  206.84    4.02
  -1   2   0  209.64    4.01
  -1   2   0  203.47    4.06
   0  -2   0    5.02    0.21
   0  -2   0    4.85    0.21
   0  -2   0    5.09    0.20
   0  -2   0    5.11    0.19
   0   2   0    5.14    0.21
   0   2   0    4.98    0.20
   0   2   0    5.20    0.20
  -1  -2   0   15.22    0.46
  -1  -2   0   19.95    0.56
   1   2   0   16.10    0.49
  -2  -2   0    0.63    0.11
  -2  -2   0    0.51    0.10
   2   2   0    0.54    0.12
   2   2   0    0.60    0.12
   2   2   0    0.54    0.11
  -3  -2   0   36.70    0.91
   3   2   0   36.70    0.98
   3   2   0   35.60    0.97
   3   2   0   36.18    0.96
  -4  -2   0    0.23    0.08
   4   2   0    0.09    0.10
   4   2   0    0.10    0.08
   4   2   0    0.04    0.06
   4   2   0   -0.04    0.09
  -5  -2   0   89.61    2.00
   5   2   0   86.82    2.34
   5   2   0   92.13    2.18
   5   2   0   88.98    2.10
   5   2   0   89.58    2.12
   6   2   0    0.96    0.19
   6   2   0    0.94    0.19
   6   2   0    1.15    0.23
   6   2   0    0.75    0.24
   7   2   0    7.95    0.64
   7   2   0    8.93    0.50
   7   2   0    8.99    0.56
   8   2   0    0.34    0.21
   8   2   0    0.47    0.16
   8   2   0    0.25    0.22
   9  -3   0   -0.07    0.06
   8  -3   0    4.36    0.21
   7  -3   0    5.59    0.42
   6  -3   0    6.65    0.38
   6  -3   0    7.11    0.44
   5  -3   0    5.14    0.31
   5  -3   0    4.77    0.33
  -5   3   0    4.99    0.22
   4  -3   0    0.14    0.05
   4  -3   0   -0.03    0.06
   4  -3   0    0.23    0.11
   4  -3   0    0.11    0.03
  -4   3   0    0.10    0.04
  -4   3   0    0.08    0.06
   3  -3   0    3.16    0.13
   3  -3   0    3.26    0.22
   3  -3   0    3.23    0.15
   3  -3   0    2.84    0.22
  -3   3   0    3.25    0.14
  -3   3   0    3.16    0.17
   2  -3   0    0.28    0.08
   2  -3   0    0.30    0.06
   2  -3   0    0.28    0.06
   2  -3   0    0.27    0.06
   2  -3   0    0.28    0.07
  -2   3   0    0.27    0.05
   1  -3   0    3.19    0.19
   1  -3   0    3.06    0.17
   1  -3   0    3.19    0.18
   1  -3   0    3.11    0.17
  -1   3   0    3.23    0.17
   0  -3   0   24.04    0.66
   0  -3   0   23.77    0.61
   0  -3   0   23.81    0.63
   0   3   0   23.40    0.64
   0   3   0   23.99    0.64
  -1  -3   0   15.54    0.43
  -1  -3   0   15.12    0.49
  -1  -3   0   15.29    0.51
   1   3   0   15.19    0.51
   1   3   0   15.60    0.51
  -2  -3   0    0.40    0.10
  -2  -3   0    0.45    0.11
   2   3   0    0.49    0.11
   2   3   0    0.31    0.11
  -3  -3   0    0.11    0.08
   3   3   0    0.11    0.09
   3   3   0    0.13    0.08
   3   3   0    0.11    0.09
  -4  -3   0    3.00    0.24
   4   3   0    2.33    0.27
   4   3   0    2.48    0.25
   4   3   0    2.56    0.30
  -5  -3   0    4.75    0.31
   5   3   0    4.75    0.44
   5   3   0    4.25    0.35
   5   3   0    4.31    0.35
   5   3   0    4.07    0.35
   6   3   0   -0.02    0.13
   6   3   0    0.09    0.12
   6   3   0   -0.12    0.08
   7   3   0   10.96    0.61
   7   3   0   10.36    0.63
   7   3   0   10.52    0.76
   7  -4   0    3.01    0.36
   6  -4   0    0.78    0.21
   6  -4   0    0.78    0.18
   5  -4   0   12.66    0.30
   5  -4   0   12.33    0.58
   5  -4   0   13.07    0.54
   5  -4   0   12.14    0.30
  -5   4   0   12.38    0.37
   4  -4   0    0.82    0.17
   4  -4   0    0.96    0.07
   4  -4   0    0.89    0.07
   4  -4   0    0.89    0.15
   4  -4   0    1.06    0.11
   4  -4   0    0.97    0.09
  -4   4   0    1.09    0.13
  -4   4   0    1.01    0.10
   3  -4   0    1.62    0.12
   3  -4   0    1.77    0.12
   3  -4   0    1.68    0.20
   3  -4   0    1.52    0.20
   3  -4   0    1.63    0.12
  -3   4   0    1.34    0.11
  -3   4   0    1.66    0.07
   2  -4   0   59.77    1.32
   2  -4   0   60.94    1.41
   2  -4   0   60.43    1.32
   2  -4   0   59.53    1.34
   2  -4   0   58.70    1.33
  -2   4   0   59.64    1.30
   1  -4   0    3.74    0.22
   1  -4   0    3.58    0.22
   1  -4   0    3.80    0.22
  -1   4   0    3.41    0.21
   0  -4   0   72.84    1.69
   0  -4   0   70.90    1.59
   0  -4   0   71.99    1.63
   0   4   0   73.52    1.65
  -1  -4   0    9.35    0.42
  -1  -4   0    9.47    0.40
  -1  -4   0    9.43    0.34
   1   4   0    9.12    0.40
   1   4   0    9.57    0.42
  -2  -4   0   22.29    0.60
  -2  -4   0   22.67    0.75
  -2  -4   0   21.80    0.71
   2   4   0   22.39    0.72
   2   4   0   21.84    0.74
   2   4   0   22.48    0.75
  -3  -4   0    8.13    0.41
   3   4   0    8.30    0.44
   3   4   0    8.33    0.45
  -4  -4   0    0.98    0.18
   4   4   0    1.48    0.23
   4   4   0    1.33    0.23
  -5  -4   0    4.72    0.35
   5   4   0    4.72    0.40
   5   4   0    5.10    0.41
   5   4   0    4.40    0.47
   6   4   0    0.43    0.20
   6   4   0    0.69    0.26
   6   4   0    0.60    0.21
   7   4   0    7.52    0.55
   7   4   0    7.34    0.67
   8  -5   0    0.66    0.24
   7  -5   0    1.50    0.32
   7  -5   0    1.24    0.24
   6  -5   0    5.40    0.16
   6  -5   0    5.32    0.42
   6  -5   0    5.58    0.18
   6  -5   0    4.94    0.37
   5  -5   0    0.59    0.18
   5  -5   0    0.79    0.10
   5  -5   0    0.74    0.09
   5  -5   0    0.90    0.10
   5  -5   0    0.67    0.17
   4  -5   0    5.58    0.24
   4  -5   0    5.23    0.24
   4  -5   0    5.31    0.24
   4  -5   0    6.06    0.36
   4  -5   0    5.55    0.38
  -4   5   0    5.40    0.25
   3  -5   0    1.27    0.19
   3  -5   0    1.50    0.15
   3  -5   0    1.12    0.15
   3  -5   0    1.18    0.14
   3  -5   0    1.57    0.23
   3  -5   0    1.35    0.16
  -3   5   0    1.41    0.11
   2  -5   0    3.31    0.21
   2  -5   0    3.62    0.24
   2  -5   0    3.39    0.22
   2  -5   0    2.94    0.24
  -2   5   0    3.64    0.21
   1  -5   0    3.82    0.27
   1  -5   0    3.60    0.24
   1  -5   0    3.76    0.25
   1  -5   0    4.02    0.24
  -1   5   0    3.55    0.24
   0  -5   0    6.12    0.34
   0  -5   0    6.79    0.32
   0  -5   0    6.62    0.37
   0   5   0    6.10    0.34
  -1  -5   0    0.95    0.19
  -1  -5   0    0.83    0.13
  -1  -5   0    0.58    0.14
   1   5   0    0.84    0.17
  -2  -5   0    0.32    0.14
  -2  -5   0    0.49    0.11
   2   5   0    0.14    0.12
   2   5   0    0.30    0.13
  -3  -5   0    1.08    0.20
  -3  -5   0    1.24    0.15
   3   5   0    1.52    0.24
   3   5   0    1.21    0.23
  -4  -5   0    0.28    0.13
   4   5   0    0.66    0.21
   4   5   0    0.44    0.17
  -5  -5   0    0.05    0.12
   5   5   0   -0.22    0.11
   5   5   0    0.06    0.14
   6   5   0   14.75    0.77
   6   5   0   13.65    0.75
   6   5   0   12.65    0.85
   8  -6   0   -0.10    0.13
   8  -6   0   -0.03    0.13
   7  -6   0    0.14    0.06
   7  -6   0    0.26    0.19
   7  -6   0    0.05    0.15
   6  -6   0   11.53    0.40
   6  -6   0   13.02    0.63
   6  -6   0   11.82    0.66
   6  -6   0   11.58    0.36
   5  -6   0    1.88    0.16
   5  -6   0    2.27    0.30
   5  -6   0    1.63    0.18
   5  -6   0    1.96    0.31
   4  -6   0    0.10    0.12
   4  -6   0    0.33    0.15
   4  -6   0    0.13    0.09
   4  -6   0    0.27    0.09
   4  -6   0    0.30    0.09
   3  -6   0    0.69    0.13
   3  -6   0    0.59    0.13
   3  -6   0    0.54    0.16
   3  -6   0    0.55    0.13
   3  -6   0    0.50    0.14
   2  -6   0    0.29    0.11
   2  -6   0    0.14    0.09
   2  -6   0    0.15    0.09
   2  -6   0    0.34    0.13
  -2   6   0   -0.01    0.07
   1  -6   0    3.75    0.27
   1  -6   0    3.82    0.30
   1  -6   0    3.58    0.28
   1  -6   0    3.47    0.26
  -1   6   0    2.91    0.25
   0  -6   0    8.28    0.43
   0  -6   0    7.65    0.37
   0  -6   0    6.73    0.42
   0   6   0    7.32    0.41
  -1  -6   0    0.24    0.11
  -1  -6   0    0.64    0.17
   1   6   0    0.48    0.16
   1   6   0    0.20    0.12
  -2  -6   0    1.90    0.27
  -2  -6   0    2.11    0.21
   2   6   0    2.44    0.33
   2   6   0    2.11    0.28
  -3  -6   0    0.11    0.09
  -3  -6   0   -0.03    0.10
   3   6   0    0.02    0.14
   3   6   0    0.05    0.12
  -4  -6   0    0.29    0.15
   4   6   0    0.45    0.18
   4   6   0    0.30    0.17
  -5  -6   0    1.43    0.26
   5   6   0    1.92    0.35
   5   6   0    2.15    0.36
   7  -7   0    0.12    0.18
   7  -7   0    0.66    0.24
   7  -7   0    0.28    0.09
   6  -7   0    0.55    0.20
   6  -7   0    0.85    0.26
   6  -7   0    0.89    0.15
   6  -7   0    0.72    0.12
   5  -7   0    0.76    0.14
   5  -7   0    0.80    0.21
   5  -7   0    0.75    0.23
   5  -7   0    0.65    0.14
   4  -7   0    0.27    0.15
   4  -7   0    0.39    0.16
   4  -7   0    0.31    0.11
   4  -7   0    0.35    0.12
   3  -7   0    0.32    0.11
   3  -7   0    0.51    0.15
   3  -7   0    0.27    0.15
   3  -7   0    0.21    0.11
   3  -7   0    0.37    0.15
   2  -7   0    0.11    0.10
   2  -7   0    0.17    0.11
   2  -7   0    0.05    0.10
   2  -7   0    0.14    0.12
   2  -7   0    0.36    0.13
   1  -7   0    5.50    0.36
   1  -7   0    5.21    0.35
   1  -7   0    5.09    0.37
   1  -7   0    5.66    0.40
  -1   7   0    5.99    0.37
   0  -7   0    1.56    0.24
   0  -7   0    1.79    0.23
   0   7   0    2.10    0.29
  -1  -7   0    0.63    0.19
  -1  -7   0    1.17    0.19
   1   7   0    0.94    0.21
   1   7   0    1.09    0.21
  -2  -7   0    4.08    0.28
  -2  -7   0    4.20    0.38
   2   7   0    3.91    0.39
   2   7   0    3.37    0.38
  -3  -7   0    5.11    0.43
   3   7   0    4.27    0.44
  -4  -7   0   -0.02    0.13
   4   7   0   -0.20    0.13
   4   7   0    0.11    0.17
   6  -8   0    0.44    0.17
   6  -8   0    0.38    0.12
   6  -8   0    0.31    0.12
   6  -8   0    0.28    0.18
   5  -8   0    0.89    0.17
   5  -8   0    0.86    0.19
   5  -8   0    1.25    0.26
   5  -8   0    0.38    0.19
   4  -8   0    9.86    0.57
   4  -8   0   10.06    0.54
   4  -8   0   10.09    0.62
   4  -8   0   10.16    0.49
   3  -8   0    2.00    0.32
   3  -8   0    1.72    0.28
   3  -8   0    1.89    0.25
   3  -8   0    1.96    0.29
   3  -8   0    2.08    0.25
   2  -8   0    0.18    0.12
   2  -8   0    0.11    0.12
   2  -8   0    0.09    0.12
   2  -8   0    0.02    0.13
   1  -8   0    0.75    0.20
   1  -8   0    1.17    0.22
   1  -8   0    1.24    0.24
   1  -8   0    1.31    0.23
   0  -8   0    0.77    0.19
   0  -8   0    1.26    0.23
   0  -8   0    0.47    0.16
   0   8   0    0.56    0.18
   0   8   0    0.58    0.19
  -1  -8   0    0.29    0.14
  -1  -8   0    0.20    0.15
   1   8   0    0.12    0.13
   1   8   0    0.02    0.14
  -2  -8   0    2.16    0.35
   2   8   0    2.01    0.30
   2   8   0    2.10    0.35
   4  -9   0    1.00    0.25
   4  -9   0    1.13    0.22
   4  -9   0    0.77    0.26
   3  -9   0    0.72    0.23
   3  -9   0    0.47    0.19
   3  -9   0    0.68    0.19
   2  -9   0    0.07    0.14
   2  -9   0    0.21    0.16
   2  -9   0    0.26    0.18
   2  -9   0    0.43    0.19
   1  -9   0    2.43    0.37
   1  -9   0    2.94    0.38
   1  -9   0    2.57    0.33
   1  -9   0    2.69    0.34
   0  -9   0    0.11    0.15
   0  -9   0    0.57    0.20
   0  -9   1    1.70    0.31
   0  -9   1    1.95    0.30
   0  -9   1    2.01    0.30
   1  -9   1    0.23    0.15
   1  -9   1   -0.05    0.13
   1  -9   1    0.01    0.14
   2  -9   1    7.81    0.51
   2  -9   1    9.33    0.58
   2  -9   1    9.61    0.55
   3  -9   1   -0.03    0.14
   3  -9   1   -0.02    0.11
   3  -9   1    0.24    0.16
   4  -9   1    1.66    0.31
   4  -9   1    1.37    0.23
   4  -9   1    1.41    0.28
   4  -9   1    1.17    0.30
   2   8  -1    3.77    0.44
   2   8  -1    3.70    0.41
  -2  -8   1    3.69    0.44
   1   8  -1    0.42    0.17
   1   8  -1    0.28    0.17
  -1  -8   1    0.50    0.18
  -1  -8   1    0.17    0.13
   0   8  -1    0.35    0.16
   0  -8   1    0.42    0.15
   0  -8   1    0.54    0.17
   1  -8   1   16.47    0.67
   1  -8   1   16.60    0.71
   1  -8   1   15.98    0.69
   2  -8   1    2.11    0.25
   2  -8   1    2.47    0.31
   2  -8   1    2.16    0.28
   3  -8   1    2.06    0.27
   3  -8   1    1.56    0.27
   3  -8   1    2.00    0.32
   3  -8   1    1.58    0.25
   4  -8   1    1.33    0.21
   4  -8   1    1.30    0.23
   4  -8   1    1.48    0.30
   4  -8   1    1.67    0.27
   5  -8   1    1.04    0.25
   5  -8   1    1.31    0.30
   5  -8   1    1.74    0.25
   5  -8   1    1.73    0.22
   6  -8   1   -0.04    0.08
   6  -8   1   -0.07    0.14
   6  -8   1   -0.06    0.15
   6  -8   1   -0.02    0.07
   4   7  -1    0.62    0.22
   4   7  -1    0.01    0.15
  -4  -7   1    0.24    0.16
   3   7  -1    0.10    0.14
   3   7  -1    0.04    0.17
  -3  -7   1    0.01    0.12
   2   7  -1   -0.10    0.11
   2   7  -1   -0.15    0.12
  -2  -7   1    0.04    0.10
  -2  -7   1   -0.05    0.09
   1   7  -1    0.03    0.13
  -1  -7   1    0.15    0.12
  -1  -7   1    0.17    0.11
   0   7  -1    3.56    0.32
   0  -7   1    3.66    0.32
   0  -7   1    3.14    0.28
  -1   7  -1    7.99    0.43
   1  -7   1    7.97    0.48
   1  -7   1    8.05    0.44
   1  -7   1    7.55    0.42
   1  -7   1    8.18    0.41
   2  -7   1    8.55    0.46
   2  -7   1    8.09    0.46
   2  -7   1    8.06    0.40
   2  -7   1    8.80    0.44
   3  -7   1    0.04    0.08
   3  -7   1    0.05    0.11
   3  -7   1    0.00    0.08
   3  -7   1    0.01    0.08
   4  -7   1    6.12    0.36
   4  -7   1    6.26    0.45
   4  -7   1    5.76    0.42
   4  -7   1    6.30    0.33
   5  -7   1    0.41    0.15
   5  -7   1    0.69    0.15
   5  -7   1    0.54    0.12
   5  -7   1    0.59    0.21
   6  -7   1    6.20    0.45
   6  -7   1    4.82    0.25
   6  -7   1    5.34    0.48
   6  -7   1    4.98    0.29
   7  -7   1    1.49    0.17
   7  -7   1    1.50    0.30
   7  -7   1    1.81    0.35
   5   6  -1    0.19    0.18
   5   6  -1   -0.01    0.16
  -5  -6   1    0.20    0.14
   4   6  -1    0.17    0.16
   4   6  -1   -0.01    0.12
  -4  -6   1    0.03    0.10
   3   6  -1    2.41    0.33
   3   6  -1    2.44    0.31
  -3  -6   1    2.91    0.35
  -3  -6   1    3.17    0.24
   2   6  -1    0.04    0.13
   2   6  -1   -0.17    0.09
  -2  -6   1    0.07    0.09
  -2  -6   1   -0.05    0.09
   1   6  -1    1.37    0.24
  -1  -6   1    1.51    0.20
  -1  -6   1    1.72    0.24
   0   6  -1   14.11    0.58
   0  -6   1   13.27    0.60
   0  -6   1   14.32    0.58
   0  -6   1   14.58    0.54
  -1   6  -1    0.41    0.13
   1  -6   1    0.60    0.15
   1  -6   1    0.42    0.14
   1  -6   1    0.58    0.14
  -2   6  -1    1.95    0.21
   2  -6   1    1.83    0.23
   2  -6   1    1.99    0.22
   2  -6   1    1.79    0.19
   2  -6   1    1.92    0.24
   3  -6   1    1.13    0.19
   3  -6   1    0.63    0.15
   3  -6   1    0.96    0.13
   4  -6   1    0.26    0.09
   4  -6   1    0.35    0.13
   4  -6   1    0.52    0.11
   4  -6   1    0.09    0.13
   4  -6   1    0.39    0.09
   5  -6   1   13.56    0.42
   5  -6   1   12.97    0.45
   5  -6   1   13.21    0.67
   5  -6   1   12.90    0.60
   6  -6   1   22.15    0.60
   6  -6   1   22.57    0.87
   6  -6   1   20.31    0.90
   6  -6   1   22.39    0.55
   7  -6   1   10.77    0.60
   7  -6   1   10.34    0.65
   7  -6   1   10.31    0.33
   8  -6   1   12.94    0.78
   8  -6   1   13.23    0.71
   6   5  -1   14.19    0.76
   6   5  -1   14.33    0.77
   6   5  -1   15.44    0.95
   5   5  -1    8.86    0.56
   5   5  -1    8.17    0.55
  -5  -5   1    8.69    0.50
   4   5  -1    1.97    0.30
   4   5  -1    1.94    0.30
  -4  -5   1    2.00    0.29
   3   5  -1    6.31    0.43
   3   5  -1    6.52    0.42
  -3  -5   1    6.19    0.39
   2   5  -1    4.77    0.35
  -2  -5   1    5.34    0.34
  -2  -5   1    5.35    0.28
   1   5  -1   14.59    0.58
  -1  -5   1   14.01    0.58
  -1  -5   1   13.78    0.49
  -1  -5   1   14.10    0.55
   0   5  -1   53.30    1.33
   0  -5   1   52.83    1.37
   0  -5   1   52.85    1.28
   0  -5   1   51.55    1.31
  -1   5  -1    0.08    0.07
   1  -5   1    0.09    0.08
   1  -5   1    0.13    0.08
   1  -5   1   -0.04    0.06
  -2   5  -1   18.00    0.54
   2  -5   1   19.05    0.63
   2  -5   1   18.72    0.59
   2  -5   1   18.08    0.53
   2  -5   1   18.52    0.57
  -3   5  -1    0.21    0.06
   3  -5   1    0.16    0.07
   3  -5   1   -0.01    0.05
   3  -5   1    0.20    0.07
   3  -5   1    0.31    0.11
   3  -5   1    0.15    0.07
   4  -5   1   10.46    0.48
   4  -5   1   10.72    0.35
   4  -5   1   10.89    0.54
   4  -5   1   10.89    0.32
   4  -5   1   11.46    0.38
   4  -5   1   11.39    0.37
   5  -5   1    1.98    0.28
   5  -5   1    2.83    0.30
   5  -5   1    2.35    0.14
   5  -5   1    2.47    0.13
   6  -5   1    0.91    0.22
   6  -5   1    0.70    0.17
   7  -5   1    0.31    0.17
   7  -5   1    0.09    0.13
   8  -5   1    5.22    0.43
   8  -5   1    5.50    0.48
   7   4  -1    0.30    0.23
   7   4  -1    1.12    0.27
   7   4  -1    0.25    0.21
   6   4  -1    0.92    0.23
   6   4  -1    0.36    0.17
   6   4  -1    1.29    0.32
   5   4  -1    4.44    0.39
   5   4  -1    4.16    0.43
  -5  -4   1    3.92    0.31
   4   4  -1   33.61    1.07
   4   4  -1   34.56    1.09
  -4  -4   1   32.83    0.99
   3   4  -1    7.62    0.42
   3   4  -1    7.74    0.43
  -3  -4   1    7.27    0.38
   2   4  -1    0.91    0.17
   2   4  -1    0.57    0.12
  -2  -4   1    0.63    0.13
  -2  -4   1    0.97    0.16
   1   4  -1   22.53    0.70
   1   4  -1   22.82    0.72
  -1  -4   1   23.40    0.70
  -1  -4   1   22.89    0.72
  -1  -4   1   22.96    0.64
   0   4  -1    1.63    0.19
   0  -4   1    1.60    0.17
   0  -4   1    1.76    0.19
   0  -4   1    2.58    0.23
  -1   4  -1   37.50    0.93
   1  -4   1   38.44    0.96
   1  -4   1   38.27    0.93
   1  -4   1   37.83    0.96
  -2   4  -1  108.59    2.24
   2  -4   1  109.19    2.29
   2  -4   1  108.78    2.23
   2  -4   1  110.55    2.29
   2  -4   1  109.94    2.27
   2  -4   1  110.53    2.36
  -3   4  -1    3.08    0.10
   3  -4   1    3.14    0.14
   3  -4   1    3.14    0.23
   3  -4   1    3.10    0.17
   3  -4   1    3.10    0.16
   3  -4   1    2.95    0.16
   4  -4   1    1.51    0.22
   4  -4   1    1.53    0.10
   4  -4   1    1.53    0.09
   4  -4   1    1.61    0.08
   4  -4   1    1.71    0.21
  -5   4  -1    0.02    0.03
   5  -4   1    0.01    0.03
   5  -4   1    0.00    0.08
   5  -4   1   -0.07    0.09
   5  -4   1    0.00    0.03
   6  -4   1    1.69    0.23
   6  -4   1    1.82    0.27
   7  -4   1    1.12    0.26
   7  -4   1    1.20    0.21
   8  -4   1   23.60    0.97
   7   3  -1    0.10    0.13
   7   3  -1   -0.10    0.14
   7   3  -1    0.04    0.14
   6   3  -1    2.03    0.38
   6   3  -1    2.94    0.35
   6   3  -1    2.39    0.33
   5   3  -1   -0.07    0.09
   5   3  -1    0.00    0.12
   5   3  -1    0.03    0.09
   5   3  -1    0.06    0.10
  -5  -3   1    0.03    0.08
   4   3  -1   14.09    0.60
   4   3  -1   14.43    0.59
   4   3  -1   13.65    0.57
  -4  -3   1   14.38    0.53
   3   3  -1    6.78    0.36
   3   3  -1    6.81    0.37
  -3  -3   1    7.00    0.33
  -2  -3   1    0.36    0.09
  -2  -3   1    0.22    0.07
   1   3  -1   21.40    0.62
  -1  -3   1   21.05    0.60
  -1  -3   1   20.32    0.62
   0   3  -1   53.01    1.19
   0  -3   1   53.71    1.17
   0  -3   1   52.02    1.21
   0  -3   1   52.27    1.19
  -1   3  -1    2.42    0.15
   1  -3   1    2.67    0.17
   1  -3   1    2.66    0.16
   1  -3   1    2.74    0.16
   1  -3   1    2.89    0.17
  -2   3  -1    6.88    0.21
   2  -3   1    7.01    0.29
   2  -3   1    6.71    0.23
   2  -3   1    7.32    0.21
   2  -3   1    6.90    0.23
   2  -3   1    6.97    0.24
  -3   3  -1    0.77    0.10
   3  -3   1    0.84    0.13
   3  -3   1    0.98    0.07
   3  -3   1    0.87    0.06
  -4   3  -1    7.43    0.21
  -4   3  -1    7.43    0.47
   4  -3   1    7.43    0.18
   4  -3   1    7.30    0.19
   4  -3   1    7.32    0.34
   4  -3   1    8.01    0.39
  -5   3  -1    9.77    0.29
   5  -3   1    9.42    0.46
   5  -3   1    8.44    0.40
   6  -3   1   -0.05    0.08
   6  -3   1    0.05    0.10
   7  -3   1    7.24    0.46
   7  -3   1    6.15    0.19
   8  -3   1    0.90    0.13
   9  -3   1    1.26    0.17
   8   2  -1   -0.05    0.11
   8   2  -1    0.27    0.23
   8   2  -1    0.04    0.15
   7   2  -1    2.46    0.34
   7   2  -1    2.46    0.29
   7   2  -1    3.47    0.51
   6   2  -1    2.15    0.28
   6   2  -1    1.32    0.31
   6   2  -1    1.70    0.27
   6   2  -1    2.04    0.29
   5   2  -1   85.21    2.29
   5   2  -1   84.77    2.02
   5   2  -1   85.43    2.09
  -5  -2   1   84.41    1.91
   4   2  -1    6.62    0.35
   4   2  -1    6.12    0.45
   4   2  -1    7.16    0.38
  -4  -2   1    6.44    0.30
   3   2  -1    0.76    0.12
   3   2  -1    0.53    0.11
   3   2  -1    0.85    0.15
  -3  -2   1    1.00    0.13
   2   2  -1   71.01    1.56
   2   2  -1   70.59    1.56
  -2  -2   1   68.08    1.54
  -2  -2   1   68.20    1.52
   1   2  -1   14.37    0.43
  -1  -2   1   13.74    0.42
  -1  -2   1   14.24    0.41
   0   2  -1   20.95    0.53
   0   2  -1   20.93    0.54
   0   2  -1   22.22    0.52
   0  -2   1   20.92    0.54
   0  -2   1   21.20    0.52
   0  -2   1   21.68    0.54
  -1   2  -1  980.80   19.15
  -1   2  -1 1000.00   19.43
   1  -2   1  976.04   19.16
   1  -2   1  998.48   19.25
   1  -2   1  957.66   19.21
   1  -2   1  989.30   19.24
  -2   2  -1   80.84    1.63
  -2   2  -1   77.64    1.60
   2  -2   1   74.56    1.63
   2  -2   1   77.07    1.52
   2  -2   1   75.76    1.50
  -3   2  -1   27.39    0.70
  -3   2  -1   26.62    0.58
   3  -2   1   26.07    0.55
   3  -2   1   26.61    0.70
   3  -2   1   27.51    0.55
   3  -2   1   27.39    0.74
  -4   2  -1    1.11    0.09
   4  -2   1    0.99    0.06
   4  -2   1    1.05    0.14
   4  -2   1    1.14    0.07
   4  -2   1    1.26    0.18
   4  -2   1    1.13    0.15
  -5   2  -1    1.84    0.14
   5  -2   1    2.23    0.22
   5  -2   1    1.90    0.20
   5  -2   1    1.64    0.21
   5  -2   1    1.82    0.10
   5  -2   1    1.85    0.10
   6  -2   1    1.32    0.12
   6  -2   1    1.09    0.20
   6  -2   1    1.23    0.19
   6  -2   1    1.45    0.11
   7  -2   1   39.70    0.96
   7  -2   1   38.35    0.91
   7  -2   1   37.57    1.14
   8  -2   1    0.01    0.06
   8  -2   1   -0.03    0.07
   8  -2   1   -0.06    0.08
   9  -2   1    1.26    0.26
   9  -2   1    1.18    0.19
   8   1  -1    1.66    0.27
   8   1  -1    1.31    0.35
   8   1  -1    2.53    0.37
   8   1  -1    1.86    0.26
   7   1  -1    2.92    0.27
   7   1  -1    2.88    0.35
   7   1  -1    2.39    0.41
   7   1  -1    3.11    0.28
   6   1  -1    1.37    0.20
   6   1  -1    1.58    0.21
   6   1  -1    1.64    0.26
   6   1  -1    1.61    0.31
   5   1  -1   76.56    1.87
   5   1  -1   77.04    1.79
   5   1  -1   77.07    2.08
  -5  -1   1   76.92    1.68
   4   1  -1    4.40    0.25
   4   1  -1    4.80    0.36
   4   1  -1    4.50    0.23
   4   1  -1    4.56    0.29
   4   1  -1    4.45    0.25
  -4  -1   1    4.41    0.21
   3   1  -1   18.92    0.54
   3   1  -1   17.75    0.56
   3   1  -1   17.93    0.53
   3   1  -1   17.95    0.67
   3   1  -1   18.26    0.50
  -3  -1   1   16.89    0.48
   2   1  -1   11.98    0.39
   2   1  -1   12.67    0.36
   2   1  -1   12.55    0.38
   2   1  -1   12.42    0.38
  -2  -1   1   12.57    0.36
  -2  -1   1   13.62    0.39
   1   1  -1  122.91    2.21
   1   1  -1  105.40    2.17
   1   1  -1  103.69    2.15
  -1  -1   1  107.26    2.16
  -1  -1   1  106.96    2.17
  -1  -1   1  101.55    2.15
   0   1  -1  144.97    2.80
   0   1  -1  141.98    2.80
   0   1  -1  143.93    2.79
   0  -1   1  142.72    2.80
   0  -1   1  142.06    2.80
  -1   1  -1    4.08    0.11
  -1   1  -1    4.02    0.11
   1  -1   1    3.99    0.11
   1  -1   1    3.67    0.14
  -2   1  -1   12.92    0.37
  -2   1  -1   11.79    0.33
   2  -1   1   12.44    0.28
   2  -1   1   12.40    0.36
   2  -1   1   12.27    0.34
  -3   1  -1    5.95    0.23
  -3   1  -1    6.17    0.27
   3  -1   1    5.92    0.19
   3  -1   1    5.86    0.26
   3  -1   1    6.13    0.26
   3  -1   1    5.83    0.23
   4  -1   1   25.01    0.66
   4  -1   1   25.04    0.62
   4  -1   1   24.37    0.70
   4  -1   1   24.66    0.59
   4  -1   1   24.48    0.72
   5  -1   1    1.44    0.12
   5  -1   1    1.44    0.13
   5  -1   1    1.19    0.17
   5  -1   1    1.60    0.13
   5  -1   1    1.73    0.20
   6  -1   1    6.27    0.29
   6  -1   1    5.76    0.27
   6  -1   1    5.29    0.36
   7  -1   1    8.93    0.37
   7  -1   1    8.99    0.40
   7  -1   1    7.76    0.47
   8  -1   1    0.72    0.14
   8  -1   1    0.35    0.17
   8  -1   1    0.60    0.14
   8   0  -1    4.73    0.41
   8   0  -1    4.74    0.34
   8   0  -1    4.77    0.33
   7   0  -1   14.40    0.56
   7   0  -1   14.28    0.82
   7   0  -1   13.32    0.64
   7   0  -1   14.58    0.54
   6   0  -1  132.36    2.96
   6   0  -1  127.97    3.25
   6   0  -1  134.35    2.83
   5   0  -1   42.60    1.15
   5   0  -1   42.95    1.05
   5   0  -1   42.82    1.04
   5   0  -1   41.76    1.33
   5   0  -1   42.49    1.00
  -5   0   1   43.11    0.94
   4   0  -1  124.20    2.49
   4   0  -1  118.90    2.81
   4   0  -1  123.18    2.51
   4   0  -1  124.67    2.52
   4   0  -1  121.09    2.61
  -4   0   1  121.08    2.44
   3   0  -1   28.02    0.66
   3   0  -1   27.84    0.85
   3   0  -1   27.91    0.65
   3   0  -1   28.19    0.64
   3   0  -1   27.53    0.72
  -3   0   1   27.27    0.62
  -3   0   1   28.08    0.69
  -3   0   1   27.89    0.71
   2   0  -1  267.60    5.28
   2   0  -1  268.78    5.23
   2   0  -1  268.17    5.32
   2   0  -1  270.24    5.32
   2   0  -1  273.06    5.40
  -2   0   1  268.80    5.28
  -2   0   1  271.64    5.33
  -2   0   1  275.87    5.37
   1   0  -1    8.01    0.26
   1   0  -1    7.91    0.22
   1   0  -1    7.79    0.20
   1   0  -1    7.64    0.19
   1   0  -1    7.49    0.20
  -1   0   1    7.61    0.22
  -1   0   1    7.64    0.19
  -1   0   1    7.58    0.19
  -1   0   1    7.61    0.20
  -1   0   1    7.80    0.26
   0   0  -1   -0.06    0.01
   0   0  -1   -0.08    0.01
   0   0  -1   -0.09    0.01
   0   0   1   -0.08    0.01
   0   0   1   -0.10    0.01
   0   0   1   -0.09    0.01
  -1   0  -1   59.84    1.18
  -1   0  -1   59.18    1.22
  -1   0  -1   59.58    1.22
  -1   0  -1   61.92    1.25
  -1   0  -1   66.27    1.27
   1   0   1   61.64    1.26
   1   0   1   59.01    1.25
   1   0   1   59.10    1.22
   1   0   1   61.13    1.22
   1   0   1   61.67    1.19
  -2   0  -1   38.11    0.80
  -2   0  -1   40.07    0.84
  -2   0  -1   38.01    0.82
   2   0   1   38.77    0.83
   2   0   1   39.39    0.95
   2   0   1   38.74    0.85
   2   0   1   38.70    0.83
   2   0   1   38.20    0.89
   2   0   1   38.80    0.84
  -3   0  -1   11.56    0.41
  -3   0  -1   11.94    0.33
  -3   0  -1   11.68    0.33
   3   0   1   12.22    0.37
   3   0   1   12.11    0.36
   3   0   1   11.46    0.34
   3   0   1   11.97    0.42
   3   0   1   11.51    0.36
   3   0   1   12.40    0.48
  -4   0  -1   17.29    0.46
  -4   0  -1   18.91    0.49
   4   0   1   17.48    0.68
   4   0   1   17.57    0.53
   4   0   1   18.83    0.61
   4   0   1   17.82    0.52
   4   0   1   17.54    0.49
  -5   0  -1    1.59    0.12
   5   0   1    1.73    0.15
   5   0   1    1.68    0.18
   5   0   1    2.11    0.25
   5   0   1    1.80    0.17
   5   0   1    1.79    0.28
   6   0   1   49.60    1.38
   6   0   1   50.36    1.24
   6   0   1   48.69    1.26
   7   0   1    0.91    0.20
   7   0   1    0.72    0.17
   7   0   1    0.97    0.17
   8   0   1    1.99    0.31
   8   0   1    1.59    0.24
   8   0   1    1.55    0.23
   9  -1  -1    0.03    0.09
   9  -1  -1    0.23    0.10
   9  -1  -1    0.09    0.14
   8  -1  -1    4.45    0.30
   8  -1  -1    5.52    0.42
   8  -1  -1    4.80    0.28
   7  -1  -1    0.46    0.11
   7  -1  -1    0.56    0.16
   7  -1  -1    0.39    0.11
   6  -1  -1    0.51    0.13
   6  -1  -1    0.48    0.10
   6  -1  -1    0.41    0.09
   5  -1  -1    3.90    0.20
   5  -1  -1    3.64    0.25
   5  -1  -1    3.75    0.19
   5  -1  -1    3.87    0.18
   4  -1  -1   21.37    0.52
   4  -1  -1   21.91    0.62
   4  -1  -1   20.93    0.48
  -4   1   1   21.08    0.59
  -4   1   1   21.07    0.62
   3  -1  -1   81.32    1.75
   3  -1  -1   83.49    1.66
   3  -1  -1   83.15    1.82
  -3   1   1   82.77    1.76
  -3   1   1   85.75    1.75
   2  -1  -1    0.12    0.08
   2  -1  -1    0.17    0.06
   2  -1  -1    0.29    0.07
   2  -1  -1    0.35    0.05
   2  -1  -1    0.09    0.06
  -2   1   1    0.35    0.08
  -2   1   1    0.35    0.06
  -2   1   1    0.31    0.07
   1  -1  -1  115.46    2.24
   1  -1  -1  115.11    2.23
   1  -1  -1  110.09    2.26
   1  -1  -1  113.21    2.28
   1  -1  -1  116.23    2.30
   1  -1  -1  113.30    2.24
   1  -1  -1  112.63    2.23
  -1   1   1  113.35    2.20
  -1   1   1  113.42    2.23
  -1   1   1  113.91    2.30
  -1   1   1  115.14    2.23
  -1   1   1  113.84    2.28
  -1   1   1  114.76    2.26
  -1   1   1  114.92    2.20
  -1   1   1  124.55    2.21
   0  -1  -1   13.00    0.33
   0  -1  -1   12.54    0.30
   0  -1  -1   12.56    0.33
   0  -1  -1   12.64    0.30
   0  -1  -1   12.96    0.34
   0  -1  -1   12.93    0.30
   0  -1  -1   13.01    0.33
   0   1   1   12.85    0.30
   0   1   1   13.01    0.30
   0   1   1   13.32    0.34
   0   1   1   12.79    0.32
  -1  -1  -1  158.79    3.10
  -1  -1  -1  153.57    3.07
  -1  -1  -1  156.36    3.09
  -1  -1  -1  156.11    3.08
   1   1   1  153.43    3.09
   1   1   1  152.82    3.07
   1   1   1  157.17    3.09
   1   1   1  154.77    3.11
  -2  -1  -1  116.30    2.44
  -2  -1  -1  127.99    2.56
  -2  -1  -1  119.16    2.35
   2   1   1  118.55    2.49
   2   1   1  120.49    2.45
   2   1   1  122.93    2.50
   2   1   1  118.29    2.47
  -3  -1  -1    1.65    0.10
  -3  -1  -1    1.69    0.10
  -3  -1  -1    1.61    0.14
   3   1   1    1.66    0.16
   3   1   1    1.34    0.18
   3   1   1    1.80    0.18
   3   1   1    1.76    0.14
   3   1   1    1.83    0.18
  -4  -1  -1   13.69    0.44
  -4  -1  -1   13.15    0.37
   4   1   1   14.20    0.50
   4   1   1   13.62    0.48
   4   1   1   14.20    0.61
   4   1   1   12.77    0.52
  -5  -1  -1    0.27    0.09
   5   1   1    0.23    0.11
   5   1   1    0.25    0.11
   5   1   1    0.37    0.11
   5   1   1    0.20    0.14
   6   1   1    0.01    0.07
   6   1   1   -0.08    0.10
   6   1   1   -0.07    0.08
   6   1   1   -0.15    0.10
   7   1   1    3.07    0.45
   7   1   1    3.07    0.29
   7   1   1    2.66    0.35
   7   1   1    2.44    0.28
   8   1   1    5.47    0.47
   8   1   1    6.04    0.40
   9  -2  -1    0.75    0.21
   9  -2  -1    0.82    0.15
   8  -2  -1    0.01    0.06
   8  -2  -1    0.09    0.07
   8  -2  -1    0.01    0.11
   7  -2  -1    6.97    0.40
   7  -2  -1    6.96    0.27
   7  -2  -1    7.56    0.30
   6  -2  -1    2.18    0.23
   6  -2  -1    2.24    0.13
   6  -2  -1    2.20    0.12
   5  -2  -1    4.30    0.25
   5  -2  -1    4.41    0.15
   5  -2  -1    4.33    0.16
   5  -2  -1    4.45    0.31
   4  -2  -1    3.94    0.27
   4  -2  -1    4.12    0.21
   4  -2  -1    4.07    0.13
   4  -2  -1    4.10    0.13
   4  -2  -1    4.27    0.26
  -4   2   1    4.67    0.21
  -4   2   1    4.41    0.22
   3  -2  -1    0.39    0.10
   3  -2  -1    0.41    0.05
   3  -2  -1    0.47    0.05
   3  -2  -1    0.35    0.09
   3  -2  -1    0.40    0.07
   3  -2  -1    0.49    0.08
  -3   2   1    0.42    0.08
  -3   2   1    0.55    0.08
   2  -2  -1   72.36    1.40
   2  -2  -1   66.39    1.54
   2  -2  -1   71.40    1.47
   2  -2  -1   71.45    1.42
   2  -2  -1   69.95    1.52
   2  -2  -1   69.82    1.40
  -2   2   1   69.74    1.39
  -2   2   1   71.31    1.46
  -2   2   1   71.77    1.39
  -2   2   1   70.86    1.41
   1  -2  -1  155.42    3.02
   1  -2  -1  152.07    3.02
   1  -2  -1  153.69    3.04
   1  -2  -1  146.44    3.02
   1  -2  -1  153.72    3.01
   1  -2  -1  151.51    3.06
  -1   2   1  152.63    3.01
  -1   2   1  154.75    3.00
  -1   2   1  150.24    3.02
  -1   2   1  153.02    3.03
   0  -2  -1  120.14    2.42
   0  -2  -1  118.32    2.45
   0  -2  -1  118.55    2.38
   0  -2  -1  120.03    2.43
   0   2   1  121.35    2.38
   0   2   1  119.43    2.38
   0   2   1  119.77    2.44
   0   2   1  119.08    2.43
  -1  -2  -1  148.79    3.01
  -1  -2  -1  146.14    2.97
  -1  -2  -1  146.92    2.87
   1   2   1  145.48    2.96
   1   2   1  145.96    2.99
  -2  -2  -1  110.55    2.35
  -2  -2  -1  112.74    2.39
   2   2   1  109.51    2.40
   2   2   1  111.94    2.38
   2   2   1  115.08    2.39
  -3  -2  -1   36.16    0.80
  -3  -2  -1   37.44    0.95
   3   2   1   36.68    1.00
   3   2   1   37.18    1.01
   3   2   1   38.67    1.00
  -4  -2  -1    0.97    0.15
   4   2   1    0.90    0.16
   4   2   1    0.82    0.19
   4   2   1    0.87    0.17
   4   2   1    0.67    0.14
  -5  -2  -1    3.50    0.25
   5   2   1    3.25    0.28
   5   2   1    3.29    0.28
   5   2   1    2.21    0.34
   5   2   1    3.11    0.32
   6   2   1   -0.09    0.10
   6   2   1   -0.04    0.09
   6   2   1   -0.05    0.13
   6   2   1   -0.03    0.08
   7   2   1    2.86    0.33
   7   2   1    3.21    0.40
   7   2   1    3.36    0.48
   8   2   1    2.42    0.46
   8   2   1    2.72    0.34
   9  -3  -1   -0.02    0.06
   8  -3  -1    0.66    0.10
   8  -3  -1    0.77    0.17
   7  -3  -1    3.32    0.14
   7  -3  -1    3.14    0.26
   7  -3  -1    3.34    0.14
   6  -3  -1    1.07    0.16
   6  -3  -1    0.75    0.05
   6  -3  -1    0.78    0.20
   5  -3  -1    2.24    0.09
   5  -3  -1    1.87    0.26
   5  -3  -1    1.95    0.24
   5  -3  -1    2.38    0.09
   4  -3  -1    0.11    0.04
   4  -3  -1    0.11    0.09
   4  -3  -1    0.17    0.04
   4  -3  -1    0.09    0.06
   4  -3  -1    0.08    0.08
  -4   3   1    0.13    0.05
  -4   3   1    0.16    0.06
   3  -3  -1   14.29    0.52
   3  -3  -1   13.98    0.36
   3  -3  -1   14.14    0.49
   3  -3  -1   13.63    0.41
   3  -3  -1   13.22    0.34
   3  -3  -1   14.00    0.35
  -3   3   1   14.29    0.38
  -3   3   1   13.49    0.40
   2  -3  -1    3.02    0.17
   2  -3  -1    3.24    0.17
   2  -3  -1    2.97    0.16
   2  -3  -1    3.11    0.20
   2  -3  -1    3.04    0.16
   2  -3  -1    2.67    0.21
  -2   3   1    3.20    0.15
  -2   3   1    3.07    0.16
   1  -3  -1   31.46    0.76
   1  -3  -1   31.88    0.78
   1  -3  -1   31.09    0.77
   1  -3  -1   31.55    0.80
   1  -3  -1   31.53    0.78
   1  -3  -1   31.58    0.79
  -1   3   1   30.85    0.76
   0  -3  -1    9.78    0.38
   0  -3  -1   10.71    0.37
   0  -3  -1   10.22    0.33
   0   3   1   10.37    0.38
   0   3   1   10.20    0.33
   0   3   1   11.21    0.40
  -1  -3  -1   96.29    1.96
  -1  -3  -1   95.36    2.12
  -1  -3  -1   96.85    2.08
   1   3   1   93.25    2.10
   1   3   1   97.01    2.10
   1   3   1   96.54    2.05
  -2  -3  -1   23.21    0.56
  -2  -3  -1   23.90    0.73
  -2  -3  -1   23.95    0.70
   2   3   1   23.30    0.73
   2   3   1   22.94    0.70
  -3  -3  -1    2.38    0.21
   3   3   1    2.90    0.28
   3   3   1    1.49    0.20
   3   3   1    2.48    0.23
  -4  -3  -1   34.59    0.99
   4   3   1   35.16    1.06
   4   3   1   32.90    1.04
   4   3   1   35.20    1.04
  -5  -3  -1    1.07    0.18
   5   3   1    0.94    0.24
   5   3   1    1.01    0.20
   5   3   1    1.03    0.21
   6   3   1    5.88    0.53
   6   3   1    7.08    0.46
   6   3   1    6.57    0.47
   7   3   1   27.17    1.08
   7   3   1   25.73    1.22
   7   3   1   27.22    1.01
   7  -4  -1    3.97    0.44
   6  -4  -1   12.82    0.64
   6  -4  -1   12.32    0.57
   5  -4  -1   36.91    0.89
   5  -4  -1   36.17    0.78
   5  -4  -1   35.86    1.12
   5  -4  -1   36.59    0.78
   5  -4  -1   36.99    1.06
  -5   4   1   32.27    0.89
   4  -4  -1   13.17    0.42
   4  -4  -1   13.33    0.37
   4  -4  -1   13.64    0.58
   4  -4  -1   14.11    0.54
   4  -4  -1   12.09    0.37
   4  -4  -1   13.22    0.37
  -4   4   1   13.27    0.41
  -4   4   1   12.92    0.39
   3  -4  -1    0.95    0.11
   3  -4  -1    1.25    0.13
   3  -4  -1    1.34    0.13
   3  -4  -1    1.03    0.15
   3  -4  -1    1.08    0.13
   3  -4  -1    1.24    0.19
  -3   4   1    1.10    0.09
  -3   4   1    1.07    0.08
   2  -4  -1   47.16    1.21
   2  -4  -1   47.14    1.10
   2  -4  -1   46.85    1.17
   2  -4  -1   47.34    1.12
   2  -4  -1   47.66    1.13
   2  -4  -1   48.14    1.12
  -2   4   1   48.05    1.08
   1  -4  -1    0.94    0.13
   1  -4  -1    0.93    0.13
   1  -4  -1    1.09    0.14
   1  -4  -1    0.99    0.15
  -1   4   1    1.16    0.14
   0  -4  -1    1.03    0.15
   0  -4  -1    1.68    0.19
   0  -4  -1    1.31    0.14
   0   4   1    1.15    0.15
  -1  -4  -1   32.87    0.81
  -1  -4  -1   32.67    0.91
   1   4   1   32.58    0.93
   1   4   1   32.78    0.93
   1   4   1   33.17    0.88
  -2  -4  -1    5.57    0.23
  -2  -4  -1    5.41    0.32
   2   4   1    5.75    0.35
   2   4   1    5.48    0.32
   2   4   1    5.63    0.36
  -3  -4  -1    0.53    0.14
  -3  -4  -1    0.34    0.08
   3   4   1    0.16    0.11
   3   4   1    0.41    0.14
  -4  -4  -1    0.16    0.10
  -4  -4  -1    0.20    0.07
   4   4   1    0.31    0.14
   4   4   1    0.20    0.15
  -5  -4  -1    0.04    0.10
   5   4   1   -0.17    0.11
   5   4   1    0.00    0.12
   5   4   1    0.00    0.11
   6   4   1    1.69    0.30
   6   4   1    1.44    0.34
   6   4   1    1.37    0.28
   8  -5  -1    0.06    0.18
   7  -5  -1    2.52    0.33
   7  -5  -1    3.70    0.45
   6  -5  -1    0.02    0.04
   6  -5  -1   -0.04    0.04
   6  -5  -1   -0.18    0.08
   6  -5  -1   -0.14    0.11
   6  -5  -1   -0.06    0.03
   5  -5  -1    0.05    0.10
   5  -5  -1    0.01    0.04
   5  -5  -1    0.07    0.07
   5  -5  -1    0.07    0.10
   5  -5  -1    0.04    0.06
   4  -5  -1    0.72    0.18
   4  -5  -1    1.05    0.14
   4  -5  -1    0.56    0.10
   4  -5  -1    0.50    0.14
   4  -5  -1    0.67    0.11
  -4   5   1    0.50    0.08
   3  -5  -1    3.26    0.21
   3  -5  -1    3.89    0.31
   3  -5  -1    3.66    0.23
   3  -5  -1    3.43    0.27
   3  -5  -1    3.67    0.22
  -3   5   1    3.19    0.17
  -3   5   1    3.35    0.16
   2  -5  -1    0.83    0.16
   2  -5  -1    1.29    0.19
   2  -5  -1    1.11    0.15
   2  -5  -1    1.32    0.19
   2  -5  -1    1.30    0.17
  -2   5   1    1.33    0.15
   1  -5  -1    4.79    0.30
   1  -5  -1    4.65    0.28
   1  -5  -1    4.82    0.28
   1  -5  -1    5.10    0.29
  -1   5   1    4.64    0.28
   0  -5  -1    7.68    0.39
   0  -5  -1    8.27    0.35
   0  -5  -1    7.69    0.41
   0   5   1    8.45    0.41
   0   5   1    7.86    0.34
  -1  -5  -1   11.21    0.41
  -1  -5  -1   12.28    0.52
  -1  -5  -1   10.77    0.52
   1   5   1   11.05    0.46
   1   5   1   11.34    0.52
  -2  -5  -1    0.79    0.16
  -2  -5  -1    0.90    0.13
   2   5   1    0.87    0.18
   2   5   1    1.04    0.21
  -3  -5  -1    1.43    0.15
  -3  -5  -1    1.30    0.23
   3   5   1    1.30    0.22
   3   5   1    1.00    0.21
  -4  -5  -1    6.33    0.43
   4   5   1    6.23    0.44
   4   5   1    5.99    0.46
  -5  -5  -1    0.56    0.17
   5   5   1    0.51    0.20
   5   5   1    0.29    0.22
   5   5   1    0.42    0.19
   6   5   1    0.97    0.27
   6   5   1    0.71    0.23
   6   5   1    1.00    0.31
   8  -6  -1    0.60    0.09
   8  -6  -1    0.40    0.25
   7  -6  -1    0.33    0.18
   7  -6  -1    0.26    0.20
   7  -6  -1    0.11    0.06
   6  -6  -1    4.95    0.22
   6  -6  -1    4.76    0.40
   6  -6  -1    4.38    0.25
   6  -6  -1    4.99    0.45
   5  -6  -1    0.73    0.19
   5  -6  -1    0.64    0.21
   5  -6  -1    0.69    0.13
   5  -6  -1    0.58    0.12
   5  -6  -1    0.65    0.12
   4  -6  -1    2.33    0.22
   4  -6  -1    2.49    0.21
   4  -6  -1    2.33    0.28
   4  -6  -1    2.89    0.23
   4  -6  -1    2.53    0.32
   3  -6  -1   10.76    0.44
   3  -6  -1   10.16    0.47
   3  -6  -1    9.95    0.53
   3  -6  -1   10.54    0.51
   3  -6  -1   10.93    0.44
   2  -6  -1    0.52    0.15
   2  -6  -1    0.21    0.11
   2  -6  -1    0.32    0.11
   2  -6  -1    0.44    0.14
   2  -6  -1    0.62    0.17
  -2   6   1    0.71    0.13
   1  -6  -1    4.09    0.32
   1  -6  -1    3.76    0.29
   1  -6  -1    3.80    0.29
   1  -6  -1    4.09    0.29
   1  -6  -1    4.22    0.29
  -1   6   1    4.78    0.31
   0  -6  -1    9.35    0.47
   0  -6  -1    9.18    0.45
   0  -6  -1    8.78    0.40
   0  -6  -1    8.78    0.49
   0   6   1    9.39    0.47
   0   6   1    9.16    0.41
  -1  -6  -1    1.47    0.19
  -1  -6  -1    1.70    0.24
   1   6   1    2.19    0.30
   1   6   1    1.90    0.24
  -2  -6  -1    0.22    0.10
  -2  -6  -1    0.51    0.17
   2   6   1    0.25    0.16
   2   6   1    0.18    0.13
  -3  -6  -1    8.84    0.52
   3   6   1    7.97    0.50
   3   6   1    9.16    0.56
  -4  -6  -1    0.34    0.14
   4   6   1    0.23    0.16
   4   6   1    0.27    0.18
  -5  -6  -1    0.00    0.12
   5   6   1   -0.16    0.15
   5   6   1    0.22    0.17
   7  -7  -1   -0.13    0.13
   7  -7  -1   -0.06    0.18
   7  -7  -1   -0.01    0.07
   6  -7  -1    0.06    0.14
   6  -7  -1    0.27    0.18
   6  -7  -1    0.09    0.08
   6  -7  -1    0.10    0.08
   5  -7  -1    0.00    0.13
   5  -7  -1    0.23    0.10
   5  -7  -1    0.13    0.15
   5  -7  -1    0.08    0.09
   4  -7  -1    1.23    0.20
   4  -7  -1    1.36    0.19
   4  -7  -1    1.03    0.17
   4  -7  -1    0.77    0.20
   4  -7  -1    1.27    0.27
   3  -7  -1    0.65    0.17
   3  -7  -1    0.46    0.18
   3  -7  -1    0.66    0.16
   3  -7  -1    0.87    0.17
   3  -7  -1    0.57    0.18
   2  -7  -1    0.41    0.15
   2  -7  -1    0.51    0.15
   2  -7  -1    0.42    0.14
   2  -7  -1    0.67    0.16
   2  -7  -1    0.50    0.16
   1  -7  -1    0.26    0.13
   1  -7  -1    0.03    0.10
   1  -7  -1    0.23    0.13
   1  -7  -1    0.10    0.11
  -1   7   1    0.15    0.10
  -1   7   1    0.12    0.12
   0  -7  -1    0.14    0.11
   0  -7  -1    0.34    0.15
   0  -7  -1    0.21    0.14
   0  -7  -1    0.17    0.11
   0   7   1    0.20    0.14
   0   7   1    0.23    0.12
  -1  -7  -1    0.80    0.16
  -1  -7  -1    0.89    0.19
  -1  -7  -1    0.64    0.20
   1   7   1    0.91    0.20
   1   7   1    0.71    0.21
  -2  -7  -1    6.16    0.46
   2   7   1    5.67    0.47
   2   7   1    5.60    0.41
  -3  -7  -1    0.45    0.17
   3   7   1    0.48    0.22
   3   7   1    0.60    0.20
   6  -8  -1    0.10    0.10
   6  -8  -1    0.35    0.14
   6  -8  -1    0.36    0.19
   6  -8  -1    0.31    0.20
   5  -8  -1    0.66    0.16
   5  -8  -1    0.51    0.21
   5  -8  -1    0.62    0.20
   5  -8  -1    0.82    0.19
   4  -8  -1   12.13    0.69
   4  -8  -1   12.03    0.64
   4  -8  -1   12.62    0.56
   4  -8  -1   11.25    0.59
   3  -8  -1    0.48    0.18
   3  -8  -1    0.44    0.18
   3  -8  -1    0.13    0.16
   3  -8  -1    0.62    0.18
   3  -8  -1    0.46    0.14
   2  -8  -1   -0.06    0.09
   2  -8  -1    0.15    0.13
   2  -8  -1   -0.07    0.11
   2  -8  -1   -0.03    0.10
   1  -8  -1    0.45    0.18
   1  -8  -1    0.26    0.14
   1  -8  -1    0.46    0.16
   1  -8  -1    0.68    0.19
   0  -8  -1    0.25    0.17
   0  -8  -1    0.52    0.16
   0  -8  -1    0.56    0.19
   0  -8  -1    0.41    0.16
   0   8   1    0.23    0.17
  -1  -8  -1    0.06    0.14
  -1  -8  -1    0.05    0.12
   1   8   1    0.12    0.15
  -2  -8  -1    6.76    0.52
   2   8   1    6.60    0.54
   2   8   1    6.74    0.55
   3  -9  -1    2.68    0.39
   3  -9  -1    2.13    0.33
   3  -9  -1    3.50    0.39
   2  -9  -1    2.53    0.37
   2  -9  -1    2.40    0.33
   2  -9  -1    3.12    0.37
   2  -9  -1    2.48    0.34
   1  -9  -1    0.42    0.18
   1  -9  -1    0.37    0.19
   1  -9  -1    0.66    0.21
   0  -9   2    1.34    0.28
   0  -9   2    1.44    0.27
   1  -9   2    0.00    0.12
   1  -9   2    0.04    0.14
   1  -9   2    0.15    0.14
   2  -9   2    0.82    0.22
   2  -9   2    0.70    0.20
   3  -9   2   -0.15    0.12
   3  -9   2   -0.08    0.11
   3  -9   2    0.12    0.17
   4  -9   2    0.05    0.17
   4  -9   2   -0.04    0.11
   4  -9   2    0.14    0.12
   4  -9   2   -0.04    0.15
   3   8  -2    1.51    0.30
   2   8  -2    2.46    0.34
   2   8  -2    2.58    0.37
  -2  -8   2    2.94    0.39
  -2  -8   2    3.11    0.33
   1   8  -2    2.18    0.33
  -1  -8   2    1.75    0.25
  -1  -8   2    2.05    0.30
   0   8  -2    0.03    0.12
   0  -8   2    0.11    0.11
   0  -8   2   -0.07    0.10
   1  -8   2    2.70    0.32
   1  -8   2    2.61    0.30
   2  -8   2    1.22    0.23
   2  -8   2    1.28    0.22
   2  -8   2    1.38    0.20
   3  -8   2    0.89    0.20
   3  -8   2    0.86    0.18
   3  -8   2    0.79    0.21
   4  -8   2    2.20    0.34
   4  -8   2    2.36    0.33
   4  -8   2    2.15    0.29
   4  -8   2    1.89    0.24
   5  -8   2    0.25    0.17
   5  -8   2    0.24    0.11
   5  -8   2    0.15    0.11
   5  -8   2   -0.02    0.14
   6  -8   2    0.55    0.13
   6  -8   2    0.31    0.19
   6  -8   2    0.36    0.13
   6  -8   2    0.91    0.28
   4   7  -2    2.57    0.38
   4   7  -2    3.28    0.41
  -4  -7   2    3.36    0.42
   3   7  -2    7.26    0.53
   3   7  -2    7.30    0.51
  -3  -7   2    7.33    0.40
  -3  -7   2    7.90    0.51
   2   7  -2    3.38    0.40
   2   7  -2    3.59    0.38
  -2  -7   2    3.04    0.34
  -2  -7   2    3.36    0.28
   1   7  -2    0.67    0.19
  -1  -7   2    0.31    0.13
  -1  -7   2    0.46    0.17
   0   7  -2   14.57    0.64
   0  -7   2   15.81    0.65
   0  -7   2   14.71    0.60
  -1   7  -2    6.93    0.40
   1  -7   2    7.13    0.41
   1  -7   2    7.07    0.42
   1  -7   2    7.48    0.45
   2  -7   2    4.39    0.34
   2  -7   2    4.28    0.31
   2  -7   2    4.19    0.27
   2  -7   2    4.29    0.34
   3  -7   2    2.59    0.26
   3  -7   2    2.80    0.25
   3  -7   2    2.15    0.28
   3  -7   2    3.09    0.21
   4  -7   2    5.86    0.41
   4  -7   2    5.91    0.35
   4  -7   2    5.44    0.31
   5  -7   2    4.76    0.30
   5  -7   2    5.03    0.27
   5  -7   2    5.42    0.41
   5  -7   2    4.51    0.42
   6  -7   2    0.20    0.14
   6  -7   2    0.05    0.16
   6  -7   2    0.06    0.07
   6  -7   2    0.00    0.06
   7  -7   2    1.02    0.28
   7  -7   2    1.49    0.17
   7  -7   2    1.05    0.25
   5   6  -2    3.48    0.45
   5   6  -2    2.64    0.39
  -5  -6   2    2.40    0.33
   4   6  -2    3.28    0.40
   4   6  -2    2.51    0.34
  -4  -6   2    4.06    0.36
   3   6  -2   -0.12    0.14
   3   6  -2   -0.12    0.12
  -3  -6   2    0.03    0.09
  -3  -6   2   -0.04    0.12
   2   6  -2    0.25    0.14
  -2  -6   2    0.28    0.13
  -2  -6   2    0.07    0.09
   1   6  -2   33.58    1.05
  -1  -6   2   32.71    0.95
  -1  -6   2   35.74    1.05
   0   6  -2    6.19    0.38
   0  -6   2    6.25    0.37
   0  -6   2    6.35    0.36
   0  -6   2    6.34    0.39
  -1   6  -2   52.21    1.32
   1  -6   2   52.70    1.39
   1  -6   2   51.76    1.34
   1  -6   2   50.43    1.33
  -2   6  -2   22.01    0.68
   2  -6   2   23.77    0.77
   2  -6   2   22.67    0.75
   2  -6   2   22.95    0.71
   2  -6   2   22.97    0.65
   3  -6   2  127.14    2.85
   3  -6   2  124.36    2.59
   3  -6   2  125.59    2.69
   3  -6   2  127.86    2.76
   4  -6   2   10.06    0.39
   4  -6   2   11.08    0.43
   4  -6   2    9.85    0.51
   5  -6   2    3.58    0.22
   5  -6   2    3.85    0.21
   5  -6   2    3.55    0.41
   5  -6   2    3.20    0.35
   6  -6   2    5.23    0.21
   6  -6   2    5.17    0.44
   6  -6   2    5.09    0.24
   6  -6   2    5.22    0.40
   7  -6   2    0.16    0.15
   7  -6   2    0.06    0.06
   7  -6   2   -0.01    0.12
   8  -6   2    1.04    0.24
   8  -6   2    1.39    0.32
   8  -6   2    1.33    0.11
   6   5  -2    1.60    0.40
   6   5  -2    1.91    0.33
   6   5  -2    1.90    0.35
   5   5  -2    0.70    0.22
   5   5  -2    0.79    0.23
  -5  -5   2    0.47    0.17
   4   5  -2    8.50    0.52
   4   5  -2    7.55    0.50
  -4  -5   2    8.16    0.46
   3   5  -2   25.81    0.90
   3   5  -2   25.55    0.92
  -3  -5   2   25.90    0.86
  -2  -5   2    3.56    0.29
   1   5  -2    0.85    0.17
  -1  -5   2    0.62    0.13
  -1  -5   2    0.99    0.17
  -1  -5   2    0.99    0.18
   0   5  -2    0.93    0.15
   0  -5   2    0.90    0.15
   0  -5   2    0.92    0.16
   0  -5   2    0.87    0.14
  -1   5  -2    8.87    0.38
   1  -5   2    9.58    0.41
   1  -5   2    9.38    0.41
   1  -5   2    8.99    0.38
  -2   5  -2   15.05    0.48
   2  -5   2   15.45    0.45
   2  -5   2   15.14    0.56
   2  -5   2   15.02    0.52
   2  -5   2   15.48    0.50
  -3   5  -2    1.25    0.12
   3  -5   2    1.26    0.14
   3  -5   2    1.22    0.15
   3  -5   2    1.47    0.14
   3  -5   2    1.10    0.18
   3  -5   2    1.37    0.10
   4  -5   2    2.70    0.17
   4  -5   2    2.74    0.17
   4  -5   2    2.93    0.25
   4  -5   2    2.98    0.20
   5  -5   2    0.91    0.19
   5  -5   2    1.04    0.10
   5  -5   2    1.11    0.10
   5  -5   2    1.15    0.23
   6  -5   2    1.84    0.28
   6  -5   2    2.30    0.11
   6  -5   2    2.30    0.28
   6  -5   2    2.02    0.11
   7  -5   2    4.02    0.38
   7  -5   2    4.54    0.37
   8  -5   2   12.30    0.64
   8  -5   2   12.72    0.72
   7   4  -2    0.29    0.18
   7   4  -2    0.35    0.25
   7   4  -2    0.01    0.16
   6   4  -2    6.84    0.63
   6   4  -2    8.20    0.53
   6   4  -2    6.87    0.51
   5   4  -2    0.02    0.12
   5   4  -2    0.06    0.12
  -5  -4   2    0.03    0.09
   4   4  -2  121.54    2.80
  -4  -4   2  117.75    2.68
   3   4  -2    1.49    0.23
  -3  -4   2    1.11    0.17
   2   4  -2   23.27    0.75
   2   4  -2   23.20    0.75
  -2  -4   2   23.26    0.75
  -2  -4   2   22.72    0.72
   1   4  -2   24.30    0.75
   1   4  -2   24.12    0.74
  -1  -4   2   24.60    0.76
  -1  -4   2   26.16    0.74
   0   4  -2    6.38    0.31
   0  -4   2    6.17    0.31
   0  -4   2    5.78    0.28
   1  -4   2    6.78    0.32
   1  -4   2    6.99    0.31
   1  -4   2    6.97    0.30
  -2   4  -2  189.72    3.81
   2  -4   2  194.68    3.86
   2  -4   2  187.24    3.75
   2  -4   2  191.64    3.83
   2  -4   2  191.33    3.86
   2  -4   2  194.58    3.93
  -3   4  -2   22.64    0.49
   3  -4   2   22.52    0.49
   3  -4   2   22.63    0.58
   3  -4   2   22.70    0.58
   3  -4   2   22.58    0.69
   3  -4   2   23.05    0.57
   4  -4   2    0.52    0.07
   4  -4   2    0.54    0.13
   4  -4   2    0.46    0.07
   5  -4   2    0.66    0.18
   5  -4   2    0.55    0.06
   5  -4   2    0.39    0.06
   5  -4   2    0.36    0.12
   6  -4   2    0.22    0.14
   6  -4   2    0.24    0.11
   7  -4   2    0.58    0.17
   7  -4   2    0.35    0.16
   8  -4   2   36.11    1.25
   7   3  -2    0.91    0.22
   7   3  -2    0.95    0.26
   7   3  -2    0.40    0.24
   6   3  -2    0.23    0.18
   6   3  -2    0.06    0.13
   6   3  -2    0.06    0.13
   5   3  -2    9.54    0.50
   5   3  -2   11.58    0.71
   5   3  -2   10.64    0.54
  -5  -3   2   10.88    0.46
   4   3  -2   19.72    0.70
   4   3  -2   18.68    0.69
   4   3  -2   19.11    0.72
  -4  -3   2   19.72    0.64
   3   3  -2    8.10    0.40
   3   3  -2    8.45    0.40
  -3  -3   2    7.57    0.35
   2   3  -2   10.73    0.44
  -2  -3   2   10.75    0.43
  -2  -3   2   10.76    0.41
   1   3  -2    0.53    0.10
   1   3  -2    0.48    0.11
  -1  -3   2    0.76    0.13
  -1  -3   2    0.49    0.10
   0   3  -2    4.78    0.25
   0   3  -2    5.20    0.24
   0  -3   2    5.23    0.24
   0  -3   2    4.94    0.24
  -1   3  -2    7.11    0.27
   1  -3   2    7.45    0.29
   1  -3   2    7.68    0.28
   1  -3   2    7.55    0.28
   1  -3   2    7.21    0.26
   2  -3   2   34.20    0.71
   2  -3   2   34.72    0.80
   2  -3   2   35.66    0.80
   2  -3   2   34.41    0.78
   2  -3   2   35.09    0.87
  -3   3  -2    9.97    0.35
   3  -3   2    9.39    0.25
   3  -3   2    9.37    0.37
   3  -3   2    9.60    0.27
   4  -3   2    4.48    0.29
   4  -3   2    3.88    0.14
   4  -3   2    4.48    0.25
   4  -3   2    3.96    0.15
  -5   3  -2    0.71    0.07
   5  -3   2    0.74    0.14
   5  -3   2    0.71    0.07
   5  -3   2    0.79    0.07
   5  -3   2    0.68    0.15
   6  -3   2    3.84    0.15
   6  -3   2    3.66    0.30
   6  -3   2    3.99    0.28
   7  -3   2   28.06    0.97
   7  -3   2   27.75    0.65
   8  -3   2    3.35    0.22
   8   2  -2    0.29    0.18
   8   2  -2    0.28    0.22
   8   2  -2    0.36    0.16
   7   2  -2    0.15    0.14
   7   2  -2    0.28    0.15
   7   2  -2    0.18    0.20
   6   2  -2    0.37    0.20
   6   2  -2    0.03    0.09
   6   2  -2    0.32    0.14
   5   2  -2   33.03    1.04
   5   2  -2   33.69    1.00
   5   2  -2   35.86    1.25
   5   2  -2   33.28    0.99
  -5  -2   2   33.64    0.90
   4   2  -2    9.82    0.43
   4   2  -2   10.00    0.46
   4   2  -2    8.82    0.54
   4   2  -2    9.14    0.42
  -4  -2   2    9.74    0.38
   3   2  -2    4.65    0.26
   3   2  -2    4.70    0.28
   3   2  -2    4.46    0.27
  -3  -2   2    4.63    0.24
   2   2  -2   11.76    0.43
   2   2  -2   12.06    0.42
  -2  -2   2   12.47    0.41
   1   2  -2   56.05    1.25
  -1  -2   2   55.17    1.24
  -1  -2   2   55.51    1.22
   0   2  -2   54.59    1.21
   0   2  -2   54.90    1.21
   0   2  -2   55.82    1.21
   0  -2   2   57.02    1.20
   0  -2   2   57.20    1.22
   0  -2   2   56.16    1.22
  -1   2  -2  835.57   16.73
  -1   2  -2  910.51   16.65
   1  -2   2  840.91   16.74
   1  -2   2  860.90   16.94
   1  -2   2  846.55   16.86
   1  -2   2  848.21   17.02
  -2   2  -2   20.07    0.44
  -2   2  -2   20.10    0.45
  -2   2  -2   20.97    0.53
   2  -2   2   20.15    0.53
   2  -2   2   20.91    0.46
   2  -2   2   19.64    0.47
   2  -2   2   20.11    0.47
  -3   2  -2   55.60    1.25
  -3   2  -2   53.58    1.07
   3  -2   2   54.28    1.11
   3  -2   2   51.96    1.21
  -4   2  -2   26.19    0.60
   4  -2   2   26.23    0.76
   4  -2   2   26.91    0.60
   4  -2   2   26.06    0.71
  -5   2  -2    1.19    0.12
   5  -2   2    1.26    0.19
   5  -2   2    0.74    0.13
   5  -2   2    0.91    0.10
   5  -2   2    0.94    0.17
   6  -2   2   12.97    0.39
   6  -2   2   12.81    0.55
   6  -2   2   12.95    0.55
   7  -2   2   30.59    0.82
   7  -2   2   28.45    0.97
   7  -2   2   29.03    0.75
   8  -2   2    3.64    0.22
   8  -2   2    3.35    0.38
   8  -2   2    3.54    0.26
   8   1  -2    1.30    0.22
   8   1  -2    1.16    0.26
   8   1  -2    1.16    0.22
   8   1  -2    1.04    0.34
   7   1  -2    5.69    0.37
   7   1  -2    5.20    0.40
   7   1  -2    5.05    0.62
   6   1  -2    3.39    0.46
   6   1  -2    3.42    0.27
   6   1  -2    3.44    0.27
   6   1  -2    3.70    0.32
   5   1  -2    0.16    0.09
   5   1  -2    0.21    0.11
   5   1  -2    0.30    0.15
   5   1  -2    0.11    0.07
  -5  -1   2    0.16    0.07
   4   1  -2    3.58    0.23
   4   1  -2    3.78    0.24
   4   1  -2    3.59    0.23
   4   1  -2    3.31    0.31
   4   1  -2    3.19    0.25
  -4  -1   2    3.71    0.19
   3   1  -2   71.25    1.74
   3   1  -2   68.56    1.56
   3   1  -2   66.62    1.51
   3   1  -2   69.38    1.52
   3   1  -2   69.10    1.48
  -3  -1   2   65.67    1.46
   2   1  -2   26.19    0.65
   2   1  -2   24.96    0.65
   2   1  -2   24.77    0.62
  -2  -1   2   25.55    0.62
  -2  -1   2   27.60    0.71
   1   1  -2   40.69    0.91
   1   1  -2   41.90    0.93
   1   1  -2   42.32    0.93
  -1  -1   2   41.71    0.91
  -1  -1   2   42.35    0.93
  -1  -1   2   41.95    0.92
   0   1  -2   43.94    0.95
   0   1  -2   44.34    0.95
   0   1  -2   42.55    0.97
   0   1  -2   45.71    0.97
   0  -1   2   52.91    1.01
   0  -1   2   45.62    0.95
   0  -1   2   45.19    0.96
  -1   1  -2    8.63    0.21
  -1   1  -2    8.96    0.24
  -1   1  -2    8.71    0.24
   1  -1   2    8.90    0.25
   1  -1   2    8.69    0.25
   1  -1   2    8.78    0.24
   1  -1   2    8.26    0.21
  -2   1  -2  100.38    1.98
  -2   1  -2   98.22    2.04
  -2   1  -2   99.46    1.95
  -2   1  -2   96.40    1.94
   2  -1   2   97.27    1.96
   2  -1   2   97.57    1.96
   2  -1   2   98.87    1.98
  -3   1  -2   36.99    0.77
  -3   1  -2   31.71    0.89
  -3   1  -2   37.86    0.83
   3  -1   2   37.84    0.81
   3  -1   2   37.48    0.92
   3  -1   2   36.53    0.81
   3  -1   2   37.51    0.88
   3  -1   2   36.71    0.84
  -4   1  -2    2.90    0.11
   4  -1   2    2.70    0.16
   4  -1   2    3.04    0.19
   4  -1   2    2.94    0.17
   4  -1   2    2.74    0.22
   4  -1   2    2.81    0.15
  -5   1  -2    5.14    0.14
   5  -1   2    4.97    0.25
   5  -1   2    4.94    0.23
   5  -1   2    4.99    0.28
   5  -1   2    5.00    0.22
   5  -1   2    5.38    0.33
   6  -1   2    2.39    0.28
   6  -1   2    3.08    0.22
   6  -1   2    2.74    0.20
   7  -1   2    0.11    0.12
   7  -1   2    0.02    0.07
   7  -1   2   -0.02    0.07
   8  -1   2    1.08    0.26
   8  -1   2    0.78    0.15
   8  -1   2    0.67    0.16
   8   0  -2   10.02    0.57
   8   0  -2    8.88    0.46
   8   0  -2    9.02    0.45
   7   0  -2    0.07    0.08
   7   0  -2   -0.17    0.09
   7   0  -2   -0.06    0.13
   6   0  -2    0.06    0.08
   6   0  -2    0.13    0.11
   6   0  -2    0.06    0.07
   6   0  -2    0.34    0.19
   5   0  -2   10.35    0.45
   5   0  -2    9.85    0.38
   5   0  -2   10.99    0.60
   5   0  -2    9.53    0.38
   5   0  -2    9.98    0.35
  -5   0   2    9.70    0.30
   4   0  -2   -0.06    0.07
   4   0  -2    0.07    0.05
   4   0  -2   -0.03    0.04
   4   0  -2    0.09    0.09
   4   0  -2    0.01    0.05
  -4   0   2    0.01    0.03
   3   0  -2   68.92    1.43
   3   0  -2   68.65    1.45
   3   0  -2   67.25    1.45
   3   0  -2   68.20    1.51
  -3   0   2   67.34    1.41
  -3   0   2   70.01    1.51
   2   0  -2    0.00    0.05
   2   0  -2    0.06    0.04
   2   0  -2    0.09    0.04
   2   0  -2    0.07    0.04
   2   0  -2   -0.03    0.06
  -2   0   2    0.10    0.06
  -2   0   2    0.02    0.03
  -2   0   2    0.16    0.05
   1   0  -2    0.22    0.06
   1   0  -2    0.19    0.05
   1   0  -2    0.24    0.05
   1   0  -2    0.22    0.05
   1   0  -2    0.08    0.05
  -1   0   2    0.18    0.04
  -1   0   2    0.08    0.04
  -1   0   2    0.21    0.04
  -1   0   2    0.16    0.05
   0   0  -2   57.12    1.19
   0   0  -2   58.82    1.20
   0   0  -2   57.75    1.19
   0   0   2   57.95    1.19
   0   0   2   56.41    1.19
   0   0   2   60.37    1.20
  -1   0  -2   14.25    0.35
  -1   0  -2   13.83    0.36
  -1   0  -2   14.43    0.38
  -1   0  -2   13.23    0.35
  -1   0  -2   13.58    0.35
   1   0   2   13.82    0.36
   1   0   2   13.70    0.36
   1   0   2   13.52    0.37
  -2   0  -2    3.21    0.11
  -2   0  -2    3.23    0.15
   2   0   2    3.50    0.16
   2   0   2    3.13    0.11
   2   0   2    3.35    0.16
   2   0   2    3.01    0.12
   2   0   2    3.35    0.19
   2   0   2    3.37    0.19
  -3   0  -2   68.60    1.37
  -3   0  -2   65.05    1.42
   3   0   2   68.02    1.59
   3   0   2   67.58    1.53
   3   0   2   67.43    1.41
   3   0   2   65.85    1.43
   3   0   2   68.22    1.48
   3   0   2   65.98    1.45
  -4   0  -2    2.64    0.16
  -4   0  -2    2.65    0.14
   4   0   2    3.12    0.20
   4   0   2    3.04    0.20
   4   0   2    2.65    0.25
   4   0   2    2.96    0.23
   4   0   2    2.75    0.17
  -5   0  -2    2.68    0.16
   5   0   2    2.75    0.22
   5   0   2    2.35    0.20
   5   0   2    2.48    0.26
   5   0   2    2.77    0.19
   6   0   2    6.92    0.37
   6   0   2    7.28    0.36
   6   0   2    6.56    0.42
   7   0   2    3.07    0.26
   7   0   2    3.40    0.38
   7   0   2    3.08    0.28
   8   0   2   -0.09    0.10
   8   0   2    0.18    0.11
   8   0   2    0.02    0.10
   9  -1  -2    6.14    0.35
   9  -1  -2    6.70    0.40
   9  -1  -2    6.32    0.47
   8  -1  -2    0.22    0.10
   8  -1  -2   -0.08    0.10
   8  -1  -2    0.37    0.12
   7  -1  -2    4.68    0.35
   7  -1  -2    4.51    0.26
   7  -1  -2    4.86    0.28
   6  -1  -2    1.39    0.15
   6  -1  -2    1.69    0.15
   6  -1  -2    1.51    0.21
   5  -1  -2   18.68    0.61
   5  -1  -2   18.44    0.52
   5  -1  -2   18.34    0.49
   5  -1  -2   19.15    0.51
   4  -1  -2    2.22    0.12
   4  -1  -2    2.28    0.13
   4  -1  -2    2.13    0.12
   4  -1  -2    2.22    0.17
   3  -1  -2    0.47    0.07
   3  -1  -2    0.52    0.09
   3  -1  -2    0.65    0.11
   3  -1  -2    0.92    0.08
   3  -1  -2    0.67    0.07
  -3   1   2    0.61    0.10
  -3   1   2    0.56    0.05
  -3   1   2    0.51    0.05
   2  -1  -2    0.22    0.05
   2  -1  -2    0.22    0.06
   2  -1  -2    0.25    0.05
   2  -1  -2    0.28    0.05
   2  -1  -2    0.24    0.04
   2  -1  -2    0.26    0.05
  -2   1   2    0.18    0.06
  -2   1   2    0.24    0.06
  -2   1   2    0.34    0.05
  -2   1   2    0.27    0.04
   1  -1  -2    0.24    0.06
   1  -1  -2    0.22    0.05
   1  -1  -2    0.40    0.06
   1  -1  -2    0.26    0.06
   1  -1  -2    0.24    0.05
  -1   1   2    0.18    0.05
  -1   1   2    0.24    0.05
  -1   1   2    0.32    0.05
  -1   1   2    0.24    0.05
  -1   1   2    0.32    0.05
  -1   1   2    0.32    0.05
   0  -1  -2    4.44    0.20
   0  -1  -2    4.55    0.15
   0  -1  -2    4.60    0.19
   0  -1  -2    4.31    0.18
   0   1   2    4.62    0.19
   0   1   2    4.52    0.18
   0   1   2    4.70    0.16
   0   1   2    4.72    0.15
   0   1   2    5.03    0.20
   0   1   2    4.55    0.18
   0   1   2    5.10    0.20
   0   1   2    4.77    0.15
  -1  -1  -2    3.82    0.18
  -1  -1  -2    3.96    0.18
  -1  -1  -2    4.01    0.20
   1   1   2    4.01    0.18
   1   1   2    3.87    0.18
   1   1   2    3.93    0.19
   1   1   2    3.71    0.09
  -2  -1  -2  104.26    2.20
  -2  -1  -2  108.66    2.25
   2   1   2  104.30    2.22
   2   1   2  106.23    2.21
   2   1   2  105.12    2.25
   2   1   2  106.64    2.25
   2   1   2  109.21    2.25
  -3  -1  -2    0.55    0.10
  -3  -1  -2    0.52    0.04
   3   1   2    0.23    0.08
   3   1   2    0.64    0.12
   3   1   2    0.46    0.11
   3   1   2    0.42    0.12
  -4  -1  -2    5.33    0.26
  -4  -1  -2    5.42    0.18
   4   1   2    5.80    0.34
   4   1   2    5.61    0.31
   4   1   2    5.25    0.35
   4   1   2    5.65    0.30
  -5  -1  -2   12.57    0.45
   5   1   2   12.83    0.50
   5   1   2   12.01    0.51
   5   1   2   12.25    0.55
   5   1   2   12.05    0.61
   6   1   2    0.03    0.09
   6   1   2    0.05    0.13
   6   1   2    0.06    0.08
   6   1   2   -0.02    0.09
   7   1   2    3.47    0.41
   7   1   2    3.31    0.30
   7   1   2    3.31    0.31
   8   1   2   15.22    0.67
   8   1   2   16.82    0.82
   9  -2  -2    0.90    0.16
   9  -2  -2    0.96    0.23
   8  -2  -2    3.80    0.22
   8  -2  -2    4.24    0.26
   8  -2  -2    3.89    0.32
   7  -2  -2    0.77    0.11
   7  -2  -2    0.78    0.16
   7  -2  -2    0.69    0.11
   6  -2  -2   17.46    0.47
   6  -2  -2   16.91    0.60
   6  -2  -2   17.08    0.47
   5  -2  -2    7.65    0.34
   5  -2  -2    8.05    0.24
   5  -2  -2    8.41    0.26
   4  -2  -2  136.52    2.64
   4  -2  -2  135.30    2.76
   4  -2  -2  135.76    2.64
   4  -2  -2  135.12    2.95
   4  -2  -2  133.91    2.68
   4  -2  -2  135.48    2.81
   3  -2  -2    6.24    0.32
   3  -2  -2    6.35    0.19
   3  -2  -2    6.23    0.21
   3  -2  -2    6.11    0.21
   3  -2  -2    6.15    0.19
   3  -2  -2    5.86    0.26
   3  -2  -2    5.97    0.29
  -3   2   2    6.58    0.26
   2  -2  -2    7.24    0.28
   2  -2  -2    7.47    0.30
   2  -2  -2    8.00    0.25
   2  -2  -2    7.55    0.25
   2  -2  -2    7.36    0.32
   2  -2  -2    7.86    0.25
   2  -2  -2    7.67    0.24
  -2   2   2    7.22    0.27
  -2   2   2    7.61    0.23
   1  -2  -2   42.82    1.01
   1  -2  -2   45.16    0.99
   1  -2  -2   43.80    1.00
   1  -2  -2   44.10    0.99
   1  -2  -2   44.07    0.98
  -1   2   2   44.04    0.99
  -1   2   2   45.31    1.00
  -1   2   2   43.45    0.97
  -1   2   2   43.96    0.86
   0  -2  -2   12.90    0.35
   0  -2  -2   13.15    0.40
   0  -2  -2   13.22    0.40
   0  -2  -2   12.78    0.36
   0  -2  -2   12.94    0.42
   0   2   2   13.39    0.41
   0   2   2   12.91    0.35
   0   2   2   13.15    0.35
   0   2   2   13.10    0.40
  -1  -2  -2    3.09    0.12
  -1  -2  -2    3.23    0.18
  -1  -2  -2    3.18    0.11
  -1  -2  -2    3.15    0.20
  -1  -2  -2    3.28    0.21
   1   2   2    3.33    0.21
   1   2   2    3.01    0.18
   1   2   2    3.04    0.20
  -2  -2  -2   12.98    0.47
  -2  -2  -2   13.22    0.46
  -2  -2  -2   13.22    0.47
  -2  -2  -2   13.10    0.30
   2   2   2   13.33    0.46
   2   2   2   13.02    0.47
   2   2   2   16.29    0.58
  -3  -2  -2    0.42    0.04
  -3  -2  -2    0.49    0.04
  -3  -2  -2    0.69    0.13
   3   2   2    0.44    0.12
   3   2   2    0.40    0.11
   3   2   2    0.33    0.10
   3   2   2    0.48    0.14
  -4  -2  -2    8.86    0.39
  -4  -2  -2    8.67    0.23
   4   2   2    7.85    0.46
   4   2   2    9.06    0.44
   4   2   2    9.37    0.44
   4   2   2    9.16    0.44
  -5  -2  -2    0.17    0.09
   5   2   2    0.05    0.10
   5   2   2    0.15    0.14
   5   2   2    0.28    0.13
   5   2   2    0.03    0.09
   6   2   2    1.35    0.24
   6   2   2    1.53    0.25
   6   2   2    1.76    0.33
   6   2   2    2.35    0.34
   7   2   2    0.40    0.15
   7   2   2    0.64    0.21
   7   2   2    0.44    0.22
   9  -3  -2   -0.03    0.06
   8  -3  -2    0.08    0.06
   8  -3  -2   -0.02    0.09
   7  -3  -2    3.48    0.26
   7  -3  -2    3.17    0.16
   7  -3  -2    3.21    0.15
   6  -3  -2    2.25    0.11
   6  -3  -2    2.13    0.21
   6  -3  -2    2.05    0.12
   5  -3  -2   13.03    0.32
   5  -3  -2   12.92    0.34
   5  -3  -2   13.23    0.59
   5  -3  -2   12.88    0.35
   5  -3  -2   12.41    0.32
   5  -3  -2   13.31    0.46
  -5   3   2   14.01    0.45
   4  -3  -2    1.17    0.08
   4  -3  -2    1.02    0.09
   4  -3  -2    1.07    0.14
   4  -3  -2    1.01    0.08
   4  -3  -2    0.80    0.16
   4  -3  -2    1.18    0.18
  -4   3   2    1.16    0.11
   3  -3  -2   36.37    0.89
   3  -3  -2   35.93    0.83
   3  -3  -2   36.06    0.83
   3  -3  -2   37.10    0.96
   3  -3  -2   37.18    0.84
   3  -3  -2   35.80    1.00
   3  -3  -2   36.30    0.83
  -3   3   2   37.28    0.89
  -3   3   2   34.41    0.75
  -3   3   2   37.48    0.78
   2  -3  -2   32.71    0.84
   2  -3  -2   32.23    0.80
   2  -3  -2   31.97    0.78
   2  -3  -2   32.31    0.78
   2  -3  -2   32.98    0.81
   2  -3  -2   31.61    0.87
  -2   3   2   32.57    0.80
  -2   3   2   32.40    0.75
   1  -3  -2   43.42    1.01
   1  -3  -2   44.19    1.03
   1  -3  -2   41.48    1.03
   1  -3  -2   42.46    1.01
   1  -3  -2   42.44    1.03
   1  -3  -2   43.53    1.03
  -1   3   2   41.71    0.89
  -1   3   2   42.44    1.00
   0  -3  -2   45.81    1.10
   0  -3  -2   45.86    1.02
   0  -3  -2   45.42    1.03
   0  -3  -2   43.49    1.12
   0  -3  -2   45.62    1.09
   0   3   2   45.69    1.01
   0   3   2   44.00    1.09
   0   3   2   45.36    1.01
  -1  -3  -2    1.86    0.12
  -1  -3  -2    1.78    0.11
  -1  -3  -2    1.77    0.19
  -1  -3  -2    1.87    0.22
   1   3   2    1.87    0.19
   1   3   2    1.90    0.20
   1   3   2    1.69    0.17
  -2  -3  -2   46.12    0.97
  -2  -3  -2   46.14    1.21
  -2  -3  -2   44.71    1.16
   2   3   2   46.46    1.16
   2   3   2   45.14    1.19
  -3  -3  -2    0.03    0.07
  -3  -3  -2    0.02    0.03
   3   3   2    0.05    0.07
   3   3   2    0.02    0.08
   3   3   2    0.09    0.10
  -4  -3  -2   -0.01    0.08
  -4  -3  -2    0.05    0.03
   4   3   2   -0.04    0.09
   4   3   2    0.04    0.08
   4   3   2   -0.06    0.10
   4   3   2    0.13    0.12
  -5  -3  -2    4.49    0.32
   5   3   2    4.98    0.38
   5   3   2    4.58    0.41
   5   3   2    4.82    0.37
   6   3   2    3.11    0.38
   6   3   2    2.49    0.33
   6   3   2    2.23    0.39
   7   3   2    1.97    0.35
   7   3   2    1.83    0.30
   7   3   2    2.37    0.43
   8  -4  -2   13.10    0.40
   7  -4  -2    0.85    0.09
   6  -4  -2    0.71    0.08
   6  -4  -2    0.78    0.08
   6  -4  -2    0.60    0.08
   6  -4  -2    0.91    0.23
   5  -4  -2   13.22    0.38
   5  -4  -2   13.24    0.39
   5  -4  -2   13.22    0.47
   5  -4  -2   14.28    0.59
   5  -4  -2   14.09    0.64
   5  -4  -2   13.07    0.38
  -5   4   2   13.72    0.42
   4  -4  -2    4.47    0.22
   4  -4  -2    4.90    0.25
   4  -4  -2    4.71    0.31
   4  -4  -2    4.49    0.21
   4  -4  -2    4.72    0.33
   4  -4  -2    4.56    0.21
   4  -4  -2    4.68    0.21
  -4   4   2    4.46    0.18
   3  -4  -2    2.16    0.25
   3  -4  -2    2.10    0.18
   3  -4  -2    2.07    0.16
   3  -4  -2    2.38    0.16
   3  -4  -2    2.23    0.16
   3  -4  -2    2.03    0.21
  -3   4   2    2.19    0.12
  -3   4   2    2.11    0.09
   2  -4  -2   16.58    0.55
   2  -4  -2   15.68    0.52
   2  -4  -2   15.93    0.53
   2  -4  -2   15.70    0.50
   2  -4  -2   15.97    0.52
   2  -4  -2   16.65    0.58
  -2   4   2   16.37    0.48
   1  -4  -2    0.10    0.07
   1  -4  -2    0.07    0.07
   1  -4  -2    0.10    0.07
   1  -4  -2    0.00    0.07
   1  -4  -2    0.07    0.07
  -1   4   2    0.04    0.06
  -1   4   2    0.07    0.05
   0  -4  -2    5.92    0.26
   0  -4  -2    5.66    0.27
   0  -4  -2    5.52    0.31
   0  -4  -2    5.71    0.33
   0  -4  -2    5.75    0.31
   0   4   2    5.49    0.25
   0   4   2    5.81    0.31
  -1  -4  -2   14.37    0.43
  -1  -4  -2   14.54    0.43
  -1  -4  -2   13.95    0.57
  -1  -4  -2   14.77    0.55
   1   4   2   14.97    0.59
   1   4   2   14.67    0.50
  -2  -4  -2    0.79    0.10
  -2  -4  -2    0.54    0.13
  -2  -4  -2    0.66    0.16
  -2  -4  -2    0.69    0.08
   2   4   2    0.53    0.13
   2   4   2    0.85    0.17
   2   4   2    0.69    0.15
  -3  -4  -2    0.36    0.07
  -3  -4  -2    0.18    0.12
   3   4   2    0.48    0.16
   3   4   2    0.19    0.11
  -4  -4  -2    5.38    0.36
   4   4   2    4.96    0.39
   4   4   2    4.29    0.36
  -5  -4  -2    0.24    0.13
   5   4   2   -0.05    0.11
   5   4   2    0.25    0.15
   5   4   2    0.19    0.16
   6   4   2    0.46    0.20
   6   4   2    0.55    0.20
   6   4   2    0.23    0.20
   8  -5  -2    1.43    0.12
   7  -5  -2    1.30    0.12
   7  -5  -2    0.98    0.12
   7  -5  -2    0.83    0.25
   6  -5  -2   -0.03    0.05
   6  -5  -2    0.01    0.14
   6  -5  -2   -0.10    0.11
   6  -5  -2   -0.12    0.06
   6  -5  -2    0.07    0.05
   6  -5  -2    0.00    0.05
   5  -5  -2    1.23    0.25
   5  -5  -2    1.16    0.16
   5  -5  -2    1.42    0.14
   5  -5  -2    0.96    0.20
   5  -5  -2    1.09    0.14
   4  -5  -2    0.00    0.06
   4  -5  -2   -0.06    0.08
   4  -5  -2    0.01    0.06
   4  -5  -2    0.03    0.10
   4  -5  -2   -0.06    0.07
  -4   5   2    0.11    0.07
   3  -5  -2    0.49    0.13
   3  -5  -2    0.59    0.12
   3  -5  -2    0.32    0.10
   3  -5  -2    0.20    0.10
   3  -5  -2    0.79    0.18
  -3   5   2    0.36    0.08
  -3   5   2    0.60    0.06
   2  -5  -2    0.75    0.14
   2  -5  -2    0.51    0.13
   2  -5  -2    0.57    0.13
   2  -5  -2    0.37    0.11
   2  -5  -2    0.58    0.12
  -2   5   2    0.75    0.13
   1  -5  -2    1.00    0.17
   1  -5  -2    0.95    0.15
   1  -5  -2    1.02    0.18
   1  -5  -2    1.09    0.17
   1  -5  -2    0.99    0.17
  -1   5   2    1.27    0.18
  -1   5   2    0.98    0.12
   0  -5  -2    0.46    0.12
   0  -5  -2    0.41    0.10
   0  -5  -2    0.72    0.15
   0  -5  -2    0.27    0.11
   0  -5  -2    0.46    0.13
   0   5   2    0.46    0.13
   0   5   2    0.37    0.10
  -1  -5  -2    0.69    0.12
  -1  -5  -2    0.25    0.12
  -1  -5  -2    0.44    0.10
  -1  -5  -2    0.33    0.13
   1   5   2    0.32    0.13
   1   5   2    0.47    0.13
  -2  -5  -2    0.09    0.06
  -2  -5  -2    0.12    0.10
  -2  -5  -2    0.20    0.07
   2   5   2    0.15    0.12
   2   5   2   -0.09    0.08
  -3  -5  -2    8.98    0.49
   3   5   2    8.90    0.52
   3   5   2    8.63    0.48
  -4  -5  -2    2.11    0.27
   4   5   2    2.11    0.32
   4   5   2    2.31    0.30
  -5  -5  -2   -0.12    0.10
   5   5   2   -0.06    0.13
   5   5   2    0.15    0.16
   5   5   2   -0.04    0.15
   7  -6  -2    0.22    0.09
   7  -6  -2   -0.04    0.16
   7  -6  -2    0.07    0.14
   6  -6  -2    4.78    0.40
   6  -6  -2    4.95    0.44
   6  -6  -2    5.39    0.25
   6  -6  -2    4.59    0.28
   5  -6  -2    1.13    0.17
   5  -6  -2    1.28    0.16
   5  -6  -2    0.83    0.20
   5  -6  -2    0.99    0.16
   5  -6  -2    0.84    0.24
   4  -6  -2   -0.08    0.10
   4  -6  -2    0.02    0.08
   4  -6  -2    0.32    0.14
   4  -6  -2    0.10    0.09
   4  -6  -2    0.12    0.09
   3  -6  -2   33.10    1.07
   3  -6  -2   34.24    1.04
   3  -6  -2   32.60    1.00
   3  -6  -2   33.54    0.95
   3  -6  -2   33.13    0.95
   2  -6  -2   -0.07    0.08
   2  -6  -2   -0.11    0.07
   2  -6  -2   -0.08    0.08
   2  -6  -2   -0.14    0.08
   2  -6  -2    0.06    0.09
  -2   6   2    0.08    0.08
  -2   6   2    0.09    0.06
   1  -6  -2    0.84    0.19
   1  -6  -2    0.88    0.18
   1  -6  -2    0.74    0.16
   1  -6  -2    0.83    0.16
   1  -6  -2    0.87    0.17
  -1   6   2    0.78    0.13
  -1   6   2    0.98    0.18
   0  -6  -2    0.85    0.16
   0  -6  -2    0.68    0.16
   0  -6  -2    0.78    0.18
   0  -6  -2    0.79    0.15
   0   6   2    0.44    0.16
   0   6   2    0.59    0.13
  -1  -6  -2    1.07    0.19
  -1  -6  -2    1.21    0.17
  -1  -6  -2    1.39    0.24
  -1  -6  -2    0.95    0.15
   1   6   2    1.34    0.20
   1   6   2    0.82    0.19
  -2  -6  -2   -0.13    0.09
   2   6   2    0.21    0.15
   2   6   2    0.08    0.11
  -3  -6  -2   16.43    0.74
   3   6   2   15.71    0.70
   3   6   2   17.26    0.79
  -4  -6  -2    4.10    0.45
   4   6   2    3.88    0.46
   4   6   2    3.57    0.41
   7  -7  -2    3.71    0.28
   7  -7  -2    3.24    0.41
   7  -7  -2    3.48    0.48
   6  -7  -2    0.68    0.26
   6  -7  -2    0.87    0.24
   6  -7  -2    0.60    0.15
   6  -7  -2    0.94    0.15
   5  -7  -2    2.82    0.36
   5  -7  -2    2.99    0.25
   5  -7  -2    3.52    0.44
   5  -7  -2    3.02    0.27
   4  -7  -2    2.15    0.24
   4  -7  -2    1.94    0.30
   4  -7  -2    2.25    0.26
   4  -7  -2    2.03    0.27
   4  -7  -2    1.98    0.29
   3  -7  -2    0.91    0.20
   3  -7  -2    0.71    0.16
   3  -7  -2    0.90    0.21
   3  -7  -2    0.84    0.17
   3  -7  -2    0.62    0.19
   2  -7  -2    1.20    0.22
   2  -7  -2    1.15    0.20
   2  -7  -2    0.97    0.23
   2  -7  -2    1.25    0.23
   2  -7  -2    0.92    0.19
   1  -7  -2    1.48    0.24
   1  -7  -2    1.63    0.25
   1  -7  -2    1.72    0.23
   1  -7  -2    1.75    0.26
  -1   7   2    2.08    0.28
   0  -7  -2    0.32    0.15
   0  -7  -2    0.40    0.13
   0  -7  -2    0.23    0.14
   0  -7  -2    0.42    0.13
   0   7   2    0.31    0.12
   0   7   2    0.53    0.18
  -1  -7  -2   -0.02    0.12
  -1  -7  -2    0.15    0.10
  -1  -7  -2    0.15    0.09
   1   7   2   -0.05    0.10
   1   7   2   -0.16    0.11
  -2  -7  -2    6.46    0.47
  -2  -7  -2    6.02    0.47
   2   7   2    6.41    0.50
   2   7   2    6.66    0.43
  -3  -7  -2    0.33    0.19
   3   7   2    0.19    0.16
   3   7   2    0.37    0.22
   5  -8  -2    1.53    0.23
   5  -8  -2    1.14    0.23
   5  -8  -2    1.04    0.29
   5  -8  -2    1.42    0.30
   4  -8  -2    6.04    0.39
   4  -8  -2    5.32    0.42
   4  -8  -2    6.24    0.48
   4  -8  -2    6.01    0.45
   3  -8  -2    1.87    0.32
   3  -8  -2    2.23    0.29
   3  -8  -2    1.62    0.25
   3  -8  -2    1.38    0.26
   2  -8  -2    0.13    0.14
   2  -8  -2    0.20    0.14
   2  -8  -2    0.13    0.12
   2  -8  -2    0.16    0.12
   1  -8  -2    1.00    0.22
   1  -8  -2    0.78    0.21
   1  -8  -2    0.78    0.21
   1  -8  -2    0.65    0.18
   0  -8  -2    0.83    0.19
   0  -8  -2    0.67    0.21
   0  -8  -2    0.74    0.21
  -1  -8  -2    0.52    0.20
  -1  -8  -2    0.62    0.20
   1   8   2    0.40    0.21
   0  -9   3    0.10    0.14
   0  -9   3    0.05    0.13
   1  -9   3    0.60    0.19
   1  -9   3    0.20    0.14
   1  -9   3    0.36    0.19
   2  -9   3    1.46    0.26
   2  -9   3    2.04    0.32
   3  -9   3    1.93    0.28
   3  -9   3    2.44    0.36
   4  -9   3    0.09    0.13
   4  -9   3    0.11    0.11
   4  -9   3   -0.08    0.13
   4  -9   3    0.20    0.18
   3   8  -3    0.47    0.22
   3   8  -3    0.43    0.24
  -3  -8   3    0.60    0.20
   2   8  -3    6.09    0.50
  -2  -8   3    5.49    0.46
  -2  -8   3    5.37    0.39
   1   8  -3   -0.04    0.13
  -1  -8   3    0.28    0.13
  -1  -8   3    0.07    0.13
   0   8  -3    1.31    0.24
   0  -8   3    1.16    0.23
   0  -8   3    1.22    0.23
   1  -8   3    0.73    0.20
   1  -8   3    0.77    0.19
   2  -8   3    3.13    0.34
   2  -8   3    2.42    0.31
   2  -8   3    2.49    0.26
   3  -8   3    0.98    0.20
   3  -8   3    1.18    0.22
   3  -8   3    0.96    0.22
   4  -8   3   27.03    0.92
   4  -8   3   25.56    0.84
   4  -8   3   26.69    0.99
   5  -8   3    0.36    0.19
   5  -8   3    0.22    0.10
   5  -8   3    0.28    0.19
   5  -8   3    0.35    0.14
   6  -8   3    0.10    0.09
   6  -8   3    0.18    0.09
   6  -8   3    0.02    0.13
   6  -8   3    0.26    0.20
   4   7  -3    0.43    0.22
   4   7  -3    0.08    0.17
  -4  -7   3    0.08    0.12
   3   7  -3    1.53    0.32
   3   7  -3    1.36    0.28
  -3  -7   3    1.18    0.21
  -3  -7   3    1.33    0.26
   2   7  -3   21.15    0.87
  -2  -7   3   20.78    0.83
  -2  -7   3   19.29    0.72
   1   7  -3    0.09    0.14
  -1  -7   3    0.17    0.11
  -1  -7   3    0.03    0.11
   0   7  -3    2.60    0.32
   0  -7   3    2.43    0.29
   0  -7   3    2.52    0.28
  -1   7  -3    0.01    0.09
   1  -7   3   -0.03    0.09
   1  -7   3    0.05    0.10
   1  -7   3   -0.04    0.09
   2  -7   3    7.05    0.39
   2  -7   3    6.08    0.31
   2  -7   3    6.29    0.40
   2  -7   3    7.17    0.42
   3  -7   3    6.23    0.35
   3  -7   3    5.94    0.40
   3  -7   3    5.80    0.36
   4  -7   3    0.14    0.14
   4  -7   3    0.18    0.09
   5  -7   3    1.29    0.27
   5  -7   3    1.65    0.18
   5  -7   3    1.48    0.20
   5  -7   3    1.55    0.27
   6  -7   3    0.29    0.10
   6  -7   3    0.33    0.09
   6  -7   3    0.59    0.22
   6  -7   3    0.30    0.17
   7  -7   3    2.51    0.21
   7  -7   3    2.11    0.38
   7  -7   3    1.97    0.31
   5   6  -3   21.46    0.95
   5   6  -3   19.83    0.94
  -5  -6   3   22.76    0.88
   4   6  -3    4.23    0.47
   4   6  -3    3.08    0.39
  -4  -6   3    3.03    0.34
   3   6  -3  154.90    3.54
  -3  -6   3  150.15    3.43
   2   6  -3    0.61    0.19
  -2  -6   3    0.82    0.18
   1   6  -3   47.58    1.34
  -1  -6   3   47.50    1.31
  -1  -6   3   46.16    1.24
   0   6  -3    7.01    0.41
   0  -6   3    7.62    0.39
   0  -6   3    7.14    0.42
   0  -6   3    6.70    0.39
  -1   6  -3   19.73    0.67
   1  -6   3   19.36    0.70
   1  -6   3   19.09    0.66
   1  -6   3   18.71    0.68
  -2   6  -3    6.83    0.33
   2  -6   3    7.12    0.38
   2  -6   3    6.99    0.39
   2  -6   3    6.23    0.34
   3  -6   3   50.72    1.37
   3  -6   3   51.24    1.24
   3  -6   3   50.16    1.12
   3  -6   3   51.12    1.30
   4  -6   3   21.48    0.68
   4  -6   3   22.31    0.64
   4  -6   3   22.13    0.79
   5  -6   3    0.55    0.19
   5  -6   3    0.87    0.12
   5  -6   3    0.88    0.14
   5  -6   3    1.11    0.22
   6  -6   3    4.41    0.36
   6  -6   3    4.41    0.41
   6  -6   3    3.83    0.22
   6  -6   3    4.11    0.20
   7  -6   3    1.68    0.33
   7  -6   3    1.30    0.26
   7  -6   3    1.35    0.13
   8  -6   3    0.42    0.19
   8  -6   3    0.45    0.21
   8  -6   3    0.45    0.09
   6   5  -3    4.17    0.62
   6   5  -3    4.54    0.51
   6   5  -3    4.40    0.50
   5   5  -3    1.27    0.26
   5   5  -3    1.30    0.25
  -5  -5   3    1.42    0.23
   4   5  -3    1.10    0.23
  -4  -5   3    2.01    0.27
  -3  -5   3   23.09    0.80
   2   5  -3    3.73    0.31
  -2  -5   3    3.67    0.29
   1   5  -3    0.80    0.16
  -1  -5   3    0.61    0.13
  -1  -5   3    1.09    0.19
   0   5  -3    4.13    0.28
   0  -5   3    3.40    0.26
   0  -5   3    3.34    0.24
   1  -5   3   11.58    0.46
   1  -5   3   11.02    0.46
   1  -5   3   10.88    0.43
  -2   5  -3    4.02    0.23
   2  -5   3    3.63    0.26
   2  -5   3    3.86    0.25
   2  -5   3    3.43    0.22
  -3   5  -3    0.26    0.07
   3  -5   3    0.34    0.05
   3  -5   3    0.28    0.08
   3  -5   3    0.70    0.11
   3  -5   3    0.29    0.11
   3  -5   3    0.66    0.12
   4  -5   3    0.10    0.10
   4  -5   3    0.10    0.06
   4  -5   3    0.12    0.06
   5  -5   3    0.84    0.17
   5  -5   3    1.08    0.12
   5  -5   3    0.98    0.11
   5  -5   3    0.98    0.20
   6  -5   3    3.20    0.33
   6  -5   3    3.35    0.38
   6  -5   3    3.44    0.18
   6  -5   3    3.26    0.15
   7  -5   3    0.34    0.07
   7  -5   3    0.26    0.14
   7  -5   3    0.54    0.19
   8  -5   3    5.57    0.44
   8  -5   3    5.56    0.24
   8  -5   3    5.77    0.49
   7   4  -3    1.11    0.27
   7   4  -3    1.12    0.36
   7   4  -3    0.74    0.23
   6   4  -3    0.13    0.14
   6   4  -3    0.07    0.18
   6   4  -3    0.09    0.16
   5   4  -3    0.69    0.22
  -5  -4   3    0.79    0.17
   4   4  -3   32.56    1.07
   4   4  -3   33.86    1.07
  -4  -4   3   34.40    1.00
   3   4  -3   -0.03    0.09
  -3  -4   3    0.10    0.08
   2   4  -3    2.62    0.23
  -2  -4   3    2.63    0.23
  -2  -4   3    3.16    0.24
   1   4  -3    5.59    0.31
   1   4  -3    5.73    0.33
  -1  -4   3    6.17    0.33
  -1  -4   3    6.02    0.31
   0   4  -3   32.58    0.88
   0  -4   3   31.76    0.85
   0  -4   3   31.42    0.88
  -1   4  -3    3.24    0.21
   1  -4   3    3.23    0.20
   1  -4   3    2.93    0.21
   1  -4   3    2.66    0.20
  -2   4  -3  360.32    7.05
   2  -4   3  359.69    7.08
   2  -4   3  366.61    7.16
   2  -4   3  360.98    7.06
   2  -4   3  357.12    7.10
  -3   4  -3    5.01    0.18
   3  -4   3    5.12    0.29
   3  -4   3    5.14    0.23
   3  -4   3    4.66    0.21
   3  -4   3    4.73    0.22
   4  -4   3   48.73    1.06
   4  -4   3   47.85    1.07
   4  -4   3   47.87    1.23
   5  -4   3    0.24    0.11
   5  -4   3    0.37    0.07
   5  -4   3    0.31    0.06
   5  -4   3    0.38    0.14
   6  -4   3    7.91    0.24
   6  -4   3    7.24    0.41
   6  -4   3    7.94    0.47
   7  -4   3    2.53    0.29
   7  -4   3    2.45    0.33
   8  -4   3    9.99    0.59
   7   3  -3   -0.07    0.13
   7   3  -3    0.08    0.17
   7   3  -3    0.13    0.13
   6   3  -3    1.69    0.30
   6   3  -3    1.94    0.39
   5   3  -3    3.24    0.34
   5   3  -3    2.91    0.28
   5   3  -3    2.80    0.32
   5   3  -3    3.01    0.44
  -5  -3   3    3.37    0.25
   4   3  -3   30.80    0.96
   4   3  -3   31.66    0.98
   4   3  -3   32.37    1.00
  -4  -3   3   32.50    0.91
   3   3  -3   17.59    0.63
   3   3  -3   17.58    0.63
  -3  -3   3   17.67    0.58
   2   3  -3    0.36    0.12
  -2  -3   3    0.47    0.11
  -2  -3   3    0.27    0.08
   1   3  -3    5.98    0.31
  -1  -3   3    6.26    0.30
  -1  -3   3    6.43    0.29
   0   3  -3    3.17    0.21
   0   3  -3    2.66    0.18
   0  -3   3    3.20    0.20
   0  -3   3    2.96    0.19
  -1   3  -3   21.24    0.57
   1  -3   3   20.19    0.57
   1  -3   3   21.58    0.56
   1  -3   3   20.46    0.57
  -2   3  -3    0.04    0.05
   2  -3   3    0.05    0.05
   2  -3   3    0.00    0.05
   2  -3   3    0.06    0.05
   2  -3   3    0.04    0.07
   2  -3   3    0.05    0.02
  -3   3  -3    0.07    0.03
   3  -3   3    0.12    0.05
   3  -3   3    0.08    0.04
   3  -3   3    0.03    0.04
   3  -3   3    0.04    0.07
   4  -3   3    9.99    0.40
   4  -3   3   10.05    0.30
   5  -3   3    3.70    0.17
   5  -3   3    3.38    0.27
   5  -3   3    3.60    0.25
   6  -3   3    0.09    0.09
   6  -3   3    0.03    0.04
   6  -3   3    0.04    0.09
   7  -3   3    0.48    0.08
   7  -3   3    0.48    0.14
   7  -3   3    0.54    0.16
   8  -3   3    1.59    0.20
   8  -3   3    2.20    0.32
   8   2  -3    2.59    0.38
   8   2  -3    2.29    0.46
   8   2  -3    2.58    0.35
   7   2  -3   -0.05    0.14
   7   2  -3    0.29    0.17
   6   2  -3    2.10    0.27
   6   2  -3    2.91    0.34
   6   2  -3    2.32    0.41
   6   2  -3    1.92    0.24
   5   2  -3   40.41    1.18
   5   2  -3   39.71    1.13
   5   2  -3   38.62    1.37
   5   2  -3   40.00    1.13
  -5  -2   3   39.60    1.02
   4   2  -3   16.52    0.59
   4   2  -3   15.64    0.61
   4   2  -3   16.79    0.59
  -4  -2   3   16.04    0.53
   3   2  -3   75.08    1.72
   3   2  -3   75.09    1.73
  -3  -2   3   75.58    1.67
   2   2  -3   48.31    1.18
   2   2  -3   46.92    1.18
  -2  -2   3   51.75    1.17
  -2  -2   3   49.61    1.14
   1   2  -3  103.81    2.20
  -1  -2   3  104.30    2.20
  -1  -2   3  105.59    2.17
   0   2  -3    6.93    0.27
   0   2  -3    7.28    0.27
   0  -2   3    7.52    0.26
   0  -2   3    7.06    0.25
   0  -2   3    7.70    0.28
   0  -2   3    7.55    0.28
  -1   2  -3    2.30    0.14
   1  -2   3    2.07    0.13
   1  -2   3    2.11    0.13
   1  -2   3    2.18    0.10
   1  -2   3    2.27    0.13
  -2   2  -3   25.14    0.52
  -2   2  -3   24.82    0.59
   2  -2   3   26.23    0.61
   2  -2   3   24.46    0.59
   2  -2   3   25.34    0.64
   2  -2   3   24.61    0.60
  -3   2  -3    5.57    0.18
  -3   2  -3    5.45    0.15
   3  -2   3    5.45    0.21
   3  -2   3    5.76    0.25
   3  -2   3    5.62    0.21
   4  -2   3   43.82    0.96
   4  -2   3   42.74    1.08
   4  -2   3   43.12    0.96
   4  -2   3   41.91    1.02
   5  -2   3    6.91    0.27
   5  -2   3    6.85    0.32
   5  -2   3    7.49    0.27
   5  -2   3    7.49    0.36
   6  -2   3    2.90    0.18
   6  -2   3    2.83    0.23
   6  -2   3    3.17    0.26
   6  -2   3    3.34    0.33
   7  -2   3    7.93    0.38
   7  -2   3    8.17    0.45
   7  -2   3    7.78    0.33
   7  -2   3    8.13    0.48
   8  -2   3    2.51    0.24
   8  -2   3    2.80    0.21
   8   1  -3    2.25    0.33
   8   1  -3    2.01    0.29
   8   1  -3    1.82    0.44
   7   1  -3    1.46    0.22
   7   1  -3    2.06    0.40
   7   1  -3    0.78    0.21
   7   1  -3    1.30    0.21
   6   1  -3    1.15    0.18
   6   1  -3    0.67    0.15
   6   1  -3    0.57    0.16
   6   1  -3    1.61    0.35
   5   1  -3    4.47    0.29
   5   1  -3    4.07    0.40
   5   1  -3    4.13    0.27
   5   1  -3    3.64    0.29
  -5  -1   3    4.19    0.22
   4   1  -3    8.54    0.37
   4   1  -3    8.32    0.39
   4   1  -3    9.05    0.37
  -4  -1   3    9.08    0.33
   3   1  -3    2.37    0.19
   3   1  -3    2.60    0.17
   3   1  -3    2.88    0.28
   3   1  -3    2.50    0.18
  -3  -1   3    2.37    0.16
   2   1  -3    5.60    0.25
   2   1  -3    5.88    0.24
   2   1  -3    5.77    0.25
  -2  -1   3    5.05    0.22
  -2  -1   3    6.01    0.26
   1   1  -3    0.29    0.07
   1   1  -3    0.24    0.07
   1   1  -3    0.32    0.07
   1   1  -3    0.26    0.07
  -1  -1   3    0.26    0.06
  -1  -1   3    0.39    0.08
  -1  -1   3    0.35    0.08
   0   1  -3   20.19    0.51
   0   1  -3   20.82    0.53
   0   1  -3   20.56    0.51
   0   1  -3   23.56    0.56
   0  -1   3   20.59    0.52
   0  -1   3   20.68    0.53
   0  -1   3   19.73    0.51
   0  -1   3   21.25    0.51
  -1   1  -3    4.12    0.18
  -1   1  -3    4.24    0.17
  -1   1  -3    4.49    0.16
  -1   1  -3    4.51    0.18
   1  -1   3    4.92    0.20
   1  -1   3    4.58    0.15
   1  -1   3    4.12    0.18
   1  -1   3    4.45    0.18
  -2   1  -3   25.96    0.63
  -2   1  -3   26.82    0.70
  -2   1  -3   26.41    0.60
   2  -1   3   27.88    0.64
   2  -1   3   26.52    0.62
   2  -1   3   27.53    0.64
  -3   1  -3   87.09    1.83
   3  -1   3   89.63    1.86
   3  -1   3   91.93    1.97
   3  -1   3   91.02    1.84
   3  -1   3   87.84    1.86
  -4   1  -3    1.18    0.12
  -4   1  -3    1.03    0.10
   4  -1   3    1.26    0.13
   4  -1   3    0.96    0.13
   4  -1   3    1.18    0.12
   4  -1   3    1.13    0.12
   4  -1   3    0.88    0.15
  -5   1  -3    9.58    0.29
   5  -1   3    8.74    0.44
   5  -1   3    9.78    0.35
   5  -1   3    9.49    0.39
   5  -1   3    9.54    0.39
   5  -1   3    9.67    0.36
   6  -1   3    4.67    0.35
   6  -1   3    5.31    0.31
   6  -1   3    5.35    0.31
   6  -1   3    5.30    0.28
   7  -1   3    2.08    0.28
   7  -1   3    2.18    0.26
   7  -1   3    1.95    0.22
   8  -1   3    3.35    0.39
   8  -1   3    2.95    0.29
   8  -1   3    2.98    0.28
   8   0  -3    0.02    0.09
   8   0  -3    0.08    0.13
   7   0  -3   -0.02    0.10
   7   0  -3   -0.05    0.07
   7   0  -3   -0.01    0.07
   7   0  -3    0.02    0.16
   6   0  -3    0.24    0.11
   6   0  -3    0.42    0.12
   6   0  -3    0.29    0.19
   6   0  -3    0.51    0.12
   5   0  -3    1.35    0.27
   5   0  -3    1.14    0.15
   5   0  -3    1.49    0.15
   5   0  -3    1.14    0.16
   5   0  -3    1.43    0.19
  -5   0   3    1.20    0.10
   4   0  -3    3.06    0.29
   4   0  -3    2.66    0.16
   4   0  -3    2.62    0.18
   4   0  -3    2.55    0.18
   4   0  -3    2.96    0.21
  -4   0   3    2.59    0.14
   3   0  -3   75.11    1.61
   3   0  -3   76.40    1.61
   3   0  -3   76.20    1.82
   3   0  -3   73.42    1.63
   3   0  -3   75.40    1.58
  -3   0   3   73.38    1.56
   2   0  -3    9.39    0.33
   2   0  -3    9.53    0.29
   2   0  -3    9.24    0.31
   2   0  -3    9.16    0.38
   2   0  -3    9.44    0.31
  -2   0   3    9.37    0.29
  -2   0   3    9.45    0.33
   1   0  -3   15.34    0.44
   1   0  -3   14.95    0.42
   1   0  -3   15.50    0.42
   1   0  -3   14.81    0.40
   1   0  -3   14.77    0.42
  -1   0   3   14.89    0.39
  -1   0   3   15.29    0.41
  -1   0   3   15.13    0.42
  -1   0   3   14.96    0.40
   0   0  -3    2.59    0.14
   0   0  -3    2.64    0.14
   0   0  -3    2.46    0.14
   0   0   3    2.65    0.15
   0   0   3    2.67    0.14
   0   0   3    2.38    0.14
   0   0   3    2.63    0.13
  -1   0  -3    0.34    0.05
  -1   0  -3    0.13    0.05
  -1   0  -3    0.39    0.07
  -1   0  -3    0.33    0.07
   1   0   3    0.32    0.06
   1   0   3    0.50    0.08
   1   0   3    0.34    0.07
   1   0   3    0.40    0.08
  -2   0  -3   72.01    1.59
  -2   0  -3   73.72    1.58
  -2   0  -3   73.93    1.63
  -2   0  -3   75.55    1.57
   2   0   3   74.61    1.47
   2   0   3   74.89    1.63
   2   0   3   75.22    1.59
   2   0   3   75.19    1.58
  -3   0  -3   28.25    0.71
   3   0   3   29.23    0.80
   3   0   3   28.02    0.65
   3   0   3   27.97    0.73
   3   0   3   28.11    0.76
   3   0   3   28.09    0.61
   3   0   3   28.01    0.72
  -4   0  -3    8.97    0.26
  -4   0  -3    8.84    0.32
   4   0   3    8.36    0.40
   4   0   3    8.70    0.30
   4   0   3    8.79    0.36
   4   0   3    8.82    0.38
   4   0   3    8.62    0.34
  -5   0  -3    4.31    0.23
  -5   0  -3    4.42    0.19
   5   0   3    4.16    0.27
   5   0   3    4.70    0.30
   5   0   3    4.76    0.33
   6   0   3    3.50    0.28
   6   0   3    3.49    0.26
   6   0   3    3.59    0.37
   7   0   3    0.95    0.18
   7   0   3    0.90    0.23
   7   0   3    0.84    0.18
   8   0   3   -0.05    0.12
   8   0   3    0.20    0.12
   8   0   3   -0.04    0.09
   9  -1  -3   -0.03    0.09
   9  -1  -3    0.03    0.08
   9  -1  -3    0.09    0.14
   8  -1  -3    0.66    0.19
   8  -1  -3    0.80    0.15
   8  -1  -3    1.00    0.17
   7  -1  -3    0.45    0.15
   7  -1  -3    0.33    0.10
   7  -1  -3    0.13    0.08
   6  -1  -3    0.24    0.09
   6  -1  -3    0.22    0.11
   6  -1  -3    0.34    0.10
   5  -1  -3   10.33    0.41
   5  -1  -3   10.06    0.33
   5  -1  -3    9.72    0.35
   5  -1  -3    9.80    0.35
   4  -1  -3    1.18    0.11
   4  -1  -3    1.04    0.14
   4  -1  -3    1.09    0.21
   4  -1  -3    1.19    0.16
   4  -1  -3    1.16    0.10
   4  -1  -3    1.36    0.13
  -4   1   3    1.11    0.07
   3  -1  -3   10.07    0.31
   3  -1  -3   10.24    0.38
   3  -1  -3    9.99    0.32
   3  -1  -3    9.66    0.32
   3  -1  -3   10.00    0.46
   3  -1  -3   10.49    0.32
  -3   1   3   10.21    0.28
   2  -1  -3   19.81    0.51
   2  -1  -3   19.25    0.50
   2  -1  -3   19.51    0.55
   2  -1  -3   19.24    0.49
  -2   1   3   20.00    0.54
  -2   1   3   18.72    0.47
   1  -1  -3    0.02    0.04
   1  -1  -3    0.04    0.05
   1  -1  -3   -0.05    0.04
   1  -1  -3   -0.01    0.04
  -1   1   3    0.01    0.03
  -1   1   3   -0.02    0.04
  -1   1   3    0.06    0.05
  -1   1   3    0.06    0.05
  -1   1   3   -0.01    0.04
  -1   1   3    0.03    0.04
   0  -1  -3   46.53    1.02
   0  -1  -3   45.22    1.01
   0  -1  -3   43.18    0.95
   0   1   3   45.51    1.04
   0   1   3   43.35    1.00
   0   1   3   44.06    0.96
   0   1   3   44.30    1.01
   0   1   3   46.27    1.04
   0   1   3   44.18    0.95
  -1  -1  -3    0.35    0.08
  -1  -1  -3    0.26    0.07
  -1  -1  -3    0.32    0.08
   1   1   3    0.32    0.04
   1   1   3    0.41    0.04
   1   1   3    0.34    0.08
   1   1   3    0.31    0.07
  -2  -1  -3    1.33    0.16
  -2  -1  -3    1.46    0.15
   2   1   3    1.20    0.14
   2   1   3    1.57    0.14
   2   1   3    1.60    0.18
   2   1   3    1.18    0.14
  -3  -1  -3    9.85    0.37
   3   1   3   10.05    0.42
   3   1   3   10.02    0.42
   3   1   3    9.53    0.41
   3   1   3    9.98    0.40
  -4  -1  -3    1.73    0.18
   4   1   3    1.48    0.19
   4   1   3    1.68    0.20
   4   1   3    2.05    0.25
   4   1   3    1.70    0.22
  -5  -1  -3    1.73    0.20
   5   1   3    1.46    0.23
   5   1   3    1.05    0.22
   5   1   3    1.38    0.23
   5   1   3    1.56    0.21
   6   1   3    0.78    0.18
   6   1   3    0.52    0.17
   6   1   3    0.48    0.14
   7   1   3    2.61    0.31
   7   1   3    1.98    0.28
   7   1   3    3.00    0.37
   8   1   3    4.72    0.38
   8   1   3    5.03    0.56
   9  -2  -3    0.72    0.15
   8  -2  -3    0.84    0.18
   8  -2  -3    0.79    0.13
   8  -2  -3    0.98    0.16
   7  -2  -3    6.67    0.31
   7  -2  -3    6.88    0.38
   7  -2  -3    6.63    0.29
   6  -2  -3    2.08    0.22
   6  -2  -3    1.69    0.14
   6  -2  -3    2.05    0.15
   5  -2  -3    1.56    0.17
   5  -2  -3    1.56    0.13
   5  -2  -3    1.69    0.13
   4  -2  -3   18.26    0.50
   4  -2  -3   18.44    0.48
   4  -2  -3   17.94    0.49
   4  -2  -3   18.03    0.58
   4  -2  -3   19.58    0.49
   3  -2  -3    0.17    0.06
   3  -2  -3    0.20    0.08
   3  -2  -3    0.30    0.07
   3  -2  -3    0.29    0.07
   3  -2  -3    0.27    0.05
   3  -2  -3    0.32    0.07
  -3   2   3    0.28    0.05
   2  -2  -3   13.05    0.47
   2  -2  -3   14.21    0.43
   2  -2  -3   14.28    0.41
   2  -2  -3   13.96    0.42
   2  -2  -3   13.78    0.41
   2  -2  -3   13.15    0.44
  -2   2   3   13.48    0.38
  -2   2   3   13.87    0.44
   1  -2  -3   95.44    2.04
   1  -2  -3   97.30    2.02
   1  -2  -3   97.67    2.06
   1  -2  -3   97.52    2.04
   1  -2  -3   96.17    2.02
   1  -2  -3   95.29    2.02
   1  -2  -3   95.08    2.06
  -1   2   3   98.47    2.04
  -1   2   3   95.43    2.01
  -1   2   3   96.21    2.01
   0  -2  -3    4.13    0.17
   0  -2  -3    4.16    0.23
   0  -2  -3    3.99    0.18
   0  -2  -3    3.94    0.22
   0   2   3    4.48    0.18
   0   2   3    3.94    0.23
   0   2   3    4.30    0.17
   0   2   3    4.36    0.24
   0   2   3    3.98    0.22
   0   2   3    4.51    0.21
  -1  -2  -3    0.06    0.09
  -1  -2  -3    0.03    0.07
  -1  -2  -3    0.06    0.08
  -1  -2  -3   -0.01    0.05
   1   2   3    0.10    0.07
   1   2   3    0.04    0.08
   1   2   3    0.10    0.03
   1   2   3    0.06    0.08
  -2  -2  -3   29.94    0.84
  -2  -2  -3   28.21    0.79
   2   2   3   28.47    0.84
   2   2   3   28.67    0.79
  -3  -2  -3    0.08    0.07
   3   2   3    0.18    0.10
   3   2   3    0.24    0.10
   3   2   3    0.20    0.10
   3   2   3    0.25    0.10
  -4  -2  -3    0.41    0.11
   4   2   3    0.84    0.18
   4   2   3    0.89    0.17
   4   2   3    0.73    0.15
   4   2   3    0.93    0.19
  -5  -2  -3    1.88    0.23
   5   2   3    1.36    0.21
   5   2   3    1.80    0.26
   5   2   3    1.86    0.28
   5   2   3    1.65    0.28
   6   2   3    0.84    0.20
   6   2   3    1.52    0.29
   6   2   3    1.68    0.28
   7   2   3    1.74    0.29
   7   2   3    1.88    0.36
   7   2   3    1.16    0.25
   8  -3  -3    0.77    0.13
   7  -3  -3    0.85    0.15
   7  -3  -3    1.00    0.11
   7  -3  -3    0.95    0.12
   6  -3  -3    5.25    0.23
   6  -3  -3    5.29    0.27
   6  -3  -3    4.90    0.22
   5  -3  -3    4.75    0.28
   5  -3  -3    4.44    0.21
   5  -3  -3    3.99    0.21
   5  -3  -3    4.76    0.21
   5  -3  -3    4.62    0.21
   4  -3  -3    8.27    0.30
   4  -3  -3    8.33    0.44
   4  -3  -3    7.77    0.29
   4  -3  -3    7.92    0.35
   4  -3  -3    7.97    0.30
   4  -3  -3    7.93    0.28
   3  -3  -3    0.76    0.10
   3  -3  -3    0.54    0.12
   3  -3  -3    0.59    0.10
   3  -3  -3    0.49    0.13
   3  -3  -3    0.47    0.09
   3  -3  -3    0.51    0.09
   3  -3  -3    0.60    0.11
  -3   3   3    0.60    0.08
   2  -3  -3    0.01    0.05
   2  -3  -3    0.02    0.07
   2  -3  -3    0.05    0.06
   2  -3  -3    0.12    0.06
   2  -3  -3    0.06    0.06
   2  -3  -3    0.03    0.06
   2  -3  -3    0.07    0.06
  -2   3   3    0.04    0.05
   1  -3  -3    1.14    0.14
   1  -3  -3    1.79    0.15
   1  -3  -3    1.73    0.17
   1  -3  -3    1.60    0.15
   1  -3  -3    1.53    0.17
  -1   3   3    1.45    0.08
  -1   3   3    1.71    0.17
   0  -3  -3    0.36    0.11
   0  -3  -3    0.13    0.08
   0  -3  -3    0.27    0.07
   0  -3  -3    0.22    0.06
   0  -3  -3    0.12    0.07
   0   3   3    0.30    0.10
   0   3   3    0.21    0.06
   0   3   3    0.30    0.07
   0   3   3    0.30    0.09
  -1  -3  -3    1.05    0.09
  -1  -3  -3    0.98    0.08
  -1  -3  -3    1.03    0.15
  -1  -3  -3    0.70    0.12
  -1  -3  -3    1.32    0.19
   1   3   3    1.05    0.16
   1   3   3    1.23    0.15
   1   3   3    0.79    0.14
  -2  -3  -3    5.52    0.33
  -2  -3  -3    5.80    0.18
   2   3   3    5.69    0.34
   2   3   3    6.12    0.32
  -3  -3  -3    1.37    0.20
   3   3   3    1.63    0.23
   3   3   3    1.62    0.22
   3   3   3    1.22    0.19
  -4  -3  -3    4.25    0.31
   4   3   3    4.16    0.33
   4   3   3    4.37    0.34
   4   3   3    4.45    0.36
  -5  -3  -3    8.28    0.45
   5   3   3    7.68    0.52
   5   3   3    9.14    0.51
   5   3   3    7.91    0.49
   6   3   3    0.14    0.16
   6   3   3    0.08    0.13
   6   3   3    0.07    0.13
   7   3   3    0.11    0.18
   7   3   3    0.32    0.20
   7   3   3    0.53    0.20
   8  -4  -3   13.32    0.45
   7  -4  -3    0.01    0.05
   7  -4  -3    0.00    0.06
   6  -4  -3    0.21    0.08
   6  -4  -3    0.25    0.11
   6  -4  -3    0.28    0.07
   6  -4  -3    0.15    0.07
   5  -4  -3    4.89    0.25
   5  -4  -3    4.64    0.37
   5  -4  -3    5.10    0.25
   5  -4  -3    5.41    0.31
   5  -4  -3    5.17    0.24
   4  -4  -3   -0.01    0.05
   4  -4  -3    0.07    0.09
   4  -4  -3   -0.05    0.08
   4  -4  -3    0.00    0.07
   4  -4  -3   -0.01    0.04
   4  -4  -3    0.06    0.06
   4  -4  -3    0.00    0.06
  -4   4   3   -0.02    0.02
   3  -4  -3   -0.04    0.05
   3  -4  -3    0.01    0.09
   3  -4  -3    0.03    0.06
   3  -4  -3   -0.03    0.07
   3  -4  -3    0.05    0.06
   3  -4  -3   -0.01    0.06
  -3   4   3   -0.01    0.04
   2  -4  -3   40.22    1.09
   2  -4  -3   42.93    1.07
   2  -4  -3   39.54    1.05
   2  -4  -3   40.15    1.02
   2  -4  -3   40.11    1.07
  -2   4   3   40.80    0.99
   1  -4  -3    0.21    0.08
   1  -4  -3    0.12    0.09
   1  -4  -3    0.13    0.08
   1  -4  -3    0.19    0.09
   1  -4  -3   -0.03    0.08
  -1   4   3    0.15    0.05
  -1   4   3    0.03    0.06
   0  -4  -3    0.21    0.07
   0  -4  -3    0.06    0.09
   0  -4  -3    0.01    0.07
   0  -4  -3    0.12    0.08
   0  -4  -3    0.08    0.06
   0   4   3    0.06    0.07
   0   4   3    0.14    0.06
  -1  -4  -3    1.29    0.13
  -1  -4  -3    1.12    0.19
  -1  -4  -3    1.32    0.12
  -1  -4  -3    1.09    0.17
  -1  -4  -3    2.34    0.32
   1   4   3    1.26    0.19
   1   4   3    1.47    0.17
  -2  -4  -3    5.44    0.21
  -2  -4  -3    5.19    0.34
   2   4   3    4.91    0.31
   2   4   3    5.08    0.35
  -3  -4  -3    0.11    0.11
   3   4   3    0.15    0.10
   3   4   3    0.20    0.12
  -4  -4  -3   20.90    0.78
   4   4   3   21.35    0.83
   4   4   3   21.03    0.80
   4   4   3   19.58    0.85
  -5  -4  -3    2.20    0.30
   5   4   3    2.44    0.35
   5   4   3    2.35    0.33
   5   4   3    2.38    0.37
   6   4   3    2.40    0.35
   6   4   3    2.08    0.37
   6   4   3    2.32    0.35
   8  -5  -3    2.36    0.18
   7  -5  -3    4.25    0.25
   7  -5  -3    4.50    0.25
   6  -5  -3    1.77    0.17
   6  -5  -3    2.20    0.24
   6  -5  -3    1.96    0.16
   6  -5  -3    1.79    0.19
   6  -5  -3    1.71    0.30
   5  -5  -3    1.22    0.17
   5  -5  -3    1.07    0.16
   5  -5  -3    1.32    0.24
   5  -5  -3    1.06    0.24
   5  -5  -3    1.16    0.17
   5  -5  -3    0.99    0.14
   4  -5  -3    0.81    0.14
   4  -5  -3    0.70    0.18
   4  -5  -3    0.79    0.15
   4  -5  -3    0.80    0.19
   4  -5  -3    0.63    0.14
   3  -5  -3    2.66    0.23
   3  -5  -3    2.71    0.28
   3  -5  -3    2.56    0.22
   3  -5  -3    3.06    0.25
   3  -5  -3    2.33    0.28
  -3   5   3    2.41    0.17
   2  -5  -3    0.16    0.09
   2  -5  -3    0.07    0.08
   2  -5  -3    0.19    0.10
   2  -5  -3    0.09    0.09
   2  -5  -3    0.19    0.11
  -2   5   3    0.09    0.08
  -2   5   3    0.21    0.04
   1  -5  -3    1.98    0.24
   1  -5  -3    1.60    0.22
   1  -5  -3    1.57    0.19
   1  -5  -3    1.50    0.21
   1  -5  -3    1.42    0.19
  -1   5   3    1.99    0.14
  -1   5   3    1.90    0.21
   0  -5  -3    6.63    0.38
   0  -5  -3    6.29    0.31
   0  -5  -3    6.40    0.31
   0  -5  -3    6.52    0.41
   0  -5  -3    6.56    0.38
   0   5   3    6.40    0.37
   0   5   3    6.21    0.30
  -1  -5  -3    0.42    0.16
  -1  -5  -3    0.43    0.13
  -1  -5  -3    0.64    0.11
  -1  -5  -3    0.69    0.11
   1   5   3    0.49    0.16
   1   5   3    0.31    0.11
  -2  -5  -3   -0.04    0.08
  -2  -5  -3    0.03    0.05
   2   5   3   -0.01    0.11
   2   5   3   -0.01    0.08
  -3  -5  -3    8.86    0.51
   3   5   3    9.14    0.49
   3   5   3    9.58    0.56
  -4  -5  -3    0.55    0.17
   4   5   3    0.67    0.20
   4   5   3    1.25    0.27
  -5  -5  -3    1.28    0.24
   5   5   3    1.93    0.33
   5   5   3    1.41    0.31
   5   5   3    1.85    0.31
   7  -6  -3    0.07    0.19
   7  -6  -3    0.08    0.07
   6  -6  -3    2.26    0.19
   6  -6  -3    2.04    0.23
   6  -6  -3    2.57    0.36
   6  -6  -3    2.74    0.40
   5  -6  -3    4.66    0.28
   5  -6  -3    4.60    0.42
   5  -6  -3    4.47    0.38
   5  -6  -3    3.92    0.29
   5  -6  -3    4.25    0.30
   4  -6  -3    0.26    0.11
   4  -6  -3   -0.03    0.07
   4  -6  -3    0.15    0.10
   4  -6  -3   -0.06    0.09
   4  -6  -3    0.14    0.14
   3  -6  -3   29.95    0.90
   3  -6  -3   30.10    0.92
   3  -6  -3   30.04    1.02
   3  -6  -3   30.82    0.98
   3  -6  -3   29.57    0.96
   2  -6  -3    2.45    0.28
   2  -6  -3    2.38    0.27
   2  -6  -3    2.54    0.28
   2  -6  -3    1.80    0.24
   2  -6  -3    2.40    0.28
  -2   6   3    2.55    0.26
   1  -6  -3   11.72    0.54
   1  -6  -3   11.30    0.50
   1  -6  -3   10.50    0.47
   1  -6  -3   11.10    0.53
   1  -6  -3   11.35    0.58
  -1   6   3   10.99    0.38
  -1   6   3   10.21    0.49
   0  -6  -3   -0.03    0.08
   0  -6  -3    0.02    0.08
   0  -6  -3    0.06    0.11
   0  -6  -3    0.06    0.11
   0   6   3   -0.05    0.10
   0   6   3   -0.10    0.07
  -1  -6  -3    2.01    0.29
  -1  -6  -3    1.28    0.23
  -1  -6  -3    1.82    0.20
   1   6   3    1.52    0.21
   1   6   3    1.12    0.22
  -2  -6  -3    6.41    0.45
  -2  -6  -3    6.47    0.45
   2   6   3    6.05    0.46
   2   6   3    6.07    0.39
  -3  -6  -3    1.39    0.25
   3   6   3    1.57    0.26
   3   6   3    1.52    0.29
  -4  -6  -3    0.98    0.24
   4   6   3    1.14    0.25
   4   6   3    1.32    0.30
   6  -7  -3    0.69    0.15
   6  -7  -3    0.76    0.27
   6  -7  -3    0.59    0.21
   6  -7  -3    0.57    0.15
   5  -7  -3   -0.06    0.15
   5  -7  -3   -0.05    0.08
   5  -7  -3    0.06    0.15
   5  -7  -3   -0.09    0.08
   4  -7  -3    0.30    0.16
   4  -7  -3    0.36    0.14
   4  -7  -3    0.00    0.11
   4  -7  -3    0.12    0.11
   4  -7  -3    0.11    0.12
   3  -7  -3    0.80    0.18
   3  -7  -3    0.83    0.19
   3  -7  -3    0.89    0.21
   3  -7  -3    0.45    0.15
   3  -7  -3    0.63    0.20
   2  -7  -3   -0.11    0.10
   2  -7  -3   -0.07    0.09
   2  -7  -3    0.03    0.10
   2  -7  -3    0.03    0.12
   1  -7  -3   18.53    0.77
   1  -7  -3   18.63    0.72
   1  -7  -3   19.54    0.72
   1  -7  -3   20.53    0.79
  -1   7   3   20.42    0.76
   0  -7  -3    0.11    0.13
   0  -7  -3    0.02    0.09
   0  -7  -3    0.27    0.16
   0   7   3    0.18    0.13
  -1  -7  -3    0.34    0.15
  -1  -7  -3    0.57    0.20
   1   7   3    0.41    0.18
  -2  -7  -3    0.19    0.15
  -2  -7  -3    0.37    0.17
   2   7   3    0.32    0.18
   2   7   3    0.44    0.16
  -3  -7  -3    2.41    0.36
  -3  -7  -3    2.70    0.39
   3   7   3    2.66    0.40
   3   7   3    3.29    0.38
   5  -8  -3    0.84    0.19
   5  -8  -3    1.14    0.29
   5  -8  -3    0.72    0.23
   5  -8  -3    0.65    0.21
   4  -8  -3   -0.10    0.10
   4  -8  -3    0.01    0.13
   4  -8  -3   -0.12    0.10
   4  -8  -3   -0.03    0.14
   3  -8  -3    1.31    0.24
   3  -8  -3    1.07    0.23
   3  -8  -3    1.89    0.29
   3  -8  -3    0.97    0.24
   2  -8  -3    0.82    0.21
   2  -8  -3    0.33    0.15
   2  -8  -3    0.50    0.17
   2  -8  -3    0.18    0.15
   1  -8  -3   19.22    0.84
   1  -8  -3   18.71    0.82
   1  -8  -3   19.60    0.76
   0  -8  -3    0.01    0.13
   0  -8  -3    0.10    0.15
  -1  -8  -3    0.13    0.16
  -1  -8  -3    0.27    0.18
   1   8   3    0.11    0.16
   0  -9   4    0.04    0.12
   0  -9   4    0.06    0.11
   1  -9   4    2.34    0.31
   1  -9   4    2.35    0.33
   2  -9   4    2.55    0.36
   2  -9   4    3.19    0.37
   3  -9   4    0.09    0.12
   3  -9   4    0.12    0.16
   4  -9   4    0.04    0.14
   4  -9   4    0.01    0.11
   4  -9   4    0.02    0.11
   3   8  -4    1.46    0.34
   3   8  -4    0.85    0.26
  -3  -8   4    1.19    0.24
  -3  -8   4    1.72    0.30
   2   8  -4   28.48    1.11
  -2  -8   4   28.84    1.08
  -2  -8   4   28.20    0.97
   1   8  -4    4.29    0.46
  -1  -8   4    4.78    0.37
  -1  -8   4    3.54    0.38
   0   8  -4    0.80    0.21
   0  -8   4    0.73    0.20
   0  -8   4    0.39    0.16
   1  -8   4    1.18    0.22
   1  -8   4    0.92    0.20
   2  -8   4   -0.07    0.09
   2  -8   4   -0.07    0.12
   3  -8   4    1.55    0.27
   3  -8   4    1.67    0.24
   3  -8   4    2.18    0.30
   4  -8   4   37.76    1.25
   4  -8   4   37.94    1.09
   4  -8   4   37.42    1.16
   5  -8   4    0.66    0.17
   5  -8   4    0.54    0.21
   5  -8   4    0.34    0.12
   6  -8   4    0.58    0.15
   6  -8   4    0.68    0.14
   6  -8   4    0.61    0.25
   6  -8   4    0.59    0.23
   4   7  -4    3.43    0.47
   4   7  -4    4.67    0.51
  -4  -7   4    3.40    0.39
   3   7  -4    0.45    0.22
  -3  -7   4    0.73    0.21
   2   7  -4   10.49    0.61
  -2  -7   4   11.01    0.53
  -2  -7   4   10.46    0.58
   1   7  -4    3.28    0.38
  -1  -7   4    4.03    0.32
  -1  -7   4    3.20    0.35
   0   7  -4    0.45    0.17
   0  -7   4    0.29    0.12
   0  -7   4    0.66    0.17
  -1   7  -4    3.53    0.30
   1  -7   4    3.77    0.31
   1  -7   4    3.50    0.30
   1  -7   4    3.23    0.31
   2  -7   4    5.69    0.36
   2  -7   4    5.78    0.38
   2  -7   4    6.26    0.41
   3  -7   4    1.51    0.24
   3  -7   4    1.11    0.20
   3  -7   4    1.21    0.19
   4  -7   4    0.42    0.13
   4  -7   4    0.38    0.11
   4  -7   4    0.16    0.13
   5  -7   4    0.06    0.08
   5  -7   4   -0.15    0.09
   5  -7   4    0.08    0.08
   6  -7   4    0.85    0.16
   6  -7   4    0.84    0.13
   6  -7   4    1.10    0.24
   6  -7   4    0.70    0.24
   7  -7   4    1.25    0.18
   7  -7   4    1.21    0.31
   7  -7   4    1.09    0.26
   5   6  -4    1.42    0.29
   5   6  -4    2.07    0.34
  -5  -6   4    1.72    0.27
   4   6  -4    0.03    0.16
  -4  -6   4   -0.04    0.10
  -3  -6   4   27.00    0.95
  -2  -6   4    2.24    0.28
   1   6  -4    0.29    0.13
  -1  -6   4    0.37    0.15
   0   6  -4    0.04    0.11
   0  -6   4    0.06    0.09
   0  -6   4   -0.08    0.07
   0  -6   4   -0.04    0.08
   1  -6   4    0.00    0.07
   1  -6   4    0.10    0.09
   1  -6   4    0.03    0.10
  -2   6  -4    0.09    0.09
   2  -6   4    0.21    0.13
   2  -6   4    0.16    0.10
   2  -6   4    0.16    0.09
   3  -6   4   65.86    1.40
   3  -6   4   67.95    1.59
   3  -6   4   67.28    1.71
   3  -6   4   69.50    1.66
   4  -6   4    4.59    0.35
   4  -6   4    4.10    0.25
   4  -6   4    4.20    0.27
   5  -6   4    2.93    0.20
   5  -6   4    2.85    0.22
   5  -6   4    3.03    0.33
   6  -6   4    1.06    0.13
   6  -6   4    1.48    0.26
   6  -6   4    1.27    0.16
   6  -6   4    1.27    0.27
   7  -6   4    0.28    0.17
   7  -6   4    0.22    0.13
   7  -6   4    0.23    0.08
   6   5  -4    3.16    0.44
   6   5  -4    2.50    0.37
   6   5  -4    3.15    0.56
   5   5  -4   -0.15    0.10
  -5  -5   4   -0.10    0.08
   4   5  -4    8.34    0.52
   4   5  -4    8.91    0.54
  -4  -5   4    8.69    0.47
   3   5  -4    7.93    0.48
  -3  -5   4    7.82    0.44
   2   5  -4   12.09    0.57
  -2  -5   4   12.13    0.53
   1   5  -4    4.59    0.33
  -1  -5   4    4.77    0.31
  -1  -5   4    4.12    0.30
   0   5  -4    0.52    0.14
   0  -5   4    0.50    0.13
   0  -5   4    0.27    0.09
  -1   5  -4    2.36    0.21
   1  -5   4    1.77    0.19
   1  -5   4    2.18    0.23
   1  -5   4    2.54    0.22
  -2   5  -4    1.33    0.16
   2  -5   4    0.98    0.14
   2  -5   4    0.94    0.14
   2  -5   4    1.13    0.18
   3  -5   4    3.26    0.22
   3  -5   4    3.40    0.22
   3  -5   4    2.96    0.26
   3  -5   4    3.58    0.22
   4  -5   4    3.51    0.22
   4  -5   4    3.80    0.29
   4  -5   4    3.56    0.21
   5  -5   4    1.42    0.16
   5  -5   4    1.46    0.22
   5  -5   4    1.75    0.14
   6  -5   4    0.33    0.14
   6  -5   4    0.00    0.05
   6  -5   4    0.08    0.06
   6  -5   4    0.02    0.13
   7  -5   4    0.01    0.05
   7  -5   4   -0.12    0.10
   7  -5   4    0.11    0.12
   8  -5   4    2.19    0.36
   8  -5   4    2.47    0.32
   8  -5   4    2.12    0.17
   7   4  -4    1.00    0.27
   7   4  -4    1.39    0.28
   7   4  -4    1.48    0.39
   6   4  -4    0.26    0.19
   6   4  -4    0.25    0.22
   5   4  -4    5.06    0.41
   5   4  -4    6.45    0.46
  -5  -4   4    5.90    0.37
   4   4  -4   18.08    0.74
  -4  -4   4   18.46    0.68
   3   4  -4   32.86    1.02
  -3  -4   4   32.09    0.95
   2   4  -4   17.46    0.64
   2   4  -4   17.52    0.65
  -2  -4   4   17.46    0.60
  -2  -4   4   16.73    0.62
   1   4  -4   77.04    1.82
   1   4  -4   75.82    1.80
  -1  -4   4   78.81    1.78
  -1  -4   4   77.81    1.82
   0   4  -4   17.07    0.57
   0  -4   4   16.67    0.57
  -1   4  -4   11.70    0.43
   1  -4   4   11.57    0.37
   1  -4   4   12.14    0.42
   1  -4   4   11.67    0.45
  -2   4  -4    1.28    0.14
   2  -4   4    1.24    0.09
   2  -4   4    1.02    0.14
   2  -4   4    1.13    0.13
   2  -4   4    1.35    0.15
   2  -4   4    1.57    0.19
  -3   4  -4    1.18    0.12
   3  -4   4    1.29    0.14
   3  -4   4    1.12    0.16
   3  -4   4    1.22    0.15
   3  -4   4    1.05    0.13
   4  -4   4    1.54    0.20
   4  -4   4    1.68    0.14
   4  -4   4    1.57    0.14
   4  -4   4    1.53    0.13
   5  -4   4    3.96    0.19
   5  -4   4    3.88    0.28
   5  -4   4    4.39    0.22
   6  -4   4    4.85    0.24
   6  -4   4    4.97    0.33
   6  -4   4    4.41    0.36
   6  -4   4    4.75    0.21
   7  -4   4   -0.06    0.09
   7  -4   4    0.07    0.06
   7  -4   4    0.01    0.05
   7  -4   4    0.02    0.12
   8  -4   4    8.39    0.53
   8  -4   4    6.79    0.33
   8  -4   4    7.66    0.46
   7   3  -4    1.34    0.38
   7   3  -4    1.57    0.32
   6   3  -4    3.59    0.53
   6   3  -4    2.82    0.33
   6   3  -4    3.72    0.40
   5   3  -4    0.05    0.12
   5   3  -4    0.19    0.18
   5   3  -4    0.05    0.12
   5   3  -4    0.09    0.09
  -5  -3   4   -0.03    0.07
   4   3  -4    3.82    0.31
   4   3  -4    3.35    0.28
  -4  -3   4    3.68    0.26
   3   3  -4    0.00    0.06
   3   3  -4   -0.06    0.07
  -3  -3   4    0.04    0.07
   2   3  -4   35.43    0.99
  -2  -3   4   36.23    0.97
  -2  -3   4   37.35    0.96
   1   3  -4   38.91    1.03
   1   3  -4   39.66    1.02
  -1  -3   4   39.71    0.99
  -1  -3   4   40.12    1.02
   0   3  -4   17.58    0.56
   0   3  -4   19.15    0.64
   0  -3   4   17.17    0.51
   0  -3   4   17.29    0.56
   0  -3   4   18.22    0.53
  -1   3  -4   66.50    1.49
   1  -3   4   68.04    1.48
   1  -3   4   65.39    1.50
   1  -3   4   68.60    1.41
  -2   3  -4   -0.02    0.05
   2  -3   4    0.06    0.05
   2  -3   4   -0.02    0.06
   2  -3   4   -0.02    0.02
   2  -3   4    0.00    0.05
   2  -3   4    0.02    0.05
  -3   3  -4   48.84    1.07
   3  -3   4   48.13    1.12
   3  -3   4   50.26    1.11
   3  -3   4   50.01    1.18
   3  -3   4   48.85    1.11
   4  -3   4   48.71    1.10
   4  -3   4   48.34    1.17
   4  -3   4   46.94    1.07
   4  -3   4   46.32    1.06
   5  -3   4    5.42    0.34
   5  -3   4    5.54    0.31
   5  -3   4    6.13    0.25
   6  -3   4    9.85    0.35
   6  -3   4   10.40    0.51
   6  -3   4   10.82    0.45
   7  -3   4    0.95    0.18
   7  -3   4    0.54    0.17
   7  -3   4    0.72    0.12
   8  -3   4    3.66    0.24
   8  -3   4    3.36    0.27
   8  -3   4    3.55    0.39
   8   2  -4   14.57    1.01
   8   2  -4   17.73    0.84
   7   2  -4    5.92    0.42
   7   2  -4    5.71    0.46
   7   2  -4    5.31    0.58
   6   2  -4    0.07    0.11
   6   2  -4   -0.06    0.14
   6   2  -4   -0.07    0.10
   6   2  -4   -0.03    0.08
   5   2  -4    7.33    0.55
   5   2  -4    8.06    0.42
   5   2  -4    8.32    0.44
   5   2  -4    7.79    0.45
  -5  -2   4    7.94    0.36
   4   2  -4    2.80    0.25
   4   2  -4    2.55    0.23
  -4  -2   4    3.06    0.21
   3   2  -4    0.08    0.07
   3   2  -4   -0.01    0.07
  -3  -2   4    0.01    0.05
   2   2  -4   72.70    1.65
   2   2  -4   75.04    1.67
  -2  -2   4   70.74    1.60
   1   2  -4    4.95    0.29
  -1  -2   4    5.51    0.26
  -1  -2   4    5.49    0.25
  -1  -2   4    5.33    0.25
   0   2  -4   16.54    0.49
   0  -2   4   16.76    0.47
   0  -2   4   15.80    0.49
   0  -2   4   16.02    0.45
  -1   2  -4    0.01    0.06
  -1   2  -4   -0.03    0.04
   1  -2   4    0.05    0.06
   1  -2   4    0.01    0.06
   1  -2   4    0.02    0.04
   1  -2   4    0.00    0.05
  -2   2  -4    9.99    0.33
  -2   2  -4    9.74    0.27
   2  -2   4    9.29    0.34
   2  -2   4    9.68    0.33
   2  -2   4    9.39    0.25
   2  -2   4    9.91    0.33
   2  -2   4   10.03    0.33
  -3   2  -4   21.31    0.53
  -3   2  -4   21.26    0.49
   3  -2   4   20.59    0.58
   3  -2   4   21.24    0.56
   3  -2   4   21.12    0.56
   3  -2   4   21.11    0.58
  -4   2  -4   42.53    0.93
  -4   2  -4   42.82    0.93
   4  -2   4   43.37    1.00
   4  -2   4   42.60    1.03
   4  -2   4   43.25    1.00
  -5   2  -4    1.71    0.13
   5  -2   4    1.88    0.18
   5  -2   4    1.75    0.15
   5  -2   4    1.82    0.21
  -6   2  -4   -0.04    0.05
   6  -2   4   -0.07    0.07
   6  -2   4   -0.02    0.06
   6  -2   4    0.01    0.07
   7  -2   4    1.78    0.22
   7  -2   4    1.65    0.25
   7  -2   4    1.89    0.20
   8  -2   4    0.09    0.09
   8  -2   4   -0.04    0.09
   8   1  -4    1.07    0.21
   8   1  -4    0.79    0.23
   8   1  -4    0.70    0.29
   8   1  -4    0.42    0.16
   7   1  -4    0.49    0.25
   7   1  -4    0.69    0.17
   7   1  -4    0.85    0.20
   7   1  -4    0.71    0.17
   6   1  -4   -0.02    0.07
   6   1  -4   -0.09    0.12
   6   1  -4   -0.02    0.09
   6   1  -4    0.07    0.10
   5   1  -4    1.16    0.27
   5   1  -4    1.31    0.19
   5   1  -4    1.59    0.21
   5   1  -4    1.24    0.20
  -5  -1   4    1.44    0.16
   4   1  -4   18.13    0.76
   4   1  -4   17.28    0.59
   4   1  -4   18.18    0.62
   4   1  -4   18.00    0.59
  -4  -1   4   17.49    0.52
   3   1  -4    0.04    0.07
   3   1  -4    0.06    0.06
   3   1  -4    0.09    0.10
  -3  -1   4    0.01    0.05
   2   1  -4   16.38    0.53
   2   1  -4   17.23    0.53
   2   1  -4   17.95    0.53
  -2  -1   4   16.98    0.49
   1   1  -4    3.81    0.21
   1   1  -4    3.45    0.20
  -1  -1   4    3.66    0.19
  -1  -1   4    3.66    0.19
  -1  -1   4    3.88    0.20
   0   1  -4    2.94    0.17
   0   1  -4    3.08    0.16
   0   1  -4    2.96    0.18
   0  -1   4    2.96    0.17
   0  -1   4    2.91    0.16
   0  -1   4    2.81    0.17
  -1   1  -4   14.48    0.43
  -1   1  -4   14.26    0.40
  -1   1  -4   14.95    0.44
   1  -1   4   15.08    0.40
   1  -1   4   15.13    0.43
   1  -1   4   14.19    0.45
   1  -1   4   15.31    0.44
  -2   1  -4    1.57    0.14
  -2   1  -4    1.51    0.12
  -2   1  -4    1.76    0.18
   2  -1   4    1.60    0.14
   2  -1   4    1.41    0.14
   2  -1   4    1.48    0.11
   2  -1   4    1.47    0.14
  -3   1  -4    4.28    0.21
  -3   1  -4    4.60    0.20
   3  -1   4    4.20    0.18
   3  -1   4    4.27    0.22
   3  -1   4    4.49    0.22
  -4   1  -4    1.36    0.14
  -4   1  -4    1.00    0.12
   4  -1   4    1.26    0.12
   4  -1   4    1.58    0.14
   4  -1   4    1.47    0.16
   4  -1   4    1.35    0.15
   4  -1   4    1.25    0.17
  -5   1  -4    2.29    0.15
   5  -1   4    2.81    0.22
   5  -1   4    2.11    0.16
   5  -1   4    2.14    0.18
   5  -1   4    2.15    0.25
   5  -1   4    2.21    0.18
   6  -1   4    4.19    0.26
   6  -1   4    3.50    0.27
   6  -1   4    3.73    0.26
   6  -1   4    4.21    0.34
   7  -1   4    0.21    0.10
   7  -1   4   -0.01    0.12
   7  -1   4    0.14    0.11
   8  -1   4    1.48    0.21
   8  -1   4    1.44    0.24
   8  -1   4    1.08    0.24
   8   0  -4    0.57    0.18
   8   0  -4    0.46    0.15
   8   0  -4    0.50    0.15
   7   0  -4    1.45    0.23
   7   0  -4    1.32    0.20
   7   0  -4    1.41    0.33
   7   0  -4    1.34    0.20
   6   0  -4    4.20    0.28
   6   0  -4    4.73    0.33
   6   0  -4    4.72    0.46
   6   0  -4    4.17    0.28
   5   0  -4    1.35    0.16
   5   0  -4    1.85    0.20
   5   0  -4    1.67    0.17
   5   0  -4    1.95    0.33
   5   0  -4    1.74    0.21
  -5   0   4    1.71    0.13
   4   0  -4   10.38    0.55
   4   0  -4   10.40    0.37
   4   0  -4   10.86    0.39
   4   0  -4   10.68    0.41
   4   0  -4   11.52    0.41
  -4   0   4   10.47    0.34
   3   0  -4   69.87    1.53
   3   0  -4   66.56    1.69
   3   0  -4   68.79    1.48
   3   0  -4   67.68    1.51
   3   0  -4   70.06    1.58
  -3   0   4   67.04    1.46
   2   0  -4    4.16    0.23
   2   0  -4    4.49    0.21
   2   0  -4    4.35    0.22
   2   0  -4    4.32    0.22
   2   0  -4    4.35    0.26
  -2   0   4    4.40    0.20
   1   0  -4    3.53    0.19
   1   0  -4    3.94    0.20
   1   0  -4    3.67    0.20
   1   0  -4    3.81    0.19
   1   0  -4    4.06    0.20
  -1   0   4    3.82    0.18
  -1   0   4    4.12    0.20
  -1   0   4    3.76    0.20
   0   0  -4   96.91    2.00
   0   0  -4   97.11    2.03
   0   0  -4   92.86    2.00
   0   0   4   97.33    1.99
   0   0   4   95.18    2.01
   0   0   4   94.52    1.98
  -1   0  -4    0.62    0.09
  -1   0  -4    0.71    0.06
  -1   0  -4    0.57    0.09
  -1   0  -4    0.75    0.11
   1   0   4    0.73    0.09
   1   0   4    0.51    0.09
   1   0   4    0.77    0.11
  -2   0  -4    7.88    0.28
  -2   0  -4    7.59    0.32
  -2   0  -4    7.73    0.30
  -2   0  -4    7.64    0.31
   2   0   4    7.93    0.32
   2   0   4    8.00    0.33
   2   0   4    7.87    0.21
  -3   0  -4    4.20    0.23
  -3   0  -4    4.61    0.24
   3   0   4    4.45    0.26
   3   0   4    5.43    0.29
   3   0   4    4.80    0.25
   3   0   4    4.41    0.14
  -4   0  -4    3.20    0.21
   4   0   4    3.17    0.24
   4   0   4    3.47    0.17
   4   0   4    2.92    0.22
   4   0   4    3.07    0.26
  -5   0  -4   12.57    0.44
   5   0   4   12.00    0.52
   5   0   4   12.82    0.50
   5   0   4   13.21    0.58
   6   0   4    7.63    0.44
   6   0   4    7.91    0.40
   6   0   4    8.27    0.49
   7   0   4   10.97    0.56
   7   0   4   10.78    0.60
   7   0   4   10.80    0.51
   8   0   4    0.09    0.11
   8   0   4    0.24    0.17
   8  -1  -4    1.73    0.22
   8  -1  -4    1.37    0.20
   8  -1  -4    1.85    0.27
   7  -1  -4    0.89    0.16
   7  -1  -4    1.07    0.19
   7  -1  -4    1.09    0.16
   6  -1  -4    0.46    0.11
   6  -1  -4    0.53    0.11
   6  -1  -4    0.69    0.15
   5  -1  -4    0.18    0.08
   5  -1  -4    0.13    0.12
   5  -1  -4    0.24    0.08
   5  -1  -4    0.12    0.06
   5  -1  -4    0.15    0.08
  -5   1   4    0.16    0.04
   4  -1  -4    4.26    0.22
   4  -1  -4    4.25    0.34
   4  -1  -4    4.01    0.22
   4  -1  -4    4.29    0.21
   4  -1  -4    4.28    0.22
   4  -1  -4    4.45    0.27
  -4   1   4    4.04    0.17
   3  -1  -4    1.48    0.13
   3  -1  -4    1.53    0.15
   3  -1  -4    1.45    0.12
   3  -1  -4    1.35    0.17
   3  -1  -4    1.38    0.12
   3  -1  -4    1.08    0.18
  -3   1   4    1.34    0.11
   2  -1  -4   -0.04    0.05
   2  -1  -4   -0.02    0.05
   2  -1  -4   -0.05    0.07
   2  -1  -4   -0.02    0.06
  -2   1   4   -0.01    0.05
   1  -1  -4    6.72    0.30
   1  -1  -4    6.40    0.28
   1  -1  -4    6.85    0.29
   1  -1  -4    6.56    0.28
  -1   1   4    7.76    0.27
  -1   1   4    6.66    0.26
  -1   1   4    6.54    0.26
  -1   1   4    6.94    0.28
   0  -1  -4    8.29    0.32
   0  -1  -4    8.42    0.32
   0  -1  -4    7.92    0.26
   0   1   4    8.02    0.33
   0   1   4    8.35    0.31
   0   1   4    7.68    0.31
   0   1   4    8.10    0.33
   0   1   4    8.64    0.20
  -1  -1  -4    0.09    0.07
  -1  -1  -4    0.04    0.06
  -1  -1  -4    0.24    0.09
   1   1   4    0.07    0.03
   1   1   4    0.08    0.06
   1   1   4    0.11    0.03
   1   1   4    0.09    0.06
   1   1   4    0.07    0.08
  -2  -1  -4   -0.11    0.05
  -2  -1  -4   -0.01    0.06
   2   1   4    0.00    0.06
   2   1   4    0.00    0.06
   2   1   4    0.00    0.04
   2   1   4    0.00    0.06
  -3  -1  -4    6.67    0.32
   3   1   4    6.97    0.33
   3   1   4    6.44    0.33
   3   1   4    6.79    0.35
   3   1   4    6.45    0.35
  -4  -1  -4   -0.01    0.06
   4   1   4   -0.02    0.07
   4   1   4    0.03    0.07
   4   1   4    0.07    0.08
   4   1   4    0.17    0.10
  -5  -1  -4    5.14    0.30
   5   1   4    5.23    0.37
   5   1   4    4.91    0.35
   5   1   4    5.44    0.34
   6   1   4    2.31    0.29
   6   1   4    2.61    0.29
   6   1   4    2.95    0.35
   7   1   4    0.01    0.12
   7   1   4    0.08    0.12
   8  -2  -4   -0.02    0.07
   8  -2  -4    0.10    0.08
   8  -2  -4    0.06    0.10
   7  -2  -4   20.71    0.65
   7  -2  -4   20.29    0.61
   7  -2  -4   19.78    0.69
   6  -2  -4    0.27    0.08
   6  -2  -4    0.10    0.09
   6  -2  -4    0.29    0.09
   5  -2  -4    1.79    0.16
   5  -2  -4    1.60    0.15
   5  -2  -4    1.77    0.15
   5  -2  -4    2.05    0.22
   5  -2  -4    2.14    0.17
   4  -2  -4    6.13    0.32
   4  -2  -4    6.41    0.26
   4  -2  -4    6.45    0.27
   4  -2  -4    6.30    0.27
   4  -2  -4    6.34    0.24
  -4   2   4    6.31    0.20
   3  -2  -4    1.05    0.13
   3  -2  -4    1.02    0.07
   3  -2  -4    0.86    0.14
   3  -2  -4    1.13    0.13
   3  -2  -4    1.03    0.13
  -3   2   4    0.97    0.10
   2  -2  -4    0.98    0.15
   2  -2  -4    1.00    0.14
   2  -2  -4    1.13    0.13
   2  -2  -4    1.37    0.16
   2  -2  -4    1.29    0.14
  -2   2   4    1.03    0.12
   1  -2  -4   60.11    1.22
   1  -2  -4   62.53    1.43
   1  -2  -4   61.08    1.40
   1  -2  -4   58.16    1.37
   1  -2  -4   61.86    1.42
  -1   2   4   59.78    1.36
   0  -2  -4    4.02    0.24
   0  -2  -4    4.41    0.19
   0  -2  -4    3.97    0.25
   0  -2  -4    4.33    0.25
   0   2   4    4.33    0.25
   0   2   4    4.05    0.18
   0   2   4    4.27    0.18
   0   2   4    4.32    0.25
   0   2   4    4.32    0.25
  -1  -2  -4    0.88    0.12
  -1  -2  -4    1.56    0.20
  -1  -2  -4    0.94    0.14
  -1  -2  -4    1.15    0.16
   1   2   4    1.13    0.13
   1   2   4    1.30    0.18
   1   2   4    1.06    0.08
   1   2   4    1.47    0.18
  -2  -2  -4    9.82    0.41
  -2  -2  -4    9.15    0.40
   2   2   4    9.43    0.41
   2   2   4    9.77    0.40
   2   2   4    9.44    0.36
  -3  -2  -4    7.60    0.37
   3   2   4    7.13    0.38
   3   2   4    7.86    0.39
   3   2   4    7.01    0.35
   3   2   4    7.53    0.41
  -4  -2  -4    0.67    0.15
   4   2   4    1.16    0.20
   4   2   4    1.05    0.20
   4   2   4    0.95    0.19
   4   2   4    0.80    0.17
  -5  -2  -4   19.63    0.70
   5   2   4   20.39    0.81
   5   2   4   20.78    0.76
   5   2   4   18.29    0.77
   6   2   4    0.63    0.18
   6   2   4    0.45    0.17
   6   2   4    0.24    0.15
   7   2   4    2.23    0.33
   7   2   4    1.89    0.33
   8  -3  -4    0.59    0.13
   7  -3  -4    3.71    0.22
   7  -3  -4    4.10    0.24
   6  -3  -4    2.32    0.17
   6  -3  -4    2.16    0.18
   6  -3  -4    2.30    0.25
   6  -3  -4    2.26    0.17
   5  -3  -4    1.75    0.15
   5  -3  -4    2.00    0.13
   5  -3  -4    2.04    0.16
   5  -3  -4    2.00    0.23
   4  -3  -4    0.01    0.05
   4  -3  -4    0.14    0.08
   4  -3  -4    0.16    0.07
   4  -3  -4    0.12    0.07
   4  -3  -4    0.12    0.06
  -4   3   4    0.20    0.04
   3  -3  -4    0.46    0.11
   3  -3  -4    0.56    0.10
   3  -3  -4    0.68    0.11
   3  -3  -4    0.41    0.10
   3  -3  -4    0.40    0.10
  -3   3   4    0.52    0.08
   2  -3  -4    0.23    0.09
   2  -3  -4    0.23    0.08
   2  -3  -4    0.24    0.08
   2  -3  -4    0.17    0.08
  -2   3   4    0.47    0.10
   1  -3  -4    1.24    0.14
   1  -3  -4    0.98    0.15
   1  -3  -4    1.00    0.15
   1  -3  -4    1.29    0.17
  -1   3   4    1.11    0.15
   0  -3  -4   10.14    0.42
   0  -3  -4    9.47    0.43
   0  -3  -4    9.95    0.34
   0  -3  -4    9.91    0.41
   0   3   4    8.97    0.40
   0   3   4   10.03    0.32
  -1  -3  -4   12.23    0.49
  -1  -3  -4   12.11    0.52
  -1  -3  -4   13.19    0.50
   1   3   4   12.41    0.34
   1   3   4   12.48    0.51
   1   3   4   11.87    0.49
   1   3   4   12.29    0.43
  -2  -3  -4    1.32    0.19
  -2  -3  -4    1.74    0.22
  -2  -3  -4    1.84    0.25
   2   3   4    1.96    0.28
   2   3   4    1.26    0.18
   2   3   4    1.59    0.19
  -3  -3  -4    0.59    0.16
   3   3   4    0.76    0.16
   3   3   4    0.36    0.14
   3   3   4    0.51    0.15
  -4  -3  -4    7.55    0.42
   4   3   4    7.71    0.46
   4   3   4    8.10    0.46
   4   3   4    7.04    0.44
  -5  -3  -4    0.05    0.10
   5   3   4    0.06    0.11
   5   3   4    0.07    0.12
   5   3   4    0.23    0.14
   6   3   4    0.09    0.13
   6   3   4    0.01    0.14
   6   3   4    0.10    0.14
   8  -4  -4    4.41    0.27
   7  -4  -4    1.56    0.15
   7  -4  -4    1.68    0.19
   6  -4  -4    0.04    0.06
   6  -4  -4    0.08    0.07
   6  -4  -4   -0.02    0.10
   5  -4  -4    0.22    0.10
   5  -4  -4    0.21    0.10
   5  -4  -4    0.21    0.08
   5  -4  -4    0.21    0.09
   4  -4  -4    7.81    0.39
   4  -4  -4    7.51    0.36
   4  -4  -4    7.93    0.34
   4  -4  -4    8.12    0.46
   4  -4  -4    7.49    0.36
   3  -4  -4    0.83    0.15
   3  -4  -4    0.82    0.16
   3  -4  -4    0.75    0.14
   3  -4  -4    0.70    0.13
   3  -4  -4    0.73    0.16
  -3   4   4    0.68    0.11
   2  -4  -4   67.36    1.59
   2  -4  -4   65.33    1.56
   2  -4  -4   67.24    1.61
   2  -4  -4   67.36    1.64
   2  -4  -4   67.14    1.63
  -2   4   4   65.75    1.52
   1  -4  -4    0.84    0.13
   1  -4  -4    1.40    0.20
   1  -4  -4    0.75    0.14
   1  -4  -4    1.09    0.16
   1  -4  -4    0.85    0.14
  -1   4   4    1.24    0.18
  -1   4   4    0.97    0.08
   0  -4  -4   19.95    0.69
   0  -4  -4   18.23    0.70
   0  -4  -4   18.74    0.66
   0  -4  -4   19.94    0.58
   0  -4  -4   19.07    0.57
   0   4   4   19.57    0.55
   0   4   4   19.89    0.67
  -1  -4  -4    0.31    0.13
  -1  -4  -4    0.30    0.13
  -1  -4  -4    0.30    0.11
  -1  -4  -4    0.26    0.07
   1   4   4    0.35    0.10
   1   4   4    0.43    0.13
  -2  -4  -4    0.06    0.10
  -2  -4  -4    0.41    0.14
   2   4   4    0.32    0.11
   2   4   4    0.21    0.12
  -3  -4  -4    1.46    0.24
  -3  -4  -4    1.35    0.23
   3   4   4    1.48    0.23
   3   4   4    1.14    0.23
  -4  -4  -4    5.42    0.40
   4   4   4    6.14    0.44
   4   4   4    6.19    0.42
   4   4   4    5.75    0.44
  -5  -4  -4    1.26    0.25
   5   4   4    0.87    0.24
   5   4   4    1.20    0.24
   5   4   4    1.18    0.26
   6   4   4    0.59    0.22
   6   4   4    0.01    0.16
   8  -5  -4    0.04    0.07
   7  -5  -4    1.74    0.21
   7  -5  -4    1.40    0.21
   6  -5  -4    8.64    0.40
   6  -5  -4    8.22    0.35
   6  -5  -4    8.30    0.40
   6  -5  -4    7.76    0.42
   5  -5  -4   -0.03    0.07
   5  -5  -4    0.05    0.07
   5  -5  -4    0.09    0.09
   5  -5  -4   -0.03    0.08
   5  -5  -4    0.07    0.13
   4  -5  -4    0.60    0.18
   4  -5  -4    0.67    0.18
   4  -5  -4    0.24    0.11
   4  -5  -4    0.35    0.11
   4  -5  -4    0.54    0.14
   3  -5  -4    1.33    0.19
   3  -5  -4    1.58    0.25
   3  -5  -4    1.17    0.19
   3  -5  -4    1.55    0.22
   3  -5  -4    1.14    0.19
  -3   5   4    1.70    0.18
   2  -5  -4    0.73    0.16
   2  -5  -4    0.62    0.16
   2  -5  -4    0.94    0.19
   2  -5  -4    0.84    0.17
   2  -5  -4    0.70    0.16
  -2   5   4    0.61    0.14
   1  -5  -4    0.29    0.13
   1  -5  -4    0.14    0.09
   1  -5  -4    0.22    0.11
   1  -5  -4    0.32    0.12
   1  -5  -4    0.23    0.10
  -1   5   4    0.27    0.11
  -1   5   4    0.15    0.06
   0  -5  -4   32.37    1.01
   0  -5  -4   32.31    0.88
   0  -5  -4   32.35    1.01
   0  -5  -4   32.72    0.88
   0  -5  -4   32.96    1.10
   0   5   4   32.76    0.84
   0   5   4   31.84    0.99
  -1  -5  -4    0.76    0.16
  -1  -5  -4    1.27    0.23
  -1  -5  -4    1.51    0.16
   1   5   4    1.27    0.22
   1   5   4    1.33    0.18
  -2  -5  -4    0.00    0.10
  -2  -5  -4   -0.08    0.09
   2   5   4    0.15    0.11
   2   5   4    0.03    0.12
  -3  -5  -4    1.61    0.28
  -3  -5  -4    1.56    0.27
   3   5   4    1.58    0.26
   3   5   4    1.83    0.27
  -4  -5  -4    2.44    0.36
  -4  -5  -4    1.75    0.28
   4   5   4    2.38    0.36
   4   5   4    2.14    0.32
   5   5   4    0.30    0.19
   5   5   4    1.30    0.30
   6  -6  -4   33.46    1.02
   6  -6  -4   34.99    0.94
   5  -6  -4    9.22    0.53
   5  -6  -4    7.66    0.44
   5  -6  -4    9.20    0.42
   5  -6  -4    8.21    0.44
   5  -6  -4    7.47    0.53
   4  -6  -4    0.10    0.10
   4  -6  -4    0.14    0.15
   4  -6  -4    0.12    0.12
   4  -6  -4   -0.05    0.08
   4  -6  -4   -0.08    0.09
   3  -6  -4    3.55    0.33
   3  -6  -4    4.32    0.33
   3  -6  -4    4.61    0.35
   3  -6  -4    4.47    0.37
   3  -6  -4    4.60    0.32
   2  -6  -4    2.16    0.28
   2  -6  -4    1.95    0.30
   2  -6  -4    2.49    0.30
   2  -6  -4    2.76    0.31
   2  -6  -4    2.01    0.25
  -2   6   4    2.36    0.26
   1  -6  -4    2.03    0.24
   1  -6  -4    2.52    0.31
   1  -6  -4    2.52    0.30
   1  -6  -4    2.24    0.26
  -1   6   4    2.18    0.26
   0  -6  -4   40.14    1.09
   0  -6  -4   41.20    1.25
   0  -6  -4   41.52    1.26
   0  -6  -4   42.05    1.10
   0   6   4   42.22    1.24
   0   6   4   40.52    1.05
  -1  -6  -4    2.29    0.32
  -1  -6  -4    1.36    0.25
   1   6   4    1.86    0.23
   1   6   4    2.01    0.31
  -2  -6  -4    5.42    0.43
  -2  -6  -4    6.77    0.47
   2   6   4    6.02    0.47
   2   6   4    5.40    0.37
  -3  -6  -4    1.21    0.25
  -3  -6  -4    1.40    0.27
   3   6   4    1.67    0.30
   3   6   4    1.39    0.25
  -4  -6  -4    4.63    0.50
  -4  -6  -4    4.20    0.44
   4   6   4    3.87    0.43
   4   6   4    5.61    0.58
   6  -7  -4    3.87    0.29
   6  -7  -4    4.03    0.50
   6  -7  -4    3.53    0.32
   5  -7  -4    2.21    0.33
   5  -7  -4    2.05    0.36
   5  -7  -4    1.98    0.26
   5  -7  -4    1.69    0.30
   5  -7  -4    1.71    0.27
   4  -7  -4    1.10    0.23
   4  -7  -4    0.99    0.24
   4  -7  -4    1.37    0.28
   4  -7  -4    1.59    0.24
   4  -7  -4    1.74    0.25
   3  -7  -4    4.95    0.41
   3  -7  -4    5.18    0.38
   3  -7  -4    5.21    0.39
   3  -7  -4    4.94    0.38
   3  -7  -4    5.05    0.42
   2  -7  -4    0.88    0.19
   2  -7  -4    0.62    0.18
   2  -7  -4    0.71    0.19
   2  -7  -4    0.51    0.17
   1  -7  -4   52.40    1.41
   1  -7  -4   52.87    1.52
   1  -7  -4   52.30    1.52
   1  -7  -4   51.14    1.42
   0  -7  -4    1.88    0.31
   0  -7  -4    2.01    0.31
   0   7   4    2.00    0.30
  -1  -7  -4    1.52    0.27
  -1  -7  -4    1.24    0.27
   1   7   4    1.56    0.31
  -2  -7  -4   -0.02    0.14
  -2  -7  -4    0.08    0.15
   2   7   4    0.29    0.17
   4  -8  -4    0.65    0.19
   4  -8  -4    0.28    0.18
   4  -8  -4    0.32    0.18
   4  -8  -4    0.83    0.25
   3  -8  -4    2.80    0.35
   3  -8  -4    2.55    0.37
   3  -8  -4    2.64    0.34
   3  -8  -4    2.92    0.36
   2  -8  -4    5.26    0.43
   2  -8  -4    5.22    0.41
   2  -8  -4    5.64    0.44
   2  -8  -4    5.16    0.44
   1  -8  -4   21.03    0.91
   1  -8  -4   22.77    0.94
   0  -8  -4    8.91    0.60
   0  -8  -4    9.11    0.59
   0  -9   5   -0.01    0.13
   0  -9   5    0.00    0.12
   1  -9   5    2.16    0.32
   1  -9   5    1.62    0.30
   2  -9   5    0.02    0.12
   2  -9   5    0.00    0.12
   3  -9   5    3.83    0.45
   3  -9   5    2.86    0.34
   4  -9   5    4.90    0.38
   4  -9   5    5.58    0.48
   3   8  -5   -0.08    0.15
  -3  -8   5    0.02    0.13
   2   8  -5   51.45    1.63
  -2  -8   5   50.92    1.49
  -2  -8   5   55.02    1.62
   1   8  -5    0.29    0.18
  -1  -8   5    0.20    0.15
  -1  -8   5   -0.11    0.10
   0   8  -5   10.72    0.58
   0  -8   5    9.35    0.55
   0  -8   5    9.34    0.54
   1  -8   5    1.18    0.24
   1  -8   5    1.32    0.25
   2  -8   5    2.26    0.30
   2  -8   5    2.56    0.30
   3  -8   5    3.09    0.31
   3  -8   5    3.55    0.30
   3  -8   5    2.52    0.33
   4  -8   5   25.93    1.00
   4  -8   5   27.32    0.94
   4  -8   5   25.47    0.85
   5  -8   5    7.59    0.51
   5  -8   5    6.85    0.43
   5  -8   5    7.74    0.40
   6  -8   5    1.20    0.18
   6  -8   5    2.28    0.40
   6  -8   5    1.61    0.24
   6  -8   5    2.07    0.33
   4   7  -5    0.05    0.16
   4   7  -5   -0.13    0.15
  -4  -7   5    0.12    0.13
  -3  -7   5    2.68    0.36
  -2  -7   5    9.53    0.55
  -1  -7   5    4.47    0.35
  -1  -7   5    4.01    0.35
   0  -7   5    0.34    0.13
   0  -7   5    0.41    0.15
   1  -7   5    0.33    0.14
   1  -7   5    0.18    0.11
   1  -7   5    0.35    0.13
   2  -7   5    0.16    0.10
   2  -7   5    0.08    0.09
   2  -7   5    0.09    0.12
   3  -7   5    2.48    0.30
   3  -7   5    2.47    0.31
   3  -7   5    2.44    0.27
   4  -7   5    1.47    0.23
   4  -7   5    1.19    0.23
   4  -7   5    1.30    0.19
   5  -7   5    0.52    0.12
   5  -7   5    0.45    0.13
   5  -7   5    0.19    0.15
   6  -7   5    0.42    0.13
   6  -7   5    0.76    0.13
   6  -7   5    0.59    0.19
   6  -7   5    0.65    0.21
   7  -7   5    0.13    0.15
   7  -7   5   -0.06    0.06
   7  -7   5   -0.04    0.15
   5   6  -5    0.18    0.17
  -5  -6   5    0.39    0.16
  -4  -6   5    0.65    0.20
   3   6  -5    5.08    0.43
  -3  -6   5    5.21    0.39
   2   6  -5    1.15    0.23
  -2  -6   5    1.52    0.23
   1   6  -5    0.88    0.20
  -1  -6   5    0.49    0.15
   0   6  -5   14.39    0.61
   0  -6   5   13.80    0.58
   0  -6   5   13.30    0.59
  -1   6  -5    5.12    0.34
   1  -6   5    4.68    0.32
   1  -6   5    4.56    0.33
   1  -6   5    5.07    0.34
  -2   6  -5    2.74    0.23
   2  -6   5    2.49    0.24
   2  -6   5    2.68    0.29
   2  -6   5    2.68    0.23
   3  -6   5   29.55    0.93
   3  -6   5   28.04    0.82
   3  -6   5   27.40    0.88
   4  -6   5    1.69    0.20
   4  -6   5    1.55    0.20
   4  -6   5    1.42    0.23
   5  -6   5    2.20    0.28
   5  -6   5    2.30    0.19
   5  -6   5    1.92    0.20
   6  -6   5    0.15    0.08
   6  -6   5    0.08    0.07
   6  -6   5    0.06    0.10
   6  -6   5    0.38    0.17
   7  -6   5    0.67    0.13
   7  -6   5    0.77    0.21
   7  -6   5    0.71    0.22
   6   5  -5    0.60    0.30
   6   5  -5    0.73    0.24
   5   5  -5    0.01    0.13
   5   5  -5    0.02    0.13
  -5  -5   5    0.24    0.13
   4   5  -5    1.45    0.27
  -4  -5   5    1.23    0.21
   3   5  -5    0.32    0.16
  -3  -5   5    0.44    0.15
   2   5  -5    7.62    0.46
  -2  -5   5    7.86    0.42
   1   5  -5    8.90    0.47
  -1  -5   5    9.25    0.45
  -1  -5   5   10.27    0.52
   0   5  -5    0.64    0.14
   0  -5   5    0.76    0.14
   0  -5   5    0.43    0.12
  -1   5  -5    8.23    0.39
   1  -5   5    8.04    0.40
   1  -5   5    8.46    0.41
   1  -5   5    7.81    0.37
  -2   5  -5    3.69    0.25
   2  -5   5    3.92    0.27
   2  -5   5    4.17    0.19
   2  -5   5    4.30    0.29
   2  -5   5    4.05    0.25
  -3   5  -5    2.23    0.18
   3  -5   5    1.96    0.19
   3  -5   5    2.12    0.19
   3  -5   5    2.27    0.25
   4  -5   5   11.00    0.44
   4  -5   5   11.58    0.51
   4  -5   5   11.35    0.41
   5  -5   5    9.93    0.37
   5  -5   5   10.01    0.48
   5  -5   5    9.98    0.41
   6  -5   5    4.17    0.25
   6  -5   5    4.08    0.36
   6  -5   5    4.79    0.35
   6  -5   5    4.71    0.23
   7  -5   5    2.15    0.16
   7  -5   5    2.79    0.33
   7  -5   5    2.97    0.39
   7  -5   5    2.11    0.19
   8  -5   5    0.38    0.11
   8  -5   5    0.32    0.19
   8  -5   5    0.49    0.18
   7   4  -5   18.75    1.14
   7   4  -5   19.07    1.00
   6   4  -5    1.55    0.38
   6   4  -5    1.49    0.30
   6   4  -5    0.99    0.26
   5   4  -5    0.67    0.20
   5   4  -5    0.39    0.17
  -5  -4   5    0.54    0.16
   4   4  -5    1.09    0.23
  -4  -4   5    0.68    0.16
   3   4  -5    0.24    0.14
  -3  -4   5    0.13    0.09
   2   4  -5    3.32    0.28
   2   4  -5    2.63    0.24
  -2  -4   5    3.18    0.25
  -2  -4   5    3.17    0.26
   1   4  -5   31.18    0.91
   1   4  -5   30.89    0.92
  -1  -4   5   32.09    0.92
   0   4  -5    0.48    0.13
   0  -4   5    0.44    0.11
   0  -4   5    0.32    0.10
  -1   4  -5    5.89    0.31
   1  -4   5    5.50    0.29
   1  -4   5    5.77    0.31
   1  -4   5    5.96    0.25
  -2   4  -5    4.74    0.25
   2  -4   5    4.44    0.25
   2  -4   5    4.72    0.28
   2  -4   5    4.99    0.26
   2  -4   5    4.52    0.18
  -3   4  -5    2.53    0.17
   3  -4   5    2.54    0.18
   3  -4   5    2.25    0.18
   3  -4   5    2.53    0.22
   3  -4   5    2.24    0.18
  -4   4  -5    0.38    0.08
   4  -4   5    0.38    0.09
   4  -4   5    0.24    0.08
   4  -4   5    0.30    0.11
   5  -4   5   19.50    0.61
   5  -4   5   20.28    0.57
   5  -4   5   20.57    0.69
   6  -4   5    0.95    0.21
   6  -4   5    0.74    0.17
   6  -4   5    1.06    0.16
   6  -4   5    0.83    0.12
   7  -4   5    0.42    0.14
   7  -4   5    0.33    0.16
   7  -4   5    0.39    0.11
   7  -4   5    0.29    0.08
   8  -4   5    0.08    0.08
   8  -4   5   -0.05    0.12
   7   3  -5    3.30    0.41
   7   3  -5    2.85    0.36
   7   3  -5    2.50    0.50
   6   3  -5    5.67    0.44
   6   3  -5    5.16    0.42
   6   3  -5    4.80    0.52
   5   3  -5    1.07    0.24
   5   3  -5    1.61    0.36
   5   3  -5    1.07    0.22
  -5  -3   5    1.16    0.19
   4   3  -5    5.43    0.36
   4   3  -5    4.64    0.35
  -4  -3   5    5.39    0.32
   3   3  -5   19.86    0.70
   3   3  -5   19.76    0.70
  -3  -3   5   18.54    0.64
   2   3  -5    0.78    0.15
  -2  -3   5    0.74    0.13
  -2  -3   5    0.96    0.16
   1   3  -5    9.91    0.41
  -1  -3   5   10.20    0.42
  -1  -3   5    9.42    0.39
   0   3  -5    0.20    0.10
   0  -3   5    0.16    0.07
   0  -3   5    0.27    0.08
   0  -3   5    0.24    0.09
  -1   3  -5    0.46    0.11
   1  -3   5    0.44    0.10
   1  -3   5    0.58    0.11
   1  -3   5    0.53    0.08
  -2   3  -5    1.37    0.15
   2  -3   5    1.16    0.14
   2  -3   5    1.51    0.15
   2  -3   5    1.34    0.09
   2  -3   5    1.61    0.14
   2  -3   5    1.67    0.18
  -3   3  -5    0.22    0.07
   3  -3   5    0.10    0.06
   3  -3   5    0.20    0.09
   3  -3   5    0.16    0.07
   3  -3   5    0.24    0.07
  -4   3  -5   10.19    0.31
   4  -3   5   10.30    0.36
   4  -3   5   10.09    0.39
   4  -3   5   10.50    0.37
   4  -3   5   10.79    0.41
   5  -3   5    0.06    0.06
   5  -3   5    0.07    0.06
   5  -3   5    0.25    0.10
   6  -3   5   -0.01    0.05
   6  -3   5    0.01    0.06
   6  -3   5   -0.06    0.09
   6  -3   5    0.07    0.08
   7  -3   5    7.28    0.32
   7  -3   5    6.95    0.43
   7  -3   5    7.44    0.38
   8  -3   5    0.49    0.14
   8  -3   5    0.55    0.12
   8   2  -5    7.67    0.51
   8   2  -5    7.89    0.76
   8   2  -5    8.47    0.58
   7   2  -5    0.45    0.17
   7   2  -5    0.53    0.18
   7   2  -5    0.44    0.23
   6   2  -5    0.49    0.16
   6   2  -5    0.51    0.14
   6   2  -5    0.33    0.16
   6   2  -5    0.40    0.24
   5   2  -5    8.06    0.46
   5   2  -5    7.69    0.43
   5   2  -5    7.27    0.56
   5   2  -5    7.84    0.44
  -5  -2   5    7.50    0.36
   4   2  -5    1.72    0.23
   4   2  -5    1.39    0.28
  -4  -2   5    1.53    0.18
   3   2  -5    1.67    0.19
   3   2  -5    2.35    0.21
  -3  -2   5    1.90    0.17
   2   2  -5   80.34    1.84
   2   2  -5   80.06    1.85
  -2  -2   5   83.05    1.83
  -2  -2   5   81.97    1.80
   1   2  -5    0.17    0.08
   1   2  -5    0.30    0.10
  -1  -2   5    0.15    0.08
  -1  -2   5    0.21    0.08
   0   2  -5   -0.03    0.07
   0   2  -5   -0.03    0.05
   0   2  -5   -0.02    0.07
   0  -2   5    0.02    0.04
   0  -2   5   -0.04    0.06
   0  -2   5   -0.05    0.05
  -1   2  -5   34.13    0.80
  -1   2  -5   33.87    0.85
   1  -2   5   32.53    0.84
   1  -2   5   34.00    0.79
   1  -2   5   34.01    0.88
  -2   2  -5    2.38    0.17
  -2   2  -5    2.43    0.14
   2  -2   5    2.32    0.13
   2  -2   5    2.46    0.18
   2  -2   5    2.73    0.18
   2  -2   5    2.02    0.16
  -3   2  -5    9.29    0.29
  -3   2  -5    8.89    0.33
   3  -2   5    9.66    0.38
   3  -2   5    9.52    0.35
   3  -2   5    8.94    0.34
   3  -2   5    9.50    0.33
  -4   2  -5    3.71    0.17
  -4   2  -5    3.55    0.19
   4  -2   5    3.72    0.22
   4  -2   5    3.92    0.21
   4  -2   5    3.95    0.22
   4  -2   5    3.99    0.24
  -5   2  -5    4.16    0.20
   5  -2   5    3.58    0.23
   5  -2   5    3.76    0.22
   5  -2   5    3.53    0.25
  -6   2  -5    5.70    0.37
   6  -2   5    4.90    0.28
   6  -2   5    5.06    0.32
   6  -2   5    4.78    0.27
   7  -2   5    9.17    0.46
   7  -2   5    8.71    0.39
   7  -2   5    8.97    0.46
   8  -2   5    3.89    0.33
   8  -2   5    4.34    0.29
   8   1  -5   -0.12    0.10
   8   1  -5    0.02    0.12
   8   1  -5    0.00    0.18
   7   1  -5    0.65    0.20
   7   1  -5    0.27    0.20
   7   1  -5    0.90    0.18
   7   1  -5    0.42    0.14
   6   1  -5    3.40    0.35
   6   1  -5    2.76    0.26
   6   1  -5    3.31    0.28
   6   1  -5    2.79    0.44
   5   1  -5    0.34    0.13
   5   1  -5    0.29    0.18
   5   1  -5    0.26    0.11
   5   1  -5    0.35    0.11
  -5  -1   5    0.35    0.09
   4   1  -5    0.18    0.08
   4   1  -5    0.17    0.09
   4   1  -5    0.20    0.14
  -4  -1   5    0.21    0.07
   3   1  -5    2.30    0.20
   3   1  -5    2.38    0.20
   3   1  -5    1.52    0.24
  -3  -1   5    2.19    0.17
   2   1  -5    4.03    0.25
   2   1  -5    3.47    0.23
  -2  -1   5    3.88    0.21
   1   1  -5    0.57    0.13
   1   1  -5    0.48    0.11
  -1  -1   5    0.56    0.11
  -1  -1   5    0.82    0.13
   0   1  -5    0.80    0.11
   0   1  -5    0.97    0.14
   0   1  -5    0.76    0.11
   0  -1   5    0.89    0.12
   0  -1   5    0.73    0.11
   0  -1   5    0.99    0.12
  -1   1  -5    9.32    0.32
  -1   1  -5    9.25    0.35
   1  -1   5    9.07    0.36
   1  -1   5    9.43    0.35
   1  -1   5    9.05    0.31
  -2   1  -5    1.55    0.13
  -2   1  -5    2.04    0.17
   2  -1   5    1.67    0.16
   2  -1   5    1.76    0.16
  -3   1  -5    0.05    0.06
  -3   1  -5    0.09    0.06
   3  -1   5    0.06    0.04
   3  -1   5   -0.06    0.05
   3  -1   5    0.02    0.05
  -4   1  -5    1.07    0.14
  -4   1  -5    0.99    0.12
   4  -1   5    1.02    0.15
   4  -1   5    0.85    0.10
  -5   1  -5    0.07    0.07
  -5   1  -5    0.03    0.10
   5  -1   5    0.03    0.07
   5  -1   5    0.02    0.06
   5  -1   5    0.03    0.05
   5  -1   5    0.06    0.08
  -6   1  -5    8.97    0.39
   6  -1   5    8.51    0.41
   6  -1   5    8.59    0.38
   6  -1   5    8.90    0.46
   7  -1   5    2.13    0.30
   7  -1   5    1.78    0.23
   8  -1   5    0.01    0.09
   8  -1   5    0.04    0.10
   8   0  -5    0.34    0.14
   8   0  -5    0.04    0.09
   8   0  -5   -0.01    0.10
   7   0  -5   -0.03    0.12
   7   0  -5    0.08    0.08
   7   0  -5    0.00    0.09
   7   0  -5   -0.04    0.09
   6   0  -5   14.22    0.58
   6   0  -5   15.55    0.62
   6   0  -5   15.89    0.84
   6   0  -5   14.40    0.56
   5   0  -5    0.03    0.13
   5   0  -5    0.12    0.09
   5   0  -5    0.10    0.07
   5   0  -5    0.20    0.10
  -5   0   5    0.03    0.05
   4   0  -5    1.22    0.16
   4   0  -5    1.06    0.15
   4   0  -5    1.22    0.16
   4   0  -5    1.18    0.23
  -4   0   5    1.02    0.12
   3   0  -5    7.61    0.33
   3   0  -5    7.49    0.41
   3   0  -5    7.41    0.33
   3   0  -5    7.36    0.36
  -3   0   5    7.36    0.29
   2   0  -5   25.43    0.76
   2   0  -5   25.12    0.71
   2   0  -5   25.21    0.70
   2   0  -5   25.49    0.73
  -2   0   5   25.94    0.67
   1   0  -5   17.19    0.53
   1   0  -5   17.11    0.50
   1   0  -5   20.42    0.61
   1   0  -5   16.71    0.53
  -1   0   5   16.35    0.50
  -1   0   5   16.85    0.52
   0   0  -5  285.21    5.71
   0   0  -5  279.49    5.75
   0   0  -5  287.57    5.72
   0   0   5  298.57    5.74
   0   0   5  296.72    5.72
   0   0   5  285.13    5.74
  -1   0  -5   52.16    1.24
  -1   0  -5   53.04    1.22
  -1   0  -5   53.13    1.22
   1   0   5   53.56    1.21
   1   0   5   52.62    1.24
   1   0   5   53.82    1.28
  -2   0  -5   28.65    0.75
  -2   0  -5   28.46    0.76
  -2   0  -5   27.64    0.68
   2   0   5   28.98    0.78
   2   0   5   27.67    0.81
  -3   0  -5   65.40    1.50
  -3   0  -5   66.15    1.49
   3   0   5   65.00    1.52
   3   0   5   65.33    1.58
   3   0   5   65.76    1.57
   3   0   5   64.10    1.31
  -4   0  -5    0.60    0.12
  -4   0  -5    0.60    0.12
   4   0   5    0.48    0.14
   4   0   5    0.69    0.09
   4   0   5    0.63    0.12
   4   0   5    0.69    0.15
  -5   0  -5   21.34    0.66
  -5   0  -5   21.20    0.68
   5   0   5   21.06    0.77
   5   0   5   21.55    0.71
   5   0   5   20.77    0.76
  -6   0  -5    8.88    0.42
   6   0   5    7.89    0.42
   6   0   5    7.45    0.47
   6   0   5    7.29    0.45
  -7   0  -5    4.12    0.32
   7   0   5    4.10    0.33
   7   0   5    4.26    0.45
   7   0   5    4.39    0.37
   8   0   5    1.30    0.24
   8  -1  -5    2.19    0.27
   8  -1  -5    2.74    0.28
   8  -1  -5    1.98    0.28
   7  -1  -5    0.06    0.08
   7  -1  -5   -0.05    0.08
   7  -1  -5   -0.06    0.07
   6  -1  -5    5.30    0.30
   6  -1  -5    4.17    0.27
   6  -1  -5    4.36    0.30
   5  -1  -5    2.13    0.32
   5  -1  -5    2.52    0.20
   5  -1  -5    2.37    0.20
   5  -1  -5    2.56    0.21
  -5   1   5    2.62    0.14
   4  -1  -5    2.45    0.19
   4  -1  -5    2.50    0.22
   4  -1  -5    2.69    0.18
   4  -1  -5    2.61    0.27
   4  -1  -5    2.51    0.18
   4  -1  -5    2.58    0.20
  -4   1   5    2.98    0.16
   3  -1  -5    1.70    0.16
   3  -1  -5    1.53    0.16
   3  -1  -5    1.74    0.19
   3  -1  -5    1.86    0.17
   3  -1  -5    1.25    0.21
  -3   1   5    1.51    0.13
   2  -1  -5    2.49    0.19
   2  -1  -5    3.01    0.22
   2  -1  -5    2.68    0.20
  -2   1   5    2.77    0.17
   1  -1  -5   23.43    0.70
   1  -1  -5   23.58    0.69
   1  -1  -5   23.53    0.67
  -1   1   5   23.52    0.66
  -1   1   5   27.91    0.91
   0  -1  -5    2.38    0.20
   0  -1  -5    2.66    0.15
   0  -1  -5    2.77    0.21
   0   1   5    2.35    0.20
   0   1   5    2.17    0.19
   0   1   5    2.56    0.20
  -1  -1  -5    0.83    0.15
  -1  -1  -5    0.85    0.13
  -1  -1  -5    0.82    0.12
   1   1   5    0.90    0.15
   1   1   5    0.79    0.13
  -2  -1  -5    0.26    0.09
  -2  -1  -5    0.37    0.10
   2   1   5    0.50    0.12
   2   1   5    0.41    0.11
   2   1   5    0.43    0.10
   2   1   5    0.33    0.10
  -3  -1  -5    1.74    0.21
  -3  -1  -5    1.82    0.21
   3   1   5    1.59    0.21
   3   1   5    1.37    0.19
   3   1   5    1.82    0.22
  -4  -1  -5   10.68    0.46
  -4  -1  -5   10.76    0.45
   4   1   5    9.68    0.46
   4   1   5   10.21    0.49
   4   1   5   10.68    0.51
  -5  -1  -5    5.99    0.36
  -5  -1  -5    6.07    0.35
   5   1   5    5.74    0.37
   5   1   5    6.01    0.41
   5   1   5    6.29    0.41
   6   1   5   11.17    0.60
   6   1   5   10.98    0.55
  -7  -1  -5    2.00    0.29
   7   1   5    2.41    0.36
   7   1   5    2.06    0.30
   8  -2  -5    1.51    0.20
   8  -2  -5    1.45    0.22
   7  -2  -5   16.79    0.57
   7  -2  -5   17.35    0.61
   7  -2  -5   17.78    0.63
   6  -2  -5    3.22    0.23
   6  -2  -5    3.61    0.24
   6  -2  -5    2.84    0.22
   5  -2  -5    3.19    0.22
   5  -2  -5    2.98    0.19
   5  -2  -5    3.51    0.23
   5  -2  -5    2.99    0.26
   4  -2  -5    1.25    0.19
   4  -2  -5    1.37    0.11
   4  -2  -5    1.56    0.17
   4  -2  -5    1.38    0.16
   4  -2  -5    1.62    0.16
  -4   2   5    1.33    0.11
   3  -2  -5    3.33    0.24
   3  -2  -5    3.21    0.21
   3  -2  -5    3.42    0.13
   3  -2  -5    3.39    0.22
   3  -2  -5    3.21    0.21
  -3   2   5    3.10    0.17
   2  -2  -5   12.15    0.43
   2  -2  -5   11.73    0.45
   2  -2  -5   12.10    0.46
   2  -2  -5   11.33    0.27
  -2   2   5   10.58    0.39
   1  -2  -5   92.34    2.07
   1  -2  -5   92.03    2.05
   1  -2  -5   92.65    2.01
   1  -2  -5   90.25    1.84
  -1   2   5   90.70    1.99
   0  -2  -5    1.25    0.12
   0  -2  -5    1.05    0.15
   0  -2  -5    0.99    0.15
   0   2   5    1.37    0.17
   0   2   5    1.08    0.15
   0   2   5    1.07    0.11
   0   2   5    1.25    0.18
  -1  -2  -5   17.24    0.59
  -1  -2  -5   16.95    0.53
  -1  -2  -5   16.64    0.59
   1   2   5   17.77    0.43
   1   2   5   18.14    0.53
   1   2   5   17.52    0.63
   1   2   5   17.27    0.62
   1   2   5   17.44    0.59
   1   2   5   17.70    0.44
  -2  -2  -5    3.81    0.27
  -2  -2  -5    3.44    0.26
   2   2   5    3.66    0.27
   2   2   5    3.08    0.18
   2   2   5    3.31    0.24
  -3  -2  -5    0.25    0.12
  -3  -2  -5    0.32    0.12
   3   2   5    0.19    0.12
   3   2   5    0.30    0.12
   3   2   5    0.37    0.14
   3   2   5    0.40    0.11
  -4  -2  -5    0.57    0.17
  -4  -2  -5    0.50    0.14
   4   2   5    0.56    0.17
   4   2   5    0.38    0.14
   4   2   5    0.47    0.14
  -5  -2  -5   14.70    0.60
  -5  -2  -5   14.17    0.62
   5   2   5   13.17    0.64
   5   2   5   14.59    0.65
   5   2   5   14.12    0.64
   6   2   5    1.32    0.26
   6   2   5    1.63    0.27
  -7  -2  -5    4.16    0.43
   7   2   5    4.33    0.47
   7   2   5    3.98    0.44
   8  -3  -5    2.15    0.25
   8  -3  -5    2.52    0.29
   7  -3  -5    0.33    0.11
   7  -3  -5    0.35    0.11
   6  -3  -5   11.31    0.45
   6  -3  -5   11.68    0.43
   6  -3  -5   11.16    0.52
   5  -3  -5   13.27    0.37
   5  -3  -5   14.33    0.51
   5  -3  -5   13.88    0.56
   5  -3  -5   13.48    0.48
   4  -3  -5    3.09    0.23
   4  -3  -5    3.52    0.26
   4  -3  -5    2.92    0.22
  -4   3   5    2.86    0.16
   3  -3  -5    3.62    0.24
   3  -3  -5    3.38    0.25
   3  -3  -5    3.64    0.26
  -3   3   5    3.47    0.19
   2  -3  -5    4.16    0.28
   2  -3  -5    4.22    0.28
   2  -3  -5    4.33    0.28
   2  -3  -5    3.73    0.25
  -2   3   5    4.19    0.24
   1  -3  -5    0.19    0.08
   1  -3  -5    0.07    0.07
   1  -3  -5    0.05    0.07
  -1   3   5    0.12    0.08
   0  -3  -5    0.77    0.16
   0  -3  -5    1.01    0.17
   0  -3  -5    0.86    0.11
   0  -3  -5    0.67    0.13
   0   3   5    0.90    0.11
   0   3   5    0.92    0.16
  -1  -3  -5   27.09    0.84
  -1  -3  -5   26.74    0.88
  -1  -3  -5   27.57    0.85
   1   3   5   27.60    0.75
   1   3   5   25.95    0.63
   1   3   5   26.65    0.84
   1   3   5   26.50    0.86
   1   3   5   26.49    0.87
  -2  -3  -5    2.28    0.26
  -2  -3  -5    2.28    0.26
   2   3   5    2.55    0.29
   2   3   5    2.32    0.24
  -3  -3  -5    0.61    0.16
  -3  -3  -5    0.76    0.18
   3   3   5    0.54    0.14
   3   3   5    0.71    0.18
   3   3   5    0.63    0.14
  -4  -3  -5    4.41    0.35
  -4  -3  -5    4.80    0.37
   4   3   5    4.63    0.34
   4   3   5    4.42    0.37
   4   3   5    4.38    0.35
  -5  -3  -5    1.42    0.25
  -5  -3  -5    1.09    0.22
   5   3   5    1.02    0.22
   5   3   5    1.73    0.29
  -6  -3  -5    4.40    0.45
   6   3   5    4.23    0.46
   6   3   5    3.65    0.41
   8  -4  -5    0.43    0.12
   7  -4  -5    2.45    0.22
   7  -4  -5    2.71    0.21
   7  -4  -5    3.22    0.33
   6  -4  -5    4.05    0.25
   6  -4  -5    3.41    0.26
   6  -4  -5    4.17    0.32
   5  -4  -5   41.78    1.14
   5  -4  -5   41.97    1.07
   5  -4  -5   41.91    1.18
   4  -4  -5    0.29    0.11
   4  -4  -5    0.28    0.13
   4  -4  -5    0.15    0.09
   4  -4  -5    0.27    0.12
   3  -4  -5    0.38    0.12
   3  -4  -5    0.29    0.12
   3  -4  -5    0.35    0.12
  -3   4   5    0.40    0.10
   2  -4  -5    2.61    0.27
   2  -4  -5    3.15    0.27
   2  -4  -5    2.48    0.26
  -2   4   5    2.66    0.22
   1  -4  -5    0.92    0.16
   1  -4  -5    0.75    0.15
   1  -4  -5    1.34    0.21
  -1   4   5    1.59    0.21
   0  -4  -5    3.30    0.28
   0  -4  -5    3.38    0.30
   0  -4  -5    3.40    0.28
   0   4   5    3.27    0.28
   0   4   5    3.61    0.20
  -1  -4  -5    8.26    0.45
  -1  -4  -5    9.22    0.47
   1   4   5    8.94    0.47
   1   4   5    8.10    0.37
  -2  -4  -5    0.23    0.14
  -2  -4  -5    0.43    0.16
   2   4   5    0.54    0.14
   2   4   5    0.40    0.16
  -3  -4  -5    4.60    0.37
  -3  -4  -5    3.81    0.34
   3   4   5    3.86    0.32
   3   4   5    3.87    0.32
   3   4   5    4.07    0.36
  -4  -4  -5    0.50    0.18
  -4  -4  -5    0.63    0.20
   4   4   5    0.67    0.20
   4   4   5    0.36    0.17
  -5  -4  -5    1.93    0.32
   5   4   5    2.21    0.35
   5   4   5    2.11    0.32
   7  -5  -5    0.56    0.15
   7  -5  -5    0.53    0.12
   6  -5  -5   14.49    0.62
   6  -5  -5   14.79    0.53
   6  -5  -5   15.89    0.61
   5  -5  -5    6.59    0.38
   5  -5  -5    6.29    0.39
   5  -5  -5    6.08    0.38
   5  -5  -5    6.01    0.34
   4  -5  -5    0.06    0.10
   4  -5  -5    0.16    0.10
   4  -5  -5    0.10    0.09
   3  -5  -5    5.61    0.37
   3  -5  -5    6.64    0.37
   3  -5  -5    5.88    0.39
   2  -5  -5    0.87    0.19
   2  -5  -5    0.64    0.16
   2  -5  -5    1.23    0.21
   2  -5  -5    0.94    0.17
  -2   5   5    0.95    0.17
   1  -5  -5    6.45    0.43
   1  -5  -5    7.04    0.42
   1  -5  -5    6.57    0.40
   1  -5  -5    6.41    0.35
  -1   5   5    7.29    0.40
   0  -5  -5   55.23    1.53
   0  -5  -5   57.11    1.52
   0   5   5   56.50    1.30
   0   5   5   54.79    1.49
  -1  -5  -5    6.92    0.45
  -1  -5  -5    8.14    0.47
   1   5   5    6.61    0.44
   1   5   5    7.47    0.37
  -2  -5  -5    0.21    0.14
  -2  -5  -5    0.52    0.18
   2   5   5    0.28    0.16
   2   5   5    0.43    0.14
  -3  -5  -5    0.11    0.14
  -3  -5  -5    0.20    0.15
   3   5   5    0.12    0.12
   3   5   5    0.17    0.14
  -4  -5  -5   -0.10    0.11
  -4  -5  -5    0.20    0.16
   4   5   5    0.15    0.15
   4   5   5    0.01    0.13
   7  -6  -5    1.56    0.30
   6  -6  -5   27.98    0.98
   6  -6  -5   26.38    0.92
   6  -6  -5   28.54    0.85
   5  -6  -5    0.19    0.13
   5  -6  -5    0.05    0.10
   5  -6  -5    0.05    0.10
   4  -6  -5    0.16    0.12
   4  -6  -5    0.14    0.12
   4  -6  -5    0.24    0.13
   3  -6  -5    1.25    0.22
   3  -6  -5    0.96    0.22
   3  -6  -5    0.76    0.19
   3  -6  -5    0.89    0.20
   3  -6  -5    1.23    0.22
   2  -6  -5    0.18    0.12
   2  -6  -5    0.20    0.12
   2  -6  -5    0.03    0.13
   2  -6  -5    0.06    0.12
   2  -6  -5    0.04    0.11
   1  -6  -5    5.18    0.40
   1  -6  -5    5.78    0.36
   1  -6  -5    5.51    0.40
  -1   6   5    4.56    0.36
   0  -6  -5   16.56    0.58
   0  -6  -5   16.60    0.73
   0  -6  -5   16.29    0.72
   0   6   5   15.34    0.69
  -1  -6  -5    3.33    0.38
  -1  -6  -5    3.15    0.35
   1   6   5    3.70    0.41
  -2  -6  -5    0.69    0.20
  -2  -6  -5    0.54    0.20
   2   6   5    0.23    0.13
   2   6   5    0.59    0.22
  -3  -6  -5    0.09    0.15
  -3  -6  -5    0.23    0.16
   3   6   5    0.00    0.12
   3   6   5    0.24    0.20
   5  -7  -5    0.05    0.12
   5  -7  -5    0.17    0.12
   5  -7  -5    0.03    0.12
   4  -7  -5    5.52    0.47
   4  -7  -5    5.42    0.44
   4  -7  -5    5.56    0.40
   4  -7  -5    6.14    0.44
   3  -7  -5   -0.02    0.11
   3  -7  -5    0.23    0.16
   3  -7  -5    0.22    0.15
   3  -7  -5    0.26    0.16
   2  -7  -5    2.34    0.30
   2  -7  -5    3.01    0.36
   2  -7  -5    3.04    0.34
   2  -7  -5    3.60    0.34
   1  -7  -5   15.46    0.74
   1  -7  -5   14.79    0.72
   1  -7  -5   16.37    0.65
   0  -7  -5    0.01    0.13
   0  -7  -5   -0.09    0.13
   0   7   5   -0.03    0.12
  -1  -7  -5    0.53    0.22
  -1  -7  -5    0.74    0.23
   1   7   5    0.28    0.18
   3  -8  -5    1.72    0.30
   3  -8  -5    1.68    0.29
   2  -8  -5    1.73    0.31
   2  -8  -5    2.06    0.31
   2  -8  -5    1.97    0.33
   0  -9   6    0.28    0.16
   0  -9   6   -0.03    0.13
   1  -9   6    0.30    0.15
   1  -9   6    0.28    0.16
   2  -9   6    0.72    0.20
   2  -9   6    0.78    0.23
   3  -9   6    0.87    0.23
   3  -9   6    0.93    0.22
   4  -9   6    0.71    0.20
   4  -9   6    0.85    0.26
  -2  -8   6    2.31    0.33
  -2  -8   6    2.40    0.34
  -1  -8   6    1.30    0.25
  -1  -8   6    0.87    0.23
   0  -8   6    0.48    0.18
   0  -8   6    0.37    0.16
   1  -8   6    5.52    0.41
   1  -8   6    6.55    0.47
   2  -8   6    1.99    0.31
   2  -8   6    1.80    0.27
   3  -8   6    0.52    0.15
   3  -8   6    0.45    0.17
   3  -8   6    0.37    0.17
   4  -8   6   14.31    0.60
   4  -8   6   13.64    0.65
   4  -8   6   13.31    0.70
   5  -8   6    0.07    0.10
   5  -8   6    0.04    0.13
   5  -8   6   -0.01    0.10
  -4  -7   6    0.13    0.16
   3   7  -6    2.26    0.37
  -3  -7   6    2.22    0.34
   2   7  -6    0.70    0.22
  -2  -7   6    0.45    0.17
   1   7  -6    7.31    0.50
  -1  -7   6    7.76    0.48
   0   7  -6    5.61    0.41
   0  -7   6    5.28    0.38
   0  -7   6    4.90    0.37
  -1   7  -6   -0.20    0.09
   1  -7   6    0.10    0.12
   1  -7   6   -0.05    0.08
   2  -7   6    5.71    0.37
   2  -7   6    5.36    0.39
   2  -7   6    5.95    0.42
   3  -7   6    0.45    0.14
   3  -7   6    0.22    0.15
   3  -7   6    0.42    0.13
   4  -7   6    4.42    0.30
   4  -7   6    4.37    0.38
   4  -7   6    4.49    0.34
   5  -7   6    3.90    0.31
   5  -7   6    4.67    0.29
   5  -7   6    4.20    0.43
   6  -7   6    1.00    0.16
   6  -7   6    1.00    0.24
   6  -7   6    1.23    0.21
   5   6  -6    0.21    0.18
   5   6  -6   -0.02    0.18
  -5  -6   6    0.12    0.13
   4   6  -6    0.20    0.18
  -4  -6   6    0.54    0.19
   3   6  -6    1.10    0.26
  -3  -6   6    0.43    0.15
   2   6  -6    1.87    0.30
  -2  -6   6    1.95    0.26
   1   6  -6    5.39    0.41
  -1  -6   6    6.75    0.41
   0   6  -6   28.47    0.94
   0  -6   6   27.77    0.91
  -1   6  -6    1.29    0.21
   1  -6   6    1.39    0.20
   1  -6   6    1.31    0.21
   1  -6   6    1.63    0.23
  -2   6  -6    0.14    0.11
   2  -6   6    0.02    0.10
   2  -6   6   -0.06    0.06
   2  -6   6   -0.07    0.07
   3  -6   6    2.44    0.28
   3  -6   6    2.18    0.24
   3  -6   6    2.23    0.27
   4  -6   6    0.27    0.11
   4  -6   6    0.14    0.09
   4  -6   6    0.16    0.11
   5  -6   6    0.02    0.07
   5  -6   6   -0.14    0.09
   5  -6   6    0.03    0.07
   6  -6   6    4.66    0.30
   6  -6   6    3.91    0.25
   6  -6   6    4.16    0.41
   7  -6   6    0.47    0.22
   7  -6   6    0.64    0.15
   7  -6   6    0.52    0.18
   6   5  -6    0.73    0.25
   6   5  -6    0.52    0.23
   6   5  -6    0.78    0.33
   5   5  -6    0.82    0.25
   5   5  -6    1.23    0.27
  -5  -5   6    1.31    0.24
   4   5  -6    0.43    0.20
  -4  -5   6    0.23    0.12
   3   5  -6    0.92    0.22
  -3  -5   6    1.06    0.19
   2   5  -6    1.40    0.23
  -2  -5   6    1.86    0.24
   1   5  -6    0.15    0.12
  -1  -5   6   -0.06    0.07
  -1  -5   6    0.08    0.09
   0   5  -6    0.01    0.10
   0  -5   6   -0.07    0.06
   0  -5   6   -0.02    0.07
  -1   5  -6    0.08    0.09
   1  -5   6   -0.02    0.05
   1  -5   6    0.01    0.07
  -2   5  -6    0.89    0.15
   2  -5   6    0.70    0.16
   2  -5   6    0.83    0.15
   2  -5   6    0.64    0.14
   2  -5   6    0.92    0.11
  -3   5  -6   -0.06    0.06
   3  -5   6    0.01    0.09
   3  -5   6    0.04    0.07
   3  -5   6    0.00    0.06
   4  -5   6   -0.01    0.08
   4  -5   6    0.11    0.08
   4  -5   6    0.06    0.07
   5  -5   6    7.65    0.34
   5  -5   6    7.71    0.43
   5  -5   6    7.48    0.38
   6  -5   6   -0.02    0.06
   6  -5   6    0.01    0.07
   6  -5   6   -0.06    0.09
   7  -5   6   -0.10    0.12
   7  -5   6   -0.05    0.10
   7  -5   6   -0.10    0.06
   7  -5   6   -0.05    0.06
   6   4  -6    0.16    0.17
   6   4  -6   -0.02    0.18
   6   4  -6    0.20    0.17
   5   4  -6    0.51    0.19
   5   4  -6    0.18    0.14
  -5  -4   6    0.26    0.12
   4   4  -6    8.32    0.50
  -4  -4   6    8.84    0.46
   3   4  -6    0.04    0.11
  -3  -4   6   -0.06    0.08
   2   4  -6    0.61    0.17
   2   4  -6    0.30    0.13
  -2  -4   6    0.57    0.15
  -2  -4   6    0.76    0.16
   1   4  -6   21.95    0.77
   1   4  -6   23.37    0.77
  -1  -4   6   21.91    0.74
   0   4  -6    2.03    0.23
   0  -4   6    1.30    0.17
  -1   4  -6    8.18    0.38
   1  -4   6    7.36    0.38
   1  -4   6    8.30    0.37
   1  -4   6    7.79    0.30
  -2   4  -6    5.97    0.30
   2  -4   6    6.36    0.34
   2  -4   6    5.75    0.22
   2  -4   6    5.83    0.30
   2  -4   6    5.63    0.32
  -3   4  -6    1.81    0.18
   3  -4   6    1.21    0.16
   3  -4   6    1.88    0.22
   3  -4   6    1.33    0.16
   4  -4   6   10.41    0.40
   4  -4   6   10.05    0.44
   4  -4   6    9.88    0.42
   5  -4   6    8.72    0.40
   5  -4   6    9.40    0.37
   5  -4   6    9.35    0.43
   6  -4   6    3.61    0.26
   6  -4   6    4.07    0.34
   6  -4   6    4.14    0.24
   6  -4   6    4.10    0.30
   7  -4   6    0.72    0.13
   7  -4   6    0.75    0.17
   7  -4   6    0.77    0.17
   7  -4   6    1.11    0.23
   8  -4   6    9.07    0.54
   8  -4   6    7.32    0.42
   7   3  -6    0.02    0.14
   7   3  -6    0.02    0.14
   7   3  -6    0.11    0.21
   6   3  -6   -0.03    0.13
   6   3  -6   -0.01    0.15
   6   3  -6    0.15    0.15
   5   3  -6    2.00    0.40
   5   3  -6    1.44    0.24
  -5  -3   6    2.10    0.25
   4   3  -6    0.00    0.07
   4   3  -6    0.12    0.12
  -4  -3   6    0.08    0.08
   3   3  -6    1.06    0.18
   3   3  -6    1.31    0.19
  -3  -3   6    1.37    0.18
   2   3  -6    0.59    0.13
  -2  -3   6    1.28    0.19
  -2  -3   6    1.24    0.17
   1   3  -6    7.81    0.38
   1   3  -6    7.61    0.37
  -1  -3   6    6.84    0.34
  -1  -3   6    7.58    0.37
   0   3  -6    1.12    0.16
  -1   3  -6    0.33    0.11
   1  -3   6    0.34    0.08
   1  -3   6    0.43    0.11
  -2   3  -6   11.58    0.43
  -2   3  -6   12.60    0.37
   2  -3   6   12.36    0.35
   2  -3   6   11.83    0.43
   2  -3   6   11.98    0.47
  -3   3  -6    1.57    0.16
  -3   3  -6    1.55    0.10
   3  -3   6    1.79    0.18
   3  -3   6    1.09    0.15
   3  -3   6    1.36    0.17
  -4   3  -6    1.72    0.10
  -4   3  -6    1.88    0.15
   4  -3   6    1.43    0.18
   4  -3   6    1.83    0.18
   4  -3   6    1.65    0.17
   5  -3   6    1.69    0.19
   5  -3   6    1.97    0.20
   5  -3   6    1.99    0.20
   6  -3   6    3.50    0.30
   6  -3   6    3.49    0.25
   6  -3   6    3.44    0.24
   6  -3   6    3.27    0.26
   7  -3   6    0.94    0.18
   7  -3   6    1.01    0.16
   7  -3   6    1.84    0.26
   8  -3   6    0.12    0.10
   8  -3   6   -0.01    0.08
   8  -3   6   -0.04    0.09
   7   2  -6    0.72    0.28
   7   2  -6    0.99    0.23
   7   2  -6    0.55    0.20
   6   2  -6    0.08    0.13
   6   2  -6    0.07    0.16
   6   2  -6    0.01    0.11
   5   2  -6   10.14    0.52
   5   2  -6    9.84    0.51
   5   2  -6   10.89    0.54
   5   2  -6   10.60    0.68
  -5  -2   6   10.63    0.45
   4   2  -6    0.20    0.11
   4   2  -6    0.09    0.15
   4   2  -6    0.07    0.09
  -4  -2   6    0.13    0.08
   3   2  -6    1.20    0.17
   3   2  -6    1.60    0.21
  -3  -2   6    1.23    0.17
   2   2  -6    8.61    0.40
   2   2  -6    8.48    0.40
  -2  -2   6    7.80    0.44
  -2  -2   6    8.79    0.37
   1   2  -6   10.35    0.41
   1   2  -6    9.55    0.41
   1   2  -6    9.91    0.41
  -1  -2   6   10.37    0.42
  -1  -2   6    9.15    0.38
   0   2  -6    1.96    0.21
   0   2  -6    1.88    0.17
   0   2  -6    1.40    0.16
   0  -2   6    2.00    0.18
   0  -2   6    1.76    0.18
  -1   2  -6  125.99    2.65
  -1   2  -6  122.99    2.58
   1  -2   6  125.07    2.68
   1  -2   6  124.86    2.63
   1  -2   6  125.34    2.57
  -2   2  -6    2.04    0.20
  -2   2  -6    1.87    0.14
   2  -2   6    1.67    0.18
   2  -2   6    1.87    0.13
   2  -2   6    1.94    0.18
  -3   2  -6    8.17    0.34
  -3   2  -6    8.45    0.30
   3  -2   6    8.84    0.39
   3  -2   6    8.17    0.32
   3  -2   6    8.54    0.36
  -4   2  -6    3.66    0.19
  -4   2  -6    3.51    0.22
   4  -2   6    3.69    0.26
   4  -2   6    3.45    0.20
   4  -2   6    4.05    0.25
  -5   2  -6    0.57    0.10
   5  -2   6    0.61    0.14
   5  -2   6    0.62    0.13
   5  -2   6    0.60    0.13
   5  -2   6    0.79    0.12
   6  -2   6   -0.06    0.08
   6  -2   6   -0.01    0.08
   6  -2   6   -0.01    0.06
   6  -2   6   -0.04    0.08
   7  -2   6    3.08    0.30
   7  -2   6    2.84    0.25
   8  -2   6    0.75    0.19
   8  -2   6    1.12    0.20
   8   1  -6    2.08    0.30
   8   1  -6    1.78    0.44
   8   1  -6    2.01    0.32
   7   1  -6    0.64    0.19
   7   1  -6    0.50    0.25
   7   1  -6    0.88    0.20
   7   1  -6    0.47    0.16
   6   1  -6   -0.10    0.13
   6   1  -6   -0.13    0.09
   6   1  -6    0.06    0.12
   6   1  -6   -0.04    0.07
   5   1  -6    3.59    0.29
   5   1  -6    3.19    0.43
   5   1  -6    3.50    0.29
   5   1  -6    3.42    0.28
  -5  -1   6    3.66    0.23
   4   1  -6    2.80    0.24
   4   1  -6    3.16    0.26
   4   1  -6    2.69    0.36
  -4  -1   6    2.80    0.20
   3   1  -6    0.95    0.20
   3   1  -6    0.63    0.14
   3   1  -6    0.48    0.10
   3   1  -6    0.71    0.15
  -3  -1   6    0.76    0.12
   2   1  -6    4.84    0.28
   2   1  -6    5.09    0.29
   2   1  -6    5.03    0.29
  -2  -1   6    4.95    0.26
   1   1  -6    0.88    0.15
   1   1  -6    0.89    0.15
  -1  -1   6    0.66    0.11
  -1  -1   6    0.73    0.13
   0   1  -6   48.77    1.17
   0   1  -6   48.64    1.20
   0   1  -6   48.76    1.19
   0  -1   6   49.04    1.21
   0  -1   6   49.84    1.18
  -1   1  -6    2.15    0.17
  -1   1  -6    2.02    0.21
   1  -1   6    2.44    0.29
   1  -1   6    2.37    0.19
   1  -1   6    2.04    0.18
  -2   1  -6   14.77    0.51
  -2   1  -6   14.94    0.48
   2  -1   6   16.49    0.56
   2  -1   6   15.51    0.52
   2  -1   6   15.10    0.51
  -3   1  -6    1.19    0.14
  -3   1  -6    1.04    0.15
   3  -1   6    1.16    0.16
   3  -1   6    0.91    0.15
   3  -1   6    1.02    0.11
  -4   1  -6   12.48    0.44
  -4   1  -6   12.38    0.45
   4  -1   6   12.99    0.49
   4  -1   6   11.98    0.37
   4  -1   6   12.00    0.51
  -5   1  -6    4.91    0.28
   5  -1   6    4.80    0.26
   5  -1   6    5.10    0.35
   5  -1   6    4.89    0.21
   5  -1   6    5.40    0.32
  -6   1  -6    0.47    0.12
   6  -1   6    0.59    0.15
   6  -1   6    0.64    0.15
   7  -1   6    9.55    0.47
   7  -1   6    9.00    0.52
   8   0  -6    6.04    0.40
   8   0  -6    5.01    0.39
   8   0  -6    5.31    0.42
   7   0  -6    0.64    0.26
   7   0  -6    1.08    0.21
   7   0  -6    0.55    0.17
   7   0  -6    0.39    0.15
   6   0  -6   57.41    1.51
   6   0  -6   57.55    1.47
   6   0  -6   57.88    1.87
   6   0  -6   57.99    1.51
   5   0  -6    0.59    0.14
   5   0  -6    0.52    0.13
   5   0  -6    0.57    0.14
   5   0  -6    0.72    0.22
  -5   0   6    0.51    0.10
   4   0  -6   63.06    1.60
   4   0  -6   64.01    1.56
   4   0  -6   64.63    1.78
   4   0  -6   64.11    1.53
  -4   0   6   64.38    1.45
   3   0  -6    8.41    0.38
   3   0  -6    7.66    0.39
   3   0  -6    8.81    0.46
   3   0  -6    8.33    0.38
  -3   0   6    8.09    0.33
   2   0  -6   37.43    0.98
   2   0  -6   34.82    0.98
   2   0  -6   35.70    0.94
   2   0  -6   34.75    0.95
  -2   0   6   36.65    0.90
   1   0  -6   68.43    1.63
   1   0  -6   72.08    1.56
   1   0  -6   69.43    1.61
   1   0  -6   71.00    1.63
  -1   0   6   71.18    1.61
  -1   0   6   69.85    1.58
   0   0  -6   11.59    0.44
   0   0  -6   12.85    0.33
   0   0  -6   13.47    0.49
   0   0  -6   12.74    0.46
   0   0   6   12.23    0.45
   0   0   6   13.38    0.48
  -1   0  -6   51.00    1.22
  -1   0  -6   50.15    1.20
   1   0   6   48.57    1.21
   1   0   6   49.53    1.26
  -2   0  -6    1.07    0.15
  -2   0  -6    1.21    0.15
   2   0   6    1.46    0.21
   2   0   6    1.07    0.15
  -3   0  -6   35.00    0.95
  -3   0  -6   35.21    0.93
   3   0   6   35.71    1.03
   3   0   6   35.15    0.97
   3   0   6   34.45    1.02
   3   0   6   35.11    0.74
  -4   0  -6    0.18    0.10
  -4   0  -6    0.35    0.11
   4   0   6    0.21    0.06
   4   0   6    0.24    0.12
   4   0   6    0.35    0.12
  -5   0  -6    2.65    0.26
   5   0   6    2.61    0.28
   5   0   6    2.89    0.29
   5   0   6    2.80    0.33
  -6   0  -6    4.91    0.33
   6   0   6    4.47    0.34
   6   0   6    5.27    0.41
   6   0   6    3.79    0.35
   7   0   6    2.75    0.37
   7   0   6    3.31    0.34
   8  -1  -6    1.34    0.23
   8  -1  -6    1.28    0.21
   7  -1  -6    0.12    0.10
   7  -1  -6    0.05    0.10
   7  -1  -6    0.17    0.11
   6  -1  -6    1.31    0.18
   6  -1  -6    1.61    0.21
   6  -1  -6    1.27    0.18
   5  -1  -6    0.47    0.12
   5  -1  -6    0.44    0.12
   5  -1  -6    0.37    0.11
   5  -1  -6    0.32    0.13
   4  -1  -6    6.49    0.29
   4  -1  -6    5.55    0.32
   4  -1  -6    6.01    0.42
   4  -1  -6    5.97    0.32
   4  -1  -6    6.54    0.37
  -4   1   6    6.22    0.26
   3  -1  -6    6.46    0.32
   3  -1  -6    5.50    0.33
   3  -1  -6    6.18    0.31
  -3   1   6    5.61    0.26
   2  -1  -6    1.96    0.22
   2  -1  -6    1.75    0.19
   2  -1  -6    1.92    0.18
  -2   1   6    1.81    0.16
   1  -1  -6    4.88    0.28
   1  -1  -6    4.51    0.28
   1  -1  -6    4.52    0.27
  -1   1   6    4.54    0.25
   0  -1  -6   22.08    0.72
   0  -1  -6   21.88    0.67
   0  -1  -6   20.56    0.58
   0  -1  -6   20.90    0.66
   0   1   6   20.98    0.69
   0   1   6   20.74    0.65
   0   1   6   22.52    0.68
  -1  -1  -6   14.61    0.54
  -1  -1  -6   13.94    0.52
  -1  -1  -6   14.03    0.51
   1   1   6   13.46    0.55
   1   1   6   13.92    0.54
   1   1   6   14.25    0.52
  -2  -1  -6   95.45    2.13
  -2  -1  -6   95.96    2.12
   2   1   6   93.02    1.86
   2   1   6   93.98    2.14
   2   1   6   92.51    2.20
   2   1   6   95.07    2.21
  -3  -1  -6    2.35    0.24
  -3  -1  -6    2.75    0.23
   3   1   6    2.60    0.26
   3   1   6    2.58    0.28
   3   1   6    2.54    0.25
   3   1   6    2.33    0.25
  -4  -1  -6    4.44    0.31
  -4  -1  -6    4.91    0.32
   4   1   6    4.49    0.32
   4   1   6    3.64    0.32
   4   1   6    3.95    0.32
  -5  -1  -6    0.51    0.23
  -5  -1  -6    0.39    0.15
   5   1   6    0.18    0.12
   5   1   6    0.39    0.15
  -6  -1  -6    0.02    0.11
   6   1   6   -0.09    0.10
   6   1   6    0.20    0.12
  -7  -1  -6    0.07    0.13
   7   1   6    0.06    0.13
   7   1   6   -0.08    0.11
   8  -2  -6    0.16    0.10
   8  -2  -6    0.17    0.11
   7  -2  -6    0.16    0.10
   7  -2  -6    0.13    0.08
   6  -2  -6    0.88    0.16
   6  -2  -6    0.86    0.19
   6  -2  -6    1.13    0.15
   6  -2  -6    1.09    0.17
   5  -2  -6    1.53    0.19
   5  -2  -6    1.59    0.14
   5  -2  -6    1.45    0.21
   5  -2  -6    1.35    0.18
   4  -2  -6   43.08    0.95
   4  -2  -6   42.09    1.12
   4  -2  -6   43.89    1.11
   4  -2  -6   42.45    1.18
  -4   2   6   41.69    1.00
   3  -2  -6    2.57    0.21
   3  -2  -6    2.81    0.24
   3  -2  -6    2.49    0.21
   3  -2  -6    2.38    0.12
  -3   2   6    2.30    0.17
   2  -2  -6    0.04    0.03
   2  -2  -6    0.03    0.07
   2  -2  -6    0.07    0.08
   2  -2  -6   -0.04    0.05
  -2   2   6    0.34    0.10
   1  -2  -6   32.37    0.75
   1  -2  -6   33.69    0.92
   1  -2  -6   33.40    0.94
   1  -2  -6   32.12    0.96
  -1   2   6   33.41    0.90
   0  -2  -6    1.71    0.14
   0  -2  -6    1.55    0.20
   0  -2  -6    1.51    0.19
   0   2   6    1.43    0.18
   0   2   6    2.13    0.24
  -1  -2  -6   29.91    0.90
  -1  -2  -6   30.62    0.90
   1   2   6   29.84    0.93
   1   2   6   31.19    0.95
   1   2   6   31.14    0.91
   1   2   6   29.87    0.70
  -2  -2  -6    8.15    0.41
  -2  -2  -6    8.21    0.42
   2   2   6    7.66    0.44
   2   2   6    7.83    0.41
   2   2   6    8.27    0.38
  -3  -2  -6   10.93    0.50
  -3  -2  -6   10.61    0.50
   3   2   6   11.75    0.51
   3   2   6   11.31    0.53
  -4  -2  -6    2.89    0.30
  -4  -2  -6    4.38    0.34
   4   2   6    4.33    0.34
   4   2   6    4.08    0.33
  -5  -2  -6    1.37    0.24
   5   2   6    1.84    0.27
   5   2   6    1.74    0.27
  -6  -2  -6    1.86    0.28
   6   2   6    2.06    0.32
   6   2   6    1.57    0.27
   8  -3  -6    1.68    0.24
   8  -3  -6    1.92    0.22
   7  -3  -6    0.29    0.11
   7  -3  -6    0.23    0.10
   6  -3  -6   -0.03    0.10
   6  -3  -6    0.03    0.07
   6  -3  -6    0.07    0.08
   5  -3  -6   10.37    0.44
   5  -3  -6   10.59    0.51
   5  -3  -6   10.43    0.46
   4  -3  -6    0.61    0.13
   4  -3  -6    0.78    0.15
   4  -3  -6    0.61    0.15
  -4   3   6    0.61    0.10
   3  -3  -6    1.33    0.18
   3  -3  -6    1.16    0.20
   3  -3  -6    1.49    0.21
  -3   3   6    1.54    0.17
   2  -3  -6    0.49    0.13
   2  -3  -6    0.87    0.18
   2  -3  -6    0.65    0.14
  -2   3   6    0.81    0.15
   1  -3  -6    5.82    0.21
   1  -3  -6    5.91    0.35
   1  -3  -6    6.34    0.35
  -1   3   6    5.73    0.33
   0  -3  -6    5.28    0.34
   0  -3  -6    5.02    0.24
   0  -3  -6    4.97    0.33
   0   3   6    4.61    0.31
  -1  -3  -6   82.48    1.95
  -1  -3  -6   78.86    1.93
   1   3   6   79.64    1.70
   1   3   6   80.87    1.80
   1   3   6   77.21    1.92
  -2  -3  -6    8.02    0.45
  -2  -3  -6    8.22    0.45
   2   3   6    7.86    0.31
   2   3   6    8.45    0.46
   2   3   6    7.86    0.39
  -3  -3  -6    0.08    0.11
  -3  -3  -6    0.10    0.11
   3   3   6    0.06    0.09
   3   3   6   -0.07    0.09
  -4  -3  -6   20.29    0.80
  -4  -3  -6   20.11    0.79
   4   3   6   19.83    0.82
   4   3   6   20.47    0.80
  -5  -3  -6    5.25    0.42
   5   3   6    5.75    0.45
   5   3   6    4.73    0.41
  -6  -3  -6    8.58    0.55
   6   3   6    7.39    0.55
   6   3   6    8.30    0.57
   8  -4  -6    1.93    0.25
   7  -4  -6    3.55    0.37
   7  -4  -6    4.03    0.27
   7  -4  -6    3.85    0.29
   6  -4  -6   23.79    0.73
   6  -4  -6   22.88    0.84
   6  -4  -6   21.25    0.76
   5  -4  -6   48.88    1.26
   5  -4  -6   49.73    1.34
   5  -4  -6   48.38    1.36
   4  -4  -6   17.57    0.63
   4  -4  -6   18.93    0.70
   4  -4  -6   16.60    0.67
   3  -4  -6    5.50    0.34
   3  -4  -6    6.38    0.39
  -3   4   6    5.96    0.30
   2  -4  -6   13.92    0.59
   2  -4  -6   14.02    0.57
   2  -4  -6   14.09    0.62
  -2   4   6   14.48    0.54
   1  -4  -6   20.64    0.74
   1  -4  -6   21.11    0.80
   1  -4  -6   20.90    0.76
  -1   4   6   20.63    0.72
   0  -4  -6    0.79    0.18
   0  -4  -6    1.09    0.20
   0   4   6    1.22    0.21
  -1  -4  -6  102.18    2.43
  -1  -4  -6  102.08    2.44
   1   4   6  102.99    2.42
   1   4   6  100.56    2.24
  -2  -4  -6    0.32    0.16
  -2  -4  -6    0.17    0.12
   2   4   6    0.22    0.11
   2   4   6    0.32    0.14
  -3  -4  -6   17.93    0.77
  -3  -4  -6   17.53    0.75
   3   4   6   18.52    0.72
   3   4   6   17.40    0.77
  -4  -4  -6    0.63    0.19
  -4  -4  -6    0.33    0.15
   4   4   6    0.34    0.15
   4   4   6    0.47    0.18
  -5  -4  -6    7.05    0.51
   5   4   6    6.33    0.48
   5   4   6    6.46    0.52
   7  -5  -6    0.52    0.15
   7  -5  -6    0.75    0.16
   7  -5  -6    0.85    0.28
   6  -5  -6    2.37    0.25
   6  -5  -6    2.76    0.27
   6  -5  -6    2.28    0.30
   5  -5  -6    1.30    0.23
   5  -5  -6    0.98    0.19
   5  -5  -6    0.84    0.17
   4  -5  -6    2.64    0.28
   4  -5  -6    2.60    0.30
   4  -5  -6    3.02    0.30
   3  -5  -6    3.22    0.29
   3  -5  -6    3.14    0.33
   3  -5  -6    3.15    0.37
   2  -5  -6    1.79    0.25
   2  -5  -6    1.95    0.26
   2  -5  -6    2.11    0.30
  -2   5   6    2.21    0.25
   1  -5  -6    1.41    0.24
   1  -5  -6    1.32    0.24
  -1   5   6    1.04    0.20
   0  -5  -6   44.87    1.34
   0  -5  -6   46.36    1.37
   0   5   6   46.36    1.33
  -1  -5  -6    0.47    0.18
  -1  -5  -6    0.74    0.19
   1   5   6    0.71    0.14
   1   5   6    0.72    0.20
  -2  -5  -6    0.46    0.19
  -2  -5  -6    1.13    0.26
   2   5   6    1.11    0.20
   2   5   6    0.74    0.21
  -3  -5  -6    0.13    0.13
  -3  -5  -6   -0.07    0.11
   3   5   6    0.03    0.11
   3   5   6   -0.08    0.12
  -4  -5  -6    0.07    0.12
  -4  -5  -6    0.09    0.15
   4   5   6    0.15    0.15
   4   5   6    0.36    0.22
   6  -6  -6   11.19    0.51
   6  -6  -6   10.71    0.57
   5  -6  -6   -0.13    0.09
   5  -6  -6    0.02    0.11
   5  -6  -6    0.16    0.12
   4  -6  -6    0.80    0.20
   4  -6  -6    0.71    0.18
   4  -6  -6    1.04    0.23
   3  -6  -6    1.18    0.26
   3  -6  -6    1.09    0.22
   3  -6  -6    0.77    0.20
   2  -6  -6    0.35    0.15
   2  -6  -6    0.51    0.18
   1  -6  -6    2.51    0.33
   1  -6  -6    2.91    0.36
  -1   6   6    3.47    0.37
   0  -6  -6    9.10    0.55
   0  -6  -6    8.58    0.55
   0   6   6    9.64    0.54
  -1  -6  -6    3.50    0.40
  -1  -6  -6    4.08    0.44
   1   6   6    4.80    0.42
  -2  -6  -6    0.05    0.16
  -2  -6  -6    0.54    0.20
   2   6   6    0.60    0.20
  -3  -6  -6    0.45    0.18
   3   6   6    0.57    0.23
   5  -7  -6    0.77    0.20
   5  -7  -6    0.64    0.22
   5  -7  -6    0.70    0.21
   4  -7  -6    0.67    0.20
   4  -7  -6    0.94    0.21
   3  -7  -6    1.81    0.30
   3  -7  -6    2.27    0.31
   2  -7  -6    1.52    0.28
   2  -7  -6    1.73    0.29
   1  -7  -6    1.44    0.28
   1  -7  -6    1.48    0.29
   0  -7  -6   10.31    0.64
   0  -7  -6   10.23    0.63
   0   7   6    8.30    0.87
  -1  -7  -6    0.04    0.16
  -1  -7  -6    0.36    0.19
   1   7   6   -0.10    0.15
   1  -9   7    2.61    0.36
   1  -9   7    2.64    0.38
   2  -9   7    0.34    0.20
   2  -9   7    0.35    0.16
   3  -9   7    3.69    0.46
   3  -9   7    2.68    0.34
  -2  -8   7   -0.05    0.11
  -1  -8   7    0.32    0.16
  -1  -8   7    0.21    0.18
   0  -8   7   -0.01    0.11
   0  -8   7    0.02    0.13
   1  -8   7   16.08    0.74
   1  -8   7   14.85    0.69
   2  -8   7    0.87    0.23
   2  -8   7    0.42    0.16
   3  -8   7    0.47    0.16
   3  -8   7    0.54    0.19
   4  -8   7    0.00    0.12
   4  -8   7    0.01    0.11
   4  -8   7   -0.03    0.08
   5  -8   7    0.66    0.21
   5  -8   7    1.21    0.21
   5  -8   7    1.12    0.23
   4   7  -7    0.75    0.26
  -4  -7   7    1.12    0.26
   3   7  -7    0.53    0.21
  -3  -7   7    0.09    0.13
   2   7  -7    0.27    0.18
  -2  -7   7    0.55    0.18
   1   7  -7    0.56    0.21
  -1  -7   7    0.63    0.18
   0   7  -7   -0.22    0.10
   0  -7   7    0.03    0.10
  -1   7  -7    0.43    0.17
   1  -7   7    0.04    0.13
   1  -7   7    0.44    0.15
   2  -7   7    0.12    0.11
   2  -7   7   -0.01    0.09
   2  -7   7    0.19    0.15
   3  -7   7    0.52    0.18
   3  -7   7    0.88    0.18
   3  -7   7    0.60    0.18
   4  -7   7    0.22    0.11
   4  -7   7    0.50    0.16
   4  -7   7    0.51    0.19
   5  -7   7    0.16    0.14
   5  -7   7    0.00    0.08
   5  -7   7    0.06    0.10
   6  -7   7    8.40    0.53
   6  -7   7    7.32    0.38
   6  -7   7    7.33    0.44
   5   6  -7   -0.05    0.17
   5   6  -7   -0.13    0.18
  -5  -6   7    0.14    0.14
   4   6  -7    0.43    0.21
  -4  -6   7    0.17    0.13
   3   6  -7    2.54    0.39
  -3  -6   7    2.35    0.31
   2   6  -7    0.15    0.15
  -2  -6   7    0.14    0.11
   1   6  -7    5.86    0.43
  -1  -6   7    5.43    0.39
   0   6  -7    6.15    0.42
   0  -6   7    7.29    0.42
  -1   6  -7    1.79    0.25
   1  -6   7    1.52    0.22
   1  -6   7    1.95    0.27
  -2   6  -7   11.18    0.50
   2  -6   7   11.43    0.51
   2  -6   7   12.03    0.57
   2  -6   7   11.80    0.56
   3  -6   7   15.36    0.66
   3  -6   7   15.74    0.59
   3  -6   7   15.49    0.65
   4  -6   7    8.40    0.45
   4  -6   7    8.30    0.47
   4  -6   7    8.95    0.42
   5  -6   7    0.33    0.12
   5  -6   7    0.29    0.14
   5  -6   7    0.32    0.11
   6  -6   7   20.97    0.77
   6  -6   7   23.72    0.71
   6  -6   7   22.26    0.86
   7  -6   7    0.76    0.14
   7  -6   7    0.94    0.22
   7  -6   7    0.76    0.17
   7  -6   7    0.76    0.23
   6   5  -7    0.10    0.26
   6   5  -7    0.35    0.21
   6   5  -7    0.27    0.25
   5   5  -7    0.01    0.16
  -5  -5   7   -0.08    0.10
   4   5  -7    1.86    0.31
  -4  -5   7    1.77    0.26
   3   5  -7   -0.03    0.14
  -3  -5   7   -0.18    0.07
   2   5  -7   -0.12    0.11
  -2  -5   7   -0.05    0.09
   1   5  -7    1.89    0.27
  -1  -5   7    1.53    0.22
   0   5  -7    0.10    0.12
   0  -5   7    0.11    0.10
   0  -5   7    0.03    0.08
  -1   5  -7    1.12    0.19
   1  -5   7    1.34    0.22
   1  -5   7    0.75    0.15
  -2   5  -7    0.62    0.15
   2  -5   7    0.60    0.15
   2  -5   7    0.47    0.12
   2  -5   7    0.67    0.15
  -3   5  -7    0.07    0.08
   3  -5   7    0.04    0.07
   3  -5   7    0.02    0.10
   3  -5   7    0.09    0.07
   4  -5   7    1.24    0.20
   4  -5   7    1.19    0.18
   4  -5   7    0.91    0.18
   5  -5   7    2.07    0.23
   5  -5   7    1.96    0.25
   5  -5   7    1.82    0.24
   6  -5   7    0.09    0.09
   6  -5   7    0.14    0.10
   6  -5   7    0.02    0.10
   7  -5   7   -0.02    0.07
   7  -5   7   -0.07    0.06
   7  -5   7    0.11    0.15
   7  -5   7    0.01    0.10
   6   4  -7    0.02    0.16
   6   4  -7   -0.11    0.14
   6   4  -7   -0.01    0.15
   5   4  -7    1.28    0.28
  -5  -4   7    0.94    0.20
   4   4  -7   12.48    0.63
  -4  -4   7   12.84    0.57
   3   4  -7    1.04    0.21
  -3  -4   7    1.47    0.22
   2   4  -7    0.24    0.13
  -2  -4   7    0.48    0.14
   1   4  -7   19.33    0.72
  -1  -4   7   20.54    0.69
  -1  -4   7   20.31    0.73
   0   4  -7    2.29    0.26
   0  -4   7    2.35    0.23
   0  -4   7    2.42    0.26
  -1   4  -7    0.80    0.16
   1  -4   7    0.81    0.14
   1  -4   7    0.85    0.17
  -2   4  -7   46.21    1.19
   2  -4   7   47.06    1.21
   2  -4   7   47.56    1.27
   2  -4   7   46.82    1.06
  -3   4  -7    0.24    0.10
   3  -4   7    0.32    0.06
   3  -4   7    0.38    0.12
   3  -4   7    0.38    0.12
   3  -4   7    0.37    0.13
   4  -4   7    0.59    0.13
   4  -4   7    0.59    0.14
   4  -4   7    1.02    0.17
   5  -4   7    0.36    0.11
   5  -4   7    0.40    0.12
   5  -4   7    0.42    0.12
   6  -4   7    0.30    0.10
   6  -4   7    0.52    0.14
   6  -4   7    0.28    0.11
   7  -4   7    0.18    0.09
   7  -4   7    0.18    0.13
   7  -4   7    0.23    0.11
   7   3  -7   -0.01    0.13
   7   3  -7   -0.04    0.15
   7   3  -7   -0.04    0.18
   6   3  -7    0.10    0.14
   6   3  -7    0.01    0.14
   6   3  -7    0.17    0.18
   5   3  -7    0.68    0.20
   5   3  -7    1.25    0.35
  -5  -3   7    1.44    0.22
   4   3  -7    0.24    0.14
  -4  -3   7    0.14    0.10
   3   3  -7    2.82    0.26
   3   3  -7    2.99    0.33
  -3  -3   7    2.82    0.24
   2   3  -7    4.15    0.38
   2   3  -7    4.93    0.33
  -2  -3   7    4.85    0.31
  -2  -3   7    4.73    0.30
   1   3  -7    0.28    0.10
   1   3  -7    0.04    0.10
  -1  -3   7    0.23    0.10
  -1  -3   7    0.35    0.12
   0   3  -7    0.84    0.16
   0  -3   7    0.48    0.12
   0  -3   7    0.73    0.13
  -1   3  -7    5.39    0.31
  -1   3  -7    5.52    0.27
   1  -3   7    5.19    0.30
   1  -3   7    5.71    0.33
  -2   3  -7    0.13    0.08
  -2   3  -7    0.02    0.05
   2  -3   7    0.02    0.05
   2  -3   7   -0.02    0.06
   2  -3   7    0.05    0.05
  -3   3  -7    0.45    0.08
  -3   3  -7    0.59    0.13
   3  -3   7    0.45    0.12
   3  -3   7    0.55    0.12
   3  -3   7    0.51    0.12
  -4   3  -7    0.28    0.06
  -4   3  -7    0.30    0.10
   4  -3   7    0.18    0.09
   4  -3   7    0.45    0.12
   4  -3   7    0.22    0.10
   5  -3   7    0.38    0.11
   5  -3   7    0.53    0.14
   5  -3   7    0.24    0.10
   6  -3   7    1.28    0.22
   6  -3   7    1.28    0.18
   6  -3   7    1.18    0.21
   6  -3   7    1.32    0.19
   7  -3   7   10.33    0.53
   7  -3   7   10.53    0.46
   7   2  -7    0.57    0.28
   7   2  -7    0.79    0.23
   7   2  -7    0.49    0.18
   6   2  -7    1.28    0.23
   6   2  -7    1.60    0.28
   6   2  -7    1.33    0.34
   5   2  -7   28.09    1.18
   5   2  -7   29.32    0.97
   5   2  -7   28.43    0.99
  -5  -2   7   28.56    0.86
   4   2  -7    0.86    0.19
   4   2  -7    0.80    0.25
   4   2  -7    0.78    0.18
  -4  -2   7    0.68    0.14
   3   2  -7   16.49    0.64
   3   2  -7   16.33    0.64
  -3  -2   7   18.03    0.60
   2   2  -7    1.13    0.17
   2   2  -7    1.50    0.20
  -2  -2   7    1.34    0.17
   1   2  -7    0.97    0.17
   1   2  -7    1.33    0.18
   1   2  -7    1.17    0.17
  -1  -2   7    1.64    0.22
  -1  -2   7    1.27    0.16
   0   2  -7    0.02    0.07
   0   2  -7   -0.07    0.06
   0   2  -7    0.07    0.06
   0  -2   7    0.10    0.07
   0  -2   7    0.04    0.06
  -1   2  -7   37.57    1.02
  -1   2  -7   38.60    0.96
   1  -2   7   38.02    1.05
   1  -2   7   39.44    1.01
  -2   2  -7    3.80    0.22
  -2   2  -7    3.86    0.26
   2  -2   7    4.40    0.28
   2  -2   7    4.36    0.32
   2  -2   7    3.88    0.25
  -3   2  -7    5.52    0.26
  -3   2  -7    5.35    0.30
   3  -2   7    5.67    0.26
   3  -2   7    5.06    0.32
   3  -2   7    5.69    0.31
  -4   2  -7    1.77    0.19
  -4   2  -7    1.96    0.16
   4  -2   7    1.71    0.20
   4  -2   7    1.87    0.16
   4  -2   7    2.04    0.26
  -5   2  -7    0.04    0.07
   5  -2   7    0.07    0.08
   5  -2   7    0.15    0.08
   5  -2   7    0.13    0.10
   6  -2   7   10.01    0.49
   6  -2   7    8.34    0.47
   6  -2   7    9.29    0.44
   7  -2   7    7.95    0.49
   7  -2   7    8.20    0.43
   7  -2   7    7.32    0.47
   8   1  -7    0.08    0.14
   8   1  -7   -0.08    0.11
   8   1  -7    0.26    0.23
   7   1  -7    0.39    0.16
   7   1  -7    0.49    0.18
   7   1  -7    0.30    0.20
   6   1  -7    0.68    0.26
   6   1  -7    0.22    0.14
   6   1  -7    0.57    0.16
   6   1  -7    0.63    0.17
   5   1  -7    0.09    0.10
   5   1  -7    0.00    0.08
   5   1  -7   -0.05    0.12
  -5  -1   7    0.17    0.08
   4   1  -7    0.11    0.09
   4   1  -7   -0.05    0.08
   4   1  -7    0.10    0.11
  -4  -1   7    0.01    0.06
   3   1  -7   20.92    0.81
   3   1  -7   20.98    0.72
   3   1  -7   20.58    0.71
   3   1  -7   21.24    0.71
  -3  -1   7   19.70    0.63
   2   1  -7   10.96    0.46
   2   1  -7   10.07    0.45
   2   1  -7    9.94    0.44
  -2  -1   7   10.49    0.41
   1   1  -7    3.13    0.25
   1   1  -7    2.92    0.23
  -1  -1   7    3.13    0.22
  -1  -1   7    3.30    0.22
   0   1  -7   10.95    0.44
   0   1  -7    9.50    0.42
   0   1  -7   10.27    0.41
   0  -1   7    9.68    0.41
  -1   1  -7    0.66    0.14
  -1   1  -7    0.48    0.11
   1  -1   7    0.78    0.14
   1  -1   7    0.65    0.13
  -2   1  -7   19.97    0.66
  -2   1  -7   21.54    0.64
   2  -1   7   21.89    0.72
   2  -1   7   21.37    0.67
  -3   1  -7   37.99    0.97
  -3   1  -7   36.46    1.00
   3  -1   7   37.44    1.02
   3  -1   7   38.61    1.09
   3  -1   7   36.74    0.87
  -4   1  -7    7.86    0.37
  -4   1  -7    7.72    0.35
   4  -1   7    6.76    0.38
   4  -1   7    7.84    0.43
   4  -1   7    7.53    0.27
  -5   1  -7    0.29    0.11
   5  -1   7    0.23    0.12
   5  -1   7    0.27    0.10
   5  -1   7    0.29    0.13
   5  -1   7    0.27    0.11
   6  -1   7    4.01    0.31
   6  -1   7    3.92    0.34
   6  -1   7    4.00    0.35
   7  -1   7    0.01    0.10
   7  -1   7    0.04    0.10
   8   0  -7    5.16    0.39
   8   0  -7    4.96    0.41
   7   0  -7   -0.03    0.09
   7   0  -7   -0.07    0.13
   7   0  -7    0.07    0.12
   7   0  -7   -0.09    0.08
   6   0  -7    2.45    0.25
   6   0  -7    2.55    0.29
   6   0  -7    1.98    0.37
   6   0  -7    2.88    0.30
   5   0  -7    1.81    0.23
   5   0  -7    1.94    0.33
   5   0  -7    2.24    0.24
   5   0  -7    2.32    0.26
  -5   0   7    2.45    0.30
   4   0  -7    1.90    0.24
   4   0  -7    1.63    0.21
   4   0  -7    1.61    0.24
   4   0  -7    1.56    0.28
  -4   0   7    1.39    0.16
   3   0  -7   76.09    1.77
   3   0  -7   74.63    1.78
   3   0  -7   74.05    1.81
   3   0  -7   74.40    1.87
  -3   0   7   72.43    1.68
   2   0  -7   14.80    0.56
   2   0  -7   15.45    0.57
   2   0  -7   16.00    0.56
   2   0  -7   14.61    0.56
  -2   0   7   15.41    0.51
   1   0  -7    9.03    0.34
   1   0  -7    8.49    0.39
   1   0  -7    8.88    0.40
  -1   0   7    9.14    0.40
  -1   0   7    8.14    0.37
   0   0  -7   42.48    1.09
   0   0  -7   41.80    1.13
   0   0  -7   43.30    1.12
   0   0  -7   41.50    0.90
   0   0   7   41.71    1.09
  -1   0  -7   12.23    0.49
  -1   0  -7   12.83    0.48
   1   0   7   12.56    0.49
   1   0   7   12.66    0.52
  -2   0  -7   12.52    0.51
  -2   0  -7   14.14    0.51
   2   0   7   12.80    0.55
   2   0   7   13.50    0.52
  -3   0  -7    3.86    0.27
  -3   0  -7    4.33    0.29
   3   0   7    4.50    0.33
   3   0   7    4.20    0.32
   3   0   7    4.60    0.31
   3   0   7    4.10    0.15
  -4   0  -7    0.02    0.09
  -4   0  -7    0.06    0.09
   4   0   7   -0.05    0.07
   4   0   7    0.04    0.09
   4   0   7    0.11    0.10
  -5   0  -7    0.89    0.17
   5   0   7    1.17    0.23
   5   0   7    0.59    0.16
   5   0   7    1.22    0.23
  -6   0  -7    3.46    0.29
   6   0   7    3.75    0.38
   7   0   7    0.25    0.15
   8  -1  -7    0.03    0.09
   8  -1  -7    0.09    0.12
   7  -1  -7    4.24    0.54
   7  -1  -7    4.04    0.33
   7  -1  -7    4.98    0.34
   6  -1  -7    2.85    0.25
   6  -1  -7    2.79    0.27
   6  -1  -7    2.27    0.26
   5  -1  -7   14.66    0.58
   5  -1  -7   15.51    0.65
   5  -1  -7   15.87    0.62
   5  -1  -7   15.62    0.54
   4  -1  -7   47.15    1.23
   4  -1  -7   46.65    1.29
   4  -1  -7   46.10    1.20
  -4   1   7   42.99    1.09
   3  -1  -7    5.16    0.32
   3  -1  -7    5.65    0.35
   3  -1  -7    4.85    0.31
  -3   1   7    5.22    0.27
   2  -1  -7    9.34    0.44
   2  -1  -7    9.94    0.45
   2  -1  -7    9.49    0.43
  -2   1   7    9.87    0.39
   1  -1  -7    2.62    0.23
   1  -1  -7    2.94    0.24
   1  -1  -7    2.35    0.22
  -1   1   7    2.72    0.22
   0  -1  -7    0.97    0.15
   0  -1  -7    0.95    0.16
   0  -1  -7    0.94    0.13
   0  -1  -7    0.79    0.15
   0   1   7    1.12    0.18
   0   1   7    0.92    0.18
   0   1   7    1.15    0.18
  -1  -1  -7    0.04    0.08
  -1  -1  -7   -0.05    0.08
   1   1   7    0.16    0.11
   1   1   7    0.16    0.10
   1   1   7    0.07    0.09
  -2  -1  -7   63.92    1.59
  -2  -1  -7   63.43    1.57
   2   1   7   62.45    1.30
   2   1   7   60.86    1.64
   2   1   7   69.61    1.91
   2   1   7   62.42    1.59
  -3  -1  -7    0.22    0.12
  -3  -1  -7    0.15    0.10
   3   1   7    0.24    0.13
   3   1   7    0.02    0.10
   3   1   7   -0.08    0.09
  -4  -1  -7    0.22    0.13
  -4  -1  -7    0.31    0.14
   4   1   7    0.18    0.12
   4   1   7    0.13    0.10
  -5  -1  -7    2.59    0.30
   5   1   7    2.44    0.31
   5   1   7    2.52    0.30
  -6  -1  -7    0.04    0.12
   6   1   7    0.01    0.13
   6   1   7    0.07    0.13
   8  -2  -7    5.26    0.35
   8  -2  -7    5.51    0.39
   7  -2  -7    0.23    0.11
   7  -2  -7    0.32    0.13
   6  -2  -7   14.12    0.60
   6  -2  -7   14.32    0.56
   6  -2  -7   14.89    0.66
   5  -2  -7   26.23    0.91
   5  -2  -7   25.89    0.85
   5  -2  -7   27.05    0.82
   5  -2  -7   25.99    0.69
   4  -2  -7  111.04    2.57
   4  -2  -7  111.85    2.53
   4  -2  -7  111.43    2.28
   4  -2  -7  112.60    2.49
  -4   2   7  111.69    2.37
   3  -2  -7   35.23    1.05
   3  -2  -7   34.86    1.04
   3  -2  -7   37.23    1.01
  -3   2   7   35.44    0.93
   2  -2  -7    0.13    0.10
   2  -2  -7    0.13    0.05
   2  -2  -7    0.24    0.11
   2  -2  -7    0.09    0.10
  -2   2   7    0.20    0.09
   1  -2  -7   50.97    1.31
   1  -2  -7   50.01    1.35
   1  -2  -7   49.55    1.11
  -1   2   7   49.50    1.27
   0  -2  -7    5.08    0.33
   0  -2  -7    4.45    0.32
   0  -2  -7    5.23    0.25
   0   2   7    4.69    0.31
   0   2   7    4.99    0.33
  -1  -2  -7   20.63    0.73
  -1  -2  -7   22.53    0.75
   1   2   7   21.25    0.54
   1   2   7   20.19    0.73
   1   2   7   20.99    0.77
  -2  -2  -7   76.06    1.87
  -2  -2  -7   76.37    1.87
   2   2   7   76.54    1.89
  -3  -2  -7    8.03    0.45
  -3  -2  -7    7.69    0.44
   3   2   7    8.04    0.43
   3   2   7    7.65    0.45
  -4  -2  -7   12.66    0.59
  -4  -2  -7   12.36    0.58
   4   2   7   12.84    0.62
   4   2   7   12.85    0.60
  -5  -2  -7    3.47    0.37
   5   2   7    3.73    0.40
   5   2   7    3.49    0.39
  -6  -2  -7    6.90    0.48
   6   2   7    8.02    0.53
   6   2   7    8.12    0.55
   8  -3  -7    1.21    0.22
   7  -3  -7    5.17    0.33
   7  -3  -7    5.04    0.35
   7  -3  -7    5.26    0.41
   6  -3  -7    2.11    0.29
   6  -3  -7    2.20    0.25
   6  -3  -7    2.36    0.28
   5  -3  -7   30.74    0.97
   5  -3  -7   30.37    0.91
   5  -3  -7   30.68    1.01
   4  -3  -7   13.25    0.58
   4  -3  -7   13.72    0.54
   4  -3  -7   12.82    0.59
   3  -3  -7    0.95    0.18
   3  -3  -7    1.21    0.19
   3  -3  -7    1.25    0.21
  -3   3   7    1.28    0.17
   2  -3  -7   35.90    1.06
   2  -3  -7   34.04    1.01
   2  -3  -7   35.46    1.08
  -2   3   7   33.80    0.96
   1  -3  -7    0.62    0.16
   1  -3  -7    0.62    0.17
   1  -3  -7    0.75    0.09
  -1   3   7    0.74    0.15
   0  -3  -7   47.90    1.34
   0  -3  -7   49.00    1.15
   0  -3  -7   48.49    1.34
   0   3   7   50.65    1.33
  -1  -3  -7   90.53    2.21
  -1  -3  -7   91.22    2.20
   1   3   7   92.98    2.21
  -2  -3  -7   54.53    1.48
  -2  -3  -7   51.13    1.45
   2   3   7   53.17    1.48
   2   3   7   52.02    1.36
  -3  -3  -7   17.23    0.72
  -3  -3  -7   17.90    0.74
   3   3   7   17.68    0.69
   3   3   7   15.94    0.72
  -4  -3  -7    9.71    0.56
  -4  -3  -7   10.25    0.56
   4   3   7    9.78    0.54
   4   3   7   11.31    0.60
  -5  -3  -7   12.80    0.67
   5   3   7   13.18    0.69
   5   3   7   12.04    0.64
   7  -4  -7   -0.02    0.09
   7  -4  -7    0.12    0.10
   7  -4  -7    0.11    0.14
   6  -4  -7    0.76    0.18
   6  -4  -7    1.15    0.18
   6  -4  -7    1.36    0.24
   5  -4  -7   36.64    1.15
   5  -4  -7   35.67    1.13
   5  -4  -7   36.96    1.05
   4  -4  -7    6.32    0.38
   4  -4  -7    6.59    0.43
   4  -4  -7    7.17    0.44
   3  -4  -7    5.37    0.37
   3  -4  -7    4.95    0.35
  -3   4   7    5.07    0.30
   2  -4  -7    6.89    0.42
   2  -4  -7    6.73    0.41
  -2   4   7    6.68    0.37
   1  -4  -7    8.02    0.46
   1  -4  -7    7.83    0.46
  -1   4   7    8.89    0.45
   0  -4  -7    5.94    0.41
   0  -4  -7    6.01    0.40
   0   4   7    5.73    0.39
  -1  -4  -7    0.02    0.13
  -1  -4  -7   -0.10    0.11
   1   4   7   -0.02    0.12
  -2  -4  -7    2.59    0.33
  -2  -4  -7    2.55    0.33
   2   4   7    2.95    0.29
   2   4   7    3.01    0.36
  -3  -4  -7    9.19    0.54
  -3  -4  -7    7.50    0.50
   3   4   7    8.77    0.47
   3   4   7    7.20    0.51
  -4  -4  -7    0.53    0.19
  -4  -4  -7    0.21    0.15
   4   4   7    0.48    0.18
   4   4   7    0.75    0.23
   6  -5  -7    4.99    0.40
   6  -5  -7    4.35    0.33
   6  -5  -7    4.03    0.35
   5  -5  -7    6.38    0.44
   5  -5  -7    5.03    0.36
   5  -5  -7    5.08    0.39
   4  -5  -7    2.42    0.29
   4  -5  -7    2.14    0.31
   3  -5  -7    9.28    0.50
   3  -5  -7    8.94    0.52
   2  -5  -7    5.39    0.39
   2  -5  -7    5.32    0.40
  -2   5   7    5.78    0.37
   1  -5  -7    0.15    0.13
   1  -5  -7    0.54    0.18
  -1   5   7    0.50    0.16
   0  -5  -7    0.37    0.16
   0  -5  -7    0.58    0.19
   0   5   7    0.54    0.18
  -1  -5  -7    2.06    0.32
  -1  -5  -7    2.62    0.35
   1   5   7    2.53    0.34
  -2  -5  -7    0.27    0.16
  -2  -5  -7    0.34    0.18
   2   5   7    0.38    0.18
   2   5   7    0.34    0.21
  -3  -5  -7    4.54    0.48
  -3  -5  -7    4.00    0.43
   3   5   7    4.30    0.36
   3   5   7    4.71    0.48
   5  -6  -7    0.49    0.18
   5  -6  -7    0.04    0.12
   4  -6  -7    4.36    0.39
   4  -6  -7    4.62    0.38
   3  -6  -7    0.20    0.14
   3  -6  -7    0.07    0.13
   2  -6  -7    0.73    0.21
   2  -6  -7    1.12    0.23
   1  -6  -7    4.71    0.48
   1  -6  -7    4.69    0.42
  -1   6   7    4.62    0.52
   0  -6  -7    0.37    0.17
   0  -6  -7    0.49    0.20
   0   6   7    0.29    0.16
  -1  -6  -7    2.84    0.38
  -1  -6  -7    2.62    0.37
   1   6   7    2.29    0.34
  -2  -6  -7    0.01    0.15
  -2  -6  -7    0.06    0.15
   2   6   7    0.20    0.15
   3  -7  -7   -0.04    0.14
   3  -7  -7   -0.04    0.13
   2  -7  -7    0.63    0.21
   2  -7  -7    0.63    0.22
   1  -7  -7   -0.12    0.13
   1  -7  -7   -0.06    0.15
   2   8  -8    0.89    0.28
  -2  -8   8    0.97    0.26
   1   8  -8   -0.12    0.15
  -1  -8   8    0.07    0.13
   0   8  -8    3.57    0.46
   0  -8   8    2.85    0.37
   0  -8   8    2.58    0.35
   1  -8   8    9.10    0.54
   1  -8   8    8.17    0.53
   2  -8   8    0.92    0.20
   2  -8   8    0.66    0.21
   3  -8   8    1.11    0.23
   3  -8   8    0.83    0.23
   4  -8   8    8.74    0.57
   4  -8   8    8.82    0.49
   5  -8   8    0.19    0.13
   5  -8   8    0.12    0.16
   3   7  -8    0.87    0.27
  -3  -7   8    0.78    0.21
   2   7  -8    1.14    0.29
  -2  -7   8    1.07    0.25
   1   7  -8    0.30    0.18
  -1  -7   8    0.52    0.17
   0   7  -8    0.06    0.15
   0  -7   8   -0.06    0.10
  -1   7  -8    1.07    0.21
   1  -7   8    1.02    0.24
   1  -7   8    1.27    0.22
   2  -7   8   -0.05    0.11
   2  -7   8    0.08    0.09
   3  -7   8    4.20    0.36
   3  -7   8    4.04    0.33
   3  -7   8    3.42    0.39
   4  -7   8    0.00    0.09
   4  -7   8    0.08    0.14
   4  -7   8    0.23    0.12
   5  -7   8    0.04    0.09
   5  -7   8    0.02    0.13
   5  -7   8   -0.05    0.09
   6  -7   8    2.56    0.28
   6  -7   8    2.37    0.32
   6  -7   8    2.68    0.36
   4   6  -8    0.46    0.22
  -4  -6   8    0.87    0.21
   3   6  -8   29.54    1.13
  -3  -6   8   30.64    1.06
   2   6  -8    2.03    0.32
  -2  -6   8    1.88    0.28
   1   6  -8    4.79    0.41
  -1  -6   8    4.75    0.37
   0   6  -8   21.84    0.83
   0  -6   8   20.61    0.78
  -1   6  -8    2.58    0.30
   1  -6   8    2.33    0.28
  -2   6  -8    5.08    0.36
   2  -6   8    5.62    0.40
   2  -6   8    5.32    0.39
   2  -6   8    5.58    0.36
   3  -6   8   11.23    0.57
   3  -6   8   11.63    0.52
   3  -6   8   11.24    0.56
   4  -6   8    5.20    0.39
   4  -6   8    5.11    0.37
   4  -6   8    6.42    0.37
   5  -6   8    0.08    0.10
   5  -6   8    0.00    0.11
   5  -6   8    0.32    0.12
   6  -6   8    0.87    0.16
   6  -6   8    0.57    0.18
   6  -6   8    0.52    0.15
   5   5  -8   -0.04    0.16
  -5  -5   8    0.01    0.12
   4   5  -8    0.98    0.26
  -4  -5   8    0.81    0.20
   3   5  -8    2.66    0.36
  -3  -5   8    2.23    0.29
   2   5  -8    0.58    0.19
  -2  -5   8    0.75    0.17
   1   5  -8    0.38    0.17
  -1  -5   8    0.44    0.15
   0   5  -8    1.63    0.25
   0  -5   8    0.95    0.18
  -1   5  -8    4.72    0.35
   1  -5   8    4.80    0.33
   1  -5   8    4.75    0.35
  -2   5  -8    2.08    0.25
   2  -5   8    2.01    0.25
   2  -5   8    1.80    0.23
   3  -5   8    7.25    0.42
   3  -5   8    6.46    0.40
   3  -5   8    7.71    0.40
   4  -5   8    0.30    0.11
   4  -5   8    0.36    0.14
   4  -5   8    0.47    0.14
   5  -5   8    3.64    0.31
   5  -5   8    3.35    0.29
   5  -5   8    4.21    0.29
   6  -5   8    2.19    0.27
   6  -5   8    2.26    0.25
   6  -5   8    2.08    0.27
   7  -5   8   -0.04    0.08
   7  -5   8    0.02    0.08
   7  -5   8    0.28    0.16
   6   4  -8    0.07    0.20
   6   4  -8    0.07    0.16
   6   4  -8    0.01    0.16
   5   4  -8    2.13    0.34
  -5  -4   8    1.66    0.25
   4   4  -8   14.69    0.72
  -4  -4   8   14.92    0.64
   3   4  -8    1.06    0.22
  -3  -4   8    1.37    0.20
   2   4  -8    4.47    0.37
  -2  -4   8    4.23    0.32
   1   4  -8    1.06    0.20
  -1  -4   8    1.64    0.22
   0   4  -8    1.24    0.20
   0  -4   8    1.67    0.25
   0  -4   8    1.02    0.17
  -1   4  -8    0.26    0.13
   1  -4   8    0.20    0.10
   1  -4   8    0.39    0.13
  -2   4  -8   49.80    1.28
   2  -4   8   47.75    1.34
   2  -4   8   49.83    1.29
  -3   4  -8    0.57    0.14
   3  -4   8    0.43    0.13
   3  -4   8    0.59    0.14
   3  -4   8    0.41    0.12
   4  -4   8   19.72    0.72
   4  -4   8   20.81    0.70
   4  -4   8   20.39    0.68
   5  -4   8    0.08    0.08
   5  -4   8    0.06    0.08
   5  -4   8    0.00    0.08
   6  -4   8    6.69    0.36
   6  -4   8    5.77    0.39
   6  -4   8    6.92    0.39
   7  -4   8    5.15    0.41
   7  -4   8    4.83    0.36
   7  -4   8    5.35    0.32
   7   3  -8    0.87    0.34
   7   3  -8    1.49    0.32
   7   3  -8    1.42    0.30
   6   3  -8    3.31    0.53
   6   3  -8    4.31    0.44
   6   3  -8    3.71    0.42
   5   3  -8    0.49    0.24
   5   3  -8    0.58    0.20
  -5  -3   8    0.61    0.15
   4   3  -8    7.37    0.47
  -4  -3   8    7.31    0.40
   3   3  -8    5.52    0.39
  -3  -3   8    5.49    0.34
   2   3  -8    0.84    0.19
  -2  -3   8    1.33    0.20
   1   3  -8    5.63    0.36
   1   3  -8    5.02    0.33
  -1  -3   8    6.20    0.35
   0   3  -8    0.14    0.09
   0   3  -8    0.12    0.11
   0  -3   8    0.15    0.10
   0  -3   8    0.05    0.09
  -1   3  -8   21.27    0.72
  -1   3  -8   21.10    0.65
   1  -3   8   21.92    0.71
   1  -3   8   22.39    0.76
  -2   3  -8    0.04    0.07
  -2   3  -8    0.02    0.09
   2  -3   8    0.08    0.08
   2  -3   8    0.06    0.07
  -3   3  -8    9.81    0.43
  -3   3  -8    9.92    0.36
   3  -3   8   10.53    0.42
   3  -3   8    9.78    0.44
   3  -3   8    9.87    0.48
  -4   3  -8    6.73    0.27
   4  -3   8    6.89    0.36
   4  -3   8    6.46    0.33
   4  -3   8    6.57    0.39
   5  -3   8    5.05    0.32
   5  -3   8    4.92    0.29
   5  -3   8    4.56    0.34
   6  -3   8    7.14    0.41
   6  -3   8    6.78    0.43
   6  -3   8    7.28    0.40
   7  -3   8    0.13    0.12
   7  -3   8    0.22    0.12
   7   2  -8    0.98    0.25
   7   2  -8    1.25    0.25
   7   2  -8    0.92    0.32
   6   2  -8   -0.03    0.16
   6   2  -8    0.18    0.16
   6   2  -8    0.12    0.14
   5   2  -8   12.30    0.76
   5   2  -8   12.36    0.60
  -5  -2   8   11.47    0.50
   4   2  -8    2.07    0.27
   4   2  -8    2.00    0.36
  -4  -2   8    1.89    0.23
   3   2  -8   22.95    0.80
   3   2  -8   21.83    0.80
  -3  -2   8   22.81    0.73
   2   2  -8    3.34    0.27
   2   2  -8    3.28    0.29
  -2  -2   8    3.53    0.25
   1   2  -8    2.38    0.27
   1   2  -8    1.55    0.22
   1   2  -8    2.06    0.23
  -1  -2   8    1.82    0.22
  -1  -2   8    2.31    0.28
   0   2  -8   35.60    1.01
   0   2  -8   35.00    0.96
   0  -2   8   34.96    0.97
   0  -2   8   34.31    1.01
  -1   2  -8    9.48    0.40
  -1   2  -8    9.44    0.44
   1  -2   8   10.06    0.44
   1  -2   8   11.02    0.48
  -2   2  -8   21.23    0.70
  -2   2  -8   21.68    0.65
   2  -2   8   22.71    0.71
   2  -2   8   20.64    0.74
  -3   2  -8    8.85    0.36
  -3   2  -8    9.31    0.42
   3  -2   8    8.83    0.42
   3  -2   8    8.13    0.43
   3  -2   8    8.78    0.35
  -4   2  -8   50.91    1.20
  -4   2  -8   49.46    1.26
   4  -2   8   49.96    1.30
   4  -2   8   48.92    1.17
   4  -2   8   47.39    1.36
   5  -2   8    2.39    0.31
   5  -2   8    2.10    0.25
   6  -2   8    3.60    0.30
   6  -2   8    3.21    0.32
   7  -2   8    0.08    0.12
   7  -2   8   -0.06    0.09
   7   1  -8    2.01    0.30
   7   1  -8    2.50    0.33
   7   1  -8    1.80    0.42
   6   1  -8    3.66    0.53
   6   1  -8    3.28    0.34
   6   1  -8    3.98    0.34
   5   1  -8    0.35    0.13
   5   1  -8    0.62    0.18
   5   1  -8    0.70    0.24
  -5  -1   8    0.66    0.17
   4   1  -8   16.26    0.67
   4   1  -8   16.87    0.79
   4   1  -8   16.63    0.66
  -4  -1   8   16.16    0.58
   3   1  -8   17.60    0.67
   3   1  -8   16.51    0.67
   3   1  -8   18.22    0.75
   3   1  -8   17.65    0.66
  -3  -1   8   17.02    0.60
   2   1  -8    4.78    0.33
   2   1  -8    5.43    0.36
   2   1  -8    5.06    0.33
   2   1  -8    5.42    0.35
  -2  -1   8    4.98    0.30
   1   1  -8    0.08    0.09
   1   1  -8    0.06    0.06
   1   1  -8    0.02    0.09
  -1  -1   8   -0.06    0.06
  -1  -1   8    0.02    0.05
   0   1  -8    1.26    0.18
   0   1  -8    1.34    0.18
   0   1  -8    1.23    0.18
   0  -1   8    1.59    0.19
   0  -1   8    1.92    0.24
  -1   1  -8    1.91    0.22
  -1   1  -8    2.47    0.21
   1  -1   8    2.09    0.21
   1  -1   8    2.13    0.24
  -2   1  -8    0.31    0.10
  -2   1  -8    0.05    0.09
   2  -1   8    0.08    0.11
   2  -1   8    0.05    0.08
  -3   1  -8   76.21    1.76
  -3   1  -8   75.17    1.80
   3  -1   8   74.54    1.62
   3  -1   8   75.51    1.90
   3  -1   8   77.55    1.83
  -4   1  -8    0.76    0.15
  -4   1  -8    0.84    0.16
   4  -1   8    0.70    0.10
   4  -1   8    0.63    0.16
   4  -1   8    0.60    0.17
  -5   1  -8    1.70    0.21
   5  -1   8    1.47    0.24
   5  -1   8    1.51    0.24
   5  -1   8    1.08    0.21
   6  -1   8    0.97    0.23
   6  -1   8    1.01    0.21
   7  -1   8   -0.09    0.10
   7   0  -8   -0.12    0.08
   7   0  -8    0.02    0.16
   7   0  -8   -0.12    0.10
   6   0  -8    0.15    0.16
   6   0  -8    0.12    0.12
   6   0  -8    0.03    0.08
   6   0  -8   -0.04    0.08
   5   0  -8    1.37    0.23
   5   0  -8    1.58    0.24
   5   0  -8    1.36    0.24
   5   0  -8    1.57    0.32
   4   0  -8    9.75    0.49
   4   0  -8   10.24    0.49
   4   0  -8   10.48    0.59
   4   0  -8   10.04    0.52
  -4   0   8   10.14    0.42
   3   0  -8   88.03    2.07
   3   0  -8   89.34    2.10
   3   0  -8   87.37    2.16
   3   0  -8   87.55    2.12
  -3   0   8   87.61    1.98
   2   0  -8    3.25    0.28
   2   0  -8    3.63    0.27
   2   0  -8    3.73    0.28
   2   0  -8    3.95    0.29
  -2   0   8    3.66    0.25
   1   0  -8    0.48    0.10
   1   0  -8    0.50    0.14
   1   0  -8    0.35    0.13
  -1   0   8    0.51    0.12
   0   0  -8    1.74    0.21
   0   0  -8    2.05    0.24
   0   0  -8    2.19    0.24
   0   0   8    2.08    0.25
   0   0   8    1.79    0.21
  -1   0  -8    0.11    0.08
  -1   0  -8    0.18    0.11
   1   0   8    0.00    0.08
   1   0   8    0.04    0.06
  -2   0  -8    0.21    0.12
  -2   0  -8    0.14    0.11
   2   0   8    0.35    0.13
   2   0   8    0.12    0.10
  -3   0  -8   22.39    0.77
  -3   0  -8   24.28    0.77
   3   0   8   24.04    0.87
   3   0   8   22.93    0.85
   3   0   8   22.94    0.55
   3   0   8   22.88    0.80
  -4   0  -8    0.69    0.17
  -4   0  -8    0.80    0.17
   4   0   8    0.50    0.15
   4   0   8    0.64    0.17
  -5   0  -8   -0.02    0.10
   5   0   8   -0.10    0.09
  -6   0  -8    0.23    0.14
   6   0   8    0.08    0.12
   7  -1  -8    3.75    0.32
   7  -1  -8    3.65    0.33
   6  -1  -8    0.69    0.18
   6  -1  -8    0.45    0.15
   6  -1  -8    0.53    0.22
   5  -1  -8    0.38    0.11
   5  -1  -8    0.59    0.16
   5  -1  -8    0.43    0.15
   5  -1  -8    0.27    0.16
   4  -1  -8   21.14    0.74
   4  -1  -8   21.83    0.77
   4  -1  -8   21.42    0.80
  -4   1   8   21.34    0.66
   3  -1  -8    2.36    0.24
   3  -1  -8    2.22    0.27
   3  -1  -8    1.50    0.23
  -3   1   8    2.36    0.20
   2  -1  -8    1.97    0.25
   2  -1  -8    1.46    0.22
   2  -1  -8    1.03    0.18
  -2   1   8    1.42    0.19
   1  -1  -8    6.28    0.37
   1  -1  -8    8.93    0.58
   1  -1  -8    6.35    0.37
   1  -1  -8    6.38    0.28
  -1   1   8    6.66    0.36
   0  -1  -8    1.15    0.18
   0  -1  -8    0.97    0.18
   0   1   8    1.06    0.18
   0   1   8    0.83    0.16
   0   1   8    1.24    0.27
  -1  -1  -8    9.14    0.46
  -1  -1  -8    9.13    0.44
   1   1   8    8.37    0.43
   1   1   8    9.27    0.48
  -2  -1  -8   45.42    1.25
  -2  -1  -8   44.71    1.23
   2   1   8   42.67    1.43
   2   1   8   45.14    1.26
  -3  -1  -8   13.61    0.58
  -3  -1  -8   12.49    0.57
   3   1   8   13.28    0.60
  -4  -1  -8    0.30    0.15
  -4  -1  -8    0.42    0.16
   4   1   8    0.33    0.15
  -5  -1  -8    1.05    0.23
   5   1   8    1.47    0.27
  -6  -1  -8    0.10    0.13
   6   1   8    0.00    0.12
   7  -2  -8    0.17    0.11
   7  -2  -8    0.17    0.13
   6  -2  -8    2.10    0.26
   6  -2  -8    1.70    0.26
   6  -2  -8    2.13    0.30
   5  -2  -8    0.56    0.18
   5  -2  -8    0.17    0.11
   5  -2  -8    0.28    0.12
   4  -2  -8   28.27    0.89
   4  -2  -8   27.10    0.94
   4  -2  -8   28.85    0.94
  -4   2   8   27.40    0.81
   3  -2  -8    8.22    0.44
   3  -2  -8    8.27    0.46
   3  -2  -8    8.47    0.46
  -3   2   8    8.50    0.38
   2  -2  -8    0.17    0.06
   2  -2  -8    0.03    0.12
   2  -2  -8    0.27    0.12
   2  -2  -8    0.24    0.11
  -2   2   8    0.08    0.08
   1  -2  -8   11.97    0.40
   1  -2  -8   12.34    0.55
   1  -2  -8   12.07    0.57
   1  -2  -8   12.85    0.55
  -1   2   8   13.17    0.53
   0  -2  -8    0.07    0.09
   0  -2  -8    0.03    0.12
   0   2   8    0.17    0.11
  -1  -2  -8   17.69    0.70
  -1  -2  -8   18.11    0.70
   1   2   8   18.64    0.71
  -2  -2  -8    6.60    0.42
  -2  -2  -8    6.47    0.42
   2   2   8    7.19    0.44
  -3  -2  -8   11.43    0.57
  -3  -2  -8   11.46    0.57
   3   2   8   10.81    0.57
  -4  -2  -8    3.64    0.38
  -4  -2  -8    2.94    0.33
   4   2   8    3.33    0.39
  -5  -2  -8    0.09    0.14
   5   2   8    0.55    0.20
   7  -3  -8    9.71    0.49
   7  -3  -8   10.03    0.58
   7  -3  -8    9.27    0.51
   6  -3  -8   21.52    0.82
   6  -3  -8   23.74    0.89
   6  -3  -8   21.39    0.77
   5  -3  -8    0.11    0.10
   5  -3  -8    0.06    0.10
   5  -3  -8    0.17    0.13
   4  -3  -8   60.01    1.65
   4  -3  -8   61.16    1.66
   4  -3  -8   62.51    1.59
   3  -3  -8   -0.05    0.08
   3  -3  -8    0.00    0.11
   3  -3  -8    0.02    0.11
  -3   3   8    0.06    0.08
   2  -3  -8   84.33    2.06
   2  -3  -8   85.32    2.11
  -2   3   8   85.51    2.00
   1  -3  -8   10.30    0.51
   1  -3  -8    9.55    0.51
  -1   3   8    8.95    0.46
   0  -3  -8   30.26    1.02
   0  -3  -8   31.09    1.02
   0   3   8   32.73    1.02
  -1  -3  -8    0.40    0.15
  -1  -3  -8    0.54    0.17
   1   3   8    0.63    0.18
  -2  -3  -8    1.51    0.25
  -2  -3  -8    0.99    0.21
   2   3   8    1.22    0.25
  -3  -3  -8    9.25    0.54
  -3  -3  -8    8.31    0.51
   3   3   8    8.58    0.54
  -4  -3  -8    2.29    0.33
  -4  -3  -8    2.15    0.33
   4   3   8    2.92    0.40
  -5  -3  -8    4.58    0.49
   5   3   8    5.27    0.53
   7  -4  -8    2.18    0.33
   7  -4  -8    2.04    0.26
   7  -4  -8    1.84    0.27
   6  -4  -8    1.40    0.22
   6  -4  -8    0.74    0.18
   6  -4  -8    1.27    0.26
   5  -4  -8    0.91    0.21
   5  -4  -8    0.82    0.21
   5  -4  -8    0.95    0.19
   4  -4  -8    0.33    0.15
   4  -4  -8    0.05    0.10
   4  -4  -8    0.30    0.14
   3  -4  -8    0.98    0.21
   3  -4  -8    0.93    0.22
   2  -4  -8    1.17    0.23
   2  -4  -8    0.88    0.20
  -2   4   8    1.20    0.20
   1  -4  -8    2.42    0.32
   1  -4  -8    1.97    0.29
  -1   4   8    3.46    0.35
   0  -4  -8    0.37    0.16
   0  -4  -8    0.35    0.16
   0   4   8    0.16    0.12
  -1  -4  -8    2.23    0.32
  -1  -4  -8    1.86    0.28
   1   4   8    2.69    0.35
  -2  -4  -8    1.66    0.29
  -2  -4  -8    1.89    0.31
   2   4   8    1.04    0.23
  -3  -4  -8    0.51    0.21
  -3  -4  -8    0.21    0.16
   3   4   8    0.40    0.20
  -4  -4  -8    0.41    0.20
  -4  -4  -8    0.22    0.16
   4   4   8    0.21    0.15
   4   4   8    0.23    0.18
   6  -5  -8    0.14    0.12
   6  -5  -8    0.13    0.15
   5  -5  -8    0.00    0.12
   5  -5  -8    0.10    0.11
   4  -5  -8    0.82    0.20
   4  -5  -8    0.75    0.20
   3  -5  -8    1.54    0.28
   3  -5  -8    1.94    0.28
   2  -5  -8    1.28    0.25
   2  -5  -8    1.06    0.24
   1  -5  -8    7.39    0.50
   1  -5  -8    7.38    0.50
  -1   5   8    7.09    0.46
   0  -5  -8    1.83    0.29
   0  -5  -8    1.66    0.29
   0   5   8    1.57    0.26
  -1  -5  -8   14.00    0.72
  -1  -5  -8   12.95    0.69
   1   5   8   13.06    0.69
  -2  -5  -8    0.45    0.19
  -2  -5  -8    1.00    0.26
   2   5   8    0.85    0.25
   5  -6  -8    0.29    0.15
   5  -6  -8    0.33    0.17
   4  -6  -8    0.05    0.15
   4  -6  -8    0.42    0.18
   3  -6  -8    6.76    0.49
   3  -6  -8    6.46    0.50
   2  -6  -8   -0.06    0.14
   2  -6  -8   -0.01    0.15
   1  -6  -8    2.11    0.34
   1  -6  -8    1.59    0.30
   0  -6  -8    0.77    0.24
   0  -6  -8    0.88    0.24
   0   6   8    1.53    0.29
  -1  -6  -8    2.26    0.38
  -1  -6  -8    1.78    0.33
   1   6   8    2.72    0.40
   1   8  -9    0.10    0.20
  -1  -8   9    0.44    0.18
   0  -8   9   -0.02    0.15
   0  -8   9    0.01    0.12
   1  -8   9    1.42    0.30
   1  -8   9    1.34    0.27
   2  -8   9    0.05    0.11
   2  -8   9    0.30    0.18
   3  -8   9    1.73    0.28
   3  -8   9    1.29    0.28
   4  -8   9    6.48    0.43
   4  -8   9    6.33    0.51
   3   7  -9    0.70    0.28
  -3  -7   9    1.08    0.26
   2   7  -9    0.02    0.15
  -2  -7   9    0.39    0.18
   1   7  -9    1.72    0.31
  -1  -7   9    1.46    0.26
   0   7  -9    0.09    0.15
   0  -7   9    0.16    0.12
  -1   7  -9    2.73    0.46
   1  -7   9    2.03    0.31
   1  -7   9    2.44    0.31
   2  -7   9    0.92    0.22
   2  -7   9    0.89    0.21
   3  -7   9   -0.04    0.09
   3  -7   9   -0.04    0.10
   4  -7   9    2.01    0.30
   4  -7   9    1.88    0.28
   4  -7   9    2.12    0.27
   5  -7   9    0.67    0.16
   5  -7   9    0.49    0.16
   5  -7   9    0.60    0.21
   4   6  -9    4.50    0.51
  -4  -6   9    3.37    0.39
   3   6  -9    4.07    0.47
  -3  -6   9    3.41    0.38
   2   6  -9    7.22    0.53
  -2  -6   9    6.50    0.45
   1   6  -9    0.49    0.21
  -1  -6   9    0.68    0.19
   0   6  -9    6.30    0.45
   0  -6   9    6.86    0.44
  -1   6  -9    0.18    0.13
   1  -6   9   -0.05    0.09
   2  -6   9    0.41    0.16
   2  -6   9    0.39    0.14
   3  -6   9    8.83    0.47
   3  -6   9    9.60    0.53
   3  -6   9    9.21    0.51
   4  -6   9    0.07    0.12
   4  -6   9    0.03    0.09
   4  -6   9    0.00    0.10
   5  -6   9    0.89    0.21
   5  -6   9    1.39    0.21
   5  -6   9    0.74    0.20
   6  -6   9    1.23    0.24
   6  -6   9    0.88    0.18
   6  -6   9    1.36    0.26
   5   5  -9   -0.04    0.15
   4   5  -9    0.21    0.17
  -4  -5   9    0.07    0.11
   3   5  -9    0.10    0.15
  -3  -5   9    0.05    0.10
   2   5  -9    3.47    0.41
  -2  -5   9    2.68    0.32
   1   5  -9    9.04    0.53
  -1  -5   9    8.34    0.47
   0   5  -9    0.42    0.17
   0  -5   9    0.61    0.17
  -1   5  -9    0.64    0.17
   1  -5   9    0.64    0.16
  -2   5  -9    1.96    0.25
   2  -5   9    1.88    0.24
   2  -5   9    2.56    0.34
   3  -5   9    0.00    0.10
   3  -5   9   -0.04    0.08
   3  -5   9    0.10    0.10
   4  -5   9    0.19    0.11
   4  -5   9    0.04    0.10
   4  -5   9    0.15    0.10
   5  -5   9    8.79    0.49
   5  -5   9    8.67    0.47
   5  -5   9    8.22    0.43
   6  -5   9    0.01    0.09
   6  -5   9   -0.05    0.10
   6  -5   9   -0.06    0.08
   6   4  -9    2.55    0.39
   6   4  -9    2.01    0.37
   6   4  -9    1.38    0.40
   5   4  -9    2.01    0.45
   5   4  -9    1.81    0.32
  -5  -4   9    2.17    0.34
   4   4  -9   20.73    0.89
  -4  -4   9   20.48    0.79
   3   4  -9    0.69    0.19
  -3  -4   9    0.78    0.18
   2   4  -9   38.55    1.21
  -2  -4   9   38.70    1.15
   1   4  -9   15.44    0.67
  -1  -4   9   15.65    0.63
   0   4  -9   18.02    0.71
   0  -4   9   18.32    0.69
  -1   4  -9    7.07    0.42
   1  -4   9    6.41    0.41
   1  -4   9    6.46    0.38
  -2   4  -9    1.77    0.24
   2  -4   9    1.77    0.23
   2  -4   9    2.08    0.29
  -3   4  -9    5.20    0.34
   3  -4   9    5.11    0.34
   3  -4   9    5.17    0.37
   3  -4   9    5.55    0.34
   4  -4   9    1.06    0.18
   4  -4   9    0.73    0.17
   4  -4   9    0.84    0.19
   5  -4   9   27.23    0.87
   5  -4   9   27.84    0.86
   5  -4   9   26.48    0.94
   6  -4   9    1.00    0.21
   6  -4   9    1.22    0.20
   6   3  -9    0.47    0.20
   6   3  -9    0.53    0.20
   6   3  -9    0.32    0.23
   5   3  -9    1.90    0.33
   5   3  -9    1.17    0.33
  -5  -3   9    1.90    0.32
   4   3  -9    2.45    0.34
  -4  -3   9    2.93    0.31
   3   3  -9    2.15    0.29
  -3  -3   9    2.58    0.30
   2   3  -9   27.18    0.93
  -2  -3   9   26.05    0.86
   1   3  -9   25.24    0.87
   1   3  -9   26.84    0.86
  -1  -3   9   26.08    0.84
   0   3  -9    0.06    0.09
   0   3  -9   -0.21    0.09
   0  -3   9    0.06    0.08
   0  -3   9   -0.05    0.08
  -1   3  -9   35.09    0.97
  -1   3  -9   36.84    1.07
   1  -3   9   36.83    1.04
   1  -3   9   34.07    1.08
  -2   3  -9    8.74    0.45
  -2   3  -9    9.87    0.40
   2  -3   9   10.27    0.47
   2  -3   9    9.53    0.49
  -3   3  -9   26.93    0.74
  -3   3  -9   26.81    0.84
   3  -3   9   25.05    0.89
   3  -3   9   27.40    0.85
   3  -3   9   26.70    0.80
   4  -3   9  103.26    2.28
   4  -3   9  104.06    2.38
   4  -3   9  102.18    2.46
   5  -3   9   10.71    0.55
   5  -3   9   11.82    0.47
   5  -3   9   12.10    0.53
   6  -3   9   15.56    0.71
   6  -3   9   16.66    0.65
   7  -3   9   -0.13    0.08
   7  -3   9   -0.05    0.09
   7   2  -9    9.74    0.83
   7   2  -9   11.44    0.66
   7   2  -9   11.76    0.66
   6   2  -9    0.94    0.23
   6   2  -9    0.92    0.23
   6   2  -9    0.75    0.29
   5   2  -9   14.35    0.67
   5   2  -9   13.35    0.81
   4   2  -9   15.02    0.81
   4   2  -9   16.48    0.71
  -4  -2   9   15.25    0.60
   3   2  -9    0.44    0.15
  -3  -2   9    0.90    0.17
   2   2  -9  186.23    4.04
   2   2  -9  188.80    4.06
  -2  -2   9  187.36    3.97
   1   2  -9    1.40    0.21
   1   2  -9    1.20    0.20
  -1  -2   9    1.45    0.20
   0   2  -9   35.12    1.00
   0   2  -9   34.23    1.04
   0  -2   9   34.50    1.01
   0  -2   9   35.61    1.07
  -1   2  -9    0.12    0.11
  -1   2  -9    0.01    0.08
   1  -2   9    0.10    0.07
   1  -2   9    0.15    0.10
  -2   2  -9   19.09    0.70
  -2   2  -9   21.39    0.66
   2  -2   9   20.47    0.71
   2  -2   9   19.42    0.74
  -3   2  -9    0.71    0.16
  -3   2  -9    0.70    0.14
   3  -2   9    0.82    0.14
   3  -2   9    0.71    0.17
   3  -2   9    0.74    0.16
  -4   2  -9    5.63    0.31
   4  -2   9    5.52    0.27
   4  -2   9    5.41    0.36
   4  -2   9    5.68    0.40
   5  -2   9    2.21    0.27
   5  -2   9    1.80    0.26
   6  -2   9    0.15    0.12
   6  -2   9   -0.01    0.10
   7   1  -9    1.81    0.29
   7   1  -9    1.25    0.25
   7   1  -9    1.70    0.41
   6   1  -9    0.14    0.19
   6   1  -9    0.34    0.16
   6   1  -9    0.08    0.12
   5   1  -9    4.11    0.36
   5   1  -9    3.99    0.51
   4   1  -9    1.35    0.28
   4   1  -9    1.60    0.27
   4   1  -9    2.34    0.31
  -4  -1   9    2.11    0.24
   3   1  -9   42.35    1.26
   3   1  -9   44.23    1.25
   3   1  -9   41.62    1.29
   3   1  -9   43.76    1.32
  -3  -1   9   41.60    1.15
   2   1  -9    0.49    0.16
   2   1  -9    0.41    0.15
   2   1  -9    0.39    0.14
   2   1  -9    0.60    0.16
  -2  -1   9    0.65    0.15
   1   1  -9    8.33    0.45
   1   1  -9    8.74    0.45
   1   1  -9    8.43    0.43
  -1  -1   9    9.44    0.43
  -1  -1   9    6.50    0.44
   0   1  -9    0.02    0.10
   0   1  -9    0.25    0.12
   0  -1   9    0.35    0.10
   0  -1   9    0.24    0.11
  -1   1  -9    4.56    0.33
  -1   1  -9    4.80    0.31
   1  -1   9    4.49    0.31
  -2   1  -9    1.11    0.19
  -2   1  -9    1.21    0.18
   2  -1   9    1.15    0.18
   2  -1   9    1.17    0.20
  -3   1  -9   35.44    1.05
  -3   1  -9   34.05    0.99
   3  -1   9   36.30    1.07
   3  -1   9   34.97    0.86
   3  -1   9   35.52    1.13
  -4   1  -9    4.41    0.33
  -4   1  -9    5.02    0.32
   4  -1   9    4.45    0.37
   4  -1   9    4.26    0.34
  -5   1  -9    0.46    0.15
   5  -1   9    0.57    0.16
   6  -1   9    0.09    0.12
   7   0  -9    0.86    0.22
   7   0  -9    1.15    0.33
   6   0  -9    1.44    0.25
   6   0  -9    1.72    0.25
   6   0  -9    1.45    0.34
   5   0  -9    2.70    0.40
   5   0  -9    1.99    0.27
   5   0  -9    2.02    0.30
   4   0  -9   15.54    0.64
   4   0  -9   15.15    0.73
   4   0  -9   14.70    0.64
   4   0  -9   14.01    0.65
  -4   0   9   15.13    0.56
   3   0  -9   50.08    1.41
   3   0  -9   50.31    1.42
   3   0  -9   51.49    1.40
   3   0  -9   51.00    1.44
  -3   0   9   51.57    1.32
   2   0  -9   10.84    0.52
   2   0  -9   11.59    0.54
   2   0  -9   10.73    0.52
   2   0  -9   10.69    0.48
  -2   0   9   11.58    0.48
   1   0  -9    2.41    0.27
   1   0  -9    2.28    0.18
   1   0  -9    2.46    0.28
  -1   0   9    2.18    0.23
   0   0  -9    9.58    0.47
   0   0  -9    9.83    0.49
   0   0   9    9.57    0.46
  -1   0  -9   10.90    0.49
  -1   0  -9   10.81    0.52
   1   0   9   10.11    0.50
   1   0   9   12.11    0.78
  -2   0  -9    1.48    0.22
  -2   0  -9    1.66    0.24
   2   0   9    1.33    0.21
  -3   0  -9   44.45    1.27
  -3   0  -9   46.19    1.25
   3   0   9   44.44    1.29
  -4   0  -9    0.13    0.12
  -4   0  -9    0.16    0.11
   4   0   9    0.00    0.10
  -5   0  -9    4.86    0.36
   5   0   9    4.02    0.42
   6   0   9    0.31    0.16
   7  -1  -9    3.41    0.36
   6  -1  -9    3.66    0.58
   6  -1  -9    3.51    0.41
   6  -1  -9    4.25    0.35
   5  -1  -9    0.44    0.18
   5  -1  -9    0.61    0.17
   5  -1  -9    0.40    0.13
   4  -1  -9    0.08    0.11
   4  -1  -9    0.23    0.12
   4  -1  -9    0.15    0.12
  -4   1   9    0.07    0.07
   3  -1  -9    5.60    0.38
   3  -1  -9    4.92    0.36
   3  -1  -9    4.99    0.37
  -3   1   9    4.96    0.31
   2  -1  -9    6.52    0.42
   2  -1  -9    6.25    0.41
   2  -1  -9    6.29    0.40
  -2   1   9    6.33    0.36
   1  -1  -9    8.59    0.47
   1  -1  -9    9.20    0.48
  -1   1   9    9.51    0.45
   0  -1  -9    1.55    0.23
   0  -1  -9    1.67    0.24
   0   1   9    1.48    0.23
  -1  -1  -9    0.30    0.13
  -1  -1  -9    0.45    0.16
   1   1   9    0.38    0.14
  -2  -1  -9   22.11    0.80
  -2  -1  -9   22.64    0.83
   2   1   9   23.42    0.83
  -3  -1  -9    2.85    0.32
  -3  -1  -9    2.29    0.29
   3   1   9    3.07    0.35
  -4  -1  -9    3.47    0.38
  -4  -1  -9    2.97    0.34
   4   1   9    2.93    0.35
  -5  -1  -9    4.82    0.39
   5   1   9    4.75    0.42
   7  -2  -9    6.76    0.44
   6  -2  -9    0.08    0.14
   6  -2  -9    0.35    0.15
   6  -2  -9    0.30    0.13
   5  -2  -9    2.90    0.34
   5  -2  -9    2.30    0.32
   5  -2  -9    2.63    0.30
   4  -2  -9    5.75    0.42
   4  -2  -9    5.16    0.39
   4  -2  -9    5.83    0.39
   3  -2  -9    1.53    0.24
   3  -2  -9    2.31    0.30
   3  -2  -9    1.21    0.27
  -3   2   9    1.71    0.21
   2  -2  -9   -0.11    0.10
   2  -2  -9   -0.14    0.08
  -2   2   9    0.10    0.09
   1  -2  -9    0.27    0.14
   1  -2  -9    0.21    0.12
  -1   2   9    0.36    0.14
   0  -2  -9    0.81    0.19
   0  -2  -9    0.36    0.15
   0   2   9    0.44    0.16
  -1  -2  -9    0.40    0.15
  -1  -2  -9    0.22    0.14
   1   2   9    0.31    0.14
  -2  -2  -9    2.09    0.30
  -2  -2  -9    1.74    0.27
   2   2   9    1.74    0.26
  -3  -2  -9    2.71    0.34
  -3  -2  -9    3.68    0.41
   3   2   9    2.54    0.32
  -4  -2  -9    1.53    0.27
  -4  -2  -9    1.49    0.27
   4   2   9    1.90    0.31
  -5  -2  -9    0.18    0.16
   5   2   9   -0.03    0.13
   7  -3  -9    0.02    0.13
   7  -3  -9    0.01    0.12
   6  -3  -9    5.67    0.43
   6  -3  -9    4.99    0.38
   5  -3  -9   -0.04    0.09
   5  -3  -9   -0.15    0.12
   4  -3  -9    1.73    0.26
   4  -3  -9    1.98    0.29
   3  -3  -9    0.01    0.11
   3  -3  -9    0.21    0.13
  -3   3   9   -0.07    0.07
   2  -3  -9    1.03    0.21
   2  -3  -9    1.32    0.25
  -2   3   9    1.13    0.21
   1  -3  -9    0.30    0.16
   1  -3  -9    0.38    0.17
  -1   3   9    0.45    0.14
   0  -3  -9    3.72    0.40
   0  -3  -9    3.52    0.39
   0   3   9    3.95    0.39
  -1  -3  -9    1.09    0.23
  -1  -3  -9    1.18    0.24
   1   3   9    1.67    0.28
  -2  -3  -9    5.31    0.43
  -2  -3  -9    5.34    0.43
   2   3   9    4.64    0.41
  -3  -3  -9    0.06    0.15
  -3  -3  -9    0.26    0.16
   3   3   9    0.50    0.21
  -4  -3  -9   18.86    0.85
  -4  -3  -9   18.80    0.86
   4   3   9   19.20    0.88
   6  -4  -9   -0.13    0.10
   6  -4  -9   -0.06    0.14
   5  -4  -9    1.15    0.23
   5  -4  -9    0.94    0.23
   4  -4  -9    1.35    0.25
   4  -4  -9    1.39    0.27
   3  -4  -9    2.92    0.33
   3  -4  -9    3.04    0.37
   2  -4  -9    0.29    0.16
   2  -4  -9    0.28    0.16
  -2   4   9    0.12    0.12
   1  -4  -9    0.16    0.14
   1  -4  -9   -0.16    0.12
  -1   4   9   -0.01    0.10
   0  -4  -9    1.09    0.25
   0  -4  -9    0.86    0.22
   0   4   9    0.98    0.24
  -1  -4  -9   -0.08    0.13
  -1  -4  -9    0.02    0.13
   1   4   9    0.00    0.12
  -2  -4  -9   -0.18    0.11
  -2  -4  -9   -0.07    0.14
   2   4   9   -0.12    0.12
  -3  -4  -9    0.13    0.18
  -3  -4  -9   -0.19    0.14
   3   4   9   -0.12    0.13
   5  -5  -9    0.49    0.18
   5  -5  -9    0.83    0.23
   4  -5  -9    3.72    0.42
   4  -5  -9    3.80    0.39
   3  -5  -9   17.75    0.79
   3  -5  -9   17.72    0.82
   2  -5  -9    5.24    0.44
   2  -5  -9    5.76    0.46
   1  -5  -9    4.03    0.43
   1  -5  -9    3.83    0.43
  -1   5   9    4.51    0.44
   0  -5  -9    2.48    0.37
   0  -5  -9    1.18    0.26
   0   5   9    2.11    0.32
  -1  -5  -9    8.15    0.57
  -1  -5  -9    8.83    0.59
   1   5   9    8.06    0.55
  -2  -5  -9    1.24    0.27
   2   5   9    1.11    0.26
   3  -6  -9   -0.02    0.14
   3  -6  -9   -0.16    0.13
   2  -6  -9    2.41    0.37
   2  -6  -9    3.09    0.40
   1  -6  -9    0.39    0.20
   1  -6  -9    0.14    0.16
   0  -8  10    3.09    0.39
   1  -8  10    0.84    0.22
   1  -8  10    0.68    0.24
   2  -8  10    0.31    0.18
   2  -8  10    0.19    0.14
   3  -8  10    4.99    0.53
   3  -8  10    4.67    0.40
   2   7 -10    0.67    0.26
  -2  -7  10    0.52    0.20
   1   7 -10    1.22    0.28
  -1  -7  10    1.56    0.30
   0   7 -10    1.58    0.31
   0  -7  10    1.93    0.30
   1  -7  10    0.09    0.13
   2  -7  10    0.02    0.10
   2  -7  10   -0.10    0.12
   3  -7  10    2.98    0.38
   3  -7  10    2.16    0.29
   4  -7  10   -0.16    0.13
   4  -7  10    0.06    0.11
   4   6 -10    0.03    0.17
  -4  -6  10    0.03    0.13
   3   6 -10    6.26    0.55
  -3  -6  10    7.24    0.50
   2   6 -10    0.12    0.17
  -2  -6  10    0.11    0.13
   1   6 -10    5.44    0.46
  -1  -6  10    5.18    0.41
   0   6 -10   11.04    0.62
   0  -6  10   10.54    0.57
  -1   6 -10   -0.03    0.14
   1  -6  10    0.09    0.11
   2  -6  10    0.36    0.15
   2  -6  10    0.02    0.13
   3  -6  10    5.88    0.43
   3  -6  10    5.65    0.39
   4  -6  10    0.46    0.15
   4  -6  10    0.69    0.19
   5  -6  10    3.15    0.33
   5  -6  10    3.10    0.36
   5  -6  10    3.05    0.39
   5   5 -10    2.11    0.38
   4   5 -10    0.10    0.15
  -4  -5  10   -0.04    0.11
   3   5 -10    0.43    0.20
  -3  -5  10    0.55    0.18
   2   5 -10    1.72    0.31
  -2  -5  10    1.59    0.27
   1   5 -10   13.64    0.68
  -1  -5  10   12.77    0.61
   0   5 -10    0.10    0.13
   0  -5  10    0.03    0.09
  -1   5 -10    1.21    0.24
   1  -5  10    1.06    0.21
  -2   5 -10    0.40    0.16
   2  -5  10    0.65    0.17
   3  -5  10    0.50    0.15
   3  -5  10    0.31    0.14
   3  -5  10    0.31    0.16
   4  -5  10    1.86    0.25
   4  -5  10    1.99    0.32
   4  -5  10    2.15    0.28
   5  -5  10   23.37    0.83
   5  -5  10   22.66    0.81
   5  -5  10   22.77    0.90
   6  -5  10    4.02    0.32
   6  -5  10    3.50    0.40
   5   4 -10    1.99    0.45
   5   4 -10    2.75    0.40
   4   4 -10   13.39    0.72
  -4  -4  10   13.85    0.64
   3   4 -10    0.06    0.13
  -3  -4  10    0.00    0.10
   2   4 -10    6.19    0.45
  -2  -4  10    6.39    0.41
   1   4 -10   70.21    1.87
  -1  -4  10   72.18    1.83
   0   4 -10   16.99    0.71
   0  -4  10   16.10    0.67
  -1   4 -10    7.76    0.46
   1  -4  10    7.95    0.45
  -2   4 -10    7.31    0.36
  -2   4 -10    7.25    0.43
   2  -4  10    6.74    0.58
   2  -4  10    7.71    0.44
   3  -4  10    9.44    0.48
   3  -4  10    9.43    0.46
   3  -4  10    9.22    0.52
   4  -4  10    1.04    0.24
   4  -4  10    1.22    0.21
   4  -4  10    1.13    0.20
   5  -4  10    3.29    0.33
   5  -4  10    3.45    0.30
   5  -4  10    3.44    0.28
   6  -4  10   -0.02    0.10
   6  -4  10    0.23    0.14
   6   3 -10    1.67    0.32
   6   3 -10    1.05    0.34
   5   3 -10   19.07    0.85
   5   3 -10   16.92    0.98
   4   3 -10    0.03    0.13
   4   3 -10    0.33    0.21
  -4  -3  10    0.17    0.11
   3   3 -10   49.85    1.46
  -3  -3  10   48.34    1.36
   2   3 -10   40.77    1.27
  -2  -3  10   42.65    1.21
   1   3 -10   35.27    1.13
   1   3 -10   36.36    1.10
  -1  -3  10   37.39    1.10
   0   3 -10   20.04    0.72
   0   3 -10   20.10    0.78
   0  -3  10   20.28    0.75
  -1   3 -10   11.63    0.49
  -1   3 -10   10.90    0.54
   1  -3  10   12.01    0.54
  -2   3 -10   20.28    0.67
  -2   3 -10   20.19    0.75
   2  -3  10   20.08    0.73
   2  -3  10   20.58    0.81
  -3   3 -10    0.19    0.10
  -3   3 -10    0.36    0.14
   3  -3  10    0.03    0.09
   3  -3  10    0.18    0.11
   3  -3  10    0.15    0.11
   4  -3  10    7.40    0.47
   4  -3  10    7.88    0.45
   4  -3  10    7.64    0.38
   5  -3  10    3.42    0.34
   5  -3  10    4.34    0.33
   6  -3  10    1.47    0.24
   6   2 -10    1.87    0.31
   6   2 -10    2.02    0.46
   6   2 -10    2.12    0.33
   5   2 -10    1.44    0.34
   5   2 -10    1.45    0.28
   4   2 -10    1.46    0.27
   4   2 -10    0.91    0.25
  -4  -2  10    1.82    0.25
   3   2 -10    9.16    0.52
   3   2 -10    7.95    0.49
   3   2 -10    7.69    0.55
  -3  -2  10    8.28    0.44
   2   2 -10   29.42    0.99
   2   2 -10   28.80    0.97
  -2  -2  10   27.95    0.91
   1   2 -10    2.94    0.34
   1   2 -10    2.88    0.31
  -1  -2  10    3.51    0.34
   0   2 -10    1.98    0.25
   0   2 -10    2.04    0.28
   0  -2  10    1.57    0.22
  -1   2 -10    1.15    0.19
  -1   2 -10    0.86    0.18
   1  -2  10    0.97    0.19
  -2   2 -10    2.30    0.25
  -2   2 -10    3.11    0.33
   2  -2  10    2.41    0.29
  -3   2 -10    0.03    0.09
  -3   2 -10    0.19    0.13
   3  -2  10   -0.04    0.08
  -4   2 -10   16.94    0.61
   4  -2  10   17.46    0.71
   5  -2  10    0.71    0.19
   6  -2  10    0.02    0.11
   6   1 -10    8.40    0.53
   6   1 -10    7.79    0.67
   6   1 -10    8.21    0.50
   5   1 -10    1.85    0.36
   5   1 -10    1.74    0.28
   4   1 -10    0.79    0.21
   4   1 -10    1.27    0.25
   4   1 -10    1.08    0.26
  -4  -1  10    1.16    0.20
   3   1 -10    0.63    0.18
   3   1 -10    0.56    0.18
   3   1 -10    0.85    0.22
  -3  -1  10    0.78    0.16
   2   1 -10    0.10    0.13
   2   1 -10   -0.01    0.10
   2   1 -10    0.03    0.10
  -2  -1  10   -0.09    0.08
   1   1 -10    1.60    0.20
   1   1 -10    1.71    0.26
   1   1 -10    1.83    0.26
  -1  -1  10    1.93    0.25
   0   1 -10   -0.11    0.10
   0   1 -10   -0.12    0.08
   0   1 -10   -0.02    0.06
   0  -1  10   -0.01    0.09
  -1   1 -10    0.08    0.13
  -1   1 -10    0.03    0.11
   1  -1  10    0.10    0.10
  -2   1 -10    2.86    0.29
  -2   1 -10    2.83    0.30
   2  -1  10    2.86    0.31
  -3   1 -10   16.53    0.62
  -3   1 -10   14.52    0.64
   3  -1  10   15.27    0.52
   3  -1  10   14.23    0.64
  -4   1 -10   10.06    0.49
   4  -1  10    9.83    0.53
   5  -1  10    1.20    0.24
   6  -1  10    8.33    0.52
   7   0 -10    4.38    0.44
   6   0 -10   -0.03    0.11
   6   0 -10    0.07    0.17
   5   0 -10    0.84    0.26
   5   0 -10    0.95    0.21
   5   0 -10    1.33    0.26
   4   0 -10    2.83    0.37
   4   0 -10    1.89    0.29
   4   0 -10    2.88    0.32
  -4   0  10    3.35    0.27
   3   0 -10   11.65    0.59
   3   0 -10   12.08    0.58
   3   0 -10   10.92    0.56
  -3   0  10   11.20    0.51
   2   0 -10    5.68    0.40
   2   0 -10    4.85    0.32
   2   0 -10    5.22    0.39
  -2   0  10    5.49    0.35
   1   0 -10    2.23    0.28
   1   0 -10    2.32    0.29
  -1   0  10    2.67    0.29
   0   0 -10   12.31    0.59
   0   0 -10   12.38    0.58
   0   0  10   12.99    0.57
  -1   0 -10    1.11    0.21
  -1   0 -10    1.14    0.20
   1   0  10    1.63    0.26
  -2   0 -10    6.95    0.42
  -2   0 -10    6.78    0.44
   2   0  10    6.92    0.43
  -3   0 -10    0.12    0.13
  -3   0 -10    0.34    0.15
   3   0  10    0.02    0.11
  -4   0 -10    5.47    0.38
   4   0  10    5.49    0.42
  -5   0 -10    7.10    0.45
   5   0  10    8.14    0.51
   7  -1 -10    0.62    0.18
   6  -1 -10    0.27    0.16
   6  -1 -10    0.20    0.17
   5  -1 -10    5.33    0.41
   5  -1 -10    5.33    0.43
   4  -1 -10   -0.01    0.13
   4  -1 -10    0.50    0.18
   3  -1 -10   18.41    0.76
   3  -1 -10   18.73    0.75
  -3   1  10   17.27    0.65
   2  -1 -10    3.21    0.35
   2  -1 -10    3.67    0.37
  -2   1  10    3.79    0.30
   1  -1 -10   43.47    1.29
   1  -1 -10   44.16    1.30
  -1   1  10   42.70    1.23
   0  -1 -10   13.73    0.63
   0  -1 -10   13.19    0.61
   0   1  10   12.79    0.59
  -1  -1 -10    4.31    0.35
  -1  -1 -10    3.71    0.37
   1   1  10    3.13    0.34
  -2  -1 -10   17.70    0.74
  -2  -1 -10   16.81    0.71
   2   1  10   15.94    0.72
  -3  -1 -10   -0.10    0.11
  -3  -1 -10    0.05    0.12
   3   1  10    0.19    0.15
  -4  -1 -10    4.60    0.39
   4   1  10    4.57    0.41
  -5  -1 -10   14.22    0.69
   5   1  10   12.83    0.70
   6  -2 -10    1.26    0.27
   6  -2 -10    0.86    0.22
   5  -2 -10    0.60    0.19
   5  -2 -10    1.51    0.27
   4  -2 -10    0.77    0.20
   4  -2 -10    0.86    0.20
   3  -2 -10    0.51    0.19
   3  -2 -10    0.69    0.20
  -3   2  10    0.53    0.14
   2  -2 -10    3.21    0.37
   2  -2 -10    3.98    0.40
  -2   2  10    3.54    0.35
   1  -2 -10    0.09    0.13
   1  -2 -10    0.25    0.16
  -1   2  10    0.32    0.13
   0  -2 -10    0.02    0.13
   0  -2 -10    0.17    0.13
   0   2  10    0.10    0.11
  -1  -2 -10    1.15    0.24
  -1  -2 -10    1.32    0.26
   1   2  10    1.27    0.24
  -2  -2 -10    0.01    0.12
  -2  -2 -10   -0.09    0.12
   2   2  10   -0.01    0.11
  -3  -2 -10   -0.03    0.12
  -3  -2 -10    0.16    0.14
   3   2  10   -0.16    0.10
  -4  -2 -10    0.07    0.14
   4   2  10    0.03    0.15
   6  -3 -10    0.13    0.16
   6  -3 -10    0.21    0.15
   5  -3 -10    3.11    0.39
   5  -3 -10    2.83    0.34
   4  -3 -10    0.23    0.17
   4  -3 -10    0.11    0.15
   3  -3 -10    0.10    0.13
   3  -3 -10    0.36    0.16
   2  -3 -10    3.59    0.38
   2  -3 -10    4.30    0.44
  -2   3  10    4.40    0.34
   1  -3 -10    3.56    0.38
   1  -3 -10    3.17    0.38
  -1   3  10    4.00    0.34
   0  -3 -10    0.96    0.23
   0  -3 -10    1.33    0.26
   0   3  10    1.82    0.29
  -1  -3 -10    1.76    0.30
  -1  -3 -10    0.95    0.24
   1   3  10    1.44    0.27
  -2  -3 -10    0.06    0.16
  -2  -3 -10   -0.14    0.12
   2   3  10   -0.13    0.10
  -3  -3 -10    4.88    0.49
  -3  -3 -10    5.39    0.46
   3   3  10    6.47    0.50
   5  -4 -10    3.54    0.42
   5  -4 -10    4.06    0.43
   4  -4 -10   -0.01    0.12
   4  -4 -10    0.23    0.16
   3  -4 -10    0.90    0.23
   3  -4 -10    0.36    0.17
   2  -4 -10    0.22    0.15
   2  -4 -10    0.50    0.18
   1  -4 -10    0.08    0.16
   1  -4 -10    0.07    0.15
  -1   4  10    0.09    0.13
   0  -4 -10    0.76    0.23
   0  -4 -10    0.22    0.17
   0   4  10    0.31    0.16
  -1  -4 -10    0.19    0.17
  -1  -4 -10    0.07    0.16
   1   4  10   -0.06    0.13
  -2  -4 -10    0.02    0.15
  -2  -4 -10    0.21    0.18
   2   4  10    0.13    0.15
   4  -5 -10    0.89    0.22
   4  -5 -10    0.71    0.22
   3  -5 -10    0.46    0.21
   3  -5 -10    0.99    0.25
   2  -5 -10    0.15    0.17
   2  -5 -10    0.26    0.17
   1  -5 -10   -0.03    0.16
   1  -5 -10    0.30    0.18
   0  -5 -10   19.36    0.91
   0  -5 -10   19.98    0.92
   0   5  10   18.64    0.85
   2   7 -11   -0.01    0.17
   1   7 -11    0.86    0.27
  -1  -7  11    0.99    0.25
   0   7 -11    8.91    0.59
   0  -7  11    9.12    0.57
   1  -7  11    0.06    0.14
   2  -7  11    0.16    0.13
   2  -7  11    0.25    0.18
   3  -7  11    0.00    0.14
   3  -7  11    0.07    0.12
   3   6 -11    1.15    0.30
  -3  -6  11    1.15    0.25
   2   6 -11    0.04    0.17
  -2  -6  11    0.25    0.15
   1   6 -11    5.89    0.50
  -1  -6  11    5.62    0.44
   0   6 -11   23.66    0.96
   0  -6  11   23.78    0.92
  -1   6 -11    0.13    0.16
   1  -6  11    0.43    0.16
   2  -6  11    0.32    0.14
   3  -6  11    0.05    0.11
   3  -6  11    0.39    0.18
   4  -6  11    0.15    0.13
   4  -6  11    0.03    0.12
   4   5 -11    0.93    0.28
  -4  -5  11    0.57    0.19
   3   5 -11    0.06    0.17
  -3  -5  11   -0.09    0.09
   2   5 -11    4.71    0.48
  -2  -5  11    4.47    0.39
   1   5 -11   11.96    0.65
  -1  -5  11   12.14    0.61
   0   5 -11    0.77    0.22
   0  -5  11    0.70    0.19
  -1   5 -11    0.04    0.13
   1  -5  11   -0.06    0.10
  -2   5 -11    0.13    0.16
   2  -5  11   -0.11    0.08
   3  -5  11    0.06    0.12
   3  -5  11    0.15    0.13
   4  -5  11    0.75    0.19
   4  -5  11    0.17    0.13
   5  -5  11   30.02    1.00
   5  -5  11   29.44    0.99
   5   4 -11   -0.03    0.18
   5   4 -11    0.05    0.21
   4   4 -11    1.42    0.30
  -4  -4  11    1.79    0.29
   3   4 -11    0.04    0.14
  -3  -4  11   -0.03    0.09
   2   4 -11    6.85    0.49
  -2  -4  11    6.84    0.44
   1   4 -11   41.54    1.30
  -1  -4  11   38.65    1.22
   0   4 -11    1.27    0.24
   0  -4  11    2.08    0.29
  -1   4 -11    0.03    0.13
   1  -4  11    0.12    0.12
  -2   4 -11    0.47    0.13
  -2   4 -11    0.52    0.17
   2  -4  11    0.40    0.14
   3  -4  11    0.17    0.13
   3  -4  11   -0.03    0.11
   4  -4  11    0.02    0.10
   4  -4  11   -0.05    0.08
   5  -4  11    8.92    0.50
   5   3 -11   24.77    1.21
   5   3 -11   25.41    1.04
   4   3 -11    1.72    0.30
   4   3 -11    1.45    0.34
  -4  -3  11    1.54    0.26
   3   3 -11    8.61    0.56
  -3  -3  11    8.98    0.49
   2   3 -11    0.22    0.15
  -2  -3  11    0.13    0.12
   1   3 -11    2.24    0.29
   1   3 -11    1.68    0.28
  -1  -3  11    2.28    0.30
   0   3 -11    4.50    0.39
   0   3 -11    4.39    0.34
   0  -3  11    4.77    0.37
  -1   3 -11    0.18    0.12
  -1   3 -11    0.25    0.14
   1  -3  11    0.18    0.12
  -2   3 -11    1.11    0.21
  -2   3 -11    1.18    0.19
   2  -3  11    1.21    0.22
  -3   3 -11    0.08    0.17
  -3   3 -11   -0.07    0.09
   3  -3  11    0.01    0.11
   3  -3  11    0.06    0.09
   4  -3  11   14.05    0.64
   5  -3  11    0.68    0.19
   6   2 -11    0.16    0.16
   6   2 -11    0.03    0.18
   5   2 -11    4.06    0.44
   5   2 -11    3.85    0.52
   4   2 -11    0.15    0.14
   4   2 -11    0.20    0.17
  -4  -2  11    0.25    0.12
   3   2 -11    2.15    0.32
   3   2 -11    2.77    0.38
   3   2 -11    2.47    0.34
  -3  -2  11    1.83    0.26
   2   2 -11    9.09    0.55
   2   2 -11    9.29    0.54
   2   2 -11    9.83    0.57
  -2  -2  11   10.34    0.52
   1   2 -11    1.08    0.22
   1   2 -11    1.14    0.23
  -1  -2  11    1.21    0.22
   0   2 -11    0.56    0.17
   0   2 -11    0.57    0.19
   0  -2  11    0.66    0.17
  -1   2 -11    1.50    0.24
  -1   2 -11    1.08    0.22
   1  -2  11    1.01    0.21
  -2   2 -11    3.83    0.35
  -2   2 -11    3.76    0.30
   2  -2  11    3.80    0.33
  -3   2 -11    1.19    0.20
  -3   2 -11    1.81    0.26
   3  -2  11    1.41    0.24
   4  -2  11    6.16    0.43
   5  -2  11    4.42    0.45
   6   1 -11    2.02    0.34
   6   1 -11    1.64    0.38
   5   1 -11    6.14    0.56
   5   1 -11    7.01    0.49
   4   1 -11    3.77    0.40
   4   1 -11    4.22    0.44
   4   1 -11    4.91    0.45
  -4  -1  11    4.21    0.32
   3   1 -11    5.20    0.41
   3   1 -11    5.64    0.42
   3   1 -11    5.81    0.44
  -3  -1  11    5.15    0.36
   2   1 -11   22.19    0.86
   2   1 -11   21.88    0.80
   2   1 -11   22.41    0.87
  -2  -1  11   22.28    0.80
   1   1 -11    1.96    0.30
   1   1 -11    2.10    0.29
  -1  -1  11    2.02    0.28
   0   1 -11   54.74    1.52
   0   1 -11   52.66    1.46
   0  -1  11   52.98    1.47
  -1   1 -11    0.30    0.15
  -1   1 -11    0.19    0.15
   1  -1  11    0.08    0.11
  -2   1 -11   11.76    0.55
  -2   1 -11   11.49    0.58
   2  -1  11   11.68    0.58
  -3   1 -11    2.76    0.30
  -3   1 -11    2.33    0.31
   3  -1  11    2.08    0.29
  -4   1 -11    2.29    0.28
   4  -1  11    1.38    0.26
   5  -1  11    1.23    0.25
   6   0 -11   11.38    0.63
   5   0 -11    0.09    0.14
   5   0 -11    0.07    0.15
   5   0 -11   -0.16    0.10
   4   0 -11    0.37    0.18
   4   0 -11    0.28    0.16
   4   0 -11    0.37    0.16
   3   0 -11    0.28    0.17
   3   0 -11    0.22    0.14
   3   0 -11    0.26    0.13
  -3   0  11    0.43    0.15
   2   0 -11    3.47    0.38
   2   0 -11    3.18    0.35
  -2   0  11    3.02    0.31
   1   0 -11    0.19    0.14
   1   0 -11    0.25    0.15
  -1   0  11    0.39    0.14
   0   0 -11   -0.05    0.11
   0   0 -11    0.35    0.16
   0   0  11    0.13    0.12
  -1   0 -11    2.11    0.30
  -1   0 -11    2.16    0.31
   1   0  11    2.14    0.30
  -2   0 -11    0.28    0.15
  -2   0 -11    0.25    0.15
   2   0  11    0.37    0.17
  -3   0 -11    0.17    0.14
  -3   0 -11    0.23    0.15
   3   0  11    0.24    0.14
  -4   0 -11    0.58    0.18
   4   0  11    0.65    0.21
   5   0  11    0.11    0.16
   6  -1 -11   -0.09    0.13
   6  -1 -11    0.20    0.17
   5  -1 -11    5.68    0.48
   5  -1 -11    7.00    0.49
   4  -1 -11    4.47    0.40
   4  -1 -11    4.95    0.42
   3  -1 -11    6.17    0.45
   3  -1 -11    6.51    0.47
  -3   1  11    6.24    0.39
   2  -1 -11    0.35    0.16
   2  -1 -11    0.61    0.20
  -2   1  11    0.42    0.14
   1  -1 -11    0.21    0.14
   1  -1 -11    0.30    0.15
  -1   1  11    0.15    0.11
   0  -1 -11    2.39    0.32
   0  -1 -11    1.92    0.29
   0   1  11    2.15    0.30
  -1  -1 -11    6.55    0.47
  -1  -1 -11    6.74    0.45
   1   1  11    6.02    0.44
  -2  -1 -11    3.05    0.36
  -2  -1 -11    3.34    0.37
   2   1  11    4.08    0.42
  -3  -1 -11    1.22    0.26
  -3  -1 -11    1.18    0.25
   3   1  11    1.18    0.27
  -4  -1 -11    3.67    0.40
   4   1  11    4.48    0.48
   6  -2 -11    0.16    0.16
   6  -2 -11    0.37    0.18
   5  -2 -11    1.00    0.25
   5  -2 -11    1.01    0.24
   4  -2 -11    2.89    0.39
   4  -2 -11    3.30    0.37
   3  -2 -11    0.31    0.17
   3  -2 -11    0.43    0.17
   2  -2 -11    2.81    0.36
   2  -2 -11    2.28    0.33
  -2   2  11    2.69    0.32
   1  -2 -11    0.09    0.13
   1  -2 -11    0.02    0.14
  -1   2  11    0.04    0.10
   0  -2 -11   -0.23    0.11
   0  -2 -11    0.09    0.14
   0   2  11    0.03    0.12
  -1  -2 -11    1.63    0.30
  -1  -2 -11    1.48    0.28
   1   2  11    1.77    0.30
  -2  -2 -11    0.39    0.18
  -2  -2 -11    0.23    0.17
   2   2  11    0.21    0.15
  -3  -2 -11    1.68    0.31
  -3  -2 -11    1.57    0.29
   3   2  11    1.30    0.27
   5  -3 -11    6.38    0.52
   5  -3 -11    7.15    0.50
   4  -3 -11    0.43    0.18
   4  -3 -11    0.60    0.21
   3  -3 -11    0.10    0.15
   3  -3 -11   -0.26    0.12
   2  -3 -11    6.82    0.49
   2  -3 -11    6.80    0.49
  -2   3  11    6.66    0.43
   1  -3 -11    0.13    0.15
   1  -3 -11    0.02    0.14
  -1   3  11    0.07    0.11
   0  -3 -11    0.90    0.24
   0  -3 -11    0.95    0.25
   0   3  11    0.59    0.19
  -1  -3 -11   17.98    0.83
  -1  -3 -11   18.26    0.85
   1   3  11   18.31    0.83
  -2  -3 -11    1.50    0.30
  -2  -3 -11    2.10    0.36
   2   3  11    1.59    0.29
   4  -4 -11    2.06    0.33
   4  -4 -11    1.74    0.34
   3  -4 -11    0.12    0.16
   3  -4 -11    0.75    0.23
   2  -4 -11    1.72    0.31
   2  -4 -11    1.82    0.32
   1  -4 -11    1.40    0.29
   1  -4 -11    1.00    0.27
  -1   4  11    0.69    0.21
   0  -4 -11    0.96    0.27
   0  -4 -11    1.14    0.27
   0   4  11    1.17    0.27
  -1  -4 -11    6.97    0.56
  -1  -4 -11    6.85    0.55
   1   4  11    7.45    0.55
   0  -7  12   10.92    0.65
   1  -7  12    0.08    0.12
   2  -7  12    0.40    0.18
   2  -7  12    0.89    0.24
   2   6 -12    0.98    0.29
  -2  -6  12    0.68    0.21
   1   6 -12    2.44    0.39
  -1  -6  12    2.15    0.32
   0   6 -12   49.91    1.58
   0  -6  12   50.02    1.53
   1  -6  12    3.35    0.40
   2  -6  12    7.71    0.51
   3  -6  12    0.70    0.20
   3  -6  12    0.69    0.20
   4  -6  12    4.07    0.44
   3   5 -12    1.02    0.29
  -3  -5  12    1.07    0.24
   2   5 -12    1.36    0.29
  -2  -5  12    1.00    0.24
   1   5 -12   14.12    0.73
  -1  -5  12   14.28    0.69
   0   5 -12    1.75    0.32
   0  -5  12    2.11    0.32
  -1   5 -12    2.51    0.36
   1  -5  12    2.97    0.34
   2  -5  12    2.01    0.31
   3  -5  12    2.81    0.35
   3  -5  12    2.89    0.35
   4  -5  12    0.06    0.12
   4  -5  12    0.19    0.13
   4   4 -12    2.41    0.47
   4   4 -12    2.93    0.42
  -4  -4  12    3.08    0.37
   3   4 -12    0.61    0.22
  -3  -4  12    0.31    0.16
   2   4 -12    2.46    0.35
  -2  -4  12    2.29    0.31
   1   4 -12   11.01    0.65
  -1  -4  12   11.92    0.61
   0   4 -12    2.93    0.36
   0  -4  12    3.00    0.37
  -1   4 -12    0.10    0.15
  -1   4 -12    0.24    0.13
   1  -4  12    0.22    0.14
  -2   4 -12   -0.08    0.12
  -2   4 -12    0.13    0.14
   2  -4  12   -0.05    0.10
   3  -4  12    2.35    0.29
   3  -4  12    2.78    0.35
   4  -4  12   -0.06    0.09
   4  -4  12    0.08    0.13
   5   3 -12    3.60    0.54
   5   3 -12    3.35    0.42
   4   3 -12    1.40    0.28
   4   3 -12    1.38    0.34
  -4  -3  12    1.37    0.26
   3   3 -12   -0.17    0.12
   3   3 -12   -0.12    0.14
  -3  -3  12   -0.10    0.08
   2   3 -12    1.66    0.29
  -2  -3  12    2.63    0.34
   1   3 -12    1.90    0.30
   1   3 -12    1.07    0.22
  -1  -3  12    2.07    0.30
   0   3 -12    3.81    0.42
   0   3 -12    3.32    0.35
   0  -3  12    3.97    0.42
  -1   3 -12   14.73    0.63
  -1   3 -12   14.23    0.68
   1  -3  12   14.21    0.66
  -2   3 -12    1.17    0.25
  -2   3 -12    1.38    0.22
   2  -3  12    1.41    0.26
   3  -3  12    1.33    0.21
   3  -3  12    1.38    0.24
   4  -3  12    0.15    0.13
   5  -3  12    0.56    0.18
   5   2 -12    2.00    0.40
   5   2 -12    2.45    0.36
   4   2 -12   -0.09    0.13
   4   2 -12    0.03    0.15
  -4  -2  12    0.08    0.11
   3   2 -12    1.08    0.25
   3   2 -12    0.67    0.23
   3   2 -12    0.81    0.24
  -3  -2  12    1.26    0.22
   2   2 -12    0.33    0.18
   2   2 -12    0.46    0.17
   2   2 -12    0.67    0.20
  -2  -2  12    0.46    0.15
   1   2 -12    0.21    0.15
   1   2 -12    0.18    0.16
  -1  -2  12    0.22    0.13
   0   2 -12    2.40    0.34
   0   2 -12    2.28    0.30
   0  -2  12    1.66    0.25
  -1   2 -12    2.54    0.31
  -1   2 -12    1.83    0.30
   1  -2  12    2.33    0.31
  -2   2 -12   -0.15    0.10
  -2   2 -12    0.01    0.13
   2  -2  12    0.14    0.12
  -3   2 -12    0.03    0.11
   3  -2  12   -0.02    0.09
   4  -2  12    0.18    0.12
   5   1 -12    1.84    0.37
   5   1 -12    2.73    0.37
   4   1 -12    1.37    0.28
   4   1 -12    2.67    0.37
   4   1 -12    2.05    0.35
   3   1 -12   -0.01    0.14
   3   1 -12    0.07    0.13
   3   1 -12    0.05    0.13
  -3  -1  12    0.09    0.10
   2   1 -12    1.71    0.30
   2   1 -12    1.56    0.27
  -2  -1  12    1.60    0.25
   1   1 -12    2.85    0.35
   1   1 -12    3.03    0.38
  -1  -1  12    2.36    0.29
   0   1 -12    2.97    0.34
   0   1 -12    2.89    0.37
   0  -1  12    2.91    0.36
  -1   1 -12    0.54    0.19
  -1   1 -12    0.85    0.22
   1  -1  12    0.86    0.20
  -2   1 -12    3.38    0.40
  -2   1 -12    2.98    0.35
   2  -1  12    3.19    0.36
  -3   1 -12   11.59    0.62
  -3   1 -12   11.94    0.58
   3  -1  12    9.85    0.58
   4  -1  12    0.77    0.22
   5   0 -12    1.89    0.33
   5   0 -12    2.10    0.33
   4   0 -12    1.88    0.31
   4   0 -12    2.67    0.36
   3   0 -12    0.43    0.18
   3   0 -12    0.11    0.13
  -3   0  12    0.35    0.15
   2   0 -12    0.01    0.12
   2   0 -12    0.15    0.15
  -2   0  12    0.25    0.13
   1   0 -12    4.38    0.44
   1   0 -12    4.11    0.43
  -1   0  12    4.59    0.38
   0   0 -12    0.06    0.14
   0   0 -12   -0.02    0.12
   0   0  12   -0.10    0.10
  -1   0 -12    0.15    0.14
  -1   0 -12    0.06    0.14
   1   0  12   -0.03    0.10
  -2   0 -12    2.30    0.34
  -2   0 -12    1.97    0.29
   2   0  12    2.40    0.33
  -3   0 -12    0.55    0.19
  -3   0 -12    0.49    0.20
   3   0  12    0.07    0.14
  -4   0 -12    1.87    0.29
   4   0  12    1.06    0.25
   5  -1 -12   -0.22    0.12
   5  -1 -12    0.00    0.16
   4  -1 -12   10.65    0.62
   4  -1 -12    9.95    0.62
   3  -1 -12   -0.06    0.14
   3  -1 -12    0.15    0.14
  -3   1  12    0.01    0.11
   2  -1 -12    1.77    0.31
   2  -1 -12    1.41    0.28
  -2   1  12    1.74    0.26
   1  -1 -12    4.79    0.42
   1  -1 -12    4.40    0.39
  -1   1  12    4.73    0.38
   0  -1 -12    3.59    0.41
   0  -1 -12    4.50    0.47
   0   1  12    4.21    0.44
  -1  -1 -12    0.35    0.17
  -1  -1 -12    0.51    0.20
   1   1  12    0.28    0.15
  -2  -1 -12    6.86    0.52
  -2  -1 -12    7.12    0.50
   2   1  12    7.47    0.52
  -3  -1 -12    2.26    0.36
  -3  -1 -12    2.87    0.38
   3   1  12    2.77    0.40
   5  -2 -12    1.32    0.28
   5  -2 -12    1.77    0.32
   4  -2 -12   10.93    0.64
   4  -2 -12   11.11    0.67
   3  -2 -12    1.69    0.30
   3  -2 -12    1.88    0.32
   2  -2 -12    0.21    0.16
   2  -2 -12    0.09    0.15
  -2   2  12    0.04    0.11
   1  -2 -12    2.27    0.34
   1  -2 -12    2.83    0.39
  -1   2  12    2.29    0.31
   0  -2 -12    0.69    0.21
   0  -2 -12    0.65    0.22
   0   2  12    0.94    0.23
  -1  -2 -12    2.76    0.40
  -1  -2 -12    2.51    0.35
   1   2  12    1.93    0.32
  -2  -2 -12    6.29    0.51
  -2  -2 -12    6.58    0.50
   2   2  12    6.42    0.50
   4  -3 -12    0.15    0.16
   4  -3 -12   -0.01    0.14
   3  -3 -12   -0.11    0.13
   3  -3 -12    0.01    0.14
   2  -3 -12    0.11    0.18
   2  -3 -12    0.32    0.18
   1  -3 -12    1.56    0.31
   1  -3 -12    1.59    0.30
  -1   3  12    1.77    0.28
   0  -3 -12    2.60    0.37
   0  -3 -12    2.64    0.39
   0   3  12    2.56    0.37
  -1  -3 -12   29.22    1.17
  -1  -3 -12   31.06    1.19
   1   3  12   30.87    1.15
   1   6 -13    2.78    0.42
  -1  -6  13    3.79    0.45
   0   6 -13    3.73    0.48
   0  -6  13    3.36    0.40
   1  -6  13    2.08    0.34
   2  -6  13    0.29    0.18
   2   5 -13    3.69    0.49
  -2  -5  13    3.80    0.43
   1   5 -13    4.14    0.48
  -1  -5  13    3.76    0.41
   0   5 -13    0.04    0.17
   0  -5  13    0.28    0.15
  -1   5 -13    5.38    0.46
   1  -5  13    5.84    0.46
   2  -5  13    5.33    0.44
   3  -5  13    3.33    0.41
   3  -5  13    3.39    0.38
   3   4 -13   -0.02    0.15
  -3  -4  13   -0.19    0.09
   2   4 -13    0.28    0.21
  -2  -4  13    0.21    0.14
   1   4 -13    0.07    0.19
  -1  -4  13    0.08    0.13
   0   4 -13   -0.02    0.14
   0  -4  13    0.39    0.16
  -1   4 -13    0.13    0.13
  -1   4 -13   -0.05    0.16
   1  -4  13    0.22    0.15
   2  -4  13    2.30    0.31
   3  -4  13    0.56    0.19
   3  -4  13    0.64    0.18
   4   3 -13    0.24    0.20
   4   3 -13    0.10    0.18
   3   3 -13    0.72    0.25
   3   3 -13    0.68    0.24
  -3  -3  13    1.45    0.27
   2   3 -13   -0.10    0.14
  -2  -3  13    0.22    0.16
   1   3 -13    1.28    0.29
   1   3 -13    0.98    0.23
  -1  -3  13    1.43    0.26
   0   3 -13    2.16    0.31
   0   3 -13    2.61    0.37
   0  -3  13    1.84    0.29
  -1   3 -13    9.61    0.53
  -1   3 -13   10.10    0.60
   1  -3  13    9.22    0.55
  -2   3 -13    1.15    0.24
  -2   3 -13    1.04    0.21
   2  -3  13    1.40    0.27
   3  -3  13    0.77    0.21
   4  -3  13    7.68    0.52
   4   2 -13    0.10    0.17
   4   2 -13    0.22    0.19
   3   2 -13    3.13    0.41
   3   2 -13    3.29    0.41
  -3  -2  13    3.62    0.39
   2   2 -13    0.95    0.26
   2   2 -13    0.46    0.19
  -2  -2  13    0.78    0.20
   1   2 -13   -0.18    0.10
   1   2 -13   -0.02    0.15
  -1  -2  13   -0.05    0.10
   0   2 -13    5.40    0.46
   0   2 -13    6.12    0.44
   0  -2  13    5.05    0.41
  -1   2 -13    0.40    0.19
  -1   2 -13    0.48    0.17
   1  -2  13    0.53    0.17
  -2   2 -13    2.11    0.30
  -2   2 -13    2.01    0.33
   2  -2  13    2.29    0.34
   3  -2  13    2.15    0.33
   4  -2  13    4.75    0.49
   4   1 -13    0.51    0.20
   4   1 -13    0.38    0.19
   3   1 -13    9.69    0.62
   3   1 -13    8.80    0.59
  -3  -1  13    9.37    0.53
   2   1 -13    2.18    0.34
   2   1 -13    2.25    0.34
  -2  -1  13    2.31    0.31
   1   1 -13    0.69    0.23
   1   1 -13    1.10    0.26
  -1  -1  13    0.63    0.18
   0   1 -13    0.07    0.14
   0   1 -13    0.27    0.18
   0  -1  13    0.22    0.15
  -1   1 -13    3.23    0.41
  -1   1 -13    2.72    0.35
   1  -1  13    3.04    0.36
  -2   1 -13    1.67    0.30
  -2   1 -13    1.39    0.26
   2  -1  13    1.14    0.26
  -3   1 -13    5.01    0.41
   3  -1  13    4.77    0.49
   4   0 -13    0.35    0.20
   4   0 -13    0.65    0.24
   3   0 -13   10.07    0.63
   3   0 -13    9.80    0.62
  -3   0  13    8.18    0.51
   2   0 -13    0.10    0.16
   2   0 -13    0.21    0.17
  -2   0  13    0.38    0.16
   1   0 -13    0.04    0.14
   1   0 -13    0.10    0.17
  -1   0  13    0.47    0.16
   0   0 -13    0.22    0.15
   0   0 -13    0.43    0.19
   0   0  13    0.57    0.18
  -1   0 -13    0.07    0.15
  -1   0 -13    0.02    0.14
   1   0  13    0.14    0.15
  -2   0 -13    0.26    0.15
  -2   0 -13    0.11    0.17
   2   0  13    0.19    0.15
  -3   0 -13    1.12    0.25
   3   0  13    1.33    0.29
   4  -1 -13    5.19    0.54
   4  -1 -13    5.80    0.50
   3  -1 -13    0.19    0.19
   3  -1 -13    0.33    0.19
   2  -1 -13    0.18    0.16
   2  -1 -13    0.11    0.17
  -2   1  13    0.08    0.12
   1  -1 -13    0.35    0.20
   1  -1 -13    0.50    0.21
  -1   1  13    0.20    0.15
   0  -1 -13    1.33    0.28
   0  -1 -13    1.29    0.29
   0   1  13    1.84    0.31
  -1  -1 -13    2.49    0.36
  -1  -1 -13    2.59    0.38
   1   1  13    3.13    0.41
  -2  -1 -13   23.80    0.98
  -2  -1 -13   23.60    1.02
   2   1  13   24.83    1.02
   3  -2 -13    0.09    0.15
   3  -2 -13   -0.05    0.14
   2  -2 -13    1.47    0.31
   2  -2 -13    1.27    0.29
  -2   2  13    1.79    0.43
   1  -2 -13    0.59    0.22
   1  -2 -13    1.05    0.27
  -1   2  13    0.74    0.22
   0  -2 -13    1.03    0.28
   0  -2 -13    1.16    0.31
   0   2  13    1.36    0.26
  -1  -2 -13    0.18    0.19
  -1  -2 -13    0.57    0.22
   1   2  13    0.24    0.17
   0   5 -14    0.96    0.26
   0  -5  14    1.67    0.32
   1  -5  14    0.26    0.15
   2   4 -14    5.96    0.54
  -2  -4  14    4.88    0.44
   1   4 -14    1.30    0.30
  -1  -4  14    1.09    0.25
   0   4 -14    1.88    0.34
   0  -4  14    1.39    0.27
  -1   4 -14    4.80    0.49
   1  -4  14    4.81    0.48
   2  -4  14    5.60    0.55
   3   3 -14    0.33    0.21
  -3  -3  14   -0.18    0.09
   2   3 -14    2.91    0.40
   2   3 -14    3.68    0.43
  -2  -3  14    2.99    0.38
   1   3 -14    0.09    0.18
   1   3 -14    0.13    0.14
  -1  -3  14   -0.07    0.14
   0   3 -14    1.44    0.27
   0   3 -14    0.99    0.27
   0  -3  14    1.26    0.27
  -1   3 -14    2.94    0.35
  -1   3 -14    2.25    0.35
   1  -3  14    1.93    0.31
   2  -3  14    1.19    0.26
   3   2 -14    0.12    0.16
   3   2 -14    0.49    0.23
  -3  -2  14   -0.13    0.09
   2   2 -14   17.08    0.86
   2   2 -14   16.25    0.81
  -2  -2  14   17.05    0.78
   1   2 -14    0.66    0.22
   1   2 -14    0.31    0.20
  -1  -2  14    0.33    0.18
   0   2 -14    0.91    0.26
   0   2 -14    1.09    0.26
   0  -2  14    0.93    0.22
  -1   2 -14    1.91    0.30
  -1   2 -14    1.57    0.32
   1  -2  14    1.54    0.28
  -2   2 -14    1.31    0.27
  -2   2 -14    0.95    0.28
   2  -2  14    1.12    0.24
   3   1 -14   10.72    0.68
   3   1 -14   11.09    0.69
  -3  -1  14   11.87    0.65
   2   1 -14    0.56    0.22
   2   1 -14    0.65    0.24
  -2  -1  14    0.60    0.22
   1   1 -14    1.43    0.29
   1   1 -14    1.57    0.33
  -1  -1  14    2.70    0.37
   0   1 -14    1.54    0.29
   0   1 -14    1.60    0.31
   0  -1  14    1.76    0.29
  -1   1 -14    0.03    0.13
  -1   1 -14    0.12    0.17
   1  -1  14    0.05    0.13
  -2   1 -14    3.84    0.45
  -2   1 -14    4.22    0.44
   2  -1  14    5.62    0.56
   3   0 -14   12.19    0.73
   3   0 -14   11.20    0.69
   2   0 -14    2.87    0.39
   2   0 -14    3.10    0.42
  -2   0  14    3.66    0.41
   1   0 -14    0.37    0.20
   1   0 -14    0.26    0.19
  -1   0  14    0.23    0.14
   0   0 -14    1.08    0.27
   0   0 -14    0.96    0.26
   0   0  14    0.58    0.20
  -1   0 -14    0.20    0.19
  -1   0 -14    0.20    0.18
   1   0  14    0.21    0.18
   2  -1 -14    0.80    0.24
   2  -1 -14    0.58    0.23
  -2   1  14    0.48    0.18
   1  -1 -14   17.50    0.87
   1  -1 -14   15.82    0.83
  -1   1  14   17.39    0.80
   0  -1 -14    0.19    0.19
   0  -1 -14    0.18    0.19
   0   1  14    0.16    0.17
   0   0   0    0.00    0.00
;
_shelx_hkl_checksum              27410
_olex2_date_sample_data_collection 2015-04-09
_olex2_date_sample_submission    2015-04-09
_olex2_submission_original_sample_id d040415_1_1
_olex2_submission_special_instructions 'No special instructions were received'
loop_
_space_group_symop_operation_xyz
'x, y, z'
'-x, -y, -z'
loop_
_atom_site_label
_atom_site_type_symbol
_atom_site_fract_x
_atom_site_fract_y
_atom_site_fract_z
_atom_site_U_iso_or_equiv
_atom_site_adp_type
_atom_site_occupancy
_atom_site_site_symmetry_order
_atom_site_calc_flag
_atom_site_refinement_flags_posn
F1 F 0.75593(15) 0.15696(14) 0.36731(7) 0.0384(3) Uani 1 1 d .
F2 F 0.15915(10) 0.12924(11) 1.09767(7) 0.0212(2) Uani 1 1 d .
N1 N 1.24229(15) 0.36604(16) 0.66676(9) 0.0181(2) Uani 1 1 d .
C1 C 0.7688(2) 0.2006(2) 0.48937(11) 0.0237(3) Uani 1 1 d .
C2 C 0.77635(19) 0.3879(2) 0.54792(12) 0.0209(3) Uani 1 1 d .
H2 H 0.7696 0.4836 0.5048 0.025 Uiso 1 1 calc R
C3 C 0.79424(17) 0.43213(18) 0.67243(11) 0.0159(3) Uani 1 1 d .
H3 H 0.8013 0.5607 0.7154 0.019 Uiso 1 1 calc R
C4 C 0.80200(16) 0.29090(17) 0.73519(10) 0.0128(2) Uani 1 1 d .
C5 C 0.81932(17) 0.34494(16) 0.86895(10) 0.0120(2) Uani 1 1 d .
C6 C 0.99683(16) 0.46362(16) 0.93569(10) 0.0110(2) Uani 1 1 d .
C7 C 0.7731(2) 0.0556(2) 0.54712(12) 0.0231(3) Uani 1 1 d .
H7 H 0.7656 -0.0726 0.5032 0.028 Uiso 1 1 calc R
C8 C 0.78893(18) 0.10171(18) 0.67130(11) 0.0181(3) Uani 1 1 d .
H8 H 0.7909 0.0037 0.7134 0.022 Uiso 1 1 calc R
C9 C 0.65362(17) 0.28737(16) 0.92705(10) 0.0118(2) Uani 1 1 d .
C10 C 0.65715(17) 0.35711(16) 1.05426(10) 0.0119(2) Uani 1 1 d .
C11 C 0.48473(17) 0.30088(17) 1.11123(11) 0.0140(2) Uani 1 1 d .
H11 H 0.4840 0.3452 1.1954 0.017 Uiso 1 1 calc R
C12 C 0.32262(17) 0.18355(17) 1.04333(11) 0.0149(3) Uani 1 1 d .
C13 C 0.31181(17) 0.11420(17) 0.91799(11) 0.0154(3) Uani 1 1 d .
H13 H 0.1936 0.0328 0.8739 0.018 Uiso 1 1 calc R
C14 C 0.47350(17) 0.16613(17) 0.86173(11) 0.0142(3) Uani 1 1 d .
H14 H 0.4675 0.1213 0.7772 0.017 Uiso 1 1 calc R
C15 C 1.17210(16) 0.51500(16) 0.88079(10) 0.0115(2) Uani 1 1 d .
C16 C 1.19564(17) 0.42796(17) 0.75871(11) 0.0132(2) Uani 1 1 d .
loop_
_atom_site_aniso_label
_atom_site_aniso_U_11
_atom_site_aniso_U_22
_atom_site_aniso_U_33
_atom_site_aniso_U_23
_atom_site_aniso_U_13
_atom_site_aniso_U_12
F1 0.0532(6) 0.0429(5) 0.0074(4) -0.0015(4) 0.0006(4) -0.0040(4)
F2 0.0135(4) 0.0268(4) 0.0202(4) 0.0051(3) 0.0056(3) -0.0018(3)
N1 0.0176(5) 0.0224(6) 0.0129(5) 0.0018(4) 0.0025(4) 0.0042(4)
C1 0.0233(7) 0.0326(7) 0.0074(6) -0.0008(5) 0.0002(5) -0.0034(6)
C2 0.0190(6) 0.0294(7) 0.0139(6) 0.0078(5) 0.0004(5) 0.0025(5)
C3 0.0133(6) 0.0203(6) 0.0129(6) 0.0023(5) 0.0012(4) 0.0034(5)
C4 0.0097(5) 0.0169(6) 0.0097(5) 0.0012(4) 0.0008(4) 0.0006(4)
C5 0.0150(6) 0.0103(5) 0.0102(6) 0.0010(4) 0.0007(4) 0.0038(4)
C6 0.0135(6) 0.0111(5) 0.0089(6) 0.0025(4) 0.0015(4) 0.0036(4)
C7 0.0250(7) 0.0206(6) 0.0153(6) -0.0056(5) 0.0032(5) -0.0023(5)
C8 0.0189(6) 0.0170(6) 0.0148(6) 0.0005(5) 0.0025(5) 0.0003(5)
C9 0.0132(5) 0.0102(5) 0.0120(6) 0.0023(4) 0.0010(4) 0.0033(4)
C10 0.0132(5) 0.0110(5) 0.0123(6) 0.0033(4) 0.0020(4) 0.0040(4)
C11 0.0148(6) 0.0150(6) 0.0124(6) 0.0033(4) 0.0030(4) 0.0039(4)
C12 0.0125(6) 0.0149(6) 0.0190(6) 0.0069(5) 0.0059(5) 0.0035(4)
C13 0.0128(6) 0.0135(5) 0.0172(6) 0.0019(5) -0.0016(4) 0.0004(4)
C14 0.0152(6) 0.0130(5) 0.0125(6) 0.0009(4) -0.0007(4) 0.0022(4)
C15 0.0133(6) 0.0121(5) 0.0092(5) 0.0025(4) 0.0013(4) 0.0035(4)
C16 0.0116(5) 0.0149(5) 0.0126(6) 0.0038(5) 0.0001(4) 0.0018(4)
loop_
_atom_type_symbol
_atom_type_description
_atom_type_scat_dispersion_real
_atom_type_scat_dispersion_imag
_atom_type_scat_source
C C 0.0033 0.0016 'International Tables Vol C Tables 4.2.6.8 and 6.1.1.4'
H H 0.0000 0.0000 'International Tables Vol C Tables 4.2.6.8 and 6.1.1.4'
F F 0.0171 0.0103 'International Tables Vol C Tables 4.2.6.8 and 6.1.1.4'
N N 0.0061 0.0033 'International Tables Vol C Tables 4.2.6.8 and 6.1.1.4'
loop_
_geom_angle_atom_site_label_1
_geom_angle_atom_site_label_2
_geom_angle_atom_site_label_3
_geom_angle
_geom_angle_site_symmetry_1
_geom_angle_site_symmetry_3
F1 C1 C2 117.99(13) . .
F1 C1 C7 118.37(12) . .
C7 C1 C2 123.64(12) . .
C1 C2 H2 121.2 . .
C1 C2 C3 117.58(13) . .
C3 C2 H2 121.2 . .
C2 C3 H3 119.5 . .
C2 C3 C4 120.98(12) . .
C4 C3 H3 119.5 . .
C3 C4 C5 119.03(10) . .
C3 C4 C8 119.15(11) . .
C8 C4 C5 121.81(11) . .
C6 C5 C4 120.65(10) . .
C9 C5 C4 118.66(10) . .
C9 C5 C6 120.56(10) . .
C5 C6 C6 119.94(13) . 2_767
C5 C6 C15 122.23(10) . .
C15 C6 C6 117.84(13) . 2_767
C1 C7 H7 121.0 . .
C1 C7 C8 118.03(12) . .
C8 C7 H7 121.0 . .
C4 C8 H8 119.7 . .
C7 C8 C4 120.60(12) . .
C7 C8 H8 119.7 . .
C5 C9 C10 120.24(10) . .
C5 C9 C14 121.56(11) . .
C14 C9 C10 118.13(11) . .
C11 C10 C9 119.32(11) . .
C15 C10 C9 119.26(11) 2_767 .
C15 C10 C11 121.37(11) 2_767 .
C10 C11 H11 120.7 . .
C12 C11 C10 118.68(11) . .
C12 C11 H11 120.7 . .
F2 C12 C13 117.51(11) . .
C11 C12 F2 118.63(11) . .
C11 C12 C13 123.85(11) . .
C12 C13 H13 120.7 . .
C14 C13 C12 118.58(11) . .
C14 C13 H13 120.7 . .
C9 C14 H14 119.3 . .
C13 C14 C9 121.42(11) . .
C13 C14 H14 119.3 . .
C6 C15 C16 123.38(10) . .
C10 C15 C6 121.88(10) 2_767 .
C10 C15 C16 114.49(10) 2_767 .
N1 C16 C15 170.31(12) . .
loop_
_geom_bond_atom_site_label_1
_geom_bond_atom_site_label_2
_geom_bond_distance
_geom_bond_site_symmetry_2
F1 C1 1.3614(14) .
F2 C12 1.3550(14) .
N1 C16 1.1479(16) .
C1 C2 1.374(2) .
C1 C7 1.373(2) .
C2 H2 0.9500 .
C2 C3 1.3880(17) .
C3 H3 0.9500 .
C3 C4 1.3914(18) .
C4 C5 1.4915(16) .
C4 C8 1.3961(17) .
C5 C6 1.4212(16) .
C5 C9 1.3973(16) .
C6 C6 1.451(2) 2_767
C6 C15 1.4222(16) .
C7 H7 0.9500 .
C7 C8 1.3845(17) .
C8 H8 0.9500 .
C9 C10 1.4349(16) .
C9 C14 1.4340(16) .
C10 C11 1.4254(16) .
C10 C15 1.4027(16) 2_767
C11 H11 0.9500 .
C11 C12 1.3483(17) .
C12 C13 1.4094(17) .
C13 H13 0.9500 .
C13 C14 1.3541(17) .
C14 H14 0.9500 .
C15 C10 1.4027(16) 2_767
C15 C16 1.4409(16) .
loop_
_geom_torsion_atom_site_label_1
_geom_torsion_atom_site_label_2
_geom_torsion_atom_site_label_3
_geom_torsion_atom_site_label_4
_geom_torsion
_geom_torsion_site_symmetry_1
_geom_torsion_site_symmetry_4
F1 C1 C2 C3 -178.47(11) . .
F1 C1 C7 C8 179.13(12) . .
F2 C12 C13 C14 -179.83(10) . .
C1 C2 C3 C4 -0.68(18) . .
C1 C7 C8 C4 -0.65(19) . .
C2 C1 C7 C8 -1.0(2) . .
C2 C3 C4 C5 -179.41(11) . .
C2 C3 C4 C8 -0.83(18) . .
C3 C4 C5 C6 -70.66(15) . .
C3 C4 C5 C9 105.14(13) . .
C3 C4 C8 C7 1.52(18) . .
C4 C5 C6 C6 171.67(12) . 2_767
C4 C5 C6 C15 -8.40(17) . .
C4 C5 C9 C10 -172.02(10) . .
C4 C5 C9 C14 4.81(16) . .
C5 C4 C8 C7 -179.94(11) . .
C5 C6 C15 C10 175.52(10) . 2_767
C5 C6 C15 C16 -10.53(18) . .
C5 C9 C10 C11 178.25(10) . .
C5 C9 C10 C15 0.63(17) . 2_767
C5 C9 C14 C13 -178.47(11) . .
C6 C5 C9 C10 3.78(17) . .
C6 C5 C9 C14 -179.38(10) . .
C6 C6 C15 C10 -4.55(19) 2_767 2_767
C6 C6 C15 C16 169.40(12) 2_767 .
C7 C1 C2 C3 1.6(2) . .
C8 C4 C5 C6 110.80(13) . .
C8 C4 C5 C9 -73.40(15) . .
C9 C5 C6 C6 -4.04(19) . 2_767
C9 C5 C6 C15 175.88(10) . .
C9 C10 C11 C12 -0.14(17) . .
C10 C9 C14 C13 -1.57(17) . .
C10 C11 C12 F2 179.61(10) . .
C10 C11 C12 C13 -0.88(18) . .
C11 C12 C13 C14 0.65(19) . .
C12 C13 C14 C9 0.62(18) . .
C14 C9 C10 C11 1.31(16) . .
C14 C9 C10 C15 -176.30(10) . 2_767
C15 C10 C11 C12 177.42(11) 2_767 .
