#------------------------------------------------------------------------------
#$Date: 2017-09-12 06:12:41 +0300 (Tue, 12 Sep 2017) $
#$Revision: 200608 $
#$URL: file:///home/coder/svn-repositories/cod/cif/1/54/70/1547090.cif $
#------------------------------------------------------------------------------
#
# This file is available in the Crystallography Open Database (COD),
# http://www.crystallography.net/
#
# All data on this site have been placed in the public domain by the
# contributors.
#
data_1547090
loop_
_publ_author_name
'Bruneau-Voisine, Antoine'
'Wang, Ding'
'Dorcet, Vincent'
'Roisnel, Thierry'
'Darcel, Christophe'
'Sortais, Jean-Baptiste'
_publ_section_title
;
 Transfer Hydrogenation of Carbonyl Derivatives Catalyzed by an
 Inexpensive Phosphine-Free Manganese Precatalyst.
;
_journal_issue                   13
_journal_name_full               'Organic letters'
_journal_page_first              3656
_journal_page_last               3659
_journal_paper_doi               10.1021/acs.orglett.7b01657
_journal_volume                  19
_journal_year                    2017
_chemical_compound_source        'synthesis as described'
_chemical_formula_moiety         'C10 H10 Br Mn N2 O3'
_chemical_formula_sum            'C10 H10 Br Mn N2 O3'
_chemical_formula_weight         341.05
_chemical_name_systematic
;
 ?
;
_space_group_crystal_system      triclinic
_space_group_IT_number           2
_space_group_name_Hall           '-P 1'
_space_group_name_H-M_alt        'P -1'
_symmetry_space_group_name_Hall  '-P 1'
_symmetry_space_group_name_H-M   'P -1'
_atom_sites_solution_hydrogens   mixed
_cell_angle_alpha                78.215(8)
_cell_angle_beta                 85.488(8)
_cell_angle_gamma                72.757(7)
_cell_formula_units_Z            2
_cell_length_a                   6.7610(15)
_cell_length_b                   7.2814(16)
_cell_length_c                   13.336(3)
_cell_measurement_reflns_used    9584
_cell_measurement_temperature    150
_cell_measurement_theta_max      27.56
_cell_measurement_theta_min      3.12
_cell_measurement_wavelength     0.71073
_cell_volume                     613.7(2)
_computing_cell_refinement       'APEX3 (Bruker, 2015); SAINT (Bruker, 2014)'
_computing_data_collection       'SAINT (Bruker, 2014)'
_computing_data_reduction        'SAINT (Bruker, 2014)'
_computing_molecular_graphics
'SXGRAPH (Farrugia, 1999), Mercury (CSD, 2014)'
_computing_publication_material  'CRYSCALC (T. Roisnel, local program, 2016)'
_computing_structure_refinement  'SHELXL-2016/6 (Sheldrick, 2016)'
_computing_structure_solution    'SHELXT (Sheldrick, 2015)'
_diffrn_ambient_temperature      150
_diffrn_detector                 '(CMOS) PHOTON 100'
_diffrn_measured_fraction_theta_full 0.943
_diffrn_measured_fraction_theta_max 0.917
_diffrn_measurement_device_type  'D8 VENTURE Bruker AXS'
_diffrn_measurement_method       'rotation images'
_diffrn_radiation_monochromator  'multilayer monochromator'
_diffrn_radiation_probe          x-ray
_diffrn_radiation_source         'Incoatec microfocus sealed tube'
_diffrn_radiation_type           MoK\a
_diffrn_radiation_wavelength     0.71073
_diffrn_reflns_av_unetI/netI     0.0412
_diffrn_reflns_limit_h_max       8
_diffrn_reflns_limit_h_min       -8
_diffrn_reflns_limit_k_max       9
_diffrn_reflns_limit_k_min       -9
_diffrn_reflns_limit_l_max       17
_diffrn_reflns_limit_l_min       0
_diffrn_reflns_number            2522
_diffrn_reflns_theta_full        25.000
_diffrn_reflns_theta_max         27.523
_diffrn_reflns_theta_min         2.984
_exptl_absorpt_coefficient_mu    4.327
_exptl_absorpt_correction_T_max  0.500
_exptl_absorpt_correction_T_min  0.371
_exptl_absorpt_correction_type   multi-scan
_exptl_absorpt_process_details
;
  [Sheldrick, G.M. (2014). SADABS Bruker AXS Inc., Madison, Wisconsin, USA]
;
_exptl_crystal_colour            yellow
_exptl_crystal_density_diffrn    1.846
_exptl_crystal_description       prism
_exptl_crystal_F_000             336
_exptl_crystal_size_max          0.330
_exptl_crystal_size_mid          0.250
_exptl_crystal_size_min          0.160
_refine_diff_density_max         0.769
_refine_diff_density_min         -0.957
_refine_diff_density_rms         0.175
_refine_ls_extinction_method     none
_refine_ls_goodness_of_fit_ref   1.059
_refine_ls_hydrogen_treatment    mixed
_refine_ls_matrix_type           full
_refine_ls_number_parameters     159
_refine_ls_number_reflns         2522
_refine_ls_number_restraints     0
_refine_ls_restrained_S_all      1.059
_refine_ls_R_factor_all          0.0449
_refine_ls_R_factor_gt           0.0398
_refine_ls_shift/su_max          0.006
_refine_ls_shift/su_mean         0.001
_refine_ls_structure_factor_coef Fsqd
_refine_ls_weighting_details
'w=1/[\s^2^(Fo^2^)+(0.0661P)^2^+1.6294P] where P=(Fo^2^+2Fc^2^)/3'
_refine_ls_weighting_scheme      calc
_refine_ls_wR_factor_gt          0.1038
_refine_ls_wR_factor_ref         0.1066
_reflns_number_gt                2400
_reflns_number_total             2522
_reflns_threshold_expression     >2sigma(I)
_cod_data_source_file            ol7b01657_si_005.cif
_cod_data_source_block           WD164
_cod_database_code               1547090
_shelx_res_file
;
TITL twin4_a.res in P-1
    twin5.res
    created by SHELXL-2016/6 at 14:46:26 on 05-Dec-2016
CELL  0.71073   6.7610   7.2814  13.3364   78.215   85.488   72.757
ZERR     2.00   0.0015   0.0016   0.0032    0.008    0.008    0.007
LATT   1
SFAC  C    H    O    N    BR   MN
UNIT  20   20   6    4    2    2
MERG   2
FMAP   2
PLAN   20
SIZE     0.16   0.25   0.33
ACTA 50
BOND   $H
CONF
LIST   6
WPDB   1
L.S.   4
TEMP  -123.00
WGHT    0.066100    1.629400
BASF   0.51962
FVAR       1.00862
MN1   6    0.633267    0.553733    0.276114    11.00000    0.01185    0.00965 =
         0.01284   -0.00122   -0.00241   -0.00363
BR1   5    0.329920    0.457125    0.374456    11.00000    0.01607    0.01779 =
         0.01469   -0.00165   -0.00105   -0.00852
C1    1    0.846833    0.610001    0.201160    11.00000    0.01831    0.01497 =
         0.01820   -0.00164   -0.00751   -0.00466
O2    3    0.984041    0.637492    0.148266    11.00000    0.02186    0.03653 =
         0.02564    0.00593    0.00232   -0.01473
C3    1    0.805797    0.355668    0.362737    11.00000    0.01566    0.01634 =
         0.01594   -0.00719    0.00613   -0.00853
O4    3    0.914936    0.227250    0.416267    11.00000    0.02058    0.01976 =
         0.02545    0.00287   -0.00604   -0.00647
C5    1    0.631939    0.387096    0.193066    11.00000    0.01239    0.01883 =
         0.02018   -0.00150    0.00130   -0.00284
O6    3    0.635629    0.280669    0.139446    11.00000    0.03671    0.02733 =
         0.03182   -0.01893    0.00121   -0.01082
N11   4    0.426487    0.794668    0.194237    11.00000    0.01473    0.01044 =
         0.01357   -0.00226    0.00000   -0.00393
C12   1    0.375199    0.818856    0.094896    11.00000    0.01627    0.01603 =
         0.01536   -0.00352   -0.00035   -0.00582
AFIX  43
H12   2    0.432016    0.713203    0.059772    11.00000   -1.20000
AFIX   0
C13   1    0.244295    0.989892    0.042562    11.00000    0.01601    0.02251 =
         0.01638    0.00043   -0.00218   -0.00690
AFIX  43
H13   2    0.208920    1.000519   -0.026355    11.00000   -1.20000
AFIX   0
C14   1    0.165966    1.145474    0.093181    11.00000    0.01912    0.01547 =
         0.02207    0.00522   -0.00902    0.00009
AFIX  43
H14   2    0.078552    1.266014    0.058583    11.00000   -1.20000
AFIX   0
C15   1    0.216108    1.124184    0.195137    11.00000    0.01599    0.01609 =
         0.02355   -0.00592   -0.00054    0.00139
AFIX  43
H15   2    0.163449    1.229306    0.230994    11.00000   -1.20000
AFIX   0
C16   1    0.344409    0.946408    0.243071    11.00000    0.01268    0.01215 =
         0.01540    0.00005   -0.00002   -0.00422
C17   1    0.397316    0.905888    0.355398    11.00000    0.01782    0.01519 =
         0.01816   -0.00711   -0.00384    0.00129
AFIX  23
H17A  2    0.403568    1.027822    0.375244    11.00000   -1.20000
H17B  2    0.288608    0.859518    0.398004    11.00000   -1.20000
AFIX   0
N18   4    0.601595    0.753754    0.373169    11.00000    0.02017    0.01243 =
         0.01437   -0.00289   -0.00398   -0.00581
AFIX   2
H18   2    0.605074    0.674448    0.448551    11.00000   -1.20000
AFIX   0
C19   1    0.770139    0.846363    0.368753    11.00000    0.02699    0.02438 =
         0.02560   -0.00599   -0.00178   -0.01577
AFIX 137
H19A  2    0.775724    0.926782    0.300616    11.00000   -1.50000
H19B  2    0.902507    0.744508    0.382140    11.00000   -1.50000
H19C  2    0.743915    0.929192    0.420575    11.00000   -1.50000
AFIX   0
HKLF    5




REM  twin4_a.res in P-1
REM R1 =  0.0398 for    2400 Fo > 4sig(Fo)  and  0.0449 for all    2522 data
REM    159 parameters refined using      0 restraints

END

WGHT      0.0643      1.7654

REM Highest difference peak  0.769,  deepest hole -0.957,  1-sigma level  0.175
Q1    1   0.2091  0.7360  0.3336  11.00000  0.05    0.77
Q2    1   0.4649  0.5347  0.4661  11.00000  0.05    0.63
Q3    1   0.6186  0.4759  0.4770  11.00000  0.05    0.63
Q4    1   0.2757  0.3893  0.4566  11.00000  0.05    0.62
Q5    1   0.5040  0.4358  0.3634  11.00000  0.05    0.58
Q6    1   0.0000  1.0000  0.0000  10.50000  0.05    0.58
Q7    1   0.5575  0.8874  0.2245  11.00000  0.05    0.57
Q8    1   0.9319  0.5643  0.3763  11.00000  0.05    0.56
Q9    1   0.1193  0.8136  0.3926  11.00000  0.05    0.56
Q10   1   0.7053  0.2542  0.3202  11.00000  0.05    0.56
Q11   1   0.4006  0.4859  0.2971  11.00000  0.05    0.55
Q12   1   0.3976  0.3790  0.3780  11.00000  0.05    0.54
Q13   1   0.4710  0.4238  0.4549  11.00000  0.05    0.53
Q14   1   0.2782  1.0610 -0.1177  11.00000  0.05    0.53
Q15   1   0.7936  0.5464  0.2781  11.00000  0.05    0.51
Q16   1   0.6211  0.8102  0.0407  11.00000  0.05    0.50
Q17   1   0.6927  1.1379  0.4466  11.00000  0.05    0.50
Q18   1   0.5640  0.8757  0.1143  11.00000  0.05    0.49
Q19   1   0.0930  1.2987  0.3224  11.00000  0.05    0.49
Q20   1   0.7681  0.5196  0.3540  11.00000  0.05    0.49
;
_shelx_res_checksum              59148
_shelx_hkl_file
;
   2   0   0 2636.89 48.7675  -1
   2   0   0 2636.89 48.7675   2
   3   0   0 7725.96 154.593  -1
   3   0   0 7725.96 154.593   2
   4   0   0 4416.10 84.4955  -1
   4   0   0 4416.10 84.4955   2
   5   0   0 323.386 12.7876  -1
   5   0   0 323.386 12.7876   2
  -8   1   0 -6.4041 14.9029  -1
  -8   1   0 -6.4041 14.9029   2
  -7   1   0 549.093 18.5393  -1
  -7   1   0 549.093 18.5393   2
  -6   1   0 1407.59 37.2266  -1
  -6   1   0 1407.59 37.2266   2
  -5   1   0 -8.1783 10.2050  -1
  -5   1   0 -8.1783 10.2050   2
  -4   1   0 2134.19 54.0864  -1
  -4   1   0 2134.19 54.0864   2
  -3   1   0 3631.72 74.7332   2
  -2   1   0 138.324 4.26604   2
  -1   1   0 1400.97 66.2987   2
   0   1   0 2743.52 72.9282   2
   1   1   0 263.099 6.69594   2
   2   1   0 1550.41 31.8187  -1
   2   1   1 1550.41 31.8187   2
   3   1   0 1822.56 41.1706  -1
   3   1   1 1822.56 41.1706   2
   4   1   0 1035.10 22.8216  -1
   4   1   1 1035.10 22.8216   2
   5   1   0 217.012 8.03926  -1
   5   1   1 217.012 8.03926   2
   6   1   0 1266.19 39.8759  -1
   6   1   1 1266.19 39.8759   2
   7   1   0 197.333 14.0442  -1
   7   1   1 197.333 14.0442   2
   8   1   0 33.4408 32.9003  -1
   8   1   1 33.4408 32.9003   2
  -7   2   0 432.841 27.7570  -1
  -7   2   1 432.841 27.7570   2
  -6   2   0 746.276 24.6907  -1
  -6   2   1 746.276 24.6907   2
  -5   2   0 258.026 8.27464  -1
  -5   2   1 258.026 8.27464   2
  -4   2   0 2357.02 59.6387  -1
  -4   2   1 2357.02 59.6387   2
  -3   2   0 558.811 18.2711  -1
  -3   2   1 558.811 18.2711   2
  -2   2   0 447.495 26.3326  -1
  -2   2   1 447.495 26.3326   2
  -2   2   0 98.4570 9.51713   2
  -1   2   0 2237.27 74.9614   2
   0   2   0 978.537 17.5946   2
   1   2   0 49.7069 2.69034   2
   2   2   0 5513.46 154.569   2
   3   2   0 5623.23 166.390  -1
   3   2   2 5623.23 166.390   2
   4   2   0 1026.62 25.3138  -1
   4   2   2 1026.62 25.3138   2
   5   2   0 988.473 26.6762  -1
   5   2   2 988.473 26.6762   2
   6   2   0 1922.58 42.3048  -1
   6   2   2 1922.58 42.3048   2
   7   2   0 676.205 20.7803  -1
   7   2   2 676.205 20.7803   2
   8   2   0 46.6035 10.2752  -1
   8   2   2 46.6035 10.2752   2
  -6   3   0 9.87490 21.7008  -1
  -6   3   2 9.87490 21.7008   2
  -5   3   0 205.230 17.2601  -1
  -5   3   2 205.230 17.2601   2
  -4   3   0 1237.05 45.7394  -1
  -4   3   2 1237.05 45.7394   2
  -3   3   0 168.032 11.3817  -1
  -3   3   2 168.032 11.3817   2
  -2   3   0 232.262 16.7174  -1
  -2   3   2 232.262 16.7174   2
  -1   3   0 4653.77 114.972  -1
  -1   3   2 4653.77 114.972   2
   0   3   0 2178.98 40.1054  -1
   0   3   2 2178.98 40.1054   2
   1   3   0 496.642 13.0959  -1
   1   3   2 496.642 13.0959   2
   2   3   0 2221.13 64.5432  -1
   2   3   2 2221.13 64.5432   2
   4   3   0 4.71683 4.23743   2
   5   3   0 1027.97 42.7703  -1
   5   3   3 1027.97 42.7703   2
   6   3   0 1286.13 42.7685  -1
   6   3   3 1286.13 42.7685   2
   7   3   0 326.719 15.0995  -1
   7   3   3 326.719 15.0995   2
   8   3   0 279.741 18.7966  -1
   8   3   3 279.741 18.7966   2
  -4   4   0 1059.84 59.0366  -1
  -4   4   3 1059.84 59.0366   2
  -2   4   0 1248.09 64.2946  -1
  -2   4   3 1248.09 64.2946   2
  -1   4   0 4563.45 107.895  -1
  -1   4   3 4563.45 107.895   2
   0   4   0 3014.54 58.0360  -1
   0   4   3 3014.54 58.0360   2
   1   4   0 807.381 18.6223  -1
   1   4   3 807.381 18.6223   2
   2   4   0 3069.48 61.1862  -1
   2   4   3 3069.48 61.1862   2
   3   4   0 4337.92 85.2510  -1
   3   4   3 4337.92 85.2510   2
   4   4   0 427.769 15.1574  -1
   4   4   3 427.769 15.1574   2
   5   4   0 3039.99 77.6945  -1
   5   4   3 3039.99 77.6945   2
   6   4   0 949.455 34.7034  -1
   6   4   3 949.455 34.7034   2
  -5   5   0 459.910 39.4188  -1
  -5   5   3 459.910 39.4188   2
  -4   5   0 926.699 55.8083  -1
  -4   5   3 926.699 55.8083   2
  -1   5   0 1037.13 55.2740   2
   0   5   0 663.526 19.2118  -1
   0   5   4 663.526 19.2118   2
   1   5   0 690.630 16.2719  -1
   1   5   4 690.630 16.2719   2
   2   5   0 3394.06 68.2444  -1
   2   5   4 3394.06 68.2444   2
   3   5   0 353.414 13.3369  -1
   3   5   4 353.414 13.3369   2
   4   5   0 547.576 17.3381  -1
   4   5   4 547.576 17.3381   2
   5   5   0 1435.63 46.7580  -1
   5   5   4 1435.63 46.7580   2
   6   5   0 265.675 14.1421  -1
   6   5   4 265.675 14.1421   2
   7   5   0 309.540 18.7326  -1
   7   5   4 309.540 18.7326   2
   8   5   0 303.146 21.8390  -1
   8   5   4 303.146 21.8390   2
  -4   6   0 163.011 20.1599  -1
  -4   6   4 163.011 20.1599   2
  -3   6   0 339.358 29.8203  -1
  -3   6   4 339.358 29.8203   2
  -2   6   0 522.516 35.6722  -1
  -2   6   4 522.516 35.6722   2
  -1   6   0 865.631 33.0376  -1
  -1   6   4 865.631 33.0376   2
   0   6   0 394.697 15.5342  -1
   0   6   4 394.697 15.5342   2
   1   6   0 2305.66 82.9008  -1
   1   6   4 2305.66 82.9008   2
   2   6   0 1502.28 76.5855   2
   3   6   0 867.868 56.3903  -1
   3   6   5 867.868 56.3903   2
   4   6   0 2239.50 68.2176  -1
   4   6   5 2239.50 68.2176   2
   5   6   0 727.046 24.7452  -1
   5   6   5 727.046 24.7452   2
   6   6   0 824.399 27.9155  -1
   6   6   5 824.399 27.9155   2
   7   6   0 548.341 23.9126  -1
   7   6   5 548.341 23.9126   2
   8   6   0 506.107 31.7915  -1
   8   6   5 506.107 31.7915   2
  -2   7   0 764.751 49.9340  -1
  -2   7   5 764.751 49.9340   2
  -1   7   0 156.901 25.0489  -1
  -1   7   5 156.901 25.0489   2
   0   7   0 352.382 12.2303  -1
   0   7   5 352.382 12.2303   2
   1   7   0 793.541 25.5941  -1
   1   7   5 793.541 25.5941   2
   2   7   0 350.848 13.7595  -1
   2   7   5 350.848 13.7595   2
   3   7   0 728.935 23.1271  -1
   3   7   5 728.935 23.1271   2
   0   8   0 864.872 34.1842  -1
   0   8   6 864.872 34.1842   2
   1   8   0 643.653 22.3902  -1
   1   8   6 643.653 22.3902   2
   2   8   0 980.515 23.7815  -1
   2   8   6 980.515 23.7815   2
   3   8   0 1179.82 30.3800  -1
   3   8   6 1179.82 30.3800   2
   4   8   0 1006.60 35.0007  -1
   4   8   6 1006.60 35.0007   2
   5   8   0 368.823 19.3399  -1
   5   8   6 368.823 19.3399   2
   6   8   0 568.763 25.7692  -1
   6   8   6 568.763 25.7692   2
   2   9   0 123.336 23.4154  -1
   2   9   7 123.336 23.4154   2
   3   9   0 127.802 24.2465  -1
   3   9   7 127.802 24.2465   2
   4   9   0 192.412 15.6757  -1
   4   9   7 192.412 15.6757   2
  -3  -9   1 463.927 20.4025  -1
   3   9   8 463.927 20.4025   2
  -2  -9   1 57.9303 22.4487  -1
   2   9   8 57.9303 22.4487   2
  -6  -8   1 154.628 27.1234  -1
   6   8   7 154.628 27.1234   2
  -5  -8   1 251.971 17.7783  -1
   5   8   7 251.971 17.7783   2
  -4  -8   1 267.546 12.6000  -1
   4   8   7 267.546 12.6000   2
  -3  -8   1 -20.060 20.4896  -1
   3   8   7 -20.060 20.4896   2
  -2  -8   1 190.568 10.1031  -1
   2   8   7 190.568 10.1031   2
  -1  -8   1 130.899 13.7273  -1
   1   8   7 130.899 13.7273   2
   0  -8   1 208.409 18.2170  -1
   0   8   7 208.409 18.2170   2
  -4  -7   1 529.807 30.2125  -1
   4   7   6 529.807 30.2125   2
  -3  -7   1 862.431 23.6017  -1
   3   7   6 862.431 23.6017   2
  -2  -7   1 463.676 17.0428  -1
   2   7   6 463.676 17.0428   2
  -1  -7   1 322.354 12.9425  -1
   1   7   6 322.354 12.9425   2
   0  -7   1 900.992 32.3350  -1
   0   7   6 900.992 32.3350   2
   1  -7   1 938.104 50.7625  -1
  -1   7   6 938.104 50.7625   2
   2  -7   1 51.0569 24.6160  -1
  -2   7   6 51.0569 24.6160   2
  -7  -6   1 624.631 25.9742  -1
   7   6   6 624.631 25.9742   2
  -6  -6   1 432.703 20.5657  -1
   6   6   6 432.703 20.5657   2
  -5  -6   1 439.578 22.3266  -1
   5   6   6 439.578 22.3266   2
  -4  -6   1 1148.83 39.5194  -1
   4   6   6 1148.83 39.5194   2
  -3  -6   1 488.153 22.8158  -1
   3   6   6 488.153 22.8158   2
  -1  -6   1 291.764 17.9014  -1
   1   6   5 291.764 17.9014   2
   0  -6   1 721.156 29.9530  -1
   0   6   5 721.156 29.9530   2
   1  -6   1 95.5705 10.0799  -1
  -1   6   5 95.5705 10.0799   2
   3  -6   1 177.585 26.4816  -1
  -3   6   5 177.585 26.4816   2
   4  -6   1 28.8770 17.4629  -1
  -4   6   5 28.8770 17.4629   2
  -8  -5   1 258.037 21.5097  -1
   8   5   5 258.037 21.5097   2
  -7  -5   1 956.064 31.7574  -1
   7   5   5 956.064 31.7574   2
  -6  -5   1 853.537 25.4993  -1
   6   5   5 853.537 25.4993   2
  -5  -5   1 744.391 29.7413  -1
   5   5   5 744.391 29.7413   2
  -4  -5   1 1082.92 28.0078  -1
   4   5   5 1082.92 28.0078   2
  -3  -5   1 1721.82 39.3728  -1
   3   5   5 1721.82 39.3728   2
  -2  -5   1 679.607 19.0602  -1
   2   5   5 679.607 19.0602   2
  -1  -5   1 853.428 19.7373  -1
   1   5   5 853.428 19.7373   2
   0  -5   1 1225.96 32.5434  -1
   0   5   5 1225.96 32.5434   2
   1  -5   1 86.5822 13.3255  -1
  -1   5   5 86.5822 13.3255   2
   4  -5   1 430.893 37.4595  -1
  -4   5   4 430.893 37.4595   2
   5  -5   1 83.3783 29.7176  -1
  -5   5   4 83.3783 29.7176   2
  -6  -4   1 881.364 32.9876  -1
   6   4   4 881.364 32.9876   2
  -5  -4   1 1410.31 39.3500  -1
   5   4   4 1410.31 39.3500   2
  -4  -4   1 133.245 10.0400  -1
   4   4   4 133.245 10.0400   2
  -3  -4   1 811.208 21.3904  -1
   3   4   4 811.208 21.3904   2
  -2  -4   1 778.870 21.6553  -1
   2   4   4 778.870 21.6553   2
  -1  -4   1 592.605 14.7757  -1
   1   4   4 592.605 14.7757   2
   0  -4   1 390.202 10.8923  -1
   0   4   4 390.202 10.8923   2
   1  -4   1 559.672 16.6205  -1
  -1   4   4 559.672 16.6205   2
   2  -4   1 143.950 10.7141  -1
  -2   4   4 143.950 10.7141   2
  -8  -3   1 766.941 22.8093  -1
   8   3   4 766.941 22.8093   2
  -7  -3   1 204.613 13.8698  -1
   7   3   4 204.613 13.8698   2
  -6  -3   1 269.004 18.7535  -1
   6   3   4 269.004 18.7535   2
  -5  -3   1 821.654 36.7127  -1
   5   3   4 821.654 36.7127   2
  -4  -3   1 798.939 17.5146   2
  -3  -3   1 2382.11 71.2308  -1
   3   3   3 2382.11 71.2308   2
  -2  -3   1 496.339 16.9854  -1
   2   3   3 496.339 16.9854   2
  -1  -3   1 3007.36 58.7793  -1
   1   3   3 3007.36 58.7793   2
   0  -3   1 3502.14 66.7524  -1
   0   3   3 3502.14 66.7524   2
   1  -3   1 332.635 8.93850  -1
  -1   3   3 332.635 8.93850   2
   2  -3   1 731.964 27.8816  -1
  -2   3   3 731.964 27.8816   2
   3  -3   1 3018.37 103.014  -1
  -3   3   3 3018.37 103.014   2
   4  -3   1 1028.57 39.2288  -1
  -4   3   3 1028.57 39.2288   2
   5  -3   1 209.674 17.2068  -1
  -5   3   3 209.674 17.2068   2
   6  -3   1 913.153 50.6959  -1
  -6   3   3 913.153 50.6959   2
  -8  -2   1 127.010 13.3686  -1
   8   2   3 127.010 13.3686   2
  -7  -2   1 575.727 16.4049  -1
   7   2   3 575.727 16.4049   2
  -6  -2   1 1143.23 27.1576  -1
   6   2   3 1143.23 27.1576   2
  -5  -2   1 519.209 17.1226  -1
   5   2   3 519.209 17.1226   2
  -4  -2   1 1790.57 39.4597  -1
   4   2   3 1790.57 39.4597   2
  -3  -2   1 4375.00 92.0707  -1
   3   2   3 4375.00 92.0707   2
  -2  -2   1 2214.97 108.555  -1
   2   2   3 2214.97 108.555   2
  -1  -2   1 2366.91 48.4082   2
   0  -2   1 770.996 13.6987   2
   1  -2   1 1867.32 66.2252  -1
  -1   2   2 1867.32 66.2252   2
   2  -2   1 89.6853 6.79679   2
   2  -2   1 461.950 15.8483  -1
  -2   2   2 461.950 15.8483   2
   3  -2   1 570.491 13.3788  -1
  -3   2   2 570.491 13.3788   2
   4  -2   1 22.8463 4.69506  -1
  -4   2   2 22.8463 4.69506   2
   5  -2   1 13.7133 4.44959  -1
  -5   2   2 13.7133 4.44959   2
   6  -2   1 162.651 7.03215  -1
  -6   2   2 162.651 7.03215   2
   7  -2   1 14.9152 10.0294  -1
  -7   2   2 14.9152 10.0294   2
  -8  -1   1 221.886 36.9584  -1
   8   1   2 221.886 36.9584   2
  -7  -1   1 1476.37 40.7544  -1
   7   1   2 1476.37 40.7544   2
  -6  -1   1 2137.82 55.2829  -1
   6   1   2 2137.82 55.2829   2
  -5  -1   1 1121.70 24.6779  -1
   5   1   2 1121.70 24.6779   2
  -4  -1   1 1768.02 36.8966  -1
   4   1   2 1768.02 36.8966   2
  -3  -1   1 2602.70 57.2551  -1
   3   1   2 2602.70 57.2551   2
  -2  -1   1 9999.99 275.927  -1
   2   1   2 9999.99 275.927   2
   1  -1   1 3084.30 95.5546  -1
  -1   1   2 3084.30 95.5546   2
   2  -1   1 62.9516 2.69204   2
   2  -1   1 453.528 26.2728  -1
  -2   1   2 453.528 26.2728   2
   3  -1   1 102.371 3.97295   2
   4  -1   1 1019.99 27.1167  -1
  -4   1   1 1019.99 27.1167   2
   5  -1   1 27.1992 8.16053  -1
  -5   1   1 27.1992 8.16053   2
   6  -1   1 567.788 16.5840  -1
  -6   1   1 567.788 16.5840   2
   7  -1   1 253.184 13.1229  -1
  -7   1   1 253.184 13.1229   2
   8  -1   1 94.8747 23.6269  -1
  -8   1   1 94.8747 23.6269   2
  -5   0   1 366.900 13.6241  -1
   5   0   1 366.900 13.6241   2
  -4   0   1 592.930 14.6396  -1
   4   0   1 592.930 14.6396   2
  -3   0   1 1750.83 33.3156  -1
   3   0   1 1750.83 33.3156   2
  -2   0   1 466.521 10.3710  -1
   2   0   1 466.521 10.3710   2
  -1   0   1 665.426 16.8043  -1
   1   0   1 665.426 16.8043   2
   1   0   1 622.232 14.1267  -1
  -1   0   1 622.232 14.1267   2
   2   0   1 447.769 10.7951  -1
  -2   0   1 447.769 10.7951   2
   3   0   1 1701.06 32.7916  -1
  -3   0   1 1701.06 32.7916   2
   4   0   1 580.492 16.5035  -1
  -4   0   1 580.492 16.5035   2
   5   0   1 362.365 13.7051  -1
  -5   0   1 362.365 13.7051   2
  -8   1   1 142.440 16.7833  -1
   8  -1   1 142.440 16.7833   2
  -7   1   1 226.296 12.5997  -1
   7  -1   1 226.296 12.5997   2
  -6   1   1 573.937 21.1171  -1
   6  -1   1 573.937 21.1171   2
  -5   1   1 30.4452 7.63405  -1
   5  -1   1 30.4452 7.63405   2
  -4   1   1 960.076 29.3944  -1
   4  -1   1 960.076 29.3944   2
  -3   1   1 1581.40 31.2087   2
  -2   1   1 176.816 4.49527   2
  -1   1   1 385.033 14.0026   2
   0   1   1 2602.80 70.1430   2
   1   1   1 1919.63 48.2944   2
   2   1   1 1451.80 29.8854  -1
   2   1   0 1451.80 29.8854   2
   3   1   1 1795.15 38.2088  -1
   3   1   0 1795.15 38.2088   2
   4   1   1 1011.63 24.5066  -1
   4   1   0 1011.63 24.5066   2
   5   1   1 220.308 9.78951  -1
   5   1   0 220.308 9.78951   2
   6   1   1 1085.25 35.1015  -1
   6   1   0 1085.25 35.1015   2
   7   1   1 185.730 13.7494  -1
   7   1   0 185.730 13.7494   2
   8   1   1 40.8635 33.2406  -1
   8   1   0 40.8635 33.2406   2
  -6   2   1 767.010 31.3852  -1
  -6   2   0 767.010 31.3852   2
  -5   2   1 257.191 11.5997  -1
  -5   2   0 257.191 11.5997   2
  -4   2   1 2402.68 70.0292  -1
  -4   2   0 2402.68 70.0292   2
  -3   2   1 638.039 34.8310  -1
  -3   2   0 638.039 34.8310   2
  -1   2   1 964.428 47.1143   2
   0   2   1 249.606 5.45988   2
   1   2   1 881.024 18.3523   2
   2   2   1 400.735 10.3286   2
   3   2   1 542.850 25.5168  -1
   3   2   1 542.850 25.5168   2
   4   2   1 646.601 17.8459  -1
   4   2   1 646.601 17.8459   2
   5   2   1 383.920 11.3867  -1
   5   2   1 383.920 11.3867   2
   6   2   1 157.689 10.6038  -1
   6   2   1 157.689 10.6038   2
   7   2   1 452.865 14.2152  -1
   7   2   1 452.865 14.2152   2
   8   2   1 98.5858 10.7532  -1
   8   2   1 98.5858 10.7532   2
  -5   3   1 251.115 18.2101  -1
  -5   3   1 251.115 18.2101   2
  -4   3   1 1807.74 64.1615  -1
  -4   3   1 1807.74 64.1615   2
  -3   3   1 1207.25 43.5571  -1
  -3   3   1 1207.25 43.5571   2
  -2   3   1 169.546 13.8215  -1
  -2   3   1 169.546 13.8215   2
  -1   3   1 1638.99 80.3184  -1
  -1   3   1 1638.99 80.3184   2
   0   3   1 2526.20 49.4063  -1
   0   3   1 2526.20 49.4063   2
   1   3   1 1614.97 31.1415  -1
   1   3   1 1614.97 31.1415   2
   2   3   1 323.055 18.6460  -1
   2   3   1 323.055 18.6460   2
   3   3   1 564.300 15.5833   2
   4   3   1 607.865 81.7606  -1
   4   3   1 607.865 81.7606   2
   5   3   1 185.485 14.8492  -1
   5   3   2 185.485 14.8492   2
   6   3   1 1250.86 35.9652  -1
   6   3   2 1250.86 35.9652   2
   7   3   1 619.720 23.3648  -1
   7   3   2 619.720 23.3648   2
   8   3   1 19.4649 18.9510  -1
   8   3   2 19.4649 18.9510   2
  -4   4   1 1035.22 58.1328  -1
  -4   4   2 1035.22 58.1328   2
  -3   4   1 55.2880 13.7993  -1
  -3   4   2 55.2880 13.7993   2
  -2   4   1 885.851 47.8643  -1
  -2   4   2 885.851 47.8643   2
  -1   4   1 1664.55 50.3992  -1
  -1   4   2 1664.55 50.3992   2
   0   4   1 785.833 18.0273  -1
   0   4   2 785.833 18.0273   2
   1   4   1 740.326 15.9611  -1
   1   4   2 740.326 15.9611   2
   2   4   1 598.080 15.5908  -1
   2   4   2 598.080 15.5908   2
   3   4   1 3756.65 74.6433  -1
   3   4   2 3756.65 74.6433   2
   4   4   1 340.040 13.3668  -1
   4   4   2 340.040 13.3668   2
   5   4   1 508.511 18.3899  -1
   5   4   2 508.511 18.3899   2
   6   4   1 1060.49 32.1602  -1
   6   4   2 1060.49 32.1602   2
   7   4   1 572.837 50.1409  -1
   7   4   2 572.837 50.1409   2
  -5   5   1 898.662 56.5581  -1
  -5   5   2 898.662 56.5581   2
  -4   5   1 419.413 36.4989  -1
  -4   5   2 419.413 36.4989   2
   0   5   1 2172.06 54.2937  -1
   0   5   3 2172.06 54.2937   2
   1   5   1 347.990 10.3753  -1
   1   5   3 347.990 10.3753   2
   2   5   1 1551.42 33.5873  -1
   2   5   3 1551.42 33.5873   2
   3   5   1 2437.48 56.2674  -1
   3   5   3 2437.48 56.2674   2
   4   5   1 277.025 12.1736  -1
   4   5   3 277.025 12.1736   2
   5   5   1 856.130 24.5124  -1
   5   5   3 856.130 24.5124   2
   6   5   1 960.222 28.2199  -1
   6   5   3 960.222 28.2199   2
   7   5   1 145.580 15.0430  -1
   7   5   3 145.580 15.0430   2
   8   5   1 74.1570 18.6285  -1
   8   5   3 74.1570 18.6285   2
  -4   6   1 471.357 27.0843  -1
  -4   6   3 471.357 27.0843   2
  -3   6   1 353.161 22.3932  -1
  -3   6   3 353.161 22.3932   2
  -2   6   1 466.107 33.3416  -1
  -2   6   3 466.107 33.3416   2
  -1   6   1 1147.56 60.3414  -1
  -1   6   3 1147.56 60.3414   2
   0   6   1 755.900 24.4231  -1
   0   6   3 755.900 24.4231   2
   1   6   1 612.404 26.4863  -1
   1   6   3 612.404 26.4863   2
   2   6   1 240.394 21.5049   2
   4   6   1 388.726 24.1196  -1
   4   6   4 388.726 24.1196   2
   5   6   1 148.088 16.4129  -1
   5   6   4 148.088 16.4129   2
   6   6   1 70.9330 14.4183  -1
   6   6   4 70.9330 14.4183   2
   7   6   1 111.625 15.9937  -1
   7   6   4 111.625 15.9937   2
   8   6   1 -19.774 21.3978  -1
   8   6   4 -19.774 21.3978   2
  -3   7   1 214.395 23.2193  -1
  -3   7   4 214.395 23.2193   2
  -2   7   1 551.987 41.9441  -1
  -2   7   4 551.987 41.9441   2
  -1   7   1 403.377 34.7359  -1
  -1   7   4 403.377 34.7359   2
   0   7   1 30.2623 7.13521  -1
   0   7   4 30.2623 7.13521   2
   1   7   1 647.399 19.1936  -1
   1   7   4 647.399 19.1936   2
   2   7   1 523.456 15.0917  -1
   2   7   4 523.456 15.0917   2
   3   7   1 26.9978 9.07314  -1
   3   7   4 26.9978 9.07314   2
   4   7   1 243.100 32.4009  -1
   4   7   4 243.100 32.4009   2
   0   8   1 69.6507 15.2881  -1
   0   8   5 69.6507 15.2881   2
   1   8   1 68.4784 9.97490  -1
   1   8   5 68.4784 9.97490   2
   2   8   1 274.042 11.2596  -1
   2   8   5 274.042 11.2596   2
   3   8   1 302.999 11.2644  -1
   3   8   5 302.999 11.2644   2
   4   8   1 4.17882 7.37431  -1
   4   8   5 4.17882 7.37431   2
   5   8   1 287.498 13.1122  -1
   5   8   5 287.498 13.1122   2
   6   8   1 738.856 28.2001  -1
   6   8   5 738.856 28.2001   2
   2   9   1 444.269 39.2458  -1
   2   9   6 444.269 39.2458   2
   3   9   1 341.727 21.9466  -1
   3   9   6 341.727 21.9466   2
   4   9   1 295.424 17.4834  -1
   4   9   6 295.424 17.4834   2
  -5  -8   2 5.69018 15.6966  -1
   5   8   8 5.69018 15.6966   2
  -4  -8   2 542.948 17.5596  -1
   4   8   8 542.948 17.5596   2
  -3  -8   2 430.205 14.9104  -1
   3   8   8 430.205 14.9104   2
  -2  -8   2 131.896 9.22286  -1
   2   8   8 131.896 9.22286   2
  -1  -8   2 118.374 12.0956  -1
   1   8   8 118.374 12.0956   2
   0  -8   2 665.316 30.2535  -1
   0   8   8 665.316 30.2535   2
  -4  -7   2 218.751 31.3803  -1
   4   7   7 218.751 31.3803   2
  -3  -7   2 573.616 18.1657  -1
   3   7   7 573.616 18.1657   2
  -2  -7   2 46.6680 9.46300  -1
   2   7   7 46.6680 9.46300   2
  -1  -7   2 563.770 16.1861  -1
   1   7   7 563.770 16.1861   2
   0  -7   2 651.609 21.1385  -1
   0   7   7 651.609 21.1385   2
   1  -7   2 328.814 10.7070  -1
  -1   7   7 328.814 10.7070   2
  -7  -6   2 59.8592 16.5632  -1
   7   6   7 59.8592 16.5632   2
  -6  -6   2 153.392 17.3650  -1
   6   6   7 153.392 17.3650   2
  -5  -6   2 160.064 18.9321  -1
   5   6   7 160.064 18.9321   2
  -4  -6   2 336.661 17.5669  -1
   4   6   7 336.661 17.5669   2
  -2  -6   2 43.9936 16.0720   2
  -2  -6   2 182.569 30.1713  -1
   2   6   6 182.569 30.1713   2
  -1  -6   2 792.842 32.5845  -1
   1   6   6 792.842 32.5845   2
   0  -6   2 1213.28 37.6314  -1
   0   6   6 1213.28 37.6314   2
   1  -6   2 221.788 13.8634  -1
  -1   6   6 221.788 13.8634   2
   4  -6   2 64.2690 18.0842  -1
  -4   6   6 64.2690 18.0842   2
  -8  -5   2 67.5590 39.0633  -1
   8   5   6 67.5590 39.0633   2
  -7  -5   2 262.905 18.8019  -1
   7   5   6 262.905 18.8019   2
  -6  -5   2 153.724 12.9185  -1
   6   5   6 153.724 12.9185   2
  -5  -5   2 61.1266 9.19846  -1
   5   5   6 61.1266 9.19846   2
  -4  -5   2 1001.64 27.0813  -1
   4   5   6 1001.64 27.0813   2
  -3  -5   2 828.493 23.1798  -1
   3   5   6 828.493 23.1798   2
  -2  -5   2 149.684 9.54891  -1
   2   5   6 149.684 9.54891   2
  -1  -5   2 1948.80 38.5930  -1
   1   5   6 1948.80 38.5930   2
   0  -5   2 1408.74 42.5427  -1
   0   5   6 1408.74 42.5427   2
   1  -5   2 151.289 16.8415  -1
  -1   5   6 151.289 16.8415   2
   5  -5   2 384.550 37.3395  -1
  -5   5   5 384.550 37.3395   2
  -6  -4   2 476.923 25.2214  -1
   6   4   5 476.923 25.2214   2
  -5  -4   2 495.850 18.7154  -1
   5   4   5 495.850 18.7154   2
  -4  -4   2 1780.95 41.3378  -1
   4   4   5 1780.95 41.3378   2
  -3  -4   2 2042.51 44.6186  -1
   3   4   5 2042.51 44.6186   2
  -2  -4   2 285.209 10.0821  -1
   2   4   5 285.209 10.0821   2
  -1  -4   2 2006.81 45.4806  -1
   1   4   5 2006.81 45.4806   2
   0  -4   2 1191.14 28.1856  -1
   0   4   5 1191.14 28.1856   2
   1  -4   2 386.095 11.1983  -1
  -1   4   5 386.095 11.1983   2
   2  -4   2 973.557 23.5178  -1
  -2   4   5 973.557 23.5178   2
   3  -4   2 123.942 10.3114  -1
  -3   4   5 123.942 10.3114   2
  -8  -3   2 446.709 17.9665  -1
   8   3   5 446.709 17.9665   2
  -7  -3   2 1248.02 41.0444  -1
   7   3   5 1248.02 41.0444   2
  -6  -3   2 860.141 32.0914  -1
   6   3   5 860.141 32.0914   2
  -5  -3   2 336.499 20.1802  -1
   5   3   5 336.499 20.1802   2
  -4  -3   2 3223.71 163.238  -1
   4   3   5 3223.71 163.238   2
  -4  -3   2 666.274 44.3148  -1
   4   3   4 666.274 44.3148   2
  -3  -3   2 762.738 30.0245  -1
   3   3   4 762.738 30.0245   2
  -2  -3   2 693.356 21.9513  -1
   2   3   4 693.356 21.9513   2
  -1  -3   2 1155.64 25.8526  -1
   1   3   4 1155.64 25.8526   2
   0  -3   2 848.507 20.8270  -1
   0   3   4 848.507 20.8270   2
   1  -3   2 1172.75 21.4570  -1
  -1   3   4 1172.75 21.4570   2
   2  -3   2 1481.56 30.2513  -1
  -2   3   4 1481.56 30.2513   2
   3  -3   2 881.141 33.4954  -1
  -3   3   4 881.141 33.4954   2
   4  -3   2 871.806 50.2708  -1
  -4   3   4 871.806 50.2708   2
   5  -3   2 627.840 28.5517  -1
  -5   3   4 627.840 28.5517   2
   6  -3   2 575.588 37.0578  -1
  -6   3   4 575.588 37.0578   2
  -8  -2   2 168.296 10.5380  -1
   8   2   4 168.296 10.5380   2
  -7  -2   2 159.361 9.46346  -1
   7   2   4 159.361 9.46346   2
  -6  -2   2 88.3663 8.25244  -1
   6   2   4 88.3663 8.25244   2
  -5  -2   2 490.707 16.0609  -1
   5   2   4 490.707 16.0609   2
  -4  -2   2 159.664 9.58741  -1
   4   2   4 159.664 9.58741   2
  -3  -2   2 1558.00 43.5167  -1
   3   2   4 1558.00 43.5167   2
  -2  -2   2 442.446 52.3959  -1
   2   2   4 442.446 52.3959   2
   0  -2   2 184.580 4.80033   2
   1  -2   2 3807.48 101.824  -1
  -1   2   3 3807.48 101.824   2
   2  -2   2 2978.33 104.754  -1
  -2   2   3 2978.33 104.754   2
   3  -2   2 2670.21 62.0910  -1
  -3   2   3 2670.21 62.0910   2
   4  -2   2 1825.26 41.2898  -1
  -4   2   3 1825.26 41.2898   2
   5  -2   2 564.568 15.6480  -1
  -5   2   3 564.568 15.6480   2
   6  -2   2 316.746 18.1016  -1
  -6   2   3 316.746 18.1016   2
   7  -2   2 523.974 19.1811  -1
  -7   2   3 523.974 19.1811   2
  -7  -1   2 670.967 23.0027  -1
   7   1   3 670.967 23.0027   2
  -6  -1   2 352.960 12.4752  -1
   6   1   3 352.960 12.4752   2
  -5  -1   2 20.7020 6.06183  -1
   5   1   3 20.7020 6.06183   2
  -4  -1   2 2407.40 60.7244  -1
   4   1   3 2407.40 60.7244   2
  -3  -1   2 999.387 22.5916  -1
   3   1   3 999.387 22.5916   2
  -2  -1   2 1024.30 22.6925  -1
   2   1   3 1024.30 22.6925   2
  -1  -1   2 3185.00 73.3081  -1
   1   1   3 3185.00 73.3081   2
   0  -1   2 2683.76 138.125  -1
   0   1   3 2683.76 138.125   2
   1  -1   2 4608.21 116.698  -1
  -1   1   3 4608.21 116.698   2
   3  -1   2 933.176 50.2574  -1
  -3   1   3 933.176 50.2574   2
   4  -1   2 2040.67 51.1983  -1
  -4   1   2 2040.67 51.1983   2
   5  -1   2 1151.54 27.9365  -1
  -5   1   2 1151.54 27.9365   2
   6  -1   2 39.2634 81.0695  -1
  -6   1   2 39.2634 81.0695   2
   7  -1   2 578.926 20.3066  -1
  -7   1   2 578.926 20.3066   2
  -6   0   2 422.649 32.5645  -1
   6   0   2 422.649 32.5645   2
  -5   0   2 1384.10 41.4924  -1
   5   0   2 1384.10 41.4924   2
  -4   0   2 3671.45 72.2704  -1
   4   0   2 3671.45 72.2704   2
  -3   0   2 1088.66 22.0030  -1
   3   0   2 1088.66 22.0030   2
  -2   0   2 3173.42 62.9164  -1
   2   0   2 3173.42 62.9164   2
  -1   0   2 2159.57 65.6912  -1
   1   0   2 2159.57 65.6912   2
   0   0   2 4636.87 137.036  -1
   0   0   2 4636.87 137.036   2
   1   0   2 2040.26 41.5681  -1
  -1   0   2 2040.26 41.5681   2
   2   0   2 3127.33 61.8708  -1
  -2   0   2 3127.33 61.8708   2
   3   0   2 1009.03 19.5858  -1
  -3   0   2 1009.03 19.5858   2
   4   0   2 3600.02 71.5599  -1
  -4   0   2 3600.02 71.5599   2
   5   0   2 1384.22 32.9138  -1
  -5   0   2 1384.22 32.9138   2
   6   0   2 331.838 22.4050  -1
  -6   0   2 331.838 22.4050   2
  -7   1   2 551.281 18.7118  -1
   7  -1   2 551.281 18.7118   2
  -6   1   2 8.31910 10.2262  -1
   6  -1   2 8.31910 10.2262   2
  -5   1   2 1170.34 35.8345  -1
   5  -1   2 1170.34 35.8345   2
  -4   1   2 2034.72 73.0978  -1
   4  -1   2 2034.72 73.0978   2
  -3   1   2 107.266 3.95688   2
  -3   1   2 317.153 20.6220  -1
   3  -1   2 317.153 20.6220   2
  -1   1   2 3053.41 141.282  -1
   1  -1   1 3053.41 141.282   2
   0   1   2 1478.34 47.3318   2
   0   1   2 1952.06 61.9788  -1
   0  -1   1 1952.06 61.9788   2
   1   1   2 1122.46 22.3291   2
   1   1   2 1834.08 49.2759  -1
  -1  -1   1 1834.08 49.2759   2
   2   1   2 8399.37 231.811  -1
  -2  -1   1 8399.37 231.811   2
   3   1   2 2437.91 48.4368  -1
  -3  -1   1 2437.91 48.4368   2
   4   1   2 1727.10 36.2063  -1
  -4  -1   1 1727.10 36.2063   2
   5   1   2 1129.26 28.8149  -1
  -5  -1   1 1129.26 28.8149   2
   6   1   2 2182.54 52.0228  -1
  -6  -1   1 2182.54 52.0228   2
   7   1   2 1473.84 40.8477  -1
  -7  -1   1 1473.84 40.8477   2
  -6   2   2 164.405 24.1128  -1
   6  -2   1 164.405 24.1128   2
  -5   2   2 16.2696 5.20875  -1
   5  -2   1 16.2696 5.20875   2
  -4   2   2 29.6458 7.22829  -1
   4  -2   1 29.6458 7.22829   2
  -3   2   2 566.664 18.4677  -1
   3  -2   1 566.664 18.4677   2
   0   2   2 3630.82 70.9106   2
   1   2   2 528.935 12.0967   2
   2   2   2 157.344 5.75001   2
   3   2   2 5410.44 159.359  -1
   3   2   0 5410.44 159.359   2
   4   2   2 997.287 24.6872  -1
   4   2   0 997.287 24.6872   2
   5   2   2 952.409 24.7171  -1
   5   2   0 952.409 24.7171   2
   6   2   2 1843.72 45.4507  -1
   6   2   0 1843.72 45.4507   2
   7   2   2 623.075 18.1713  -1
   7   2   0 623.075 18.1713   2
   8   2   2 80.9900 10.1359  -1
   8   2   0 80.9900 10.1359   2
  -5   3   2 235.111 23.8383  -1
  -5   3   0 235.111 23.8383   2
  -4   3   2 1324.17 67.9054  -1
  -4   3   0 1324.17 67.9054   2
  -3   3   2 180.784 11.6915  -1
  -3   3   0 180.784 11.6915   2
  -2   3   2 225.185 11.7034  -1
  -2   3   0 225.185 11.7034   2
   0   3   2 2160.83 42.7240  -1
   0   3   0 2160.83 42.7240   2
   1   3   2 473.369 12.4721  -1
   1   3   0 473.369 12.4721   2
   2   3   2 2115.67 74.4571  -1
   2   3   0 2115.67 74.4571   2
   3   3   2 2284.98 51.0988   2
   3   3   2 3422.65 113.347  -1
   3   3   0 3422.65 113.347   2
   4   3   2 814.584 22.8684   2
   5   3   2 179.200 14.4098  -1
   5   3   1 179.200 14.4098   2
   6   3   2 1229.40 35.2522  -1
   6   3   1 1229.40 35.2522   2
   7   3   2 597.781 22.3991  -1
   7   3   1 597.781 22.3991   2
   8   3   2 7.46007 16.3774  -1
   8   3   1 7.46007 16.3774   2
  -4   4   2 1157.56 63.0844  -1
  -4   4   1 1157.56 63.0844   2
  -3   4   2 58.7199 13.6628  -1
  -3   4   1 58.7199 13.6628   2
  -2   4   2 922.870 49.7157  -1
  -2   4   1 922.870 49.7157   2
  -1   4   2 1770.46 87.0005  -1
  -1   4   1 1770.46 87.0005   2
   0   4   2 797.561 17.5758  -1
   0   4   1 797.561 17.5758   2
   1   4   2 727.161 15.7756  -1
   1   4   1 727.161 15.7756   2
   2   4   2 595.665 15.4827  -1
   2   4   1 595.665 15.4827   2
   3   4   2 3630.18 72.3972  -1
   3   4   1 3630.18 72.3972   2
   4   4   2 311.797 12.6399  -1
   4   4   1 311.797 12.6399   2
   5   4   2 504.067 17.6276  -1
   5   4   1 504.067 17.6276   2
   6   4   2 1071.35 32.1382  -1
   6   4   1 1071.35 32.1382   2
   7   4   2 613.273 49.5732  -1
   7   4   1 613.273 49.5732   2
  -5   5   2 992.729 59.9966  -1
  -5   5   1 992.729 59.9966   2
  -4   5   2 464.710 37.1594  -1
  -4   5   1 464.710 37.1594   2
   0   5   2 382.365 11.8952  -1
   0   5   2 382.365 11.8952   2
   1   5   2 -4.4231 6.61945  -1
   1   5   2 -4.4231 6.61945   2
   2   5   2 1059.62 24.2383  -1
   2   5   2 1059.62 24.2383   2
   3   5   2 597.801 17.9556  -1
   3   5   2 597.801 17.9556   2
   4   5   2 -2.2190 7.22065  -1
   4   5   2 -2.2190 7.22065   2
   5   5   2 1993.35 48.9345  -1
   5   5   2 1993.35 48.9345   2
   6   5   2 902.756 26.5469  -1
   6   5   2 902.756 26.5469   2
   7   5   2 309.192 17.8581  -1
   7   5   2 309.192 17.8581   2
   8   5   2 329.104 20.6995  -1
   8   5   2 329.104 20.6995   2
  -4   6   2 64.9471 17.8672  -1
  -4   6   2 64.9471 17.8672   2
  -3   6   2 72.5847 15.8530  -1
  -3   6   2 72.5847 15.8530   2
  -2   6   2 257.961 25.5352  -1
  -2   6   2 257.961 25.5352   2
  -1   6   2 691.195 40.0687  -1
  -1   6   2 691.195 40.0687   2
   0   6   2 188.385 13.2827  -1
   0   6   2 188.385 13.2827   2
   1   6   2 413.280 29.8762  -1
   1   6   2 413.280 29.8762   2
   3   6   2 785.201 26.1801  -1
   3   6   3 785.201 26.1801   2
   4   6   2 42.2029 16.0528  -1
   4   6   3 42.2029 16.0528   2
   5   6   2 1998.90 57.3237  -1
   5   6   3 1998.90 57.3237   2
   6   6   2 1507.74 41.5126  -1
   6   6   3 1507.74 41.5126   2
   7   6   2 -2.5136 15.6246  -1
   7   6   3 -2.5136 15.6246   2
   8   6   2 609.773 20.7998  -1
   8   6   3 609.773 20.7998   2
  -3   7   2 29.7174 18.0788  -1
  -3   7   3 29.7174 18.0788   2
  -2   7   2 161.170 16.5940  -1
  -2   7   3 161.170 16.5940   2
  -1   7   2 1560.31 83.9094  -1
  -1   7   3 1560.31 83.9094   2
   0   7   2 347.522 12.7065  -1
   0   7   3 347.522 12.7065   2
   1   7   2 327.490 14.3421  -1
   1   7   3 327.490 14.3421   2
   2   7   2 1640.03 40.5751  -1
   2   7   3 1640.03 40.5751   2
   3   7   2 796.063 31.4865  -1
   3   7   3 796.063 31.4865   2
   4   7   2 66.9931 9.33065  -1
   4   7   3 66.9931 9.33065   2
   0   8   2 65.2014 11.1948  -1
   0   8   4 65.2014 11.1948   2
   1   8   2 347.829 14.2964  -1
   1   8   4 347.829 14.2964   2
   2   8   2 353.981 13.2108  -1
   2   8   4 353.981 13.2108   2
   3   8   2 146.353 60.8540  -1
   3   8   4 146.353 60.8540   2
   4   8   2 261.564 13.1018  -1
   4   8   4 261.564 13.1018   2
   5   8   2 353.237 17.1179  -1
   5   8   4 353.237 17.1179   2
   6   8   2 197.285 20.3104  -1
   6   8   4 197.285 20.3104   2
   2   9   2 441.239 40.6593  -1
   2   9   5 441.239 40.6593   2
   3   9   2 162.093 18.4035  -1
   3   9   5 162.093 18.4035   2
   4   9   2 208.187 17.8415  -1
   4   9   5 208.187 17.8415   2
  -5  -8   3 121.243 24.0857  -1
   5   8   9 121.243 24.0857   2
  -4  -8   3 339.131 15.0878  -1
   4   8   9 339.131 15.0878   2
  -3  -8   3 757.881 23.2336  -1
   3   8   9 757.881 23.2336   2
  -2  -8   3 179.606 12.5056  -1
   2   8   9 179.606 12.5056   2
  -1  -8   3 289.484 16.8028  -1
   1   8   9 289.484 16.8028   2
   0  -8   3 709.640 22.4226  -1
   0   8   9 709.640 22.4226   2
   1  -8   3 76.1566 30.1607  -1
  -1   8   9 76.1566 30.1607   2
  -5  -7   3 -19.500 35.9929  -1
   5   7   8 -19.500 35.9929   2
  -4  -7   3 1235.32 52.5906  -1
   4   7   8 1235.32 52.5906   2
  -3  -7   3 1522.79 41.8178  -1
   3   7   8 1522.79 41.8178   2
  -2  -7   3 23.6925 9.89966  -1
   2   7   8 23.6925 9.89966   2
  -1  -7   3 761.861 23.1493  -1
   1   7   8 761.861 23.1493   2
   0  -7   3 857.243 26.8889  -1
   0   7   8 857.243 26.8889   2
   1  -7   3 198.746 11.8284  -1
  -1   7   8 198.746 11.8284   2
   3  -7   3 271.466 30.8712   2
  -7  -6   3 1154.97 37.9182  -1
   7   6   8 1154.97 37.9182   2
  -6  -6   3 383.286 21.3560  -1
   6   6   8 383.286 21.3560   2
  -5  -6   3 743.995 27.5100  -1
   5   6   8 743.995 27.5100   2
  -4  -6   3 3122.95 93.7276  -1
   4   6   8 3122.95 93.7276   2
  -1  -6   3 1315.73 49.7368  -1
   1   6   7 1315.73 49.7368   2
   0  -6   3 737.043 25.7294  -1
   0   6   7 737.043 25.7294   2
   1  -6   3 201.466 11.9372  -1
  -1   6   7 201.466 11.9372   2
   2  -6   3 156.851 10.2064  -1
  -2   6   7 156.851 10.2064   2
   4  -6   3 110.304 29.1041  -1
  -4   6   7 110.304 29.1041   2
  -8  -5   3 284.876 46.7004  -1
   8   5   7 284.876 46.7004   2
  -7  -5   3 1385.50 42.1386  -1
   7   5   7 1385.50 42.1386   2
  -6  -5   3 166.009 12.8025  -1
   6   5   7 166.009 12.8025   2
  -5  -5   3 551.598 19.0512  -1
   5   5   7 551.598 19.0512   2
  -4  -5   3 1247.90 35.7474  -1
   4   5   7 1247.90 35.7474   2
  -3  -5   3 737.619 22.0754  -1
   3   5   7 737.619 22.0754   2
  -2  -5   3 127.290 10.4186  -1
   2   5   7 127.290 10.4186   2
  -1  -5   3 1507.08 31.3697  -1
   1   5   7 1507.08 31.3697   2
   0  -5   3 854.487 24.3254  -1
   0   5   7 854.487 24.3254   2
   5  -5   3 395.650 38.6756  -1
  -5   5   6 395.650 38.6756   2
  -6  -4   3 348.393 29.0817  -1
   6   4   6 348.393 29.0817   2
  -5  -4   3 393.124 17.3019  -1
   5   4   6 393.124 17.3019   2
  -4  -4   3 2819.61 60.9403  -1
   4   4   6 2819.61 60.9403   2
  -3  -4   3 1868.32 41.8230  -1
   3   4   6 1868.32 41.8230   2
  -2  -4   3 1141.59 34.1645  -1
   2   4   6 1141.59 34.1645   2
  -1  -4   3 5849.77 110.698  -1
   1   4   6 5849.77 110.698   2
   0  -4   3 935.122 24.6300  -1
   0   4   6 935.122 24.6300   2
   1  -4   3 287.578 10.0089  -1
  -1   4   6 287.578 10.0089   2
   2  -4   3 2160.26 48.4290  -1
  -2   4   6 2160.26 48.4290   2
   3  -4   3 991.404 23.5896  -1
  -3   4   6 991.404 23.5896   2
   4  -4   3 144.304 13.4706  -1
  -4   4   6 144.304 13.4706   2
  -8  -3   3 315.304 17.8646  -1
   8   3   6 315.304 17.8646   2
  -7  -3   3 782.681 29.9521  -1
   7   3   6 782.681 29.9521   2
  -6  -3   3 58.0503 16.4723  -1
   6   3   6 58.0503 16.4723   2
  -4  -3   3 2012.96 58.2020   2
  -4  -3   3 5019.02 248.796  -1
   4   3   5 5019.02 248.796   2
  -3  -3   3 335.062 18.8749  -1
   3   3   5 335.062 18.8749   2
  -2  -3   3 1336.94 30.9937  -1
   2   3   5 1336.94 30.9937   2
  -1  -3   3 4672.90 89.4828  -1
   1   3   5 4672.90 89.4828   2
   0  -3   3 850.279 21.2093  -1
   0   3   5 850.279 21.2093   2
   1  -3   3 581.986 13.3803  -1
  -1   3   5 581.986 13.3803   2
   2  -3   3 2571.04 54.3471  -1
  -2   3   5 2571.04 54.3471   2
   3  -3   3 81.9225 6.45392  -1
  -3   3   5 81.9225 6.45392   2
   4  -3   3 346.609 16.8888  -1
  -4   3   5 346.609 16.8888   2
   5  -3   3 627.001 19.0477  -1
  -5   3   5 627.001 19.0477   2
   6  -3   3 98.5346 22.5250  -1
  -6   3   5 98.5346 22.5250   2
  -8  -2   3 455.600 17.9770  -1
   8   2   5 455.600 17.9770   2
  -7  -2   3 845.541 22.3262  -1
   7   2   5 845.541 22.3262   2
  -6  -2   3 301.834 12.9214  -1
   6   2   5 301.834 12.9214   2
  -5  -2   3 3089.15 64.8660  -1
   5   2   5 3089.15 64.8660   2
  -4  -2   3 2662.56 55.9336  -1
   4   2   5 2662.56 55.9336   2
  -3  -2   3 1275.90 29.8847  -1
   3   2   5 1275.90 29.8847   2
  -2  -2   3 4683.45 203.616  -1
   2   2   5 4683.45 203.616   2
  -1  -2   3 4552.89 135.555  -1
   1   2   4 4552.89 135.555   2
  -1  -2   3 2929.54 57.9267   2
   0  -2   3 161.874 4.67561   2
   0  -2   3 379.817 23.0110  -1
   0   2   4 379.817 23.0110   2
   1  -2   3 3205.56 76.3764  -1
  -1   2   4 3205.56 76.3764   2
   2  -2   3 3270.45 80.3889  -1
  -2   2   4 3270.45 80.3889   2
   3  -2   3 723.708 18.0779  -1
  -3   2   4 723.708 18.0779   2
   4  -2   3 735.675 25.0054  -1
  -4   2   4 735.675 25.0054   2
   5  -2   3 1004.04 22.9380  -1
  -5   2   4 1004.04 22.9380   2
   6  -2   3 592.208 24.3706  -1
  -6   2   4 592.208 24.3706   2
   7  -2   3 27.9704 10.1269  -1
  -7   2   4 27.9704 10.1269   2
  -8  -1   3 448.290 41.2651  -1
   8   1   4 448.290 41.2651   2
  -7  -1   3 13.1669 10.8357  -1
   7   1   4 13.1669 10.8357   2
  -6  -1   3 449.242 14.3201  -1
   6   1   4 449.242 14.3201   2
  -5  -1   3 1489.65 35.8214  -1
   5   1   4 1489.65 35.8214   2
  -4  -1   3 609.178 18.9626  -1
   4   1   4 609.178 18.9626   2
  -3  -1   3 2323.09 51.3251  -1
   3   1   4 2323.09 51.3251   2
  -2  -1   3 8885.25 247.508  -1
   2   1   4 8885.25 247.508   2
  -1  -1   3 1405.05 32.3204  -1
   1   1   4 1405.05 32.3204   2
   0  -1   3 1107.85 41.3813  -1
   0   1   4 1107.85 41.3813   2
   1  -1   3 5316.63 214.360  -1
  -1   1   4 5316.63 214.360   2
   2  -1   3 4459.64 223.464  -1
  -2   1   4 4459.64 223.464   2
   3  -1   3 1690.28 86.5593  -1
  -3   1   4 1690.28 86.5593   2
   4  -1   3 1093.21 28.5955  -1
  -4   1   3 1093.21 28.5955   2
   5  -1   3 1853.10 42.6861  -1
  -5   1   3 1853.10 42.6861   2
   6  -1   3 681.755 21.6612  -1
  -6   1   3 681.755 21.6612   2
   7  -1   3 151.448 13.1039  -1
  -7   1   3 151.448 13.1039   2
  -8   0   3 183.345 31.6168  -1
   8   0   4 183.345 31.6168   2
  -5   0   3 2006.49 58.6734  -1
   5   0   3 2006.49 58.6734   2
  -4   0   3 1029.01 23.2817  -1
   4   0   3 1029.01 23.2817   2
  -3   0   3 1157.47 23.3765  -1
   3   0   3 1157.47 23.3765   2
  -2   0   3 5760.25 230.992  -1
   2   0   3 5760.25 230.992   2
  -1   0   3 3287.69 166.868  -1
   1   0   3 3287.69 166.868   2
   0   0   3 1949.53 41.9135  -1
   0   0   3 1949.53 41.9135   2
   1   0   3 3365.45 108.614  -1
  -1   0   3 3365.45 108.614   2
   2   0   3 5317.13 183.360  -1
  -2   0   3 5317.13 183.360   2
   3   0   3 1152.49 25.0771  -1
  -3   0   3 1152.49 25.0771   2
   4   0   3 959.381 20.6165  -1
  -4   0   3 959.381 20.6165   2
   5   0   3 2032.88 59.9786  -1
  -5   0   3 2032.88 59.9786   2
  -7   1   3 144.700 11.6320  -1
   7  -1   3 144.700 11.6320   2
  -6   1   3 687.607 24.2977  -1
   6  -1   3 687.607 24.2977   2
  -5   1   3 1851.76 54.8520  -1
   5  -1   3 1851.76 54.8520   2
  -4   1   3 1138.96 29.8979  -1
   4  -1   3 1138.96 29.8979   2
  -3   1   3 673.235 38.1050  -1
   3  -1   3 673.235 38.1050   2
  -2   1   3 1069.30 24.0429   2
  -2   1   3 1054.93 56.1096  -1
   2  -1   2 1054.93 56.1096   2
  -1   1   3 5935.65 243.352  -1
   1  -1   2 5935.65 243.352   2
   0   1   3 2791.45 64.9122  -1
   0  -1   2 2791.45 64.9122   2
   1   1   3 2813.77 48.0686  -1
  -1  -1   2 2813.77 48.0686   2
   2   1   3 951.378 18.3858  -1
  -2  -1   2 951.378 18.3858   2
   3   1   3 891.624 18.7659  -1
  -3  -1   2 891.624 18.7659   2
   4   1   3 2317.29 47.4977  -1
  -4  -1   2 2317.29 47.4977   2
   5   1   3 23.6744 6.25429  -1
  -5  -1   2 23.6744 6.25429   2
   6   1   3 308.985 12.4361  -1
  -6  -1   2 308.985 12.4361   2
   7   1   3 670.540 20.6215  -1
  -7  -1   2 670.540 20.6215   2
  -7   2   3 484.516 40.3826  -1
   7  -2   2 484.516 40.3826   2
  -6   2   3 340.097 18.3630  -1
   6  -2   2 340.097 18.3630   2
  -5   2   3 561.362 22.4483  -1
   5  -2   2 561.362 22.4483   2
  -4   2   3 1921.04 47.7149  -1
   4  -2   2 1921.04 47.7149   2
  -3   2   3 2467.32 60.3145  -1
   3  -2   2 2467.32 60.3145   2
  -2   2   3 2778.92 61.6342  -1
   2  -2   2 2778.92 61.6342   2
  -1   2   3 3966.32 129.242  -1
   1  -2   2 3966.32 129.242   2
  -1   2   3 5625.78 235.823  -1
   1  -2   1 5625.78 235.823   2
   1  -2   2 5625.78 235.823   2
   0   2   3 6286.67 240.955   2
   1   2   3 5465.30 151.642   2
   2   2   3 1030.77 63.7594  -1
  -2  -2   1 1030.77 63.7594   2
   3   2   3 3912.76 90.9763  -1
  -3  -2   1 3912.76 90.9763   2
   4   2   3 1651.59 36.7856  -1
  -4  -2   1 1651.59 36.7856   2
   5   2   3 490.726 16.2135  -1
  -5  -2   1 490.726 16.2135   2
   6   2   3 1070.89 29.2969  -1
  -6  -2   1 1070.89 29.2969   2
   7   2   3 549.818 16.5125  -1
  -7  -2   1 549.818 16.5125   2
   8   2   3 142.887 11.1203  -1
  -8  -2   1 142.887 11.1203   2
  -5   3   3 225.913 24.8798  -1
   5  -3   1 225.913 24.8798   2
  -4   3   3 990.064 53.3952  -1
   4  -3   1 990.064 53.3952   2
  -3   3   3 2886.87 98.7434  -1
   3  -3   1 2886.87 98.7434   2
  -2   3   3 683.742 26.0670  -1
   2  -3   1 683.742 26.0670   2
  -1   3   3 326.149 10.5369  -1
   1  -3   1 326.149 10.5369   2
   0   3   3 3409.27 70.9810  -1
   0  -3   1 3409.27 70.9810   2
   1   3   3 2747.46 53.9305  -1
  -1  -3   1 2747.46 53.9305   2
   2   3   3 468.268 17.9156  -1
  -2  -3   1 468.268 17.9156   2
   3   3   3 2327.02 83.6958  -1
  -3  -3   1 2327.02 83.6958   2
   4   3   3 936.671 25.9408   2
   5   3   3 961.965 39.5758  -1
   5   3   0 961.965 39.5758   2
   6   3   3 1240.30 35.4422  -1
   6   3   0 1240.30 35.4422   2
   7   3   3 301.540 16.6522  -1
   7   3   0 301.540 16.6522   2
   8   3   3 275.044 18.1684  -1
   8   3   0 275.044 18.1684   2
  -3   4   3 459.359 23.0302  -1
  -3   4   0 459.359 23.0302   2
  -2   4   3 1269.24 46.2608  -1
  -2   4   0 1269.24 46.2608   2
  -1   4   3 4463.47 132.495  -1
  -1   4   0 4463.47 132.495   2
   0   4   3 3120.47 61.9162  -1
   0   4   0 3120.47 61.9162   2
   1   4   3 802.009 17.2424  -1
   1   4   0 802.009 17.2424   2
   2   4   3 2981.99 59.4727  -1
   2   4   0 2981.99 59.4727   2
   3   4   3 4143.23 81.5577  -1
   3   4   0 4143.23 81.5577   2
   4   4   3 434.555 14.9305  -1
   4   4   0 434.555 14.9305   2
   5   4   3 2872.22 67.3716  -1
   5   4   0 2872.22 67.3716   2
   6   4   3 925.549 28.7767  -1
   6   4   0 925.549 28.7767   2
   7   4   3 94.9668 30.8023  -1
   7   4   0 94.9668 30.8023   2
  -5   5   3 425.463 28.4936  -1
  -5   5   0 425.463 28.4936   2
  -4   5   3 923.782 56.4476  -1
  -4   5   0 923.782 56.4476   2
  -1   5   3 3477.34 181.643  -1
  -1   5   1 3477.34 181.643   2
   0   5   3 2232.36 45.5546  -1
   0   5   1 2232.36 45.5546   2
   1   5   3 322.992 11.5173  -1
   1   5   1 322.992 11.5173   2
   2   5   3 1516.94 34.3186  -1
   2   5   1 1516.94 34.3186   2
   3   5   3 2338.99 50.0658  -1
   3   5   1 2338.99 50.0658   2
   4   5   3 273.545 11.8790  -1
   4   5   1 273.545 11.8790   2
   5   5   3 840.415 24.2195  -1
   5   5   1 840.415 24.2195   2
   6   5   3 893.115 26.9915  -1
   6   5   1 893.115 26.9915   2
   7   5   3 124.241 9.25309  -1
   7   5   1 124.241 9.25309   2
   8   5   3 81.4432 17.2162  -1
   8   5   1 81.4432 17.2162   2
  -4   6   3 481.181 27.1945  -1
  -4   6   1 481.181 27.1945   2
  -3   6   3 371.680 22.4338  -1
  -3   6   1 371.680 22.4338   2
  -2   6   3 414.930 23.0046  -1
  -2   6   1 414.930 23.0046   2
  -1   6   3 1208.33 62.4569  -1
  -1   6   1 1208.33 62.4569   2
   0   6   3 784.549 31.1569  -1
   0   6   1 784.549 31.1569   2
   1   6   3 628.349 27.0623  -1
   1   6   1 628.349 27.0623   2
   3   6   3 792.444 26.8261  -1
   3   6   2 792.444 26.8261   2
   4   6   3 -6.6047 21.1806  -1
   4   6   2 -6.6047 21.1806   2
   5   6   3 2061.63 58.9759  -1
   5   6   2 2061.63 58.9759   2
   6   6   3 1470.12 40.4298  -1
   6   6   2 1470.12 40.4298   2
   7   6   3 -4.2649 9.33308  -1
   7   6   2 -4.2649 9.33308   2
   8   6   3 596.523 20.0952  -1
   8   6   2 596.523 20.0952   2
  -3   7   3 20.4408 17.8512  -1
  -3   7   2 20.4408 17.8512   2
  -2   7   3 177.568 17.1512  -1
  -2   7   2 177.568 17.1512   2
  -1   7   3 1514.20 81.1064  -1
  -1   7   2 1514.20 81.1064   2
   0   7   3 337.780 12.9837  -1
   0   7   2 337.780 12.9837   2
   1   7   3 324.860 14.4676  -1
   1   7   2 324.860 14.4676   2
   2   7   3 1609.41 45.4092  -1
   2   7   2 1609.41 45.4092   2
   3   7   3 874.258 35.3925  -1
   3   7   2 874.258 35.3925   2
   4   7   3 63.7005 22.4331  -1
   4   7   2 63.7005 22.4331   2
   5   7   3 803.561 52.4149  -1
   5   7   2 803.561 52.4149   2
   7   7   3 38.2527 40.0561  -1
   7   7   3 38.2527 40.0561   2
   0   8   3 19.2985 8.53206  -1
   0   8   3 19.2985 8.53206   2
   1   8   3 531.482 17.5085  -1
   1   8   3 531.482 17.5085   2
   2   8   3 1179.67 27.2910  -1
   2   8   3 1179.67 27.2910   2
   3   8   3 162.852 9.67662  -1
   3   8   3 162.852 9.67662   2
   4   8   3 538.550 18.9465  -1
   4   8   3 538.550 18.9465   2
   5   8   3 880.958 27.7139  -1
   5   8   3 880.958 27.7139   2
   6   8   3 10.4999 19.4687  -1
   6   8   3 10.4999 19.4687   2
   2   9   3 861.489 58.9425  -1
   2   9   4 861.489 58.9425   2
   3   9   3 39.6174 19.8715  -1
   3   9   4 39.6174 19.8715   2
   4   9   3 534.218 28.3126  -1
   4   9   4 534.218 28.3126   2
   5   9   3 463.258 35.0063  -1
   5   9   4 463.258 35.0063   2
  -5  -8   4 182.531 189.849  -1
   5   8  10 182.531 189.849   2
  -4  -8   4 145.763 13.0841  -1
   4   8  10 145.763 13.0841   2
  -3  -8   4 109.988 10.8236  -1
   3   8  10 109.988 10.8236   2
  -2  -8   4 40.7877 11.2219  -1
   2   8  10 40.7877 11.2219   2
  -1  -8   4 51.0141 12.7570  -1
   1   8  10 51.0141 12.7570   2
   0  -8   4 68.4614 13.3288  -1
   0   8  10 68.4614 13.3288   2
  -4  -7   4 954.877 60.1809  -1
   4   7   9 954.877 60.1809   2
  -3  -7   4 537.582 21.0379  -1
   3   7   9 537.582 21.0379   2
  -2  -7   4 64.8021 12.1865  -1
   2   7   9 64.8021 12.1865   2
  -1  -7   4 1172.86 36.1661  -1
   1   7   9 1172.86 36.1661   2
   0  -7   4 628.542 21.7834  -1
   0   7   9 628.542 21.7834   2
   1  -7   4 32.2239 6.44231  -1
  -1   7   9 32.2239 6.44231   2
   2  -7   4 324.295 20.8638  -1
  -2   7   9 324.295 20.8638   2
  -7  -6   4 456.164 23.7776  -1
   7   6   9 456.164 23.7776   2
  -6  -6   4 239.614 19.4230  -1
   6   6   9 239.614 19.4230   2
  -5  -6   4 128.767 20.5570  -1
   5   6   9 128.767 20.5570   2
  -4  -6   4 1262.12 55.0123  -1
   4   6   9 1262.12 55.0123   2
  -2  -6   4 16.4752 13.9087   2
  -1  -6   4 832.968 50.5164  -1
   1   6   8 832.968 50.5164   2
   0  -6   4 286.753 15.8190  -1
   0   6   8 286.753 15.8190   2
   1  -6   4 31.0433 8.55155  -1
  -1   6   8 31.0433 8.55155   2
   2  -6   4 109.333 10.1653  -1
  -2   6   8 109.333 10.1653   2
   4  -6   4 55.5101 27.1562  -1
  -4   6   8 55.5101 27.1562   2
  -7  -5   4 861.266 31.2153  -1
   7   5   8 861.266 31.2153   2
  -6  -5   4 33.0504 14.6795  -1
   6   5   8 33.0504 14.6795   2
  -5  -5   4 833.304 25.7619  -1
   5   5   8 833.304 25.7619   2
  -4  -5   4 807.876 23.9449  -1
   4   5   8 807.876 23.9449   2
  -3  -5   4 196.453 14.1339  -1
   3   5   8 196.453 14.1339   2
  -2  -5   4 466.934 16.2869  -1
   2   5   8 466.934 16.2869   2
  -1  -5   4 1282.62 37.9408  -1
   1   5   8 1282.62 37.9408   2
   0  -5   4 55.8990 11.7997  -1
   0   5   8 55.8990 11.7997   2
   3  -5   4 256.446 14.7240  -1
  -3   5   7 256.446 14.7240   2
  -7  -4   4 993.203 70.0140  -1
   7   4   7 993.203 70.0140   2
  -6  -4   4 112.592 33.6174  -1
   6   4   7 112.592 33.6174   2
  -5  -4   4 987.985 29.8545  -1
   5   4   7 987.985 29.8545   2
  -4  -4   4 138.577 12.1248  -1
   4   4   7 138.577 12.1248   2
  -3  -4   4 274.925 12.6472  -1
   3   4   7 274.925 12.6472   2
  -2  -4   4 369.733 14.6242  -1
   2   4   7 369.733 14.6242   2
  -1  -4   4 62.7331 6.41502  -1
   1   4   7 62.7331 6.41502   2
   0  -4   4 56.9768 7.06351  -1
   0   4   7 56.9768 7.06351   2
   1  -4   4 329.650 11.5228  -1
  -1   4   7 329.650 11.5228   2
   2  -4   4 226.183 9.45757  -1
  -2   4   7 226.183 9.45757   2
   3  -4   4 360.209 15.2394  -1
  -3   4   7 360.209 15.2394   2
   4  -4   4 19.1660 12.6684  -1
  -4   4   7 19.1660 12.6684   2
  -8  -3   4 638.178 24.7746  -1
   8   3   7 638.178 24.7746   2
  -7  -3   4 500.255 26.2886  -1
   7   3   7 500.255 26.2886   2
  -6  -3   4 79.6890 17.7321  -1
   6   3   7 79.6890 17.7321   2
  -4  -3   4 1695.30 91.7252  -1
   4   3   6 1695.30 91.7252   2
  -3  -3   4 320.423 17.2064  -1
   3   3   6 320.423 17.2064   2
  -2  -3   4 1234.88 32.7760  -1
   2   3   6 1234.88 32.7760   2
  -1  -3   4 5079.68 108.987  -1
   1   3   6 5079.68 108.987   2
   0  -3   4 1199.06 32.6147  -1
   0   3   6 1199.06 32.6147   2
   1  -3   4 123.302 6.70525  -1
  -1   3   6 123.302 6.70525   2
   2  -3   4 1375.94 52.5051  -1
  -2   3   6 1375.94 52.5051   2
   3  -3   4 1484.52 45.7738  -1
  -3   3   6 1484.52 45.7738   2
   4  -3   4 144.049 10.6389  -1
  -4   3   6 144.049 10.6389   2
   5  -3   4 630.164 22.0217  -1
  -5   3   6 630.164 22.0217   2
   6  -3   4 364.799 16.8215  -1
  -6   3   6 364.799 16.8215   2
  -8  -2   4 646.501 21.7684  -1
   8   2   6 646.501 21.7684   2
  -7  -2   4 308.031 12.5878  -1
   7   2   6 308.031 12.5878   2
  -6  -2   4 298.512 13.2171  -1
   6   2   6 298.512 13.2171   2
  -5  -2   4 1728.66 40.5542  -1
   5   2   6 1728.66 40.5542   2
  -4  -2   4 3376.50 69.3008  -1
   4   2   6 3376.50 69.3008   2
  -3  -2   4 400.051 13.9435  -1
   3   2   6 400.051 13.9435   2
  -2  -2   4 3142.56 110.044  -1
   2   2   6 3142.56 110.044   2
  -1  -2   4 528.849 13.0694   2
   0  -2   4 1180.84 32.0595  -1
   0   2   5 1180.84 32.0595   2
   1  -2   4 293.806 9.57176  -1
  -1   2   5 293.806 9.57176   2
   2  -2   4 729.772 17.1640  -1
  -2   2   5 729.772 17.1640   2
   3  -2   4 152.117 7.11841  -1
  -3   2   5 152.117 7.11841   2
   4  -2   4 9.22216 6.20308  -1
  -4   2   5 9.22216 6.20308   2
   5  -2   4 151.494 7.22914  -1
  -5   2   5 151.494 7.22914   2
   6  -2   4 255.364 9.76549  -1
  -6   2   5 255.364 9.76549   2
   7  -2   4 37.1388 10.8085  -1
  -7   2   5 37.1388 10.8085   2
  -8  -1   4 997.934 46.2957  -1
   8   1   5 997.934 46.2957   2
  -7  -1   4 520.608 19.3181  -1
   7   1   5 520.608 19.3181   2
  -6  -1   4 609.590 19.3009  -1
   6   1   5 609.590 19.3009   2
  -5  -1   4 1921.07 41.0283  -1
   5   1   5 1921.07 41.0283   2
  -4  -1   4 1474.18 35.2422  -1
   4   1   5 1474.18 35.2422   2
  -3  -1   4 354.123 10.8693  -1
   3   1   5 354.123 10.8693   2
  -2  -1   4 2403.14 48.6687  -1
   2   1   5 2403.14 48.6687   2
  -1  -1   4 4004.53 108.815  -1
   1   1   5 4004.53 108.815   2
   0  -1   4 106.021 6.57328  -1
   0   1   5 106.021 6.57328   2
   1  -1   4 476.402 13.5123  -1
  -1   1   5 476.402 13.5123   2
   2  -1   4 1995.19 58.0846  -1
  -2   1   5 1995.19 58.0846   2
   4  -1   4 70.7811 8.44918  -1
  -4   1   4 70.7811 8.44918   2
   5  -1   4 871.664 25.2978  -1
  -5   1   4 871.664 25.2978   2
   6  -1   4 972.830 25.1563  -1
  -6   1   4 972.830 25.1563   2
   7  -1   4 349.631 15.2602  -1
  -7   1   4 349.631 15.2602   2
  -6   0   4 446.281 34.8021  -1
   6   0   4 446.281 34.8021   2
  -5   0   4 231.456 13.5466  -1
   5   0   4 231.456 13.5466   2
  -4   0   4 66.7447 6.65140  -1
   4   0   4 66.7447 6.65140   2
  -3   0   4 1118.11 23.1434  -1
   3   0   4 1118.11 23.1434   2
  -2   0   4 905.761 28.0415  -1
   2   0   4 905.761 28.0415   2
  -1   0   4 47.6562 4.50493  -1
   1   0   4 47.6562 4.50493   2
   0   0   4 6008.44 169.019  -1
   0   0   4 6008.44 169.019   2
   1   0   4 37.3962 4.13049  -1
  -1   0   4 37.3962 4.13049   2
   2   0   4 936.020 19.1333  -1
  -2   0   4 936.020 19.1333   2
   3   0   4 1064.29 23.8500  -1
  -3   0   4 1064.29 23.8500   2
   4   0   4 53.8819 4.47303  -1
  -4   0   4 53.8819 4.47303   2
   5   0   4 223.828 17.9077  -1
  -5   0   4 223.828 17.9077   2
  -7   1   4 361.378 17.8929  -1
   7  -1   4 361.378 17.8929   2
  -6   1   4 971.092 31.8222  -1
   6  -1   4 971.092 31.8222   2
  -5   1   4 898.564 24.9681  -1
   5  -1   4 898.564 24.9681   2
  -4   1   4 86.8609 11.7870  -1
   4  -1   4 86.8609 11.7870   2
  -3   1   4 1754.53 90.0531  -1
   3  -1   4 1754.53 90.0531   2
  -2   1   4 4250.60 147.120  -1
   2  -1   3 4250.60 147.120   2
  -1   1   4 7087.94 281.159  -1
   1  -1   3 7087.94 281.159   2
   0   1   4 849.976 17.3892  -1
   0  -1   3 849.976 17.3892   2
   1   1   4 1305.62 25.4113  -1
  -1  -1   3 1305.62 25.4113   2
   2   1   4 8060.54 224.191  -1
  -2  -1   3 8060.54 224.191   2
   3   1   4 2233.57 41.8698  -1
  -3  -1   3 2233.57 41.8698   2
   4   1   4 594.610 15.8233  -1
  -4  -1   3 594.610 15.8233   2
   5   1   4 1559.02 34.7143  -1
  -5  -1   3 1559.02 34.7143   2
   6   1   4 427.408 14.2020  -1
  -6  -1   3 427.408 14.2020   2
   7   1   4 7.56192 14.3786  -1
  -7  -1   3 7.56192 14.3786   2
   8   1   4 497.853 32.2498  -1
  -8  -1   3 497.853 32.2498   2
  -7   2   4 39.8156 12.9705  -1
   7  -2   3 39.8156 12.9705   2
  -6   2   4 661.585 26.9009  -1
   6  -2   3 661.585 26.9009   2
  -5   2   4 972.192 32.2020  -1
   5  -2   3 972.192 32.2020   2
  -4   2   4 770.719 24.8820  -1
   4  -2   3 770.719 24.8820   2
  -3   2   4 692.803 18.7926  -1
   3  -2   3 692.803 18.7926   2
  -2   2   4 3232.98 57.8071  -1
   2  -2   3 3232.98 57.8071   2
  -1   2   4 3531.27 103.091  -1
   1  -2   3 3531.27 103.091   2
   1   2   4 1000.28 59.5350  -1
  -1  -2   2 1000.28 59.5350   2
   2   2   4 415.995 21.1862  -1
  -2  -2   2 415.995 21.1862   2
   3   2   4 1439.11 29.2475  -1
  -3  -2   2 1439.11 29.2475   2
   4   2   4 153.465 7.55576  -1
  -4  -2   2 153.465 7.55576   2
   5   2   4 439.462 13.5161  -1
  -5  -2   2 439.462 13.5161   2
   6   2   4 48.2536 7.93109  -1
  -6  -2   2 48.2536 7.93109   2
   7   2   4 140.447 9.72649  -1
  -7  -2   2 140.447 9.72649   2
   8   2   4 210.543 12.0723  -1
  -8  -2   2 210.543 12.0723   2
  -4   3   4 804.468 45.5702  -1
   4  -3   2 804.468 45.5702   2
  -3   3   4 791.106 43.1199  -1
   3  -3   2 791.106 43.1199   2
  -2   3   4 1525.47 75.9903  -1
   2  -3   2 1525.47 75.9903   2
  -1   3   4 1159.70 24.6004  -1
   1  -3   2 1159.70 24.6004   2
   0   3   4 815.193 17.2474  -1
   0  -3   2 815.193 17.2474   2
   1   3   4 1075.68 22.0277  -1
  -1  -3   2 1075.68 22.0277   2
   2   3   4 623.568 16.7626  -1
  -2  -3   2 623.568 16.7626   2
   3   3   4 634.028 21.0365  -1
  -3  -3   2 634.028 21.0365   2
   4   3   4 582.058 22.5808  -1
  -4  -3   2 582.058 22.5808   2
   5   3   4 737.839 25.4034  -1
  -5  -3   1 737.839 25.4034   2
   6   3   4 224.696 12.1320  -1
  -6  -3   1 224.696 12.1320   2
   7   3   4 185.099 12.7730  -1
  -7  -3   1 185.099 12.7730   2
   8   3   4 734.984 23.3748  -1
  -8  -3   1 734.984 23.3748   2
  -3   4   4 1386.09 73.3050  -1
   3  -4   1 1386.09 73.3050   2
  -2   4   4 257.501 23.1387  -1
   2  -4   1 257.501 23.1387   2
  -1   4   4 612.436 18.0822  -1
   1  -4   1 612.436 18.0822   2
   0   4   4 402.328 9.33037  -1
   0  -4   1 402.328 9.33037   2
   1   4   4 577.889 13.4469  -1
  -1  -4   1 577.889 13.4469   2
   2   4   4 801.306 19.8526  -1
  -2  -4   1 801.306 19.8526   2
   3   4   4 744.349 19.7473  -1
  -3  -4   1 744.349 19.7473   2
   4   4   4 105.011 6.85674  -1
  -4  -4   1 105.011 6.85674   2
   5   4   4 1295.30 27.4472  -1
  -5  -4   1 1295.30 27.4472   2
   6   4   4 777.692 22.0752  -1
  -6  -4   1 777.692 22.0752   2
   7   4   4 92.4337 32.7640  -1
  -7  -4   1 92.4337 32.7640   2
  -5   5   4 78.7208 22.3942  -1
   5  -5   1 78.7208 22.3942   2
  -4   5   4 438.580 39.0519  -1
   4  -5   1 438.580 39.0519   2
  -1   5   4 282.662 17.0919   2
   0   5   4 657.256 16.0745  -1
   0   5   0 657.256 16.0745   2
   1   5   4 678.966 18.7751  -1
   1   5   0 678.966 18.7751   2
   2   5   4 3398.31 75.4037  -1
   2   5   0 3398.31 75.4037   2
   3   5   4 325.907 12.3307  -1
   3   5   0 325.907 12.3307   2
   4   5   4 514.882 16.6968  -1
   4   5   0 514.882 16.6968   2
   5   5   4 1374.91 27.8706  -1
   5   5   0 1374.91 27.8706   2
   6   5   4 227.208 8.92597  -1
   6   5   0 227.208 8.92597   2
   7   5   4 274.392 13.5295  -1
   7   5   0 274.392 13.5295   2
   8   5   4 282.732 16.2685  -1
   8   5   0 282.732 16.2685   2
  -4   6   4 175.233 20.0643  -1
  -4   6   0 175.233 20.0643   2
  -3   6   4 307.903 21.0436  -1
  -3   6   0 307.903 21.0436   2
  -2   6   4 577.674 27.5948  -1
  -2   6   0 577.674 27.5948   2
  -1   6   4 1000.79 39.1564  -1
  -1   6   0 1000.79 39.1564   2
   0   6   4 378.028 18.6116  -1
   0   6   0 378.028 18.6116   2
   1   6   4 2286.22 115.896  -1
   1   6   0 2286.22 115.896   2
   2   6   4 91.8066 13.0913   2
   3   6   4 67.3133 12.4256  -1
   3   6   1 67.3133 12.4256   2
   4   6   4 343.319 15.7896  -1
   4   6   1 343.319 15.7896   2
   5   6   4 124.919 8.08453  -1
   5   6   1 124.919 8.08453   2
   6   6   4 52.6432 8.57609  -1
   6   6   1 52.6432 8.57609   2
   7   6   4 90.2775 8.60913  -1
   7   6   1 90.2775 8.60913   2
   8   6   4 15.4409 12.1602  -1
   8   6   1 15.4409 12.1602   2
  -3   7   4 197.805 20.4957  -1
  -3   7   1 197.805 20.4957   2
  -2   7   4 530.398 25.9761  -1
  -2   7   1 530.398 25.9761   2
  -1   7   4 397.814 20.5444  -1
  -1   7   1 397.814 20.5444   2
   0   7   4 12.1921 7.09162  -1
   0   7   1 12.1921 7.09162   2
   1   7   4 611.486 18.2552  -1
   1   7   1 611.486 18.2552   2
   2   7   4 519.614 19.6567  -1
   2   7   1 519.614 19.6567   2
   3   7   4 0.74133 14.6480  -1
   3   7   1 0.74133 14.6480   2
   4   7   4 266.640 17.4370  -1
   4   7   1 266.640 17.4370   2
   7   7   4 113.363 14.4271  -1
   7   7   2 113.363 14.4271   2
  -1   8   4 104.869 33.9526  -1
  -1   8   2 104.869 33.9526   2
   0   8   4 76.8588 9.05497  -1
   0   8   2 76.8588 9.05497   2
   1   8   4 344.203 14.1420  -1
   1   8   2 344.203 14.1420   2
   2   8   4 358.861 12.2918  -1
   2   8   2 358.861 12.2918   2
   3   8   4 6.84875 6.94541  -1
   3   8   2 6.84875 6.94541   2
   4   8   4 236.410 12.9200  -1
   4   8   2 236.410 12.9200   2
   5   8   4 308.414 17.3614  -1
   5   8   2 308.414 17.3614   2
   6   8   4 138.923 23.1264  -1
   6   8   2 138.923 23.1264   2
   3   9   4 26.9949 19.6099  -1
   3   9   3 26.9949 19.6099   2
   4   9   4 503.806 20.7410  -1
   4   9   3 503.806 20.7410   2
   5   9   4 467.470 27.1013  -1
   5   9   3 467.470 27.1013   2
  -4  -8   5 310.765 21.3293  -1
   4   8  11 310.765 21.3293   2
  -3  -8   5 16.1361 12.7374  -1
   3   8  11 16.1361 12.7374   2
  -2  -8   5 632.319 22.6736  -1
   2   8  11 632.319 22.6736   2
  -1  -8   5 217.586 17.0751  -1
   1   8  11 217.586 17.0751   2
  -4  -7   5 39.2399 31.9532  -1
   4   7  10 39.2399 31.9532   2
  -3  -7   5 386.646 21.7753  -1
   3   7  10 386.646 21.7753   2
  -2  -7   5 304.651 17.9907  -1
   2   7  10 304.651 17.9907   2
  -1  -7   5 5.89663 11.9494  -1
   1   7  10 5.89663 11.9494   2
   0  -7   5 745.826 26.5712  -1
   0   7  10 745.826 26.5712   2
   1  -7   5 408.173 17.8832  -1
  -1   7  10 408.173 17.8832   2
   2  -7   5 175.639 17.0148  -1
  -2   7  10 175.639 17.0148   2
  -6  -6   5 123.697 23.4479  -1
   6   6  10 123.697 23.4479   2
  -5  -6   5 169.822 21.6842  -1
   5   6  10 169.822 21.6842   2
  -4  -6   5 124.685 26.1096  -1
   4   6  10 124.685 26.1096   2
  -1  -6   5 741.321 50.8127  -1
   1   6   9 741.321 50.8127   2
   0  -6   5 646.070 21.4322  -1
   0   6   9 646.070 21.4322   2
   1  -6   5 569.404 18.6727  -1
  -1   6   9 569.404 18.6727   2
   2  -6   5 448.071 17.9944  -1
  -2   6   9 448.071 17.9944   2
   3  -6   5 917.325 51.2320  -1
  -3   6   9 917.325 51.2320   2
  -7  -5   5 142.224 18.9104  -1
   7   5   9 142.224 18.9104   2
  -6  -5   5 135.355 15.2079  -1
   6   5   9 135.355 15.2079   2
  -5  -5   5 568.858 20.6605  -1
   5   5   9 568.858 20.6605   2
  -4  -5   5 153.822 12.5978  -1
   4   5   9 153.822 12.5978   2
  -3  -5   5 1082.54 32.8247  -1
   3   5   9 1082.54 32.8247   2
  -2  -5   5 1041.29 29.2168  -1
   2   5   9 1041.29 29.2168   2
  -1  -5   5 1138.36 35.1205  -1
   1   5   9 1138.36 35.1205   2
   0  -5   5 805.806 31.4658  -1
   0   5   9 805.806 31.4658   2
   2  -5   5 398.821 30.6412  -1
  -2   5   8 398.821 30.6412   2
   2  -5   5 1202.85 119.186  -1
  -2   5   9 1202.85 119.186   2
   3  -5   5 791.914 46.8599  -1
  -3   5   8 791.914 46.8599   2
  -7  -4   5 283.924 40.7935  -1
   7   4   8 283.924 40.7935   2
  -6  -4   5 214.175 21.8319  -1
   6   4   8 214.175 21.8319   2
  -5  -4   5 1306.17 44.2981  -1
   5   4   8 1306.17 44.2981   2
  -4  -4   5 828.332 24.7950  -1
   4   4   8 828.332 24.7950   2
  -3  -4   5 616.199 22.2155  -1
   3   4   8 616.199 22.2155   2
  -2  -4   5 1183.51 40.3629  -1
   2   4   8 1183.51 40.3629   2
  -1  -4   5 1814.05 56.9824  -1
   1   4   8 1814.05 56.9824   2
   0  -4   5 753.026 22.9989  -1
   0   4   8 753.026 22.9989   2
   1  -4   5 1006.59 28.3393  -1
  -1   4   8 1006.59 28.3393   2
   2  -4   5 536.506 15.4135  -1
  -2   4   8 536.506 15.4135   2
   3  -4   5 1151.95 32.6724  -1
  -3   4   8 1151.95 32.6724   2
   4  -4   5 328.875 28.3888  -1
  -4   4   8 328.875 28.3888   2
  -8  -3   5 502.593 26.3481  -1
   8   3   8 502.593 26.3481   2
  -7  -3   5 223.238 22.1732  -1
   7   3   8 223.238 22.1732   2
  -6  -3   5 352.916 29.4795  -1
   6   3   8 352.916 29.4795   2
  -3  -3   5 278.205 16.9924  -1
   3   3   7 278.205 16.9924   2
  -2  -3   5 282.197 13.9129  -1
   2   3   7 282.197 13.9129   2
  -1  -3   5 1836.74 48.8101  -1
   1   3   7 1836.74 48.8101   2
   0  -3   5 1365.20 32.7873  -1
   0   3   7 1365.20 32.7873   2
   1  -3   5 125.708 8.68963  -1
  -1   3   7 125.708 8.68963   2
   2  -3   5 1863.54 56.3860  -1
  -2   3   7 1863.54 56.3860   2
   3  -3   5 1612.65 38.3668  -1
  -3   3   7 1612.65 38.3668   2
   4  -3   5 63.5293 8.79454  -1
  -4   3   7 63.5293 8.79454   2
   5  -3   5 799.058 27.3004  -1
  -5   3   7 799.058 27.3004   2
   6  -3   5 876.536 29.6708  -1
  -6   3   7 876.536 29.6708   2
  -8  -2   5 69.6100 11.7405  -1
   8   2   7 69.6100 11.7405   2
  -7  -2   5 63.2314 10.0553  -1
   7   2   7 63.2314 10.0553   2
  -6  -2   5 114.304 11.3812  -1
   6   2   7 114.304 11.3812   2
  -5  -2   5 475.150 19.7127  -1
   5   2   7 475.150 19.7127   2
  -4  -2   5 447.119 15.7056  -1
   4   2   7 447.119 15.7056   2
  -3  -2   5 321.627 13.4639  -1
   3   2   7 321.627 13.4639   2
  -2  -2   5 339.328 18.0616  -1
   2   2   7 339.328 18.0616   2
   0  -2   5 1763.09 65.4233  -1
   0   2   6 1763.09 65.4233   2
   1  -2   5 2243.67 50.5848  -1
  -1   2   6 2243.67 50.5848   2
   2  -2   5 6036.08 126.840  -1
  -2   2   6 6036.08 126.840   2
   3  -2   5 1153.51 32.6974  -1
  -3   2   6 1153.51 32.6974   2
   4  -2   5 221.665 12.6064  -1
  -4   2   6 221.665 12.6064   2
   5  -2   5 1211.03 27.2559  -1
  -5   2   6 1211.03 27.2559   2
   6  -2   5 1501.30 33.6431  -1
  -6   2   6 1501.30 33.6431   2
   7  -2   5 53.6300 15.4542  -1
  -7   2   6 53.6300 15.4542   2
  -8  -1   5 58.5530 19.9212  -1
   8   1   6 58.5530 19.9212   2
  -7  -1   5 371.440 17.2598  -1
   7   1   6 371.440 17.2598   2
  -6  -1   5 354.719 15.0536  -1
   6   1   6 354.719 15.0536   2
  -5  -1   5 770.956 25.1386  -1
   5   1   6 770.956 25.1386   2
  -4  -1   5 1280.05 33.0647  -1
   4   1   6 1280.05 33.0647   2
  -3  -1   5 55.4028 6.60634  -1
   3   1   6 55.4028 6.60634   2
  -2  -1   5 2480.22 61.8953  -1
   2   1   6 2480.22 61.8953   2
  -1  -1   5 2335.92 58.1004  -1
   1   1   6 2335.92 58.1004   2
   0  -1   5 139.427 10.7906  -1
   0   1   6 139.427 10.7906   2
   1  -1   5 2622.11 64.6398  -1
  -1   1   6 2622.11 64.6398   2
   2  -1   5 5620.34 158.011  -1
  -2   1   6 5620.34 158.011   2
   4  -1   5 296.589 12.9962  -1
  -4   1   5 296.589 12.9962   2
   5  -1   5 1154.60 28.1940  -1
  -5   1   5 1154.60 28.1940   2
   6  -1   5 709.181 22.8581  -1
  -6   1   5 709.181 22.8581   2
   7  -1   5 21.3314 11.3886  -1
  -7   1   5 21.3314 11.3886   2
  -6   0   5 49.5001 22.7138  -1
   6   0   5 49.5001 22.7138   2
  -5   0   5 1209.74 46.8663  -1
   5   0   5 1209.74 46.8663   2
  -4   0   5 834.491 20.0920  -1
   4   0   5 834.491 20.0920   2
  -3   0   5 287.795 9.47748  -1
   3   0   5 287.795 9.47748   2
  -2   0   5 2226.33 79.6878  -1
   2   0   5 2226.33 79.6878   2
  -1   0   5 550.220 16.8558  -1
   1   0   5 550.220 16.8558   2
   0   0   5 2634.92 51.7978  -1
   0   0   5 2634.92 51.7978   2
   1   0   5 497.629 13.1070  -1
  -1   0   5 497.629 13.1070   2
   2   0   5 2204.25 48.8852  -1
  -2   0   5 2204.25 48.8852   2
   3   0   5 276.691 9.54282  -1
  -3   0   5 276.691 9.54282   2
   4   0   5 803.628 19.9512  -1
  -4   0   5 803.628 19.9512   2
   5   0   5 1189.82 63.8566  -1
  -5   0   5 1189.82 63.8566   2
   8   0   5 760.912 57.9386  -1
  -8   0   4 760.912 57.9386   2
  -7   1   5 12.5334 13.0841  -1
   7  -1   5 12.5334 13.0841   2
  -6   1   5 770.958 26.8976  -1
   6  -1   5 770.958 26.8976   2
  -5   1   5 1237.93 38.6923  -1
   5  -1   5 1237.93 38.6923   2
  -4   1   5 275.664 16.2017  -1
   4  -1   5 275.664 16.2017   2
  -3   1   5 57.3600 7.72565   2
  -2   1   5 1618.23 47.3696  -1
   2  -1   4 1618.23 47.3696   2
  -1   1   5 393.139 11.7914  -1
   1  -1   4 393.139 11.7914   2
   0   1   5 121.936 4.94779  -1
   0  -1   4 121.936 4.94779   2
   1   1   5 3474.97 72.5483  -1
  -1  -1   4 3474.97 72.5483   2
   2   1   5 2126.40 37.5124  -1
  -2  -1   4 2126.40 37.5124   2
   3   1   5 323.543 7.60061  -1
  -3  -1   4 323.543 7.60061   2
   4   1   5 1464.07 30.2370  -1
  -4  -1   4 1464.07 30.2370   2
   5   1   5 1910.23 41.6893  -1
  -5  -1   4 1910.23 41.6893   2
   6   1   5 650.798 18.7900  -1
  -6  -1   4 650.798 18.7900   2
   7   1   5 538.277 24.1519  -1
  -7  -1   4 538.277 24.1519   2
   8   1   5 1087.01 49.8543  -1
  -8  -1   4 1087.01 49.8543   2
  -7   2   5 9.09985 28.9008  -1
   7  -2   4 9.09985 28.9008   2
  -6   2   5 236.234 10.6380  -1
   6  -2   4 236.234 10.6380   2
  -5   2   5 157.783 9.49685  -1
   5  -2   4 157.783 9.49685   2
  -4   2   5 18.6847 8.24032  -1
   4  -2   4 18.6847 8.24032   2
  -3   2   5 153.275 6.39277  -1
   3  -2   4 153.275 6.39277   2
  -2   2   5 619.603 14.2107  -1
   2  -2   4 619.603 14.2107   2
  -1   2   5 262.290 9.04059  -1
   1  -2   4 262.290 9.04059   2
   0   2   5 952.029 35.8203  -1
   0  -2   4 952.029 35.8203   2
   1   2   5 3037.35 64.0236   2
   2   2   5 4518.92 223.931  -1
  -2  -2   3 4518.92 223.931   2
   3   2   5 1182.20 25.2434  -1
  -3  -2   3 1182.20 25.2434   2
   4   2   5 2446.42 50.8599  -1
  -4  -2   3 2446.42 50.8599   2
   5   2   5 2911.57 60.6424  -1
  -5  -2   3 2911.57 60.6424   2
   6   2   5 301.815 11.8859  -1
  -6  -2   3 301.815 11.8859   2
   7   2   5 884.440 25.8704  -1
  -7  -2   3 884.440 25.8704   2
   8   2   5 501.845 17.7016  -1
  -8  -2   3 501.845 17.7016   2
  -4   3   5 403.105 29.9932  -1
   4  -3   3 403.105 29.9932   2
  -3   3   5 76.6339 10.6946  -1
   3  -3   3 76.6339 10.6946   2
  -2   3   5 2566.04 53.7880  -1
   2  -3   3 2566.04 53.7880   2
  -1   3   5 562.106 12.9623  -1
   1  -3   3 562.106 12.9623   2
   0   3   5 772.573 17.0342  -1
   0  -3   3 772.573 17.0342   2
   1   3   5 4427.23 78.4194  -1
  -1  -3   3 4427.23 78.4194   2
   2   3   5 1248.29 30.8960  -1
  -2  -3   3 1248.29 30.8960   2
   3   3   5 342.146 19.0858  -1
  -3  -3   3 342.146 19.0858   2
   5   3   5 298.464 15.1392  -1
  -5  -3   2 298.464 15.1392   2
   6   3   5 814.476 25.2406  -1
  -6  -3   2 814.476 25.2406   2
   7   3   5 1144.48 30.4119  -1
  -7  -3   2 1144.48 30.4119   2
   8   3   5 420.592 18.4729  -1
  -8  -3   2 420.592 18.4729   2
  -3   4   5 205.505 24.1027  -1
   3  -4   2 205.505 24.1027   2
  -2   4   5 1096.27 58.1103  -1
   2  -4   2 1096.27 58.1103   2
  -1   4   5 373.385 10.9166  -1
   1  -4   2 373.385 10.9166   2
   0   4   5 1230.50 26.8441  -1
   0  -4   2 1230.50 26.8441   2
   1   4   5 1993.06 37.9489  -1
  -1  -4   2 1993.06 37.9489   2
   2   4   5 270.295 8.62354  -1
  -2  -4   2 270.295 8.62354   2
   3   4   5 1888.90 37.8740  -1
  -3  -4   2 1888.90 37.8740   2
   4   4   5 1707.30 34.4207  -1
  -4  -4   2 1707.30 34.4207   2
   5   4   5 426.885 12.1859  -1
  -5  -4   2 426.885 12.1859   2
   6   4   5 407.789 16.7406  -1
  -6  -4   2 407.789 16.7406   2
  -5   5   5 432.578 29.5530  -1
   5  -5   2 432.578 29.5530   2
  -4   5   5 64.6580 30.4776  -1
   4  -5   2 64.6580 30.4776   2
  -1   5   5 79.3548 9.85765  -1
   1  -5   1 79.3548 9.85765   2
   0   5   5 1236.46 26.4681  -1
   0  -5   1 1236.46 26.4681   2
   1   5   5 858.901 20.6970  -1
  -1  -5   1 858.901 20.6970   2
   2   5   5 678.342 19.4785  -1
  -2  -5   1 678.342 19.4785   2
   3   5   5 1617.54 37.5044  -1
  -3  -5   1 1617.54 37.5044   2
   4   5   5 1050.04 25.1566  -1
  -4  -5   1 1050.04 25.1566   2
   5   5   5 723.527 16.6735  -1
  -5  -5   1 723.527 16.6735   2
   6   5   5 736.136 17.6611  -1
  -6  -5   1 736.136 17.6611   2
   7   5   5 899.952 25.0487  -1
  -7  -5   1 899.952 25.0487   2
   8   5   5 209.869 15.3931  -1
  -8  -5   1 209.869 15.3931   2
  -4   6   5 23.5151 17.6128  -1
   4  -6   1 23.5151 17.6128   2
  -3   6   5 169.066 17.6132  -1
   3  -6   1 169.066 17.6132   2
  -2   6   5 42.7832 14.9581  -1
   2  -6   1 42.7832 14.9581   2
  -1   6   5 86.6196 9.20180  -1
   1  -6   1 86.6196 9.20180   2
   0   6   5 702.686 16.6475  -1
   0  -6   1 702.686 16.6475   2
   1   6   5 304.656 19.6672  -1
  -1  -6   1 304.656 19.6672   2
   2   6   5 28.6838 9.91619   2
   2   6   5 207.892 27.9610  -1
  -2  -6   1 207.892 27.9610   2
   3   6   5 850.763 29.9451  -1
   3   6   0 850.763 29.9451   2
   4   6   5 2176.31 60.9121  -1
   4   6   0 2176.31 60.9121   2
   5   6   5 663.878 19.4166  -1
   5   6   0 663.878 19.4166   2
   6   6   5 753.084 18.9339  -1
   6   6   0 753.084 18.9339   2
   7   6   5 499.898 14.9183  -1
   7   6   0 499.898 14.9183   2
   8   6   5 516.268 20.1040  -1
   8   6   0 516.268 20.1040   2
  -3   7   5 176.664 20.3815  -1
  -3   7   0 176.664 20.3815   2
  -2   7   5 739.102 32.3448  -1
  -2   7   0 739.102 32.3448   2
  -1   7   5 173.144 14.4660  -1
  -1   7   0 173.144 14.4660   2
   0   7   5 354.013 12.4477  -1
   0   7   0 354.013 12.4477   2
   1   7   5 908.647 22.0224  -1
   1   7   0 908.647 22.0224   2
   2   7   5 317.260 15.7761  -1
   2   7   0 317.260 15.7761   2
   3   7   5 732.038 26.8323  -1
   3   7   0 732.038 26.8323   2
   4   7   5 1018.14 35.6772  -1
   4   7   0 1018.14 35.6772   2
   5   7   5 612.782 39.7724  -1
   5   7   0 612.782 39.7724   2
   6   7   5 525.327 50.7255  -1
   6   7   1 525.327 50.7255   2
   7   7   5 94.0303 42.1065  -1
   7   7   1 94.0303 42.1065   2
  -1   8   5 159.971 35.6645  -1
  -1   8   1 159.971 35.6645   2
   0   8   5 82.5893 10.1894  -1
   0   8   1 82.5893 10.1894   2
   1   8   5 100.467 10.2262  -1
   1   8   1 100.467 10.2262   2
   2   8   5 296.732 11.9891  -1
   2   8   1 296.732 11.9891   2
   3   8   5 306.491 12.3401  -1
   3   8   1 306.491 12.3401   2
   4   8   5 -14.372 9.17435  -1
   4   8   1 -14.372 9.17435   2
   5   8   5 246.434 16.1564  -1
   5   8   1 246.434 16.1564   2
   6   8   5 729.620 26.0720  -1
   6   8   1 729.620 26.0720   2
   3   9   5 245.624 23.7268  -1
   3   9   2 245.624 23.7268   2
   4   9   5 226.481 17.0885  -1
   4   9   2 226.481 17.0885   2
  -2  -8   6 1007.95 157.057  -1
   2   8  12 1007.95 157.057   2
  -4  -7   6 339.700 30.7390  -1
   4   7  11 339.700 30.7390   2
  -3  -7   6 440.837 32.0230  -1
   3   7  11 440.837 32.0230   2
  -2  -7   6 693.159 28.2927  -1
   2   7  11 693.159 28.2927   2
  -1  -7   6 243.277 18.7971  -1
   1   7  11 243.277 18.7971   2
   0  -7   6 237.021 17.1955  -1
   0   7  11 237.021 17.1955   2
   1  -7   6 579.439 18.0724  -1
  -1   7  11 579.439 18.0724   2
  -6  -6   6 841.636 38.2874  -1
   6   6  11 841.636 38.2874   2
  -5  -6   6 1036.14 41.4570  -1
   5   6  11 1036.14 41.4570   2
  -4  -6   6 305.286 23.4038  -1
   4   6  11 305.286 23.4038   2
  -2  -6   6 527.995 37.8964   2
  -1  -6   6 44.9531 20.2036  -1
   1   6  10 44.9531 20.2036   2
   0  -6   6 534.546 19.7285  -1
   0   6  10 534.546 19.7285   2
   1  -6   6 664.953 21.7732  -1
  -1   6  10 664.953 21.7732   2
   2  -6   6 267.857 13.6700  -1
  -2   6  10 267.857 13.6700   2
   3  -6   6 184.616 13.1616  -1
  -3   6  10 184.616 13.1616   2
  -7  -5   6 229.310 20.3774  -1
   7   5  10 229.310 20.3774   2
  -6  -5   6 643.400 28.9630  -1
   6   5  10 643.400 28.9630   2
  -5  -5   6 145.836 13.3068  -1
   5   5  10 145.836 13.3068   2
  -4  -5   6 384.445 19.0024  -1
   4   5  10 384.445 19.0024   2
  -3  -5   6 948.943 33.2029  -1
   3   5  10 948.943 33.2029   2
  -2  -5   6 475.693 22.2794  -1
   2   5  10 475.693 22.2794   2
  -1  -5   6 579.516 20.0113  -1
   1   5  10 579.516 20.0113   2
   0  -5   6 569.092 19.0840  -1
   0   5  10 569.092 19.0840   2
   2  -5   6 1118.10 64.8000  -1
  -2   5   9 1118.10 64.8000   2
   4  -5   6 180.532 12.4362  -1
  -4   5   9 180.532 12.4362   2
  -6  -4   6 516.201 46.1785  -1
   6   4   9 516.201 46.1785   2
  -5  -4   6 223.232 19.4362  -1
   5   4   9 223.232 19.4362   2
  -4  -4   6 1405.12 36.2432  -1
   4   4   9 1405.12 36.2432   2
  -3  -4   6 2194.25 54.9072  -1
   3   4   9 2194.25 54.9072   2
  -2  -4   6 700.576 28.6589  -1
   2   4   9 700.576 28.6589   2
  -1  -4   6 2663.03 61.4389  -1
   1   4   9 2663.03 61.4389   2
   0  -4   6 1798.30 44.8958  -1
   0   4   9 1798.30 44.8958   2
   1  -4   6 904.304 27.4628  -1
  -1   4   9 904.304 27.4628   2
   2  -4   6 430.690 14.3472  -1
  -2   4   9 430.690 14.3472   2
   3  -4   6 720.087 25.0623  -1
  -3   4   9 720.087 25.0623   2
   4  -4   6 339.168 65.3764  -1
  -4   4   9 339.168 65.3764   2
  -7  -3   6 877.818 36.1965  -1
   7   3   9 877.818 36.1965   2
  -6  -3   6 537.933 33.2069  -1
   6   3   9 537.933 33.2069   2
  -3  -3   6 1875.39 50.0798  -1
   3   3   8 1875.39 50.0798   2
  -2  -3   6 2175.66 58.6646  -1
   2   3   8 2175.66 58.6646   2
  -1  -3   6 2096.38 55.2808  -1
   1   3   8 2096.38 55.2808   2
   0  -3   6 2636.32 68.0008  -1
   0   3   8 2636.32 68.0008   2
   1  -3   6 871.053 21.8062  -1
  -1   3   8 871.053 21.8062   2
   2  -3   6 656.873 21.7621  -1
  -2   3   8 656.873 21.7621   2
   3  -3   6 659.494 26.0283  -1
  -3   3   8 659.494 26.0283   2
   4  -3   6 261.074 14.3633  -1
  -4   3   8 261.074 14.3633   2
   5  -3   6 36.3324 12.7308  -1
  -5   3   8 36.3324 12.7308   2
   6  -3   6 122.691 15.1109  -1
  -6   3   8 122.691 15.1109   2
  -7  -2   6 444.844 18.1339  -1
   7   2   8 444.844 18.1339   2
  -6  -2   6 1026.02 33.4236  -1
   6   2   8 1026.02 33.4236   2
  -5  -2   6 2602.24 62.0548  -1
   5   2   8 2602.24 62.0548   2
  -4  -2   6 1465.78 35.4873  -1
   4   2   8 1465.78 35.4873   2
  -3  -2   6 1515.28 38.3898  -1
   3   2   8 1515.28 38.3898   2
  -2  -2   6 2878.88 104.038  -1
   2   2   8 2878.88 104.038   2
  -1  -2   6 3340.20 170.324  -1
   1   2   8 3340.20 170.324   2
   0  -2   6 1836.27 69.0225  -1
   0   2   7 1836.27 69.0225   2
   1  -2   6 438.314 16.8916  -1
  -1   2   7 438.314 16.8916   2
   2  -2   6 1241.81 30.8943  -1
  -2   2   7 1241.81 30.8943   2
   3  -2   6 1398.25 39.6384  -1
  -3   2   7 1398.25 39.6384   2
   4  -2   6 88.4115 9.31369  -1
  -4   2   7 88.4115 9.31369   2
   5  -2   6 490.249 19.3333  -1
  -5   2   7 490.249 19.3333   2
   6  -2   6 476.270 14.8243  -1
  -6   2   7 476.270 14.8243   2
  -7  -1   6 453.861 19.6479  -1
   7   1   7 453.861 19.6479   2
  -6  -1   6 344.667 14.9728  -1
   6   1   7 344.667 14.9728   2
  -5  -1   6 1071.74 25.8976  -1
   5   1   7 1071.74 25.8976   2
  -4  -1   6 1632.18 66.1470  -1
   4   1   7 1632.18 66.1470   2
  -3  -1   6 70.8035 7.76434  -1
   3   1   7 70.8035 7.76434   2
  -2  -1   6 604.899 19.7674  -1
   2   1   7 604.899 19.7674   2
  -1  -1   6 1048.14 29.5769  -1
   1   1   7 1048.14 29.5769   2
   0  -1   6 41.5956 7.03550  -1
   0   1   7 41.5956 7.03550   2
   1  -1   6 646.277 18.2748  -1
  -1   1   7 646.277 18.2748   2
   2  -1   6 1890.38 55.4615  -1
  -2   1   7 1890.38 55.4615   2
   4  -1   6 1459.64 54.8084  -1
  -4   1   6 1459.64 54.8084   2
   5  -1   6 1596.23 38.2396  -1
  -5   1   6 1596.23 38.2396   2
   6  -1   6 420.601 16.0448  -1
  -6   1   6 420.601 16.0448   2
   7  -1   6 46.4596 13.6970  -1
  -7   1   6 46.4596 13.6970   2
  -5   0   6 867.013 36.7825  -1
   5   0   6 867.013 36.7825   2
  -4   0   6 1808.57 43.0054  -1
   4   0   6 1808.57 43.0054   2
  -3   0   6 244.922 10.1741  -1
   3   0   6 244.922 10.1741   2
  -2   0   6 5635.56 132.412  -1
   2   0   6 5635.56 132.412   2
  -1   0   6 4350.73 118.457  -1
   1   0   6 4350.73 118.457   2
   0   0   6 270.332 8.87507  -1
   0   0   6 270.332 8.87507   2
   1   0   6 3825.84 73.6751  -1
  -1   0   6 3825.84 73.6751   2
   2   0   6 5547.85 107.221  -1
  -2   0   6 5547.85 107.221   2
   3   0   6 223.661 8.72058  -1
  -3   0   6 223.661 8.72058   2
   4   0   6 2112.18 45.5769  -1
  -4   0   6 2112.18 45.5769   2
   5   0   6 788.129 34.0512  -1
  -5   0   6 788.129 34.0512   2
  -7   1   6 98.8223 14.5504  -1
   7  -1   6 98.8223 14.5504   2
  -6   1   6 391.897 16.3918  -1
   6  -1   6 391.897 16.3918   2
  -5   1   6 1387.49 43.0349  -1
   5  -1   6 1387.49 43.0349   2
  -4   1   6 1328.93 40.8493  -1
   4  -1   6 1328.93 40.8493   2
  -3   1   6 285.493 21.1337   2
  -2   1   6 5283.08 111.812  -1
   2  -1   5 5283.08 111.812   2
  -1   1   6 2358.73 52.5505  -1
   1  -1   5 2358.73 52.5505   2
   0   1   6 173.298 6.53042  -1
   0  -1   5 173.298 6.53042   2
   1   1   6 2643.43 48.8259  -1
  -1  -1   5 2643.43 48.8259   2
   2   1   6 2183.85 49.1176  -1
  -2  -1   5 2183.85 49.1176   2
   3   1   6 58.7631 3.87132  -1
  -3  -1   5 58.7631 3.87132   2
   4   1   6 1254.38 26.8083  -1
  -4  -1   5 1254.38 26.8083   2
   5   1   6 754.580 22.0924  -1
  -5  -1   5 754.580 22.0924   2
   6   1   6 389.424 16.7409  -1
  -6  -1   5 389.424 16.7409   2
   7   1   6 356.140 25.1397  -1
  -7  -1   5 356.140 25.1397   2
   8   1   6 53.9794 26.3468  -1
  -8  -1   5 53.9794 26.3468   2
  -7   2   6 73.5114 13.6277  -1
   7  -2   5 73.5114 13.6277   2
  -6   2   6 1533.17 42.5289  -1
   6  -2   5 1533.17 42.5289   2
  -5   2   6 1265.19 40.9353  -1
   5  -2   5 1265.19 40.9353   2
  -4   2   6 196.505 9.53760  -1
   4  -2   5 196.505 9.53760   2
  -3   2   6 1098.52 25.6512  -1
   3  -2   5 1098.52 25.6512   2
  -2   2   6 6117.53 106.575  -1
   2  -2   5 6117.53 106.575   2
  -1   2   6 1680.31 43.9181  -1
   1  -2   5 1680.31 43.9181   2
   0   2   6 1682.10 60.6405  -1
   0  -2   5 1682.10 60.6405   2
   1   2   6 3559.98 174.458   2
   2   2   6 2816.76 62.3123  -1
  -2  -2   4 2816.76 62.3123   2
   3   2   6 344.970 12.8454  -1
  -3  -2   4 344.970 12.8454   2
   4   2   6 3100.38 63.5794  -1
  -4  -2   4 3100.38 63.5794   2
   5   2   6 1619.17 36.5721  -1
  -5  -2   4 1619.17 36.5721   2
   6   2   6 272.713 11.6555  -1
  -6  -2   4 272.713 11.6555   2
   7   2   6 295.536 12.5171  -1
  -7  -2   4 295.536 12.5171   2
   8   2   6 696.813 21.2078  -1
  -8  -2   4 696.813 21.2078   2
  -4   3   6 151.627 8.58619  -1
   4  -3   4 151.627 8.58619   2
  -3   3   6 1311.02 33.9122  -1
   3  -3   4 1311.02 33.9122   2
  -2   3   6 1086.78 43.1279  -1
   2  -3   4 1086.78 43.1279   2
  -1   3   6 107.544 8.85103  -1
   1  -3   4 107.544 8.85103   2
   0   3   6 1228.84 29.4934  -1
   0  -3   4 1228.84 29.4934   2
   1   3   6 4717.77 83.7040  -1
  -1  -3   4 4717.77 83.7040   2
   2   3   6 1108.20 25.4442  -1
  -2  -3   4 1108.20 25.4442   2
   3   3   6 284.453 10.5857  -1
  -3  -3   4 284.453 10.5857   2
   4   3   6 1500.61 82.4065  -1
  -4  -3   4 1500.61 82.4065   2
   5   3   6 2577.17 75.1259  -1
  -5  -3   3 2577.17 75.1259   2
   5   3   6 609.565 37.5975   2
   6   3   6 33.7826 11.5309  -1
  -6  -3   3 33.7826 11.5309   2
   7   3   6 727.193 24.7168  -1
  -7  -3   3 727.193 24.7168   2
   8   3   6 361.298 21.7656  -1
  -8  -3   3 361.298 21.7656   2
  -3   4   6 1006.51 58.4938  -1
   3  -4   3 1006.51 58.4938   2
  -2   4   6 2121.47 48.1782  -1
   2  -4   3 2121.47 48.1782   2
  -1   4   6 291.924 11.2770  -1
   1  -4   3 291.924 11.2770   2
   0   4   6 967.406 25.1735  -1
   0  -4   3 967.406 25.1735   2
   1   4   6 5582.16 97.9622  -1
  -1  -4   3 5582.16 97.9622   2
   2   4   6 1215.25 31.0031  -1
  -2  -4   3 1215.25 31.0031   2
   3   4   6 1703.75 35.0540  -1
  -3  -4   3 1703.75 35.0540   2
   4   4   6 2577.31 54.5792  -1
  -4  -4   3 2577.31 54.5792   2
   5   4   6 330.290 13.7163  -1
  -5  -4   3 330.290 13.7163   2
   6   4   6 321.254 15.2856  -1
  -6  -4   3 321.254 15.2856   2
  -5   5   6 398.757 41.9853  -1
   5  -5   3 398.757 41.9853   2
  -4   5   6 163.735 34.3745  -1
   4  -5   3 163.735 34.3745   2
  -1   5   6 169.057 13.2389  -1
   1  -5   2 169.057 13.2389   2
   0   5   6 1349.69 31.2982  -1
   0  -5   2 1349.69 31.2982   2
   1   5   6 1973.50 42.0049  -1
  -1  -5   2 1973.50 42.0049   2
   2   5   6 135.178 8.11136  -1
  -2  -5   2 135.178 8.11136   2
   3   5   6 783.266 19.6687  -1
  -3  -5   2 783.266 19.6687   2
   4   5   6 964.723 23.6645  -1
  -4  -5   2 964.723 23.6645   2
   5   5   6 55.6100 4.68182  -1
  -5  -5   2 55.6100 4.68182   2
   6   5   6 126.929 6.88227  -1
  -6  -5   2 126.929 6.88227   2
   7   5   6 295.017 13.3343  -1
  -7  -5   2 295.017 13.3343   2
   8   5   6 29.7672 14.5396  -1
  -8  -5   2 29.7672 14.5396   2
  -4   6   6 68.9216 18.7496  -1
   4  -6   2 68.9216 18.7496   2
  -3   6   6 1277.38 49.5829  -1
   3  -6   2 1277.38 49.5829   2
  -2   6   6 868.637 36.1826  -1
   2  -6   2 868.637 36.1826   2
  -1   6   6 237.055 9.24606  -1
   1  -6   2 237.055 9.24606   2
   0   6   6 1194.19 28.8476  -1
   0  -6   2 1194.19 28.8476   2
   1   6   6 838.116 22.0940  -1
  -1  -6   2 838.116 22.0940   2
   3   6   6 454.522 17.2631  -1
  -3  -6   1 454.522 17.2631   2
   4   6   6 1075.56 30.7961  -1
  -4  -6   1 1075.56 30.7961   2
   5   6   6 406.915 14.6743  -1
  -5  -6   1 406.915 14.6743   2
   6   6   6 402.616 15.0350  -1
  -6  -6   1 402.616 15.0350   2
   7   6   6 529.476 22.2625  -1
  -7  -6   1 529.476 22.2625   2
  -3   7   6 247.547 21.9256  -1
   3  -7   1 247.547 21.9256   2
  -2   7   6 65.1811 14.8124  -1
   2  -7   1 65.1811 14.8124   2
  -1   7   6 663.841 28.5453  -1
   1  -7   1 663.841 28.5453   2
   0   7   6 838.642 29.3525  -1
   0  -7   1 838.642 29.3525   2
   1   7   6 346.574 12.4576  -1
  -1  -7   1 346.574 12.4576   2
   2   7   6 461.333 17.0318  -1
  -2  -7   1 461.333 17.0318   2
   3   7   6 861.907 26.3655  -1
  -3  -7   1 861.907 26.3655   2
   4   7   6 530.851 22.9750  -1
  -4  -7   1 530.851 22.9750   2
   7   7   6 414.706 45.9988  -1
   7   7   0 414.706 45.9988   2
  -1   8   6 406.738 43.3902  -1
  -1   8   0 406.738 43.3902   2
   0   8   6 822.075 32.7732  -1
   0   8   0 822.075 32.7732   2
   1   8   6 716.639 19.6155  -1
   1   8   0 716.639 19.6155   2
   2   8   6 1011.38 25.0588  -1
   2   8   0 1011.38 25.0588   2
   3   8   6 1236.09 29.3716  -1
   3   8   0 1236.09 29.3716   2
   4   8   6 1144.11 31.9951  -1
   4   8   0 1144.11 31.9951   2
   5   8   6 348.875 15.3701  -1
   5   8   0 348.875 15.3701   2
   6   8   6 527.116 20.3013  -1
   6   8   0 527.116 20.3013   2
   2   9   6 391.306 29.8334  -1
   2   9   1 391.306 29.8334   2
   3   9   6 298.901 26.7701  -1
   3   9   1 298.901 26.7701   2
   4   9   6 261.855 17.0669  -1
   4   9   1 261.855 17.0669   2
  -4  -7   7 247.148 54.3719  -1
   4   7  12 247.148 54.3719   2
  -3  -7   7 -154.83 181.352  -1
   3   7  12 -154.83 181.352   2
  -2  -7   7 440.568 25.1641  -1
   2   7  12 440.568 25.1641   2
  -1  -7   7 202.180 19.0142  -1
   1   7  12 202.180 19.0142   2
   0  -7   7 15.5709 11.4663  -1
   0   7  12 15.5709 11.4663   2
   1  -7   7 228.249 16.9683  -1
  -1   7  12 228.249 16.9683   2
  -6  -6   7 329.409 22.2205  -1
   6   6  12 329.409 22.2205   2
  -5  -6   7 234.256 24.7197  -1
   5   6  12 234.256 24.7197   2
  -4  -6   7 -4.6081 167.906  -1
   4   6  12 -4.6081 167.906   2
  -1  -6   7 732.746 36.4932  -1
   1   6  11 732.746 36.4932   2
   0  -6   7 82.3366 13.2604  -1
   0   6  11 82.3366 13.2604   2
   1  -6   7 255.920 14.4835  -1
  -1   6  11 255.920 14.4835   2
   2  -6   7 150.732 12.2835  -1
  -2   6  11 150.732 12.2835   2
   3  -6   7 1.92295 26.4718  -1
  -3   6  11 1.92295 26.4718   2
  -6  -5   7 717.867 25.4911  -1
   6   5  11 717.867 25.4911   2
  -5  -5   7 914.757 32.6428  -1
   5   5  11 914.757 32.6428   2
  -4  -5   7 450.162 21.5430  -1
   4   5  11 450.162 21.5430   2
  -3  -5   7 677.281 32.7160  -1
   3   5  11 677.281 32.7160   2
  -2  -5   7 1835.12 54.3683  -1
   2   5  11 1835.12 54.3683   2
  -1  -5   7 507.124 22.5837  -1
   1   5  11 507.124 22.5837   2
   0  -5   7 98.8866 13.3779  -1
   0   5  11 98.8866 13.3779   2
   1  -5   7 478.530 111.917  -1
  -1   5  11 478.530 111.917   2
   2  -5   7 409.185 36.1734  -1
  -2   5  10 409.185 36.1734   2
   3  -5   7 104.546 19.0809  -1
  -3   5  10 104.546 19.0809   2
   4  -5   7 108.525 20.8410  -1
  -4   5  10 108.525 20.8410   2
  -6  -4   7 757.240 61.7961  -1
   6   4  10 757.240 61.7961   2
  -5  -4   7 204.394 21.7913  -1
   5   4  10 204.394 21.7913   2
  -4  -4   7 637.738 22.7341  -1
   4   4  10 637.738 22.7341   2
  -3  -4   7 407.764 19.9604  -1
   3   4  10 407.764 19.9604   2
  -2  -4   7 521.009 23.7532  -1
   2   4  10 521.009 23.7532   2
  -1  -4   7 60.3966 8.68411  -1
   1   4  10 60.3966 8.68411   2
   0  -4   7 138.257 10.5874  -1
   0   4  10 138.257 10.5874   2
   1  -4   7 43.1276 10.2144  -1
  -1   4  10 43.1276 10.2144   2
   2  -4   7 87.6642 10.0788  -1
  -2   4  10 87.6642 10.0788   2
   3  -4   7 239.403 13.4499  -1
  -3   4  10 239.403 13.4499   2
   4  -4   7 155.519 73.9767  -1
  -4   4  10 155.519 73.9767   2
  -7  -3   7 366.613 26.1628  -1
   7   3  10 366.613 26.1628   2
  -6  -3   7 522.194 46.6718  -1
   6   3  10 522.194 46.6718   2
  -5  -3   7 146.621 34.6653  -1
   5   3  10 146.621 34.6653   2
  -4  -3   7 815.721 53.7298  -1
   4   3   9 815.721 53.7298   2
  -3  -3   7 785.486 29.6256  -1
   3   3   9 785.486 29.6256   2
  -2  -3   7 1429.24 42.0108  -1
   2   3   9 1429.24 42.0108   2
  -1  -3   7 93.8402 14.0081  -1
   1   3   9 93.8402 14.0081   2
   0  -3   7 226.766 12.1945  -1
   0   3   9 226.766 12.1945   2
   1  -3   7 1368.99 37.9462  -1
  -1   3   9 1368.99 37.9462   2
   2  -3   7 652.218 35.6907  -1
  -2   3   9 652.218 35.6907   2
   3  -3   7 399.906 20.2357  -1
  -3   3   9 399.906 20.2357   2
   4  -3   7 1025.13 41.3089  -1
  -4   3   9 1025.13 41.3089   2
   5  -3   7 611.609 24.1774  -1
  -5   3   9 611.609 24.1774   2
   6  -3   7 180.488 21.6821  -1
  -6   3   9 180.488 21.6821   2
  -7  -2   7 240.668 15.0985  -1
   7   2   9 240.668 15.0985   2
  -6  -2   7 339.722 15.8699  -1
   6   2   9 339.722 15.8699   2
  -5  -2   7 990.472 28.7008  -1
   5   2   9 990.472 28.7008   2
  -4  -2   7 370.546 19.0926  -1
   4   2   9 370.546 19.0926   2
  -3  -2   7 1168.38 36.4566  -1
   3   2   9 1168.38 36.4566   2
  -2  -2   7 2124.76 64.0486  -1
   2   2   9 2124.76 64.0486   2
   0  -2   7 59.1451 11.5022  -1
   0   2   8 59.1451 11.5022   2
   1  -2   7 559.338 19.5443  -1
  -1   2   8 559.338 19.5443   2
   2  -2   7 659.878 19.5023  -1
  -2   2   8 659.878 19.5023   2
   3  -2   7 23.4007 9.09652  -1
  -3   2   8 23.4007 9.09652   2
   4  -2   7 451.364 16.4347  -1
  -4   2   8 451.364 16.4347   2
   5  -2   7 -8.2685 8.10260  -1
  -5   2   8 -8.2685 8.10260   2
   6  -2   7 248.173 11.1371  -1
  -6   2   8 248.173 11.1371   2
  -7  -1   7 202.266 18.7536  -1
   7   1   8 202.266 18.7536   2
  -6  -1   7 336.841 16.2325  -1
   6   1   8 336.841 16.2325   2
  -5  -1   7 680.481 21.3391  -1
   5   1   8 680.481 21.3391   2
  -4  -1   7 300.591 16.8423  -1
   4   1   8 300.591 16.8423   2
  -3  -1   7 1395.82 50.7461  -1
   3   1   8 1395.82 50.7461   2
  -2  -1   7 2081.85 62.9669  -1
   2   1   8 2081.85 62.9669   2
  -1  -1   7 324.672 13.5876  -1
   1   1   8 324.672 13.5876   2
   0  -1   7 1206.45 72.2008  -1
   0   1   8 1206.45 72.2008   2
   1  -1   7 1490.89 38.8172  -1
  -1   1   8 1490.89 38.8172   2
   2  -1   7 388.024 14.0963  -1
  -2   1   8 388.024 14.0963   2
   4  -1   7 284.881 16.5031  -1
  -4   1   7 284.881 16.5031   2
   5  -1   7 610.234 19.1590  -1
  -5   1   7 610.234 19.1590   2
   6  -1   7 388.533 13.6375  -1
  -6   1   7 388.533 13.6375   2
   7  -1   7 243.475 15.1042  -1
  -7   1   7 243.475 15.1042   2
  -5   0   7 642.568 24.3624  -1
   5   0   7 642.568 24.3624   2
  -4   0   7 578.184 18.1716  -1
   4   0   7 578.184 18.1716   2
  -3   0   7 59.1173 8.47404  -1
   3   0   7 59.1173 8.47404   2
  -2   0   7 1066.78 28.5938  -1
   2   0   7 1066.78 28.5938   2
  -1   0   7 570.617 29.1524  -1
   1   0   7 570.617 29.1524   2
   0   0   7 733.748 18.7638  -1
   0   0   7 733.748 18.7638   2
   1   0   7 337.345 14.7107  -1
  -1   0   7 337.345 14.7107   2
   2   0   7 1125.62 26.9725  -1
  -2   0   7 1125.62 26.9725   2
   3   0   7 66.4512 7.83004  -1
  -3   0   7 66.4512 7.83004   2
   4   0   7 627.772 20.1693  -1
  -4   0   7 627.772 20.1693   2
   5   0   7 733.611 33.9124  -1
  -5   0   7 733.611 33.9124   2
  -7   1   7 205.130 17.2077  -1
   7  -1   7 205.130 17.2077   2
  -6   1   7 440.087 17.8858  -1
   6  -1   7 440.087 17.8858   2
  -5   1   7 481.622 20.3096  -1
   5  -1   7 481.622 20.3096   2
  -4   1   7 258.045 17.7970  -1
   4  -1   7 258.045 17.7970   2
  -2   1   7 1834.97 42.8007  -1
   2  -1   6 1834.97 42.8007   2
  -1   1   7 728.548 20.2832  -1
   1  -1   6 728.548 20.2832   2
   0   1   7 22.5183 5.03347  -1
   0  -1   6 22.5183 5.03347   2
   1   1   7 1297.87 29.7628  -1
  -1  -1   6 1297.87 29.7628   2
   2   1   7 701.407 17.3066  -1
  -2  -1   6 701.407 17.3066   2
   3   1   7 65.0886 4.87057  -1
  -3  -1   6 65.0886 4.87057   2
   4   1   7 1697.84 37.8614  -1
  -4  -1   6 1697.84 37.8614   2
   5   1   7 1141.19 26.9072  -1
  -5  -1   6 1141.19 26.9072   2
   6   1   7 245.031 15.5071  -1
  -6  -1   6 245.031 15.5071   2
   7   1   7 558.888 29.5555  -1
  -7  -1   6 558.888 29.5555   2
  -6   2   7 421.382 18.2626  -1
   6  -2   6 421.382 18.2626   2
  -5   2   7 418.278 19.1038  -1
   5  -2   6 418.278 19.1038   2
  -4   2   7 91.0854 8.19965  -1
   4  -2   6 91.0854 8.19965   2
  -3   2   7 1250.42 29.3101  -1
   3  -2   6 1250.42 29.3101   2
  -2   2   7 1295.04 31.5602  -1
   2  -2   6 1295.04 31.5602   2
  -1   2   7 368.234 14.7773  -1
   1  -2   6 368.234 14.7773   2
   0   2   7 2294.28 67.0810  -1
   0  -2   6 2294.28 67.0810   2
   1   2   7 2808.73 99.6649  -1
  -1  -2   5 2808.73 99.6649   2
   1   2   7 201.151 15.0192   2
   2   2   7 316.494 11.1858  -1
  -2  -2   5 316.494 11.1858   2
   3   2   7 279.822 9.95996  -1
  -3  -2   5 279.822 9.95996   2
   4   2   7 413.048 13.3688  -1
  -4  -2   5 413.048 13.3688   2
   5   2   7 420.387 15.5117  -1
  -5  -2   5 420.387 15.5117   2
   6   2   7 128.758 10.6581  -1
  -6  -2   5 128.758 10.6581   2
   7   2   7 47.8720 9.41686  -1
  -7  -2   5 47.8720 9.41686   2
   8   2   7 70.4263 15.5180  -1
  -8  -2   5 70.4263 15.5180   2
  -5   3   7 872.630 34.2539  -1
   5  -3   5 872.630 34.2539   2
  -4   3   7 75.5606 7.87166  -1
   4  -3   5 75.5606 7.87166   2
  -3   3   7 1472.81 31.7378  -1
   3  -3   5 1472.81 31.7378   2
  -2   3   7 1965.29 44.4963  -1
   2  -3   5 1965.29 44.4963   2
  -1   3   7 118.067 7.58296  -1
   1  -3   5 118.067 7.58296   2
   0   3   7 1487.91 28.2163  -1
   0  -3   5 1487.91 28.2163   2
   1   3   7 1901.17 35.0201  -1
  -1  -3   5 1901.17 35.0201   2
   2   3   7 265.220 9.87249  -1
  -2  -3   5 265.220 9.87249   2
   3   3   7 251.439 14.5971  -1
  -3  -3   5 251.439 14.5971   2
   4   3   7 257.743 26.4936  -1
  -4  -3   5 257.743 26.4936   2
   4   3   7 5.86998 10.5383   2
   5   3   7 20.8553 11.0870   2
   5   3   7 890.737 36.7295  -1
  -5  -3   4 890.737 36.7295   2
   6   3   7 58.0017 16.5809  -1
  -6  -3   4 58.0017 16.5809   2
   7   3   7 494.685 28.1415  -1
  -7  -3   4 494.685 28.1415   2
   8   3   7 664.012 29.3977  -1
  -8  -3   4 664.012 29.3977   2
  -3   4   7 314.773 13.0781  -1
   3  -4   4 314.773 13.0781   2
  -2   4   7 225.585 9.34227  -1
   2  -4   4 225.585 9.34227   2
  -1   4   7 326.635 11.6630  -1
   1  -4   4 326.635 11.6630   2
   0   4   7 49.4393 5.99041  -1
   0  -4   4 49.4393 5.99041   2
   1   4   7 47.7519 4.82631  -1
  -1  -4   4 47.7519 4.82631   2
   2   4   7 383.773 10.9938  -1
  -2  -4   4 383.773 10.9938   2
   3   4   7 272.337 10.9955  -1
  -3  -4   4 272.337 10.9955   2
   4   4   7 126.497 8.48708  -1
  -4  -4   4 126.497 8.48708   2
   5   4   7 881.367 30.0790  -1
  -5  -4   4 881.367 30.0790   2
   6   4   7 75.7809 11.8588  -1
  -6  -4   4 75.7809 11.8588   2
  -2   5   7 73.3051 13.9539  -1
   2  -5   4 73.3051 13.9539   2
  -1   5   7 85.7149 13.3988  -1
   1  -5   3 85.7149 13.3988   2
   0   5   7 940.562 26.1372  -1
   0  -5   3 940.562 26.1372   2
   1   5   7 1562.31 34.5645  -1
  -1  -5   3 1562.31 34.5645   2
   2   5   7 117.479 8.49676  -1
  -2  -5   3 117.479 8.49676   2
   3   5   7 693.835 18.4577  -1
  -3  -5   3 693.835 18.4577   2
   4   5   7 1182.11 35.0182  -1
  -4  -5   3 1182.11 35.0182   2
   5   5   7 495.625 14.9956  -1
  -5  -5   3 495.625 14.9956   2
   6   5   7 88.6184 8.22452  -1
  -6  -5   3 88.6184 8.22452   2
   7   5   7 1223.91 32.0711  -1
  -7  -5   3 1223.91 32.0711   2
   8   5   7 273.105 18.6613  -1
  -8  -5   3 273.105 18.6613   2
  -4   6   7 115.034 19.2617  -1
   4  -6   3 115.034 19.2617   2
  -3   6   7 976.359 40.6893  -1
   3  -6   3 976.359 40.6893   2
  -2   6   7 168.057 17.6958  -1
   2  -6   3 168.057 17.6958   2
  -1   6   7 191.321 9.88542  -1
   1  -6   3 191.321 9.88542   2
   0   6   7 824.463 21.5481  -1
   0  -6   3 824.463 21.5481   2
   1   6   7 1418.82 43.5468  -1
  -1  -6   3 1418.82 43.5468   2
   2   6   7 253.500 24.9455  -1
  -2  -6   3 253.500 24.9455   2
   3   6   7 191.087 17.3565  -1
  -3  -6   2 191.087 17.3565   2
   4   6   7 322.448 13.7704  -1
  -4  -6   2 322.448 13.7704   2
   5   6   7 138.578 10.9430  -1
  -5  -6   2 138.578 10.9430   2
   6   6   7 175.947 11.2683  -1
  -6  -6   2 175.947 11.2683   2
   7   6   7 76.3893 13.9723  -1
  -7  -6   2 76.3893 13.9723   2
  -3   7   7 482.631 28.1891  -1
   3  -7   2 482.631 28.1891   2
  -2   7   7 195.510 17.9639  -1
   2  -7   2 195.510 17.9639   2
  -1   7   7 324.189 18.3794  -1
   1  -7   2 324.189 18.3794   2
   0   7   7 707.671 18.0789  -1
   0  -7   2 707.671 18.0789   2
   1   7   7 596.034 16.9294  -1
  -1  -7   2 596.034 16.9294   2
   2   7   7 39.5726 9.46606  -1
  -2  -7   2 39.5726 9.46606   2
   3   7   7 576.406 20.4953  -1
  -3  -7   2 576.406 20.4953   2
   4   7   7 233.830 21.7067  -1
  -4  -7   2 233.830 21.7067   2
  -1   8   7 149.282 35.4979  -1
   1  -8   1 149.282 35.4979   2
   0   8   7 201.591 14.8885  -1
   0  -8   1 201.591 14.8885   2
   1   8   7 122.592 10.5117  -1
  -1  -8   1 122.592 10.5117   2
   2   8   7 211.522 10.3744  -1
  -2  -8   1 211.522 10.3744   2
   3   8   7 33.7349 7.43740  -1
  -3  -8   1 33.7349 7.43740   2
   4   8   7 259.594 12.7057  -1
  -4  -8   1 259.594 12.7057   2
   5   8   7 220.923 13.9077  -1
  -5  -8   1 220.923 13.9077   2
   6   8   7 165.907 18.1003  -1
  -6  -8   1 165.907 18.1003   2
   2   9   7 117.585 24.7433  -1
   2   9   0 117.585 24.7433   2
   3   9   7 117.405 18.3183  -1
   3   9   0 117.405 18.3183   2
   4   9   7 210.752 20.4819  -1
   4   9   0 210.752 20.4819   2
  -3  -7   8 102.451 28.1940  -1
   3   7  13 102.451 28.1940   2
  -2  -7   8 215.980 19.8134  -1
   2   7  13 215.980 19.8134   2
  -1  -7   8 436.601 24.3944  -1
   1   7  13 436.601 24.3944   2
   0  -7   8 60.4214 14.6610  -1
   0   7  13 60.4214 14.6610   2
  -5  -6   8 299.378 34.9191  -1
   5   6  13 299.378 34.9191   2
  -4  -6   8 139.794 181.234  -1
   4   6  13 139.794 181.234   2
  -3  -6   8 154.121 29.4480  -1
   3   6  13 154.121 29.4480   2
  -1  -6   8 549.416 45.1925  -1
   1   6  12 549.416 45.1925   2
   0  -6   8 145.723 14.4845  -1
   0   6  12 145.723 14.4845   2
   1  -6   8 713.022 22.0729  -1
  -1   6  12 713.022 22.0729   2
   2  -6   8 357.232 16.4501  -1
  -2   6  12 357.232 16.4501   2
  -6  -5   8 169.555 17.2625  -1
   6   5  12 169.555 17.2625   2
  -5  -5   8 557.577 21.8751  -1
   5   5  12 557.577 21.8751   2
  -4  -5   8 32.4282 16.2651  -1
   4   5  12 32.4282 16.2651   2
  -3  -5   8 826.187 32.4077  -1
   3   5  12 826.187 32.4077   2
  -2  -5   8 1087.78 37.7974  -1
   2   5  12 1087.78 37.7974   2
  -1  -5   8 405.711 21.5895  -1
   1   5  12 405.711 21.5895   2
   0  -5   8 478.825 21.9109  -1
   0   5  12 478.825 21.9109   2
   1  -5   8 1866.99 85.2741  -1
  -1   5  12 1866.99 85.2741   2
   3  -5   8 62.6958 17.0598  -1
  -3   5  11 62.6958 17.0598   2
  -6  -4   8 959.749 40.8375  -1
   6   4  11 959.749 40.8375   2
  -5  -4   8 728.701 31.3930  -1
   5   4  11 728.701 31.3930   2
  -4  -4   8 151.539 21.3076  -1
   4   4  11 151.539 21.3076   2
  -3  -4   8 1202.01 38.8403  -1
   3   4  11 1202.01 38.8403   2
  -2  -4   8 1249.22 37.4399  -1
   2   4  11 1249.22 37.4399   2
  -1  -4   8 57.0199 10.3661  -1
   1   4  11 57.0199 10.3661   2
   0  -4   8 548.745 21.9192  -1
   0   4  11 548.745 21.9192   2
   1  -4   8 1924.01 46.9169  -1
  -1   4  11 1924.01 46.9169   2
   2  -4   8 152.727 11.6194  -1
  -2   4  11 152.727 11.6194   2
   3  -4   8 485.876 17.9378  -1
  -3   4  11 485.876 17.9378   2
   4  -4   8 673.175 40.6676  -1
  -4   4  11 673.175 40.6676   2
  -7  -3   8 118.832 27.5486  -1
   7   3  11 118.832 27.5486   2
  -3  -3   8 494.450 28.0398  -1
   3   3  10 494.450 28.0398   2
  -2  -3   8 508.788 22.6861  -1
   2   3  10 508.788 22.6861   2
  -1  -3   8 578.553 25.1185  -1
   1   3  10 578.553 25.1185   2
   0  -3   8 1155.73 38.6394  -1
   0   3  10 1155.73 38.6394   2
   1  -3   8 416.361 17.0628  -1
  -1   3  10 416.361 17.0628   2
   2  -3   8 58.4289 7.89792  -1
  -2   3  10 58.4289 7.89792   2
   3  -3   8 777.680 31.9096  -1
  -3   3  10 777.680 31.9096   2
   4  -3   8 892.055 37.6805  -1
  -4   3  10 892.055 37.6805   2
   5  -3   8 309.335 18.2215  -1
  -5   3  10 309.335 18.2215   2
  -7  -2   8 139.146 14.5492  -1
   7   2  10 139.146 14.5492   2
  -6  -2   8 339.884 16.5555  -1
   6   2  10 339.884 16.5555   2
  -5  -2   8 68.2723 14.4301  -1
   5   2  10 68.2723 14.4301   2
  -4  -2   8 66.8793 14.6129  -1
   4   2  10 66.8793 14.6129   2
  -3  -2   8 1436.28 42.6398  -1
   3   2  10 1436.28 42.6398   2
  -2  -2   8 71.8317 14.8525  -1
   2   2  10 71.8317 14.8525   2
  -1  -2   8 165.450 15.5033   2
  -1  -2   8 175.985 20.5439  -1
   1   2  10 175.985 20.5439   2
   0  -2   8 1399.04 59.5820  -1
   0   2   9 1399.04 59.5820   2
   1  -2   8 3704.61 82.8320  -1
  -1   2   9 3704.61 82.8320   2
   2  -2   8 1705.27 42.1374  -1
  -2   2   9 1705.27 42.1374   2
   3  -2   8 1544.16 52.7998  -1
  -3   2   9 1544.16 52.7998   2
   4  -2   8 1302.39 46.7993  -1
  -4   2   9 1302.39 46.7993   2
   5  -2   8 203.069 23.6661  -1
  -5   2   9 203.069 23.6661   2
   6  -2   8 229.148 14.2090  -1
  -6   2   9 229.148 14.2090   2
  -7  -1   8 43.7776 18.2259  -1
   7   1   9 43.7776 18.2259   2
  -6  -1   8 314.357 16.2012  -1
   6   1   9 314.357 16.2012   2
  -5  -1   8 275.291 15.9862  -1
   5   1   9 275.291 15.9862   2
  -4  -1   8 62.8005 9.48804  -1
   4   1   9 62.8005 9.48804   2
  -3  -1   8 1772.80 45.2006  -1
   3   1   9 1772.80 45.2006   2
  -2  -1   8 974.111 35.0894  -1
   2   1   9 974.111 35.0894   2
  -1  -1   8 369.690 14.7956  -1
   1   1   9 369.690 14.7956   2
   0  -1   8 2799.88 84.6365  -1
   0   1   9 2799.88 84.6365   2
   1  -1   8 1536.74 51.2354  -1
  -1   1   9 1536.74 51.2354   2
   2  -1   8 882.853 24.9257  -1
  -2   1   9 882.853 24.9257   2
   3  -1   8 809.213 45.1203   2
   4  -1   8 372.895 23.9080  -1
  -4   1   8 372.895 23.9080   2
   5  -1   8 114.778 13.8605  -1
  -5   1   8 114.778 13.8605   2
   6  -1   8 735.459 20.5132  -1
  -6   1   8 735.459 20.5132   2
   7  -1   8 87.2368 25.1568  -1
  -7   1   8 87.2368 25.1568   2
  -5   0   8 472.060 17.9402  -1
   5   0   8 472.060 17.9402   2
  -4   0   8 421.127 16.3365  -1
   4   0   8 421.127 16.3365   2
  -3   0   8 3626.72 89.0801  -1
   3   0   8 3626.72 89.0801   2
  -2   0   8 1490.47 41.1330  -1
   2   0   8 1490.47 41.1330   2
  -1   0   8 1360.07 44.7859  -1
   1   0   8 1360.07 44.7859   2
   0   0   8 2667.82 67.3330  -1
   0   0   8 2667.82 67.3330   2
   1   0   8 1459.76 46.5003  -1
  -1   0   8 1459.76 46.5003   2
   2   0   8 1438.65 43.6909  -1
  -2   0   8 1438.65 43.6909   2
   3   0   8 3475.74 77.8460  -1
  -3   0   8 3475.74 77.8460   2
   4   0   8 525.530 21.8509  -1
  -4   0   8 525.530 21.8509   2
   5   0   8 468.547 43.3667  -1
  -5   0   8 468.547 43.3667   2
  -7   1   8 179.809 29.2800  -1
   7  -1   8 179.809 29.2800   2
  -6   1   8 741.238 28.5672  -1
   6  -1   8 741.238 28.5672   2
  -5   1   8 97.1546 12.1725  -1
   5  -1   8 97.1546 12.1725   2
  -4   1   8 374.631 32.4693  -1
   4  -1   8 374.631 32.4693   2
  -2   1   8 409.209 12.7670  -1
   2  -1   7 409.209 12.7670   2
  -1   1   8 1584.45 38.2885  -1
   1  -1   7 1584.45 38.2885   2
   0   1   8 995.681 29.5449  -1
   0  -1   7 995.681 29.5449   2
   1   1   8 391.794 17.9776  -1
  -1  -1   7 391.794 17.9776   2
   2   1   8 1668.03 70.1850  -1
  -2  -1   7 1668.03 70.1850   2
   3   1   8 1211.40 36.7136  -1
  -3  -1   7 1211.40 36.7136   2
   4   1   8 358.111 13.9581  -1
  -4  -1   7 358.111 13.9581   2
   5   1   8 675.560 19.3067  -1
  -5  -1   7 675.560 19.3067   2
   6   1   8 384.854 17.3833  -1
  -6  -1   7 384.854 17.3833   2
   7   1   8 199.176 17.2856  -1
  -7  -1   7 199.176 17.2856   2
  -6   2   8 230.730 14.2569  -1
   6  -2   7 230.730 14.2569   2
  -5   2   8 23.7055 7.45123  -1
   5  -2   7 23.7055 7.45123   2
  -4   2   8 428.355 16.6833  -1
   4  -2   7 428.355 16.6833   2
  -3   2   8 13.5182 7.35126  -1
   3  -2   7 13.5182 7.35126   2
  -2   2   8 629.060 16.5223  -1
   2  -2   7 629.060 16.5223   2
  -1   2   8 482.123 16.1791  -1
   1  -2   7 482.123 16.1791   2
   0   2   8 46.2667 9.33078  -1
   0  -2   7 46.2667 9.33078   2
   1   2   8 3467.20 174.123  -1
  -1  -2   6 3467.20 174.123   2
   2   2   8 2609.09 53.3200  -1
  -2  -2   6 2609.09 53.3200   2
   3   2   8 1458.08 33.8473  -1
  -3  -2   6 1458.08 33.8473   2
   4   2   8 1444.35 37.7450  -1
  -4  -2   6 1444.35 37.7450   2
   5   2   8 2428.45 57.8189  -1
  -5  -2   6 2428.45 57.8189   2
   6   2   8 877.364 26.3159  -1
  -6  -2   6 877.364 26.3159   2
   7   2   8 476.526 21.8718  -1
  -7  -2   6 476.526 21.8718   2
  -6   3   8 136.827 24.3826  -1
   6  -3   6 136.827 24.3826   2
  -5   3   8 101.288 10.9495  -1
   5  -3   6 101.288 10.9495   2
  -4   3   8 245.677 11.7985  -1
   4  -3   6 245.677 11.7985   2
  -3   3   8 673.133 17.7335  -1
   3  -3   6 673.133 17.7335   2
  -2   3   8 654.624 18.4751  -1
   2  -3   6 654.624 18.4751   2
  -1   3   8 654.976 28.0317  -1
   1  -3   6 654.976 28.0317   2
   0   3   8 2991.74 60.7669  -1
   0  -3   6 2991.74 60.7669   2
   1   3   8 2096.41 45.1386  -1
  -1  -3   6 2096.41 45.1386   2
   2   3   8 1867.01 39.0242  -1
  -2  -3   6 1867.01 39.0242   2
   3   3   8 1797.09 46.6293  -1
  -3  -3   6 1797.09 46.6293   2
   4   3   8 641.352 43.7277   2
   6   3   8 322.455 21.8697  -1
  -6  -3   5 322.455 21.8697   2
   7   3   8 202.028 20.7590  -1
  -7  -3   5 202.028 20.7590   2
   8   3   8 497.916 30.0735  -1
  -8  -3   5 497.916 30.0735   2
  -3   4   8 1057.43 29.4585  -1
   3  -4   5 1057.43 29.4585   2
  -2   4   8 485.833 15.6619  -1
   2  -4   5 485.833 15.6619   2
  -1   4   8 907.807 23.4761  -1
   1  -4   5 907.807 23.4761   2
   0   4   8 697.811 31.0309  -1
   0  -4   5 697.811 31.0309   2
   1   4   8 1726.66 36.5239  -1
  -1  -4   5 1726.66 36.5239   2
   2   4   8 1205.23 34.6736  -1
  -2  -4   5 1205.23 34.6736   2
   3   4   8 550.789 15.7219  -1
  -3  -4   5 550.789 15.7219   2
   4   4   8 750.740 23.2594  -1
  -4  -4   5 750.740 23.2594   2
   5   4   8 1211.01 35.4223  -1
  -5  -4   5 1211.01 35.4223   2
   6   4   8 175.646 23.0822  -1
  -6  -4   5 175.646 23.0822   2
  -5   5   8 56.7576 25.5991   2
  -1   5   8 698.757 44.7177  -1
   1  -5   4 698.757 44.7177   2
   0   5   8 29.0740 8.61062  -1
   0  -5   4 29.0740 8.61062   2
   1   5   8 1249.98 29.2792  -1
  -1  -5   4 1249.98 29.2792   2
   2   5   8 462.521 14.0730  -1
  -2  -5   4 462.521 14.0730   2
   3   5   8 178.213 10.8840  -1
  -3  -5   4 178.213 10.8840   2
   4   5   8 706.691 19.4173  -1
  -4  -5   4 706.691 19.4173   2
   5   5   8 798.169 24.5775  -1
  -5  -5   4 798.169 24.5775   2
   6   5   8 53.6267 10.9323  -1
  -6  -5   4 53.6267 10.9323   2
   7   5   8 749.219 27.8484  -1
  -7  -5   4 749.219 27.8484   2
  -4   6   8 34.1607 19.1205  -1
   4  -6   4 34.1607 19.1205   2
  -3   6   8 54.1830 16.6394  -1
   3  -6   4 54.1830 16.6394   2
  -2   6   8 82.6796 28.0130  -1
   2  -6   4 82.6796 28.0130   2
  -1   6   8 1.74434 10.8244  -1
   1  -6   4 1.74434 10.8244   2
   0   6   8 255.792 11.7605  -1
   0  -6   4 255.792 11.7605   2
   1   6   8 815.090 29.2645  -1
  -1  -6   4 815.090 29.2645   2
   3   6   8 1519.45 57.1984  -1
  -3  -6   3 1519.45 57.1984   2
   4   6   8 2779.51 60.3404  -1
  -4  -6   3 2779.51 60.3404   2
   5   6   8 668.904 20.6436  -1
  -5  -6   3 668.904 20.6436   2
   6   6   8 333.965 18.4171  -1
  -6  -6   3 333.965 18.4171   2
   7   6   8 1082.21 34.3034  -1
  -7  -6   3 1082.21 34.3034   2
  -2   7   8 66.4202 15.5564  -1
   2  -7   3 66.4202 15.5564   2
  -1   7   8 204.387 11.7246  -1
   1  -7   3 204.387 11.7246   2
   0   7   8 1010.69 23.9014  -1
   0  -7   3 1010.69 23.9014   2
   1   7   8 811.034 21.4012  -1
  -1  -7   3 811.034 21.4012   2
   2   7   8 27.2467 9.80472  -1
  -2  -7   3 27.2467 9.80472   2
   3   7   8 1584.36 38.6510  -1
  -3  -7   3 1584.36 38.6510   2
   4   7   8 1177.06 40.1570  -1
  -4  -7   3 1177.06 40.1570   2
   5   7   8 -13.728 23.8378  -1
  -5  -7   3 -13.728 23.8378   2
  -1   8   8 120.146 22.4163  -1
   1  -8   2 120.146 22.4163   2
   0   8   8 790.940 23.5568  -1
   0  -8   2 790.940 23.5568   2
   1   8   8 123.085 10.7245  -1
  -1  -8   2 123.085 10.7245   2
   2   8   8 116.073 9.80781  -1
  -2  -8   2 116.073 9.80781   2
   3   8   8 427.543 15.1380  -1
  -3  -8   2 427.543 15.1380   2
   4   8   8 537.446 18.1857  -1
  -4  -8   2 537.446 18.1857   2
   5   8   8 10.5181 11.6713  -1
  -5  -8   2 10.5181 11.6713   2
   2   9   8 38.9200 24.0631  -1
  -2  -9   1 38.9200 24.0631   2
   3   9   8 475.187 19.5539  -1
  -3  -9   1 475.187 19.5539   2
  -4  -6   9 130.411 28.4156  -1
   4   6  14 130.411 28.4156   2
  -3  -6   9 839.120 65.2035  -1
   3   6  14 839.120 65.2035   2
  -1  -6   9 375.661 39.0177  -1
   1   6  13 375.661 39.0177   2
   0  -6   9 -7.0678 15.4249  -1
   0   6  13 -7.0678 15.4249   2
   1  -6   9 320.454 18.7610  -1
  -1   6  13 320.454 18.7610   2
  -5  -5   9 628.179 29.3203  -1
   5   5  13 628.179 29.3203   2
  -4  -5   9 81.8856 18.0842  -1
   4   5  13 81.8856 18.0842   2
  -3  -5   9 377.867 22.5456  -1
   3   5  13 377.867 22.5456   2
  -2  -5   9 475.565 25.4684  -1
   2   5  13 475.565 25.4684   2
  -1  -5   9 258.088 15.0955  -1
   1   5  13 258.088 15.0955   2
   0  -5   9 52.2127 24.5141  -1
   0   5  13 52.2127 24.5141   2
   1  -5   9 602.576 45.3634  -1
  -1   5  13 602.576 45.3634   2
   2  -5   9 384.384 48.2362  -1
  -2   5  12 384.384 48.2362   2
   3  -5   9 16.0615 18.1072  -1
  -3   5  12 16.0615 18.1072   2
  -6  -4   9 501.391 38.7645  -1
   6   4  12 501.391 38.7645   2
  -5  -4   9 543.323 35.6315  -1
   5   4  12 543.323 35.6315   2
  -4  -4   9 88.0074 21.6401  -1
   4   4  12 88.0074 21.6401   2
  -3  -4   9 1651.09 50.5415  -1
   3   4  12 1651.09 50.5415   2
  -2  -4   9 1864.11 51.1310  -1
   2   4  12 1864.11 51.1310   2
  -1  -4   9 37.8700 10.1717  -1
   1   4  12 37.8700 10.1717   2
   0  -4   9 1135.07 33.9956  -1
   0   4  12 1135.07 33.9956   2
   1  -4   9 1807.88 43.1973  -1
  -1   4  12 1807.88 43.1973   2
   2  -4   9 323.740 14.7757  -1
  -2   4  12 323.740 14.7757   2
   3  -4   9 224.597 16.2306  -1
  -3   4  12 224.597 16.2306   2
   4  -4   9 556.988 44.8262  -1
  -4   4  12 556.988 44.8262   2
  -6  -3   9 637.684 58.2122  -1
   6   3  12 637.684 58.2122   2
  -3  -3   9 1881.83 59.7440  -1
   3   3  11 1881.83 59.7440   2
  -2  -3   9 1303.19 41.1157  -1
   2   3  11 1303.19 41.1157   2
  -1  -3   9 240.809 16.2971  -1
   1   3  11 240.809 16.2971   2
   0  -3   9 2272.40 61.2251  -1
   0   3  11 2272.40 61.2251   2
   1  -3   9 1224.49 28.0494  -1
  -1   3  11 1224.49 28.0494   2
   2  -3   9 31.2242 9.35194  -1
  -2   3  11 31.2242 9.35194   2
   3  -3   9 733.286 31.5918  -1
  -3   3  11 733.286 31.5918   2
   4  -3   9 371.960 20.0890  -1
  -4   3  11 371.960 20.0890   2
   5  -3   9 13.6670 16.5013  -1
  -5   3  11 13.6670 16.5013   2
  -7  -2   9 594.235 26.5120  -1
   7   2  11 594.235 26.5120   2
  -6  -2   9 1008.29 30.2950  -1
   6   2  11 1008.29 30.2950   2
  -5  -2   9 345.598 24.7822  -1
   5   2  11 345.598 24.7822   2
  -4  -2   9 524.722 23.3376  -1
   4   2  11 524.722 23.3376   2
  -3  -2   9 3258.97 96.4343  -1
   3   2  11 3258.97 96.4343   2
  -2  -2   9 694.092 32.6844  -1
   2   2  11 694.092 32.6844   2
  -1  -2   9 369.056 77.6948  -1
   1   2  10 369.056 77.6948   2
  -1  -2   9 659.680 44.4700  -1
   1   2  11 659.680 44.4700   2
   0  -2   9 1531.74 53.0839  -1
   0   2  10 1531.74 53.0839   2
   1  -2   9 71.5334 10.7346  -1
  -1   2  10 71.5334 10.7346   2
   2  -2   9 880.788 49.3705  -1
  -2   2  10 880.788 49.3705   2
   3  -2   9 242.988 14.5262  -1
  -3   2  10 242.988 14.5262   2
   4  -2   9 384.339 19.4268  -1
  -4   2  10 384.339 19.4268   2
   5  -2   9 79.8279 12.0136  -1
  -5   2  10 79.8279 12.0136   2
   6  -2   9 136.691 11.7772  -1
  -6   2  10 136.691 11.7772   2
  -7  -1   9 508.061 22.8943  -1
   7   1  10 508.061 22.8943   2
  -6  -1   9 1148.92 34.0712  -1
   6   1  10 1148.92 34.0712   2
  -5  -1   9 5.39675 11.0338  -1
   5   1  10 5.39675 11.0338   2
  -4  -1   9 752.825 41.6782  -1
   4   1  10 752.825 41.6782   2
  -3  -1   9 1522.91 46.7806  -1
   3   1  10 1522.91 46.7806   2
  -2  -1   9 187.213 12.0837  -1
   2   1  10 187.213 12.0837   2
  -1  -1   9 974.916 29.1384  -1
   1   1  10 974.916 29.1384   2
   0  -1   9 1089.57 45.7497  -1
   0   1  10 1089.57 45.7497   2
   1  -1   9 875.101 25.3337  -1
  -1   1  10 875.101 25.3337   2
   2  -1   9 79.3883 11.0445  -1
  -2   1  10 79.3883 11.0445   2
   3  -1   9 844.193 47.6689   2
   4  -1   9 1359.85 44.6169  -1
  -4   1   9 1359.85 44.6169   2
   5  -1   9 365.100 21.9105  -1
  -5   1   9 365.100 21.9105   2
   6  -1   9 146.585 16.4609  -1
  -6   1   9 146.585 16.4609   2
  -5   0   9 289.009 15.7668  -1
   5   0   9 289.009 15.7668   2
  -4   0   9 1131.01 32.6316  -1
   4   0   9 1131.01 32.6316   2
  -3   0   9 1861.73 44.9529  -1
   3   0   9 1861.73 44.9529   2
  -2   0   9 420.044 17.4102  -1
   2   0   9 420.044 17.4102   2
  -1   0   9 801.929 30.9326  -1
   1   0   9 801.929 30.9326   2
   0   0   9 3131.54 78.7634  -1
   0   0   9 3131.54 78.7634   2
   1   0   9 869.678 37.6423  -1
  -1   0   9 869.678 37.6423   2
   2   0   9 429.713 17.1856  -1
  -2   0   9 429.713 17.1856   2
   3   0   9 1888.13 40.2973  -1
  -3   0   9 1888.13 40.2973   2
   4   0   9 1428.27 38.6557  -1
  -4   0   9 1428.27 38.6557   2
   5   0   9 325.208 26.2241  -1
  -5   0   9 325.208 26.2241   2
  -6   1   9 162.400 14.8667  -1
   6  -1   9 162.400 14.8667   2
  -5   1   9 314.636 14.1377  -1
   5  -1   9 314.636 14.1377   2
  -4   1   9 1263.07 49.3261  -1
   4  -1   9 1263.07 49.3261   2
  -2   1   9 882.654 22.7018  -1
   2  -1   8 882.654 22.7018   2
  -1   1   9 1231.45 39.9990  -1
   1  -1   8 1231.45 39.9990   2
   0   1   9 2295.79 49.2827  -1
   0  -1   8 2295.79 49.2827   2
   1   1   9 331.690 12.2131  -1
  -1  -1   8 331.690 12.2131   2
   2   1   9 973.246 22.8249  -1
  -2  -1   8 973.246 22.8249   2
   3   1   9 1781.87 34.3394  -1
  -3  -1   8 1781.87 34.3394   2
   4   1   9 39.7952 6.18058  -1
  -4  -1   8 39.7952 6.18058   2
   5   1   9 194.783 10.1960  -1
  -5  -1   8 194.783 10.1960   2
   6   1   9 344.191 18.0958  -1
  -6  -1   8 344.191 18.0958   2
   7   1   9 83.2625 16.0213  -1
  -7  -1   8 83.2625 16.0213   2
  -6   2   9 179.166 12.4326  -1
   6  -2   8 179.166 12.4326   2
  -5   2   9 266.382 14.7758  -1
   5  -2   8 266.382 14.7758   2
  -4   2   9 1248.41 35.8502  -1
   4  -2   8 1248.41 35.8502   2
  -3   2   9 1511.62 35.8865  -1
   3  -2   8 1511.62 35.8865   2
  -2   2   9 1417.89 36.5002  -1
   2  -2   8 1417.89 36.5002   2
  -1   2   9 3237.92 80.6887  -1
   1  -2   8 3237.92 80.6887   2
   0   2   9 1973.00 53.7409  -1
   0  -2   8 1973.00 53.7409   2
   1   2   9 649.695 45.1140   2
   2   2   9 1816.65 47.2648  -1
  -2  -2   7 1816.65 47.2648   2
   3   2   9 972.459 22.2348  -1
  -3  -2   7 972.459 22.2348   2
   4   2   9 398.245 13.8552  -1
  -4  -2   7 398.245 13.8552   2
   5   2   9 1000.68 29.8309  -1
  -5  -2   7 1000.68 29.8309   2
   6   2   9 318.534 16.8240  -1
  -6  -2   7 318.534 16.8240   2
   7   2   9 272.284 14.2000  -1
  -7  -2   7 272.284 14.2000   2
  -6   3   9 162.590 20.2834  -1
   6  -3   7 162.590 20.2834   2
  -5   3   9 543.636 24.6173  -1
   5  -3   7 543.636 24.6173   2
  -4   3   9 799.696 25.3387  -1
   4  -3   7 799.696 25.3387   2
  -3   3   9 438.727 16.6022  -1
   3  -3   7 438.727 16.6022   2
  -2   3   9 440.285 20.3616  -1
   2  -3   7 440.285 20.3616   2
  -1   3   9 1107.53 38.9418  -1
   1  -3   7 1107.53 38.9418   2
   0   3   9 215.568 9.09615  -1
   0  -3   7 215.568 9.09615   2
   1   3   9 91.4766 8.74822  -1
  -1  -3   7 91.4766 8.74822   2
   2   3   9 1202.21 31.9705  -1
  -2  -3   7 1202.21 31.9705   2
   3   3   9 692.237 21.9499  -1
  -3  -3   7 692.237 21.9499   2
   7   3   9 929.633 40.4076  -1
  -7  -3   6 929.633 40.4076   2
  -4   4   9 396.805 28.9013  -1
   4  -4   6 396.805 28.9013   2
  -3   4   9 676.401 21.7543  -1
   3  -4   6 676.401 21.7543   2
  -2   4   9 407.439 14.6425  -1
   2  -4   6 407.439 14.6425   2
  -1   4   9 710.919 23.8423  -1
   1  -4   6 710.919 23.8423   2
   0   4   9 1702.57 57.1678  -1
   0  -4   6 1702.57 57.1678   2
   1   4   9 2420.08 43.9134  -1
  -1  -4   6 2420.08 43.9134   2
   2   4   9 667.574 18.3988  -1
  -2  -4   6 667.574 18.3988   2
   3   4   9 2240.02 71.1227  -1
  -3  -4   6 2240.02 71.1227   2
   4   4   9 1301.72 40.8962  -1
  -4  -4   6 1301.72 40.8962   2
   5   4   9 182.914 18.3073  -1
  -5  -4   6 182.914 18.3073   2
   6   4   9 525.165 47.4312  -1
  -6  -4   6 525.165 47.4312   2
  -3   5   9 583.652 35.3726  -1
   3  -5   6 583.652 35.3726   2
  -1   5   9 534.093 39.8277  -1
   1  -5   5 534.093 39.8277   2
   0   5   9 852.248 25.0966  -1
   0  -5   5 852.248 25.0966   2
   1   5   9 1094.32 33.9849  -1
  -1  -5   5 1094.32 33.9849   2
   2   5   9 1034.16 25.9665  -1
  -2  -5   5 1034.16 25.9665   2
   3   5   9 1143.66 31.9546  -1
  -3  -5   5 1143.66 31.9546   2
   4   5   9 146.629 12.7929  -1
  -4  -5   5 146.629 12.7929   2
   5   5   9 513.431 18.7988  -1
  -5  -5   5 513.431 18.7988   2
   6   5   9 172.553 13.0214  -1
  -6  -5   5 172.553 13.0214   2
   7   5   9 69.4849 16.1807  -1
  -7  -5   5 69.4849 16.1807   2
  -3   6   9 919.492 39.7589  -1
   3  -6   5 919.492 39.7589   2
  -2   6   9 460.131 18.7791  -1
   2  -6   5 460.131 18.7791   2
  -1   6   9 547.136 21.6634  -1
   1  -6   5 547.136 21.6634   2
   0   6   9 661.242 19.3638  -1
   0  -6   5 661.242 19.3638   2
   1   6   9 674.953 26.2784  -1
  -1  -6   5 674.953 26.2784   2
   2   6   9 371.322 29.9082   2
   3   6   9 775.777 34.8699  -1
  -3  -6   4 775.777 34.8699   2
   4   6   9 1144.06 30.1201  -1
  -4  -6   4 1144.06 30.1201   2
   5   6   9 111.513 11.7140  -1
  -5  -6   4 111.513 11.7140   2
   6   6   9 207.235 16.6668  -1
  -6  -6   4 207.235 16.6668   2
   7   6   9 379.370 20.9361  -1
  -7  -6   4 379.370 20.9361   2
  -2   7   9 281.847 20.5724  -1
   2  -7   4 281.847 20.5724   2
  -1   7   9 22.0970 6.13913  -1
   1  -7   4 22.0970 6.13913   2
   0   7   9 650.741 22.9528  -1
   0  -7   4 650.741 22.9528   2
   1   7   9 1178.29 35.1268  -1
  -1  -7   4 1178.29 35.1268   2
   2   7   9 62.2852 10.8069  -1
  -2  -7   4 62.2852 10.8069   2
   3   7   9 577.641 19.4349  -1
  -3  -7   4 577.641 19.4349   2
   4   7   9 896.386 33.6485  -1
  -4  -7   4 896.386 33.6485   2
  -1   8   9 101.443 21.8936  -1
   1  -8   3 101.443 21.8936   2
   0   8   9 809.956 24.0771  -1
   0  -8   3 809.956 24.0771   2
   1   8   9 270.049 17.6854  -1
  -1  -8   3 270.049 17.6854   2
   2   8   9 217.575 11.5079  -1
  -2  -8   3 217.575 11.5079   2
   3   8   9 816.207 24.7337  -1
  -3  -8   3 816.207 24.7337   2
   4   8   9 369.328 15.0534  -1
  -4  -8   3 369.328 15.0534   2
   5   8   9 87.4012 12.2311  -1
  -5  -8   3 87.4012 12.2311   2
  -2  -6  10 212.620 63.9291  -1
   2   6  14 212.620 63.9291   2
   2   6  15 212.620 63.9291   2
  -1  -6  10 2.21347 39.6842  -1
   1   6  14 2.21347 39.6842   2
   0  -6  10 141.442 21.3376  -1
   0   6  14 141.442 21.3376   2
  -5  -5  10 217.776 19.5431  -1
   5   5  14 217.776 19.5431   2
  -4  -5  10 387.427 25.0161  -1
   4   5  14 387.427 25.0161   2
  -3  -5  10 815.871 40.8181  -1
   3   5  14 815.871 40.8181   2
  -2  -5  10 384.444 23.9656  -1
   2   5  14 384.444 23.9656   2
  -1  -5  10 93.8780 17.9423  -1
   1   5  14 93.8780 17.9423   2
   0  -5  10 789.817 50.2631  -1
   0   5  14 789.817 50.2631   2
   1  -5  10 568.081 35.3307  -1
  -1   5  14 568.081 35.3307   2
   2  -5  10 111.815 41.7216  -1
  -2   5  13 111.815 41.7216   2
  -6  -4  10 213.138 51.2001  -1
   6   4  13 213.138 51.2001   2
  -5  -4  10 110.879 22.4742  -1
   5   4  13 110.879 22.4742   2
  -4  -4  10 41.4984 18.3923  -1
   4   4  13 41.4984 18.3923   2
  -3  -4  10 261.575 22.8029  -1
   3   4  13 261.575 22.8029   2
  -2  -4  10 80.0685 14.3133  -1
   2   4  13 80.0685 14.3133   2
  -1  -4  10 172.035 14.8078  -1
   1   4  13 172.035 14.8078   2
   0  -4  10 33.1576 10.6746  -1
   0   4  13 33.1576 10.6746   2
   1  -4  10 274.918 15.3377  -1
  -1   4  13 274.918 15.3377   2
   2  -4  10 121.015 12.9277  -1
  -2   4  13 121.015 12.9277   2
   3  -4  10 88.7747 16.4929  -1
  -3   4  13 88.7747 16.4929   2
   4  -4  10 131.805 29.8478   2
  -6  -3  10 202.032 31.1713  -1
   6   3  13 202.032 31.1713   2
  -3  -3  10 546.964 33.8343  -1
   3   3  12 546.964 33.8343   2
  -2  -3  10 349.141 25.5015  -1
   2   3  12 349.141 25.5015   2
  -1  -3  10 35.6205 12.3572  -1
   1   3  12 35.6205 12.3572   2
   0  -3  10 760.788 26.1685  -1
   0   3  12 760.788 26.1685   2
   1  -3  10 911.414 25.2310  -1
  -1   3  12 911.414 25.2310   2
   2  -3  10 141.602 11.6003  -1
  -2   3  12 141.602 11.6003   2
   3  -3  10 351.726 21.6082  -1
  -3   3  12 351.726 21.6082   2
   4  -3  10 393.931 21.5495  -1
  -4   3  12 393.931 21.5495   2
   5  -3  10 62.9187 29.6198   2
  -6  -2  10 169.065 15.8100  -1
   6   2  12 169.065 15.8100   2
  -5  -2  10 245.604 23.2559  -1
   5   2  12 245.604 23.2559   2
  -4  -2  10 121.073 17.3170  -1
   4   2  12 121.073 17.3170   2
  -3  -2  10 322.334 20.4190  -1
   3   2  12 322.334 20.4190   2
  -2  -2  10 114.505 19.8856  -1
   2   2  12 114.505 19.8856   2
  -2  -2  10 640.425 120.276  -1
   2   2  12 640.425 120.276   2
   2   2  11 640.425 120.276   2
  -1  -2  10 155.325 81.2730  -1
   1   2  11 155.325 81.2730   2
  -1  -2  10 110.190 24.0349  -1
   1   2  12 110.190 24.0349   2
   0  -2  10 1376.17 76.3948  -1
   0   2  11 1376.17 76.3948   2
   1  -2  10 310.089 16.7163  -1
  -1   2  11 310.089 16.7163   2
   2  -2  10 233.446 14.0982  -1
  -2   2  11 233.446 14.0982   2
   3  -2  10 290.856 14.8436  -1
  -3   2  11 290.856 14.8436   2
   4  -2  10 352.754 19.9062  -1
  -4   2  11 352.754 19.9062   2
   5  -2  10 72.2984 14.7800  -1
  -5   2  11 72.2984 14.7800   2
  -6  -1  10 862.709 28.5929  -1
   6   1  11 862.709 28.5929   2
  -5  -1  10 68.7841 12.8283  -1
   5   1  11 68.7841 12.8283   2
  -4  -1  10 735.902 26.2811  -1
   4   1  11 735.902 26.2811   2
  -3  -1  10 1261.83 42.0538  -1
   3   1  11 1261.83 42.0538   2
  -2  -1  10 87.6398 11.5679  -1
   2   1  11 87.6398 11.5679   2
  -1  -1  10 272.898 15.0218  -1
   1   1  11 272.898 15.0218   2
   0  -1  10 1265.53 65.4269  -1
   0   1  11 1265.53 65.4269   2
   1  -1  10 319.942 18.6730  -1
  -1   1  11 319.942 18.6730   2
   2  -1  10 687.920 22.8798  -1
  -2   1  11 687.920 22.8798   2
   3  -1  10 441.221 35.3565  -1
  -3   1  10 441.221 35.3565   2
   4  -1  10 899.875 28.8775  -1
  -4   1  10 899.875 28.8775   2
   5  -1  10 111.568 19.0335  -1
  -5   1  10 111.568 19.0335   2
   6  -1  10 45.0901 16.9307  -1
  -6   1  10 45.0901 16.9307   2
  -5   0  10 16.3760 14.3824  -1
   5   0  10 16.3760 14.3824   2
  -4   0  10 587.217 21.6282  -1
   4   0  10 587.217 21.6282   2
  -3   0  10 188.259 12.9547  -1
   3   0  10 188.259 12.9547   2
  -2   0  10 20.2551 9.23530  -1
   2   0  10 20.2551 9.23530   2
  -1   0  10 179.426 11.5179  -1
   1   0  10 179.426 11.5179   2
   0   0  10 -1.4784 4.74247  -1
   0   0  10 -1.4784 4.74247   2
   1   0  10 152.512 11.9337  -1
  -1   0  10 152.512 11.9337   2
   2   0  10 7.68478 8.05997  -1
  -2   0  10 7.68478 8.05997   2
   3   0  10 134.764 10.6348  -1
  -3   0  10 134.764 10.6348   2
   4   0  10 709.268 21.2322  -1
  -4   0  10 709.268 21.2322   2
   5   0  10 31.3978 18.2694  -1
  -5   0  10 31.3978 18.2694   2
  -6   1  10 22.2405 14.6743  -1
   6  -1  10 22.2405 14.6743   2
  -5   1  10 110.398 14.8121  -1
   5  -1  10 110.398 14.8121   2
  -4   1  10 843.195 38.2936  -1
   4  -1  10 843.195 38.2936   2
  -3   1  10 326.001 38.9477  -1
   3  -1  10 326.001 38.9477   2
  -2   1  10 93.3901 12.0428  -1
   2  -1   9 93.3901 12.0428   2
  -1   1  10 1024.94 31.7368  -1
   1  -1   9 1024.94 31.7368   2
   0   1  10 1477.78 37.1762  -1
   0  -1   9 1477.78 37.1762   2
   1   1  10 1252.05 33.6479  -1
  -1  -1   9 1252.05 33.6479   2
   2   1  10 175.839 11.5920  -1
  -2  -1   9 175.839 11.5920   2
   3   1  10 1731.44 50.5440  -1
  -3  -1   9 1731.44 50.5440   2
   4   1  10 839.357 31.3454  -1
  -4  -1   9 839.357 31.3454   2
   5   1  10 28.3895 7.26292  -1
  -5  -1   9 28.3895 7.26292   2
   6   1  10 1306.83 38.4576  -1
  -6  -1   9 1306.83 38.4576   2
   7   1  10 570.931 31.1792  -1
  -7  -1   9 570.931 31.1792   2
  -6   2  10 203.788 13.1378  -1
   6  -2   9 203.788 13.1378   2
  -5   2  10 105.165 10.6088  -1
   5  -2   9 105.165 10.6088   2
  -4   2  10 375.071 15.1614  -1
   4  -2   9 375.071 15.1614   2
  -3   2  10 251.180 12.9905  -1
   3  -2   9 251.180 12.9905   2
  -2   2  10 1183.27 47.7394  -1
   2  -2   9 1183.27 47.7394   2
  -1   2  10 96.5541 11.0220  -1
   1  -2   9 96.5541 11.0220   2
   0   2  10 2106.16 57.7035  -1
   0  -2   9 2106.16 57.7035   2
   2   2  10 86.2761 10.0507  -1
  -2  -2   8 86.2761 10.0507   2
   3   2  10 1619.44 36.6263  -1
  -3  -2   8 1619.44 36.6263   2
   4   2  10 51.7890 9.07852  -1
  -4  -2   8 51.7890 9.07852   2
   5   2  10 50.2556 12.7156  -1
  -5  -2   8 50.2556 12.7156   2
   6   2  10 384.464 17.6875  -1
  -6  -2   8 384.464 17.6875   2
   7   2  10 164.928 15.5364  -1
  -7  -2   8 164.928 15.5364   2
  -5   3  10 216.670 17.8104  -1
   5  -3   8 216.670 17.8104   2
  -4   3  10 869.436 27.0989  -1
   4  -3   8 869.436 27.0989   2
  -3   3  10 859.276 26.2388  -1
   3  -3   8 859.276 26.2388   2
  -2   3  10 58.8263 9.18269  -1
   2  -3   8 58.8263 9.18269   2
  -1   3  10 466.449 16.3232  -1
   1  -3   8 466.449 16.3232   2
   0   3  10 1393.50 33.9543  -1
   0  -3   8 1393.50 33.9543   2
   1   3  10 629.702 17.2860  -1
  -1  -3   8 629.702 17.2860   2
   2   3  10 584.740 18.2169  -1
  -2  -3   8 584.740 18.2169   2
   3   3  10 543.518 19.1771  -1
  -3  -3   8 543.518 19.1771   2
   6   3  10 572.747 51.1698  -1
  -6  -3   7 572.747 51.1698   2
   7   3  10 449.857 34.8136  -1
  -7  -3   7 449.857 34.8136   2
  -4   4  10 143.474 24.0600  -1
   4  -4   7 143.474 24.0600   2
  -3   4  10 224.843 14.9042  -1
   3  -4   7 224.843 14.9042   2
  -2   4  10 99.0512 9.94231  -1
   2  -4   7 99.0512 9.94231   2
  -1   4  10 77.6458 11.0264  -1
   1  -4   7 77.6458 11.0264   2
   0   4  10 161.333 13.3161  -1
   0  -4   7 161.333 13.3161   2
   1   4  10 49.6846 7.59666  -1
  -1  -4   7 49.6846 7.59666   2
   2   4  10 557.631 13.9682  -1
  -2  -4   7 557.631 13.9682   2
   3   4  10 372.982 12.7420  -1
  -3  -4   7 372.982 12.7420   2
   4   4  10 512.777 22.6568  -1
  -4  -4   7 512.777 22.6568   2
   5   4  10 135.319 21.9035  -1
  -5  -4   7 135.319 21.9035   2
   6   4  10 801.203 42.3597  -1
  -6  -4   7 801.203 42.3597   2
  -3   5  10 128.963 14.7690  -1
   3  -5   7 128.963 14.7690   2
  -2   5  10 393.861 22.6168  -1
   2  -5   7 393.861 22.6168   2
  -1   5  10 133.580 27.0220  -1
   1  -5   6 133.580 27.0220   2
   0   5  10 589.154 23.5462  -1
   0  -5   6 589.154 23.5462   2
   1   5  10 609.116 20.1128  -1
  -1  -5   6 609.116 20.1128   2
   2   5  10 455.563 15.6027  -1
  -2  -5   6 455.563 15.6027   2
   3   5  10 897.110 27.4859  -1
  -3  -5   6 897.110 27.4859   2
   4   5  10 365.436 15.6034  -1
  -4  -5   6 365.436 15.6034   2
   5   5  10 101.940 12.0362  -1
  -5  -5   6 101.940 12.0362   2
   6   5  10 601.782 33.1581  -1
  -6  -5   6 601.782 33.1581   2
   7   5  10 213.532 18.8020  -1
  -7  -5   6 213.532 18.8020   2
  -2   6  10 256.786 12.2439  -1
   2  -6   6 256.786 12.2439   2
  -1   6  10 694.611 22.2691  -1
   1  -6   6 694.611 22.2691   2
   0   6  10 617.577 19.2809  -1
   0  -6   6 617.577 19.2809   2
   1   6  10 48.2360 14.9325  -1
  -1  -6   6 48.2360 14.9325   2
   3   6  10 456.982 21.1805  -1
  -3  -6   5 456.982 21.1805   2
   4   6  10 89.6358 16.1981  -1
  -4  -6   5 89.6358 16.1981   2
   5   6  10 197.823 15.8246  -1
  -5  -6   5 197.823 15.8246   2
   6   6  10 173.178 16.4162  -1
  -6  -6   5 173.178 16.4162   2
  -2   7  10 141.816 21.8895  -1
   2  -7   5 141.816 21.8895   2
  -1   7  10 396.525 14.9451  -1
   1  -7   5 396.525 14.9451   2
   0   7  10 786.776 23.7148  -1
   0  -7   5 786.776 23.7148   2
   1   7  10 15.2820 9.81136  -1
  -1  -7   5 15.2820 9.81136   2
   2   7  10 293.908 14.3815  -1
  -2  -7   5 293.908 14.3815   2
   3   7  10 373.189 16.4002  -1
  -3  -7   5 373.189 16.4002   2
   4   7  10 15.0445 17.1520  -1
  -4  -7   5 15.0445 17.1520   2
   5   7  10 230.285 37.9259  -1
  -5  -7   5 230.285 37.9259   2
   0   8  10 0.94547 11.2212  -1
   0  -8   4 0.94547 11.2212   2
   1   8  10 30.8588 11.2039  -1
  -1  -8   4 30.8588 11.2039   2
   2   8  10 31.0187 10.1490  -1
  -2  -8   4 31.0187 10.1490   2
   3   8  10 101.175 10.5987  -1
  -3  -8   4 101.175 10.5987   2
   4   8  10 135.676 13.0100  -1
  -4  -8   4 135.676 13.0100   2
   5   8  10 471.159 209.817  -1
  -5  -8   4 471.159 209.817   2
  -4  -5  11 483.040 28.1805  -1
   4   5  15 483.040 28.1805   2
  -3  -5  11 123.514 25.8613  -1
   3   5  15 123.514 25.8613   2
  -2  -5  11 303.418 23.6457  -1
   2   5  15 303.418 23.6457   2
  -1  -5  11 678.472 55.4200  -1
   1   5  15 678.472 55.4200   2
   0  -5  11 290.661 40.6116  -1
   0   5  15 290.661 40.6116   2
   1  -5  11 350.976 32.5009  -1
  -1   5  15 350.976 32.5009   2
   1  -5  11 946.668 218.029  -1
  -1   5  15 946.668 218.029   2
  -1   5  14 946.668 218.029   2
  -5  -4  11 240.411 26.3209  -1
   5   4  14 240.411 26.3209   2
  -4  -4  11 955.108 44.9270  -1
   4   4  14 955.108 44.9270   2
  -3  -4  11 1061.16 45.1509  -1
   3   4  14 1061.16 45.1509   2
  -2  -4  11 244.239 17.7952  -1
   2   4  14 244.239 17.7952   2
  -1  -4  11 499.683 26.4883  -1
   1   4  14 499.683 26.4883   2
   0  -4  11 434.989 18.2039  -1
   0   4  14 434.989 18.2039   2
   1  -4  11 807.730 27.1460  -1
  -1   4  14 807.730 27.1460   2
   2  -4  11 506.148 23.3207  -1
  -2   4  14 506.148 23.3207   2
   3  -4  11 93.1697 19.9000  -1
  -3   4  14 93.1697 19.9000   2
  -3  -3  11 123.485 25.8192  -1
   3   3  13 123.485 25.8192   2
  -2  -3  11 642.666 32.3201  -1
   2   3  13 642.666 32.3201   2
  -1  -3  11 418.731 20.3080  -1
   1   3  13 418.731 20.3080   2
   0  -3  11 131.437 14.9455  -1
   0   3  13 131.437 14.9455   2
   1  -3  11 597.667 38.2688  -1
  -1   3  13 597.667 38.2688   2
   2  -3  11 296.011 21.0479  -1
  -2   3  13 296.011 21.0479   2
   3  -3  11 20.3944 12.1531  -1
  -3   3  13 20.3944 12.1531   2
   4  -3  11 323.250 21.6744  -1
  -4   3  13 323.250 21.6744   2
  -6  -2  11 65.2695 19.6946  -1
   6   2  13 65.2695 19.6946   2
  -5  -2  11 425.930 24.5987  -1
   5   2  13 425.930 24.5987   2
  -4  -2  11 192.155 23.3514  -1
   4   2  13 192.155 23.3514   2
  -3  -2  11 225.776 19.8413  -1
   3   2  13 225.776 19.8413   2
  -2  -2  11 847.201 34.9656  -1
   2   2  13 847.201 34.9656   2
  -1  -2  11 220.599 28.2478  -1
   1   2  13 220.599 28.2478   2
  -1  -2  11 147.067 95.0212  -1
   1   2  12 147.067 95.0212   2
   0  -2  11 1158.71 68.7805  -1
   0   2  12 1158.71 68.7805   2
   1  -2  11 526.819 20.6926  -1
  -1   2  12 526.819 20.6926   2
   2  -2  11 719.517 23.6078  -1
  -2   2  12 719.517 23.6078   2
   3  -2  11 557.375 20.9636  -1
  -3   2  12 557.375 20.9636   2
   4  -2  11 1051.62 31.6849  -1
  -4   2  12 1051.62 31.6849   2
   5  -2  11 159.062 15.3792  -1
  -5   2  12 159.062 15.3792   2
  -6  -1  11 141.543 17.1085  -1
   6   1  12 141.543 17.1085   2
  -5  -1  11 138.130 15.3823  -1
   5   1  12 138.130 15.3823   2
  -4  -1  11 248.342 15.9054  -1
   4   1  12 248.342 15.9054   2
  -3  -1  11 787.745 26.7758  -1
   3   1  12 787.745 26.7758   2
  -2  -1  11 565.347 22.1019  -1
   2   1  12 565.347 22.1019   2
  -1  -1  11 730.326 26.2968  -1
   1   1  12 730.326 26.2968   2
   0  -1  11 2238.81 74.8352  -1
   0   1  12 2238.81 74.8352   2
   1  -1  11 1681.69 59.4305  -1
  -1   1  12 1681.69 59.4305   2
   2  -1  11 249.594 18.5429  -1
  -2   1  12 249.594 18.5429   2
   3  -1  11 995.953 43.6813  -1
  -3   1  11 995.953 43.6813   2
   4  -1  11 1279.01 37.8603  -1
  -4   1  11 1279.01 37.8603   2
   5  -1  11 81.6649 19.9657  -1
  -5   1  11 81.6649 19.9657   2
  -6   0  11 360.222 43.4170  -1
   6   0  11 360.222 43.4170   2
  -5   0  11 72.9569 16.0777  -1
   5   0  11 72.9569 16.0777   2
  -4   0  11 1178.38 38.5819  -1
   4   0  11 1178.38 38.5819   2
  -3   0  11 784.542 28.7618  -1
   3   0  11 784.542 28.7618   2
  -2   0  11 397.422 17.9918  -1
   2   0  11 397.422 17.9918   2
  -1   0  11 1435.05 42.2693  -1
   1   0  11 1435.05 42.2693   2
   0   0  11 2971.29 90.2078  -1
   0   0  11 2971.29 90.2078   2
   1   0  11 1221.01 44.2050  -1
  -1   0  11 1221.01 44.2050   2
   2   0  11 374.637 17.9977  -1
  -2   0  11 374.637 17.9977   2
   3   0  11 830.318 22.6927  -1
  -3   0  11 830.318 22.6927   2
   4   0  11 1249.33 32.9390  -1
  -4   0  11 1249.33 32.9390   2
   5   0  11 61.2292 19.3644  -1
  -5   0  11 61.2292 19.3644   2
  -6   1  11 147.197 14.9627   2
  -5   1  11 82.9783 17.9069  -1
   5  -1  11 82.9783 17.9069   2
  -4   1  11 1023.59 61.6143  -1
   4  -1  11 1023.59 61.6143   2
  -3   1  11 856.062 39.1756  -1
   3  -1  11 856.062 39.1756   2
  -2   1  11 723.209 27.5944  -1
   2  -1  10 723.209 27.5944   2
  -1   1  11 329.501 20.4944  -1
   1  -1  10 329.501 20.4944   2
   0   1  11 850.732 26.6449  -1
   0  -1  10 850.732 26.6449   2
   1   1  11 284.199 11.8584  -1
  -1  -1  10 284.199 11.8584   2
   2   1  11 87.9603 8.16089  -1
  -2  -1  10 87.9603 8.16089   2
   3   1  11 1062.75 31.1406  -1
  -3  -1  10 1062.75 31.1406   2
   4   1  11 794.062 19.1939  -1
  -4  -1  10 794.062 19.1939   2
   5   1  11 70.4514 9.35676  -1
  -5  -1  10 70.4514 9.35676   2
   6   1  11 874.243 30.5459  -1
  -6  -1  10 874.243 30.5459   2
  -5   2  11 99.5924 11.6740  -1
   5  -2  10 99.5924 11.6740   2
  -4   2  11 296.221 17.0460  -1
   4  -2  10 296.221 17.0460   2
  -3   2  11 220.879 13.9784  -1
   3  -2  10 220.879 13.9784   2
  -2   2  11 251.027 12.7190  -1
   2  -2  10 251.027 12.7190   2
  -1   2  11 340.608 20.2018  -1
   1  -2  10 340.608 20.2018   2
   0   2  11 777.643 33.7820  -1
   0  -2  10 777.643 33.7820   2
   1   2  11 808.014 52.4241  -1
  -1  -2   9 808.014 52.4241   2
   1   2  11 41.8991 114.498  -1
  -1  -2  10 41.8991 114.498   2
   2   2  11 497.266 37.4763  -1
  -2  -2  10 497.266 37.4763   2
   2   2  11 733.103 23.1739  -1
  -2  -2   9 733.103 23.1739   2
   3   2  11 2963.25 84.3196  -1
  -3  -2   9 2963.25 84.3196   2
   4   2  11 473.105 14.4828  -1
  -4  -2   9 473.105 14.4828   2
   5   2  11 307.811 20.0260  -1
  -5  -2   9 307.811 20.0260   2
   6   2  11 957.144 30.1842  -1
  -6  -2   9 957.144 30.1842   2
   7   2  11 617.974 35.6320  -1
  -7  -2   9 617.974 35.6320   2
  -5   3  11 15.9301 12.2399  -1
   5  -3   9 15.9301 12.2399   2
  -4   3  11 263.926 15.9464  -1
   4  -3   9 263.926 15.9464   2
  -3   3  11 706.464 21.7525  -1
   3  -3   9 706.464 21.7525   2
  -2   3  11 30.0925 7.90200  -1
   2  -3   9 30.0925 7.90200   2
  -1   3  11 1201.49 32.5430  -1
   1  -3   9 1201.49 32.5430   2
   0   3  11 2136.55 46.8224  -1
   0  -3   9 2136.55 46.8224   2
   1   3  11 231.904 11.3843  -1
  -1  -3   9 231.904 11.3843   2
   2   3  11 1379.04 29.1613  -1
  -2  -3   9 1379.04 29.1613   2
   3   3  11 1627.89 43.9114  -1
  -3  -3   9 1627.89 43.9114   2
   6   3  11 464.181 34.8409  -1
  -6  -3   8 464.181 34.8409   2
   7   3  11 88.0039 30.9198  -1
  -7  -3   8 88.0039 30.9198   2
  -4   4  11 704.707 31.1196  -1
   4  -4   8 704.707 31.1196   2
  -3   4  11 476.090 24.9663  -1
   3  -4   8 476.090 24.9663   2
  -2   4  11 143.818 13.2914  -1
   2  -4   8 143.818 13.2914   2
  -1   4  11 2096.61 57.1170  -1
   1  -4   8 2096.61 57.1170   2
   0   4  11 629.158 22.4473  -1
   0  -4   8 629.158 22.4473   2
   1   4  11 40.5980 7.61964  -1
  -1  -4   8 40.5980 7.61964   2
   2   4  11 1204.42 29.4437  -1
  -2  -4   8 1204.42 29.4437   2
   3   4  11 1059.72 26.8149  -1
  -3  -4   8 1059.72 26.8149   2
   4   4  11 138.499 13.3476  -1
  -4  -4   8 138.499 13.3476   2
   5   4  11 642.308 34.7012  -1
  -5  -4   8 642.308 34.7012   2
   6   4  11 929.499 46.9854  -1
  -6  -4   8 929.499 46.9854   2
  -4   5  11 122.303 13.7146   2
  -3   5  11 59.1238 15.8513  -1
   3  -5   8 59.1238 15.8513   2
  -2   5  11 258.302 26.4133  -1
   2  -5   7 258.302 26.4133   2
  -2   5  11 324.817 31.3408  -1
   2  -5   8 324.817 31.3408   2
  -1   5  11 385.416 31.5321  -1
   1  -5   7 385.416 31.5321   2
   0   5  11 63.2415 13.7978  -1
   0  -5   7 63.2415 13.7978   2
   1   5  11 485.252 17.8255  -1
  -1  -5   7 485.252 17.8255   2
   2   5  11 1539.21 46.5113  -1
  -2  -5   7 1539.21 46.5113   2
   3   5  11 631.159 30.9416  -1
  -3  -5   7 631.159 30.9416   2
   4   5  11 433.351 18.0945  -1
  -4  -5   7 433.351 18.0945   2
   5   5  11 875.409 40.3486  -1
  -5  -5   7 875.409 40.3486   2
   6   5  11 585.585 23.6632  -1
  -6  -5   7 585.585 23.6632   2
  -2   6  11 118.373 12.1933  -1
   2  -6   7 118.373 12.1933   2
  -1   6  11 237.280 15.0380  -1
   1  -6   7 237.280 15.0380   2
   0   6  11 36.4131 11.7897  -1
   0  -6   7 36.4131 11.7897   2
   1   6  11 659.103 32.9555  -1
  -1  -6   7 659.103 32.9555   2
   2   6  11 848.300 49.1335   2
   3   6  11 802.330 35.8520  -1
  -3  -6   6 802.330 35.8520   2
   4   6  11 253.026 26.1493  -1
  -4  -6   6 253.026 26.1493   2
   5   6  11 905.491 36.3687  -1
  -5  -6   6 905.491 36.3687   2
   6   6  11 798.520 29.8078  -1
  -6  -6   6 798.520 29.8078   2
  -1   7  11 569.538 18.4929  -1
   1  -7   6 569.538 18.4929   2
   0   7  11 287.071 14.5415  -1
   0  -7   6 287.071 14.5415   2
   1   7  11 241.076 15.3960  -1
  -1  -7   6 241.076 15.3960   2
   2   7  11 690.865 22.0058  -1
  -2  -7   6 690.865 22.0058   2
   3   7  11 446.531 18.2527  -1
  -3  -7   6 446.531 18.2527   2
   4   7  11 311.537 18.6382  -1
  -4  -7   6 311.537 18.6382   2
   1   8  11 245.256 16.0506  -1
  -1  -8   5 245.256 16.0506   2
   2   8  11 700.286 21.3358  -1
  -2  -8   5 700.286 21.3358   2
   3   8  11 28.7253 10.1360  -1
  -3  -8   5 28.7253 10.1360   2
   4   8  11 368.581 22.1271  -1
  -4  -8   5 368.581 22.1271   2
  -3  -5  12 9.27454 8.72488   2
  -2  -5  12 510.829 45.1100  -1
   2   5  16 510.829 45.1100   2
  -1  -5  12 387.032 29.6195  -1
   1   5  16 387.032 29.6195   2
   0  -5  12 101.547 19.0131   2
  -4  -4  12 444.708 28.1125  -1
   4   4  15 444.708 28.1125   2
  -3  -4  12 223.841 21.3430  -1
   3   4  15 223.841 21.3430   2
  -2  -4  12 308.720 20.3998  -1
   2   4  15 308.720 20.3998   2
  -1  -4  12 430.924 25.2753  -1
   1   4  15 430.924 25.2753   2
   0  -4  12 433.145 19.0761  -1
   0   4  15 433.145 19.0761   2
   1  -4  12 319.961 17.0378  -1
  -1   4  15 319.961 17.0378   2
   2  -4  12 277.100 18.2762  -1
  -2   4  15 277.100 18.2762   2
  -5  -3  12 403.390 28.0589   2
  -4  -3  12 276.503 27.8183   2
  -3  -3  12 668.828 31.4881  -1
   3   3  14 668.828 31.4881   2
  -2  -3  12 373.443 26.7369  -1
   2   3  14 373.443 26.7369   2
  -1  -3  12 522.451 24.7320  -1
   1   3  14 522.451 24.7320   2
   0  -3  12 666.111 23.2596  -1
   0   3  14 666.111 23.2596   2
   1  -3  12 244.203 16.0881  -1
  -1   3  14 244.203 16.0881   2
   2  -3  12 324.796 14.7668  -1
  -2   3  14 324.796 14.7668   2
   3  -3  12 253.970 16.3500  -1
  -3   3  14 253.970 16.3500   2
  -5  -2  12 424.110 27.0345  -1
   5   2  14 424.110 27.0345   2
  -4  -2  12 495.925 27.1571  -1
   4   2  14 495.925 27.1571   2
  -3  -2  12 688.129 30.0664  -1
   3   2  14 688.129 30.0664   2
  -2  -2  12 646.983 39.0848  -1
   2   2  14 646.983 39.0848   2
   0  -2  12 326.453 52.4328  -1
   0   2  13 326.453 52.4328   2
   1  -2  12 480.982 23.5163  -1
  -1   2  13 480.982 23.5163   2
   2  -2  12 299.376 16.7923  -1
  -2   2  13 299.376 16.7923   2
   3  -2  12 140.778 15.4859  -1
  -3   2  13 140.778 15.4859   2
   4  -2  12 165.253 16.3990  -1
  -4   2  13 165.253 16.3990   2
  -5  -1  12 384.782 20.2250  -1
   5   1  13 384.782 20.2250   2
  -4  -1  12 422.767 20.0405  -1
   4   1  13 422.767 20.0405   2
  -3  -1  12 628.884 30.1099  -1
   3   1  13 628.884 30.1099   2
  -2  -1  12 732.686 27.9820  -1
   2   1  13 732.686 27.9820   2
  -1  -1  12 498.900 23.8954  -1
   1   1  13 498.900 23.8954   2
   0  -1  12 401.319 22.2856  -1
   0   1  13 401.319 22.2856   2
   1  -1  12 613.124 27.7784  -1
  -1   1  13 613.124 27.7784   2
   2  -1  12 85.1986 17.7399  -1
  -2   1  13 85.1986 17.7399   2
   3  -1  12 1056.14 38.3677  -1
  -3   1  12 1056.14 38.3677   2
   4  -1  12 1157.58 41.9754  -1
  -4   1  12 1157.58 41.9754   2
   5  -1  12 76.8450 26.7657  -1
  -5   1  12 76.8450 26.7657   2
  -5   0  12 153.368 21.4018  -1
   5   0  12 153.368 21.4018   2
  -4   0  12 259.010 19.9545  -1
   4   0  12 259.010 19.9545   2
  -3   0  12 726.244 24.1423  -1
   3   0  12 726.244 24.1423   2
  -2   0  12 524.776 22.8773  -1
   2   0  12 524.776 22.8773   2
  -1   0  12 766.433 29.2505  -1
   1   0  12 766.433 29.2505   2
   0   0  12 2726.36 87.5890  -1
   0   0  12 2726.36 87.5890   2
   1   0  12 676.592 29.4386  -1
  -1   0  12 676.592 29.4386   2
   2   0  12 609.668 23.2334  -1
  -2   0  12 609.668 23.2334   2
   3   0  12 762.571 22.0832  -1
  -3   0  12 762.571 22.0832   2
   4   0  12 171.439 17.6503  -1
  -4   0  12 171.439 17.6503   2
   5   0  12 160.970 23.0459  -1
  -5   0  12 160.970 23.0459   2
   6   0  12 29.0471 27.3224   2
  -5   1  12 77.8055 17.4566  -1
   5  -1  12 77.8055 17.4566   2
  -4   1  12 1008.11 49.1273  -1
   4  -1  12 1008.11 49.1273   2
  -3   1  12 891.760 61.4802  -1
   3  -1  12 891.760 61.4802   2
  -2   1  12 213.786 25.3519  -1
   2  -1  11 213.786 25.3519   2
  -1   1  12 2126.52 64.5026  -1
   1  -1  11 2126.52 64.5026   2
   0   1  12 1980.17 49.8935  -1
   0  -1  11 1980.17 49.8935   2
   1   1  12 586.713 21.5466  -1
  -1  -1  11 586.713 21.5466   2
   2   1  12 626.605 26.7758  -1
  -2  -1  11 626.605 26.7758   2
   3   1  12 791.204 19.7818  -1
  -3  -1  11 791.204 19.7818   2
   4   1  12 268.543 13.3687  -1
  -4  -1  11 268.543 13.3687   2
   5   1  12 221.863 13.9829  -1
  -5  -1  11 221.863 13.9829   2
   6   1  12 105.033 18.6097  -1
  -6  -1  11 105.033 18.6097   2
  -5   2  12 157.681 13.8997  -1
   5  -2  11 157.681 13.8997   2
  -4   2  12 997.601 29.2619  -1
   4  -2  11 997.601 29.2619   2
  -3   2  12 418.967 18.9145  -1
   3  -2  11 418.967 18.9145   2
  -2   2  12 796.337 23.3371  -1
   2  -2  11 796.337 23.3371   2
  -1   2  12 652.336 32.1452  -1
   1  -2  11 652.336 32.1452   2
   0   2  12 852.700 37.2946  -1
   0  -2  11 852.700 37.2946   2
   1   2  12 146.716 19.0172  -1
  -1  -2  10 146.716 19.0172   2
   1   2  12 25.8025 130.648  -1
  -1  -2  11 25.8025 130.648   2
   2   2  12 131.219 11.1567  -1
  -2  -2  10 131.219 11.1567   2
   3   2  12 348.258 13.2724  -1
  -3  -2  10 348.258 13.2724   2
   4   2  12 136.931 10.4909  -1
  -4  -2  10 136.931 10.4909   2
   5   2  12 153.598 14.4770  -1
  -5  -2  10 153.598 14.4770   2
   6   2  12 219.969 17.0388  -1
  -6  -2  10 219.969 17.0388   2
  -4   3  12 355.943 18.4787  -1
   4  -3  10 355.943 18.4787   2
  -3   3  12 288.726 17.5003  -1
   3  -3  10 288.726 17.5003   2
  -2   3  12 118.987 11.2469  -1
   2  -3  10 118.987 11.2469   2
  -1   3  12 764.266 28.0538  -1
   1  -3  10 764.266 28.0538   2
   0   3  12 809.803 24.9806  -1
   0  -3  10 809.803 24.9806   2
   1   3  12 16.8689 10.4056  -1
  -1  -3  10 16.8689 10.4056   2
   2   3  12 332.251 12.6464  -1
  -2  -3  10 332.251 12.6464   2
   3   3  12 531.845 20.4498  -1
  -3  -3  10 531.845 20.4498   2
   6   3  12 708.627 42.5544  -1
  -6  -3   9 708.627 42.5544   2
  -4   4  12 622.708 44.1811  -1
   4  -4   9 622.708 44.1811   2
  -3   4  12 156.260 14.7326  -1
   3  -4   9 156.260 14.7326   2
  -2   4  12 333.619 16.5184  -1
   2  -4   9 333.619 16.5184   2
  -1   4  12 1984.83 52.6389  -1
   1  -4   9 1984.83 52.6389   2
   0   4  12 1226.34 29.4781  -1
   0  -4   9 1226.34 29.4781   2
   1   4  12 33.8513 8.24572  -1
  -1  -4   9 33.8513 8.24572   2
   2   4  12 1734.89 44.9898  -1
  -2  -4   9 1734.89 44.9898   2
   3   4  12 1603.16 39.4560  -1
  -3  -4   9 1603.16 39.4560   2
   4   4  12 44.4125 13.6119  -1
  -4  -4   9 44.4125 13.6119   2
   5   4  12 671.155 29.2841  -1
  -5  -4   9 671.155 29.2841   2
   6   4  12 524.692 37.4938  -1
  -6  -4   9 524.692 37.4938   2
  -3   5  12 1.71268 17.2010  -1
   3  -5   9 1.71268 17.2010   2
  -2   5  12 317.632 32.3195  -1
   2  -5   9 317.632 32.3195   2
  -1   5  12 1966.08 105.175  -1
   1  -5   8 1966.08 105.175   2
   0   5  12 504.036 23.1230  -1
   0  -5   8 504.036 23.1230   2
   1   5  12 281.417 16.3292  -1
  -1  -5   8 281.417 16.3292   2
   2   5  12 966.465 29.5016  -1
  -2  -5   8 966.465 29.5016   2
   3   5  12 773.982 25.4025  -1
  -3  -5   8 773.982 25.4025   2
   4   5  12 -8.3043 12.1737  -1
  -4  -5   8 -8.3043 12.1737   2
   5   5  12 410.326 19.2462  -1
  -5  -5   8 410.326 19.2462   2
   6   5  12 100.659 16.6464  -1
  -6  -5   8 100.659 16.6464   2
  -2   6  12 333.420 17.2738  -1
   2  -6   8 333.420 17.2738   2
  -1   6  12 641.028 26.7475  -1
   1  -6   8 641.028 26.7475   2
   0   6  12 136.014 14.9614  -1
   0  -6   8 136.014 14.9614   2
   1   6  12 620.505 34.1376  -1
  -1  -6   8 620.505 34.1376   2
   3   6  12 292.687 37.2068  -1
  -3  -6   7 292.687 37.2068   2
   4   6  12 182.144 17.4061  -1
  -4  -6   7 182.144 17.4061   2
   5   6  12 165.277 22.3743  -1
  -5  -6   7 165.277 22.3743   2
   6   6  12 305.067 23.3828  -1
  -6  -6   7 305.067 23.3828   2
  -1   7  12 193.701 16.1448  -1
   1  -7   7 193.701 16.1448   2
   0   7  12 -4.0797 9.71250  -1
   0  -7   7 -4.0797 9.71250   2
   1   7  12 190.462 17.6525  -1
  -1  -7   7 190.462 17.6525   2
   2   7  12 387.634 19.6250  -1
  -2  -7   7 387.634 19.6250   2
   3   7  12 134.530 17.4666  -1
  -3  -7   7 134.530 17.4666   2
   4   7  12 179.743 18.8176  -1
  -4  -7   7 179.743 18.8176   2
   2   8  12 1048.00 63.9769  -1
  -2  -8   6 1048.00 63.9769   2
  -3  -4  13 88.2803 21.9803  -1
   3   4  16 88.2803 21.9803   2
  -2  -4  13 -68.112 114.933  -1
   2   4  16 -68.112 114.933   2
  -1  -4  13 211.990 21.5428  -1
   1   4  16 211.990 21.5428   2
   0  -4  13 25.6791 14.4655  -1
   0   4  16 25.6791 14.4655   2
   1  -4  13 101.791 26.1018  -1
  -1   4  16 101.791 26.1018   2
  -4  -3  13 142.042 43.1674  -1
   4   3  15 142.042 43.1674   2
  -3  -3  13 156.079 24.8821  -1
   3   3  15 156.079 24.8821   2
  -2  -3  13 94.8745 21.5357  -1
   2   3  15 94.8745 21.5357   2
  -1  -3  13 467.368 25.7489  -1
   1   3  15 467.368 25.7489   2
   0  -3  13 671.340 24.5836  -1
   0   3  15 671.340 24.5836   2
   1  -3  13 -5.5877 13.0018  -1
  -1   3  15 -5.5877 13.0018   2
   2  -3  13 335.063 15.8985  -1
  -2   3  15 335.063 15.8985   2
   3  -3  13 569.314 31.1206  -1
  -3   3  15 569.314 31.1206   2
  -4  -2  13 76.7622 18.2907  -1
   4   2  15 76.7622 18.2907   2
  -3  -2  13 274.362 25.1867  -1
   3   2  15 274.362 25.1867   2
  -2  -2  13 32.8472 27.4753  -1
   2   2  15 32.8472 27.4753   2
   0  -2  13 613.712 50.8512  -1
   0   2  14 613.712 50.8512   2
   1  -2  13 124.597 20.3150  -1
  -1   2  14 124.597 20.3150   2
   2  -2  13 771.372 26.6597  -1
  -2   2  14 771.372 26.6597   2
   3  -2  13 166.103 17.1167  -1
  -3   2  14 166.103 17.1167   2
   4  -2  13 -14.815 31.5705  -1
  -4   2  14 -14.815 31.5705   2
  -5  -1  13 298.412 29.3614  -1
   5   1  14 298.412 29.3614   2
  -4  -1  13 342.463 19.7368  -1
   4   1  14 342.463 19.7368   2
  -3  -1  13 223.842 18.0240  -1
   3   1  14 223.842 18.0240   2
  -2  -1  13 174.145 17.7572  -1
   2   1  14 174.145 17.7572   2
  -1  -1  13 1018.05 34.5000  -1
   1   1  14 1018.05 34.5000   2
   0  -1  13 293.839 20.9783  -1
   0   1  14 293.839 20.9783   2
   1  -1  13 201.620 21.3896  -1
  -1   1  14 201.620 21.3896   2
   2  -1  13 789.633 32.8098  -1
  -2   1  14 789.633 32.8098   2
   3  -1  13 -11.054 24.2190  -1
  -3   1  13 -11.054 24.2190   2
   4  -1  13 84.0341 255.856  -1
  -4   1  14 84.0341 255.856   2
   4  -1  13 274.481 24.8796  -1
  -4   1  13 274.481 24.8796   2
  -5   0  13 208.911 21.4671  -1
   5   0  13 208.911 21.4671   2
  -4   0  13 291.034 24.0369  -1
   4   0  13 291.034 24.0369   2
  -3   0  13 160.311 15.9598  -1
   3   0  13 160.311 15.9598   2
  -2   0  13 73.7412 13.8858  -1
   2   0  13 73.7412 13.8858   2
  -1   0  13 13.6721 12.0384  -1
   1   0  13 13.6721 12.0384   2
   0   0  13 -11.765 12.0688  -1
   0   0  13 -11.765 12.0688   2
   1   0  13 48.0497 18.4937  -1
  -1   0  13 48.0497 18.4937   2
   2   0  13 60.0960 12.3223  -1
  -2   0  13 60.0960 12.3223   2
   3   0  13 201.907 19.0517  -1
  -3   0  13 201.907 19.0517   2
   4   0  13 309.498 17.9774  -1
  -4   0  13 309.498 17.9774   2
   5   0  13 191.467 25.0130  -1
  -5   0  13 191.467 25.0130   2
  -5   1  13 18.8091 10.8994   2
  -4   1  13 279.679 43.2663  -1
   4  -1  12 279.679 43.2663   2
  -4   1  13 305.008 52.1207  -1
   4  -1  13 305.008 52.1207   2
  -3   1  13 90.4732 119.159  -1
   3  -1  12 90.4732 119.159   2
  -3   1  13 -20.733 32.9417  -1
   3  -1  13 -20.733 32.9417   2
  -2   1  13 116.758 38.1823  -1
   2  -1  12 116.758 38.1823   2
  -1   1  13 777.299 39.1034  -1
   1  -1  12 777.299 39.1034   2
   0   1  13 628.451 27.4010  -1
   0  -1  12 628.451 27.4010   2
   1   1  13 473.239 22.3565  -1
  -1  -1  12 473.239 22.3565   2
   2   1  13 908.047 32.1026  -1
  -2  -1  12 908.047 32.1026   2
   3   1  13 671.731 24.2070  -1
  -3  -1  12 671.731 24.2070   2
   4   1  13 364.491 22.6515  -1
  -4  -1  12 364.491 22.6515   2
   5   1  13 366.724 20.8775  -1
  -5  -1  12 366.724 20.8775   2
  -4   2  13 80.9166 16.4035  -1
   4  -2  12 80.9166 16.4035   2
  -3   2  13 78.1158 15.4627  -1
   3  -2  12 78.1158 15.4627   2
  -2   2  13 319.429 16.0500  -1
   2  -2  12 319.429 16.0500   2
  -1   2  13 580.686 32.0821  -1
   1  -2  12 580.686 32.0821   2
   0   2  13 417.593 46.8387  -1
   0  -2  12 417.593 46.8387   2
   1   2  13 242.657 28.4661  -1
  -1  -2  11 242.657 28.4661   2
   1   2  13 461.874 42.7233  -1
  -1  -2  12 461.874 42.7233   2
   2   2  13 1128.29 34.5472  -1
  -2  -2  11 1128.29 34.5472   2
   2   2  13 703.820 174.039  -1
  -2  -2  12 703.820 174.039   2
   3   2  13 272.339 15.1759  -1
  -3  -2  11 272.339 15.1759   2
   4   2  13 169.723 14.7928  -1
  -4  -2  11 169.723 14.7928   2
   5   2  13 487.599 18.2441  -1
  -5  -2  11 487.599 18.2441   2
   6   2  13 43.2629 21.5372  -1
  -6  -2  11 43.2629 21.5372   2
  -4   3  13 283.412 18.6063  -1
   4  -3  11 283.412 18.6063   2
  -3   3  13 33.9735 10.5209  -1
   3  -3  11 33.9735 10.5209   2
  -2   3  13 197.621 19.0638  -1
   2  -3  11 197.621 19.0638   2
  -1   3  13 859.974 37.8185  -1
   1  -3  11 859.974 37.8185   2
   0   3  13 78.2378 13.2539  -1
   0  -3  11 78.2378 13.2539   2
   1   3  13 469.075 17.5017  -1
  -1  -3  11 469.075 17.5017   2
   2   3  13 898.642 23.0694  -1
  -2  -3  11 898.642 23.0694   2
   3   3  13 150.693 15.2588  -1
  -3  -3  11 150.693 15.2588   2
   6   3  13 211.793 33.1826  -1
  -6  -3  10 211.793 33.1826   2
  -3   4  13 110.149 18.1102  -1
   3  -4  10 110.149 18.1102   2
  -2   4  13 84.5557 13.4617  -1
   2  -4  10 84.5557 13.4617   2
  -1   4  13 296.499 16.9807  -1
   1  -4  10 296.499 16.9807   2
   0   4  13 28.6515 12.0066  -1
   0  -4  10 28.6515 12.0066   2
   1   4  13 191.016 10.7363  -1
  -1  -4  10 191.016 10.7363   2
   2   4  13 75.8147 7.91780  -1
  -2  -4  10 75.8147 7.91780   2
   3   4  13 234.744 12.1227  -1
  -3  -4  10 234.744 12.1227   2
   4   4  13 24.5311 14.0774  -1
  -4  -4  10 24.5311 14.0774   2
   5   4  13 92.1614 17.4271  -1
  -5  -4  10 92.1614 17.4271   2
   6   4  13 199.491 31.5722  -1
  -6  -4  10 199.491 31.5722   2
  -3   5  13 127.001 93.7732   2
  -2   5  13 102.743 34.5115  -1
   2  -5  10 102.743 34.5115   2
  -1   5  13 634.907 50.2597  -1
   1  -5   9 634.907 50.2597   2
   0   5  13 -57.780 139.042  -1
   0  -5   9 -57.780 139.042   2
   1   5  13 292.176 17.4433  -1
  -1  -5   9 292.176 17.4433   2
   2   5  13 503.993 19.1068  -1
  -2  -5   9 503.993 19.1068   2
   3   5  13 384.760 14.8579  -1
  -3  -5   9 384.760 14.8579   2
   4   5  13 103.303 14.0739  -1
  -4  -5   9 103.303 14.0739   2
   5   5  13 563.319 30.3525  -1
  -5  -5   9 563.319 30.3525   2
  -1   6  13 326.163 23.2534  -1
   1  -6   9 326.163 23.2534   2
   0   6  13 -17.144 18.2426  -1
   0  -6   9 -17.144 18.2426   2
   1   6  13 487.995 32.9506  -1
  -1  -6   9 487.995 32.9506   2
   3   6  13 96.8988 39.8250  -1
  -3  -6   8 96.8988 39.8250   2
   4   6  13 77.9592 17.6944  -1
  -4  -6   8 77.9592 17.6944   2
   5   6  13 280.970 21.3451  -1
  -5  -6   8 280.970 21.3451   2
   0   7  13 49.3077 13.6467  -1
   0  -7   8 49.3077 13.6467   2
   1   7  13 382.094 19.4949  -1
  -1  -7   8 382.094 19.4949   2
   2   7  13 235.473 18.3297  -1
  -2  -7   8 235.473 18.3297   2
   3   7  13 92.9405 21.4868  -1
  -3  -7   8 92.9405 21.4868   2
   4   7  13 52.4973 17.0061   2
  -3  -3  14 -0.6104 22.4264  -1
   3   3  16 -0.6104 22.4264   2
  -2  -3  14 265.137 34.4769  -1
   2   3  16 265.137 34.4769   2
  -1  -3  14 478.517 25.9006  -1
   1   3  16 478.517 25.9006   2
   0  -3  14 207.076 22.2797  -1
   0   3  16 207.076 22.2797   2
   1  -3  14 26.0205 110.811  -1
  -1   3  16 26.0205 110.811   2
  -4  -2  14 153.230 12.3341   2
  -3  -2  14 136.342 25.5024  -1
   3   2  16 136.342 25.5024   2
  -2  -2  14 256.212 42.3092  -1
   2   2  16 256.212 42.3092   2
  -1  -2  14 468.177 62.4456  -1
   1   2  16 468.177 62.4456   2
   0  -2  14 664.315 57.1909  -1
   0   2  15 664.315 57.1909   2
   1  -2  14 394.079 28.5419  -1
  -1   2  15 394.079 28.5419   2
   2  -2  14 1272.92 44.9635  -1
  -2   2  15 1272.92 44.9635   2
   3  -2  14 455.665 32.6437  -1
  -3   2  15 455.665 32.6437   2
  -4  -1  14 148.923 16.3003  -1
   4   1  15 148.923 16.3003   2
  -3  -1  14 79.7871 19.6972  -1
   3   1  15 79.7871 19.6972   2
  -2  -1  14 536.784 26.0695  -1
   2   1  15 536.784 26.0695   2
  -1  -1  14 789.807 31.0946  -1
   1   1  15 789.807 31.0946   2
   0  -1  14 122.270 17.4506  -1
   0   1  15 122.270 17.4506   2
   1  -1  14 656.838 31.7673  -1
  -1   1  15 656.838 31.7673   2
   2  -1  14 871.713 31.3773  -1
  -2   1  15 871.713 31.3773   2
   3  -1  14 55.4129 29.2972  -1
  -3   1  14 55.4129 29.2972   2
   4  -1  14 214.050 29.1950  -1
  -4   1  14 214.050 29.1950   2
  -4   0  14 727.615 33.5760  -1
   4   0  14 727.615 33.5760   2
  -3   0  14 120.692 20.1655  -1
   3   0  14 120.692 20.1655   2
  -2   0  14 983.916 28.5454  -1
   2   0  14 983.916 28.5454   2
  -1   0  14 959.066 38.7589  -1
   1   0  14 959.066 38.7589   2
   0   0  14 358.714 28.6354  -1
   0   0  14 358.714 28.6354   2
   1   0  14 1019.45 45.1279  -1
  -1   0  14 1019.45 45.1279   2
   2   0  14 912.744 28.5975  -1
  -2   0  14 912.744 28.5975   2
   3   0  14 151.338 16.9838  -1
  -3   0  14 151.338 16.9838   2
   4   0  14 764.620 26.1081  -1
  -4   0  14 764.620 26.1081   2
  -4   1  14 296.080 31.6194  -1
   4  -1  14 296.080 31.6194   2
  -1   1  14 251.148 21.6969  -1
   1  -1  13 251.148 21.6969   2
   0   1  14 289.394 19.6460  -1
   0  -1  13 289.394 19.6460   2
   1   1  14 866.220 35.0221  -1
  -1  -1  13 866.220 35.0221   2
   2   1  14 77.2360 22.3092  -1
  -2  -1  13 77.2360 22.3092   2
   3   1  14 228.718 16.6775  -1
  -3  -1  13 228.718 16.6775   2
   4   1  14 267.505 18.8436  -1
  -4  -1  13 267.505 18.8436   2
   5   1  14 230.170 25.6936  -1
  -5  -1  13 230.170 25.6936   2
  -4   2  14 18.5892 19.3342  -1
   4  -2  13 18.5892 19.3342   2
  -3   2  14 106.043 17.6355  -1
   3  -2  13 106.043 17.6355   2
  -2   2  14 844.008 26.7451  -1
   2  -2  13 844.008 26.7451   2
  -1   2  14 119.849 21.1168  -1
   1  -2  13 119.849 21.1168   2
   1   2  14 1255.14 71.3605   2
   1   2  14 1162.33 69.5009  -1
  -1  -2  12 1162.33 69.5009   2
   2   2  14 765.494 23.8506  -1
  -2  -2  12 765.494 23.8506   2
   2   2  14 43.0974 192.416  -1
  -2  -2  13 43.0974 192.416   2
   3   2  14 811.468 24.5315  -1
  -3  -2  12 811.468 24.5315   2
   4   2  14 426.413 16.9431  -1
  -4  -2  12 426.413 16.9431   2
   5   2  14 573.902 21.7396  -1
  -5  -2  12 573.902 21.7396   2
  -3   3  14 239.747 16.8816  -1
   3  -3  12 239.747 16.8816   2
  -2   3  14 311.034 15.3140  -1
   2  -3  12 311.034 15.3140   2
  -1   3  14 283.316 19.1465  -1
   1  -3  12 283.316 19.1465   2
   0   3  14 579.796 23.7304  -1
   0  -3  12 579.796 23.7304   2
   1   3  14 431.502 20.4456  -1
  -1  -3  12 431.502 20.4456   2
   2   3  14 568.022 18.5432  -1
  -2  -3  12 568.022 18.5432   2
   3   3  14 556.517 18.4883  -1
  -3  -3  12 556.517 18.4883   2
  -3   4  14 115.824 19.7813  -1
   3  -4  11 115.824 19.7813   2
  -2   4  14 566.519 29.1657  -1
   2  -4  11 566.519 29.1657   2
  -1   4  14 937.168 35.0006  -1
   1  -4  11 937.168 35.0006   2
   0   4  14 368.173 22.9513  -1
   0  -4  11 368.173 22.9513   2
   1   4  14 578.497 20.2718  -1
  -1  -4  11 578.497 20.2718   2
   2   4  14 200.615 10.8877  -1
  -2  -4  11 200.615 10.8877   2
   3   4  14 986.247 26.9713  -1
  -3  -4  11 986.247 26.9713   2
   4   4  14 786.751 27.9117  -1
  -4  -4  11 786.751 27.9117   2
   5   4  14 205.443 21.3302  -1
  -5  -4  11 205.443 21.3302   2
  -2   5  14 51.3294 31.4923   2
  -2   5  14 116.069 42.9480  -1
   2  -5  10 116.069 42.9480   2
   0   5  14 552.107 33.0275  -1
   0  -5  10 552.107 33.0275   2
   1   5  14 105.621 15.3420  -1
  -1  -5  10 105.621 15.3420   2
   2   5  14 301.282 14.6534  -1
  -2  -5  10 301.282 14.6534   2
   3   5  14 761.325 27.5849  -1
  -3  -5  10 761.325 27.5849   2
   4   5  14 331.822 19.5000  -1
  -4  -5  10 331.822 19.5000   2
   5   5  14 223.332 17.4165  -1
  -5  -5  10 223.332 17.4165   2
  -1   6  14 155.695 13.2190   2
   0   6  14 205.406 22.1121  -1
   0  -6  10 205.406 22.1121   2
   1   6  14 5.77095 25.5639  -1
  -1  -6  10 5.77095 25.5639   2
   3   6  14 760.418 60.7942  -1
  -3  -6   9 760.418 60.7942   2
   4   6  14 145.864 20.1911  -1
  -4  -6   9 145.864 20.1911   2
   2   7  14 387.195 134.226   2
  -2  -2  15 912.692 50.1350  -1
   2   2  17 912.692 50.1350   2
  -1  -2  15 1201.93 86.0312  -1
   1   2  17 1201.93 86.0312   2
   0  -2  15 147.661 57.8882  -1
   0   2  16 147.661 57.8882   2
   1  -2  15 235.613 25.4121  -1
  -1   2  16 235.613 25.4121   2
   2  -2  15 329.809 29.6932  -1
  -2   2  16 329.809 29.6932   2
  -3  -1  15 205.000 37.5035  -1
   3   1  16 205.000 37.5035   2
  -2  -1  15 597.366 29.0224  -1
   2   1  16 597.366 29.0224   2
  -1  -1  15 219.089 23.8554  -1
   1   1  16 219.089 23.8554   2
   0  -1  15 13.1272 19.5415  -1
   0   1  16 13.1272 19.5415   2
   1  -1  15 271.771 19.4138  -1
  -1   1  16 271.771 19.4138   2
   2  -1  15 308.016 22.6535  -1
  -2   1  16 308.016 22.6535   2
   3  -1  15 237.864 34.2324  -1
  -3   1  15 237.864 34.2324   2
  -3   0  15 66.1243 19.5365  -1
   3   0  15 66.1243 19.5365   2
  -2   0  15 399.345 23.1955  -1
   2   0  15 399.345 23.1955   2
  -1   0  15 642.435 36.2711  -1
   1   0  15 642.435 36.2711   2
   0   0  15 177.338 15.3746  -1
   0   0  15 177.338 15.3746   2
   1   0  15 511.401 29.2159  -1
  -1   0  15 511.401 29.2159   2
   2   0  15 548.308 23.8402  -1
  -2   0  15 548.308 23.8402   2
   3   0  15 100.016 18.0804  -1
  -3   0  15 100.016 18.0804   2
   4   0  15 154.547 28.8598   2
  -1   1  15 664.979 32.9164  -1
   1  -1  14 664.979 32.9164   2
   0   1  15 55.7910 20.4546  -1
   0  -1  14 55.7910 20.4546   2
   1   1  15 1034.63 37.3726  -1
  -1  -1  14 1034.63 37.3726   2
   2   1  15 655.024 35.8650  -1
  -2  -1  14 655.024 35.8650   2
   3   1  15 73.2371 11.6239  -1
  -3  -1  14 73.2371 11.6239   2
   4   1  15 132.707 14.0390  -1
  -4  -1  14 132.707 14.0390   2
  -3   2  15 406.954 23.7196  -1
   3  -2  14 406.954 23.7196   2
  -2   2  15 1272.80 40.2965  -1
   2  -2  14 1272.80 40.2965   2
  -1   2  15 348.895 22.7051  -1
   1  -2  14 348.895 22.7051   2
   1   2  15 554.452 41.2255   2
   1   2  15 494.365 42.4396  -1
  -1  -2  13 494.365 42.4396   2
   2   2  15 8.22221 18.4370  -1
  -2  -2  13 8.22221 18.4370   2
   3   2  15 200.581 15.9462  -1
  -3  -2  13 200.581 15.9462   2
   4   2  15 18.3841 13.2573  -1
  -4  -2  13 18.3841 13.2573   2
  -3   3  15 635.741 29.4515  -1
   3  -3  13 635.741 29.4515   2
  -2   3  15 312.763 18.9159  -1
   2  -3  13 312.763 18.9159   2
  -1   3  15 13.6058 15.5644  -1
   1  -3  13 13.6058 15.5644   2
   0   3  15 601.087 26.0309  -1
   0  -3  13 601.087 26.0309   2
   1   3  15 348.204 21.3747  -1
  -1  -3  13 348.204 21.3747   2
   2   3  15 100.982 13.3632  -1
  -2  -3  13 100.982 13.3632   2
   3   3  15 101.320 13.5752  -1
  -3  -3  13 101.320 13.5752   2
   4   3  15 -223.00 247.893  -1
  -4  -3  13 -223.00 247.893   2
  -2   4  15 305.147 21.1627  -1
   2  -4  12 305.147 21.1627   2
  -1   4  15 323.312 23.7035  -1
   1  -4  12 323.312 23.7035   2
   0   4  15 353.262 23.8505  -1
   0  -4  12 353.262 23.8505   2
   1   4  15 436.163 18.0975  -1
  -1  -4  12 436.163 18.0975   2
   2   4  15 250.251 16.0350  -1
  -2  -4  12 250.251 16.0350   2
   3   4  15 208.997 13.7877  -1
  -3  -4  12 208.997 13.7877   2
   4   4  15 442.141 22.9490  -1
  -4  -4  12 442.141 22.9490   2
   0   5  15 220.648 28.1195  -1
   0  -5  11 220.648 28.1195   2
   1   5  15 932.246 32.2300  -1
  -1  -5  11 932.246 32.2300   2
   2   5  15 275.910 15.9690  -1
  -2  -5  11 275.910 15.9690   2
   3   5  15 103.568 12.9800  -1
  -3  -5  11 103.568 12.9800   2
   4   5  15 540.995 28.6014  -1
  -4  -5  11 540.995 28.6014   2
   1   6  15 5.37507 33.9344   2
   2   6  15 143.050 48.0822  -1
  -2  -6  10 143.050 48.0822   2
   3   6  15 149.160 44.8816  -1
  -3  -6  10 149.160 44.8816   2
  -2  -1  16 -34.472 123.388   2
  -1  -1  16 131.675 25.8173  -1
   1   1  17 131.675 25.8173   2
   0  -1  16 166.272 22.3335  -1
   0   1  17 166.272 22.3335   2
  -2   0  16 222.743 29.7768  -1
   2   0  16 222.743 29.7768   2
  -1   0  16 122.474 18.2725  -1
   1   0  16 122.474 18.2725   2
   0   0  16 198.421 22.5443  -1
   0   0  16 198.421 22.5443   2
   1   0  16 38.8001 21.4026  -1
  -1   0  16 38.8001 21.4026   2
   2   0  16 324.323 20.7711  -1
  -2   0  16 324.323 20.7711   2
  -1   1  16 277.007 26.5317  -1
   1  -1  15 277.007 26.5317   2
   0   1  16 65.3852 19.8093  -1
   0  -1  15 65.3852 19.8093   2
   1   1  16 409.041 27.6982  -1
  -1  -1  15 409.041 27.6982   2
   2   1  16 673.895 31.5167  -1
  -2  -1  15 673.895 31.5167   2
   3   1  16 58.3498 12.9024  -1
  -3  -1  15 58.3498 12.9024   2
  -2   2  16 445.965 51.6970  -1
   2  -2  15 445.965 51.6970   2
  -1   2  16 190.717 20.7854  -1
   1  -2  15 190.717 20.7854   2
   0   2  16 105.536 47.8390  -1
   0  -2  15 105.536 47.8390   2
   1   2  16 646.782 63.4677  -1
  -1  -2  14 646.782 63.4677   2
   2   2  16 283.554 24.3261  -1
  -2  -2  14 283.554 24.3261   2
   3   2  16 -10.031 16.4052  -1
  -3  -2  14 -10.031 16.4052   2
  -2   3  16 209.058 41.9424   2
  -1   3  16 -23.216 172.070  -1
   1  -3  14 -23.216 172.070   2
   0   3  16 252.131 22.5715  -1
   0  -3  14 252.131 22.5715   2
   1   3  16 487.886 24.3449  -1
  -1  -3  14 487.886 24.3449   2
   2   3  16 161.961 17.0959  -1
  -2  -3  14 161.961 17.0959   2
   3   3  16 4.81756 15.4279  -1
  -3  -3  14 4.81756 15.4279   2
  -1   4  16 59.8928 21.4502  -1
   1  -4  13 59.8928 21.4502   2
   0   4  16 32.5783 17.1167  -1
   0  -4  13 32.5783 17.1167   2
   1   4  16 186.584 14.7779  -1
  -1  -4  13 186.584 14.7779   2
   2   4  16 78.8076 12.6938  -1
  -2  -4  13 78.8076 12.6938   2
   3   4  16 135.478 14.3943  -1
  -3  -4  13 135.478 14.3943   2
   1   5  16 377.398 30.2238  -1
  -1  -5  12 377.398 30.2238   2
   2   5  16 229.970 20.2401  -1
  -2  -5  12 229.970 20.2401   2
   0   1  17 156.143 22.9408  -1
   0  -1  16 156.143 22.9408   2
   1   1  17 235.925 18.1279  -1
  -1  -1  16 235.925 18.1279   2
   0   2  17 67.2151 23.8179   2
   1   2  17 907.145 65.2516  -1
  -1  -2  15 907.145 65.2516   2
   2   2  17 946.944 39.2142  -1
  -2  -2  15 946.944 39.2142   2
   0   3  17 37.1349 14.3414   2
   1   3  17 850.159 38.9785   2
   2   3  17 563.463 60.8265   2
   0   0   0    0.00    0.00   0
;
_shelx_hkl_checksum              17874
loop_
_space_group_symop_operation_xyz
x,y,z
-x,-y,-z
loop_
_atom_site_label
_atom_site_type_symbol
_atom_site_fract_x
_atom_site_fract_y
_atom_site_fract_z
_atom_site_U_iso_or_equiv
_atom_site_adp_type
_atom_site_occupancy
_atom_site_site_symmetry_order
_atom_site_calc_flag
_atom_site_refinement_flags_posn
_atom_site_refinement_flags_adp
Mn1 Mn 0.63327(13) 0.55373(11) 0.27611(6) 0.0113(2) Uani 1 1 d . .
Br1 Br 0.32992(9) 0.45713(8) 0.37446(4) 0.01555(15) Uani 1 1 d . .
C1 C 0.8468(9) 0.6100(9) 0.2012(4) 0.0170(11) Uani 1 1 d . .
O2 O 0.9840(7) 0.6375(7) 0.1483(4) 0.0285(11) Uani 1 1 d . .
C3 C 0.8058(9) 0.3557(8) 0.3627(4) 0.0149(11) Uani 1 1 d . .
O4 O 0.9149(7) 0.2273(6) 0.4163(3) 0.0225(9) Uani 1 1 d . .
C5 C 0.6319(9) 0.3871(9) 0.1931(5) 0.0179(12) Uani 1 1 d . .
O6 O 0.6356(8) 0.2807(7) 0.1394(4) 0.0297(11) Uani 1 1 d . .
N11 N 0.4265(8) 0.7947(7) 0.1942(4) 0.0129(9) Uani 1 1 d . .
C12 C 0.3752(9) 0.8189(8) 0.0949(4) 0.0155(11) Uani 1 1 d . .
H12 H 0.432016 0.713203 0.059772 0.019 Uiso 1 1 calc R U
C13 C 0.2443(9) 0.9899(9) 0.0426(4) 0.0185(12) Uani 1 1 d . .
H13 H 0.208920 1.000519 -0.026355 0.022 Uiso 1 1 calc R U
C14 C 0.1660(10) 1.1455(9) 0.0932(5) 0.0208(13) Uani 1 1 d . .
H14 H 0.078552 1.266014 0.058583 0.025 Uiso 1 1 calc R U
C15 C 0.2161(9) 1.1242(9) 0.1951(5) 0.0195(12) Uani 1 1 d . .
H15 H 0.163449 1.229306 0.230994 0.023 Uiso 1 1 calc R U
C16 C 0.3444(9) 0.9464(8) 0.2431(4) 0.0137(11) Uani 1 1 d . .
C17 C 0.3973(9) 0.9059(8) 0.3554(4) 0.0176(12) Uani 1 1 d . .
H17A H 0.403568 1.027822 0.375244 0.021 Uiso 1 1 calc R U
H17B H 0.288608 0.859518 0.398004 0.021 Uiso 1 1 calc R U
N18 N 0.6016(7) 0.7538(6) 0.3732(4) 0.0152(9) Uani 1 1 d . .
H18 H 0.605(11) 0.674(10) 0.449(6) 0.018 Uiso 1 1 d . U
C19 C 0.7701(10) 0.8464(9) 0.3688(5) 0.0236(12) Uani 1 1 d . .
H19A H 0.775724 0.926782 0.300616 0.035 Uiso 1 1 calc R U
H19B H 0.902507 0.744508 0.382140 0.035 Uiso 1 1 calc R U
H19C H 0.743915 0.929192 0.420575 0.035 Uiso 1 1 calc R U
loop_
_atom_site_aniso_label
_atom_site_aniso_U_11
_atom_site_aniso_U_22
_atom_site_aniso_U_33
_atom_site_aniso_U_23
_atom_site_aniso_U_13
_atom_site_aniso_U_12
Mn1 0.0119(4) 0.0097(4) 0.0128(4) -0.0012(3) -0.0024(3) -0.0036(3)
Br1 0.0161(3) 0.0178(3) 0.0147(2) -0.0017(2) -0.0010(2) -0.0085(2)
C1 0.018(3) 0.015(3) 0.018(3) -0.002(2) -0.008(2) -0.005(2)
O2 0.022(2) 0.037(3) 0.026(2) 0.006(2) 0.0023(19) -0.015(2)
C3 0.016(3) 0.016(3) 0.016(3) -0.007(2) 0.006(2) -0.009(2)
O4 0.021(2) 0.020(2) 0.025(2) 0.0029(17) -0.0060(17) -0.0065(19)
C5 0.012(3) 0.019(3) 0.020(3) -0.001(2) 0.001(2) -0.003(2)
O6 0.037(3) 0.027(2) 0.032(3) -0.019(2) 0.001(2) -0.011(2)
N11 0.015(2) 0.010(2) 0.014(2) -0.0023(17) 0.0000(17) -0.0039(19)
C12 0.016(3) 0.016(3) 0.015(3) -0.004(2) 0.000(2) -0.006(2)
C13 0.016(3) 0.023(3) 0.016(3) 0.000(2) -0.002(2) -0.007(3)
C14 0.019(3) 0.015(3) 0.022(3) 0.005(2) -0.009(2) 0.000(2)
C15 0.016(3) 0.016(3) 0.024(3) -0.006(2) -0.001(2) 0.001(2)
C16 0.013(3) 0.012(3) 0.015(3) 0.0000(19) 0.0000(19) -0.004(2)
C17 0.018(3) 0.015(3) 0.018(3) -0.007(2) -0.004(2) 0.001(2)
N18 0.020(2) 0.012(2) 0.014(2) -0.0029(19) -0.0040(19) -0.0058(19)
C19 0.027(3) 0.024(3) 0.026(3) -0.006(3) -0.002(3) -0.016(3)
loop_
_atom_type_symbol
_atom_type_description
_atom_type_scat_dispersion_real
_atom_type_scat_dispersion_imag
_atom_type_scat_source
C C 0.0033 0.0016 'International Tables Vol C Tables 4.2.6.8 and 6.1.1.4'
H H 0.0000 0.0000 'International Tables Vol C Tables 4.2.6.8 and 6.1.1.4'
O O 0.0106 0.0060 'International Tables Vol C Tables 4.2.6.8 and 6.1.1.4'
N N 0.0061 0.0033 'International Tables Vol C Tables 4.2.6.8 and 6.1.1.4'
Br Br -0.2901 2.4595 'International Tables Vol C Tables 4.2.6.8 and 6.1.1.4'
Mn Mn 0.3368 0.7283 'International Tables Vol C Tables 4.2.6.8 and 6.1.1.4'
loop_
_geom_angle_atom_site_label_1
_geom_angle_atom_site_label_2
_geom_angle_atom_site_label_3
_geom_angle
C1 Mn1 C5 88.1(3)
C1 Mn1 C3 91.9(2)
C5 Mn1 C3 90.3(3)
C1 Mn1 N11 91.4(2)
C5 Mn1 N11 96.4(2)
C3 Mn1 N11 172.6(2)
C1 Mn1 N18 96.6(2)
C5 Mn1 N18 174.1(2)
C3 Mn1 N18 93.0(2)
N11 Mn1 N18 80.09(19)
C1 Mn1 Br1 175.98(19)
C5 Mn1 Br1 87.87(19)
C3 Mn1 Br1 88.11(17)
N11 Mn1 Br1 89.07(13)
N18 Mn1 Br1 87.37(13)
O2 C1 Mn1 175.2(5)
O4 C3 Mn1 178.5(5)
O6 C5 Mn1 178.5(5)
C16 N11 C12 117.7(5)
C16 N11 Mn1 116.0(4)
C12 N11 Mn1 126.2(4)
N11 C12 C13 123.1(5)
N11 C12 H12 118.4
C13 C12 H12 118.4
C12 C13 C14 118.3(6)
C12 C13 H13 120.8
C14 C13 H13 120.8
C13 C14 C15 119.7(5)
C13 C14 H14 120.2
C15 C14 H14 120.2
C16 C15 C14 118.6(6)
C16 C15 H15 120.7
C14 C15 H15 120.7
N11 C16 C15 122.6(5)
N11 C16 C17 115.1(5)
C15 C16 C17 122.3(5)
N18 C17 C16 109.5(5)
N18 C17 H17A 109.8
C16 C17 H17A 109.8
N18 C17 H17B 109.8
C16 C17 H17B 109.8
H17A C17 H17B 108.2
C19 N18 C17 110.6(4)
C19 N18 Mn1 116.7(4)
C17 N18 Mn1 109.1(3)
C19 N18 H18 104(4)
C17 N18 H18 109(4)
Mn1 N18 H18 107(4)
N18 C19 H19A 109.5
N18 C19 H19B 109.5
H19A C19 H19B 109.5
N18 C19 H19C 109.5
H19A C19 H19C 109.5
H19B C19 H19C 109.5
loop_
_geom_bond_atom_site_label_1
_geom_bond_atom_site_label_2
_geom_bond_distance
Mn1 C1 1.791(6)
Mn1 C5 1.804(6)
Mn1 C3 1.819(6)
Mn1 N11 2.056(5)
Mn1 N18 2.094(5)
Mn1 Br1 2.5449(11)
C1 O2 1.161(8)
C3 O4 1.153(7)
C5 O6 1.151(8)
N11 C16 1.351(7)
N11 C12 1.359(7)
C12 C13 1.382(8)
C12 H12 0.9500
C13 C14 1.386(9)
C13 H13 0.9500
C14 C15 1.394(8)
C14 H14 0.9500
C15 C16 1.386(8)
C15 H15 0.9500
C16 C17 1.517(8)
C17 N18 1.493(7)
C17 H17A 0.9900
C17 H17B 0.9900
N18 C19 1.478(7)
N18 H18 1.05(7)
C19 H19A 0.9800
C19 H19B 0.9800
C19 H19C 0.9800
loop_
_geom_torsion_atom_site_label_1
_geom_torsion_atom_site_label_2
_geom_torsion_atom_site_label_3
_geom_torsion_atom_site_label_4
_geom_torsion
C16 N11 C12 C13 0.0(8)
Mn1 N11 C12 C13 -175.9(4)
N11 C12 C13 C14 1.7(9)
C12 C13 C14 C15 -1.7(9)
C13 C14 C15 C16 0.1(9)
C12 N11 C16 C15 -1.6(8)
Mn1 N11 C16 C15 174.7(4)
C12 N11 C16 C17 176.5(5)
Mn1 N11 C16 C17 -7.2(6)
C14 C15 C16 N11 1.6(9)
C14 C15 C16 C17 -176.4(6)
N11 C16 C17 N18 28.1(7)
C15 C16 C17 N18 -153.8(5)
C16 C17 N18 C19 95.0(6)
C16 C17 N18 Mn1 -34.6(5)
